Infrared Spectrum: Nicotinyl Alcohol
Formula: C 6 H 7 N O
CAS: 100-55-0
Origin: Sadtler Research Labs Under US-EPA Contract
1/CM	ABSORBANCE
450	0.00010868
462	0.00309738
474	0.0086944
486	0.00673816
498	0.00494494
510	0.00956384
522	0.00467324
534	0.00711854
546	0.0120091
558	0.00695552
570	0.00858572
582	0.0153239
594	0.0330387
606	0.0434177
618	0.0524924
630	0.0633061
642	0.0534706
654	0.0171714
666	0.0150522
678	0.0185299
690	0.0835749
702	0.192201
714	0.277949
726	0.14036
738	0.0513513
750	0.0311912
762	0.0553181
774	0.12145
786	0.195244
798	0.155467
810	0.0998226
822	0.0727613
834	0.046352
846	0.0230402
858	0.0124982
870	0.0095095
882	0.0097812
894	0.010868
906	0.0191277
918	0.0354297
930	0.0523838
942	0.0705877
954	0.0812926
966	0.0917803
978	0.120689
990	0.177963
1002	0.314683
1014	0.520197
1026	0.537531
1038	0.416679
1050	0.303435
1062	0.171551
1074	0.11444
1086	0.0911282
1098	0.0802602
1110	0.0691748
1122	0.0710224
1134	0.0661318
1146	0.0579264
1158	0.0655884
1170	0.0768911
1182	0.092378
1194	0.0996596
1206	0.103246
1218	0.115201
1230	0.0964535
1242	0.0579808
1254	0.054177
1266	0.049232
1278	0.0432003
1290	0.046026
1302	0.0633604
1314	0.111451
1326	0.151609
1338	0.156282
1350	0.133785
1362	0.127971
1374	0.170193
1386	0.187527
1398	0.181659
1410	0.200841
1422	0.254311
1434	0.221218
1446	0.0850421
1458	0.0495581
1470	0.0966165
1482	0.109278
1494	0.0348863
1506	0.00891176
1518	0.00364078
1530	0.00635778
1542	0.0128786
1554	0.0398312
1566	0.0990618
1578	0.156717
1590	0.148076
1602	0.0636865
1614	0.0185843
1626	0.0115744
1638	0.0100529
1650	0.00825968
1662	0.0038038
1674	0.00266266
1686	0.00472758
1698	0.00374946
1710	0.0073359
1722	0.0144001
1734	0.0143458
1746	0.00630344
1758	0.00478192
1770	0.0070642
1782	0.00423852
1794	0.0024453
1806	0.00347776
1818	0.00293436
1830	0.00342342
1842	0.00532532
1854	0.00603174
1866	0.0078793
1878	0.0104333
1890	0.0154869
1902	0.0224424
1914	0.0210839
1926	0.0138567
1938	0.00836836
1950	0.00858572
1962	0.00891176
1974	0.00559702
1986	0.00347776
1998	0.00342342
2010	0.0046189
2022	0.00614042
2034	0.00603174
2046	0.00592306
2058	0.0057057
2070	0.00445588
2082	0.00347776
2094	0.00222794
2106	0.00152152
2118	0.00103246
2130	0.0005434
2142	0.00070642
2154	0.00048906
2166	0.00076076
2178	0.00059774
2190	0.00097812
2202	0.00146718
2214	0.00233662
2226	0.00315172
2238	0.00385814
2250	0.00429286
2262	0.00402116
2274	0.00342342
2286	0.00581438
2298	0.00967252
2310	0.0140197
2322	0.0115201
2334	0.00717288
2346	0.00641212
2358	0.0109767
2370	0.00483626
2382	0.008151
2394	0.00478192
2406	0.0038038
2418	0.0040755
2430	0.00347776
2442	0.0035321
2454	0.00402116
2466	0.00445588
2478	0.00423852
2490	0.00456456
2502	0.00445588
2514	0.00412984
2526	0.00369512
2538	0.0035321
2550	0.00309738
2562	0.0038038
2574	0.00369512
2586	0.00423852
2598	0.00494494
2610	0.00581438
2622	0.00548834
2634	0.0051623
2646	0.00456456
2658	0.0048906
2670	0.00521664
2682	0.0065208
2694	0.00728156
2706	0.0076076
2718	0.00874874
2730	0.0102703
2742	0.0111397
2754	0.0120091
2766	0.0144001
2778	0.0177692
2790	0.0214643
2802	0.0260832
2814	0.0298327
2826	0.035484
2838	0.0495037
2850	0.0667295
2862	0.0955297
2874	0.140252
2886	0.177909
2898	0.171225
2910	0.147098
2922	0.141773
2934	0.144164
2946	0.138187
2958	0.118461
2970	0.0954754
2982	0.0832489
2994	0.100257
3006	0.116994
3018	0.128894
3030	0.17579
3042	0.19345
3054	0.193722
3066	0.161498
3078	0.0997682
3090	0.0912912
3102	0.0617846
3114	0.0184213
3126	0.00864006
3138	0.00983554
3150	0.00945516
3162	0.00891176
3174	0.00581438
3186	0.00505362
3198	0.00385814
3210	0.00402116
3222	0.00364078
3234	0.00336908
3246	0.00358644
3258	0.00342342
3270	0.00364078
3282	0.00445588
3294	0.0043472
3306	0.00391248
3318	0.00499928
3330	0.0051623
3342	0.0040755
3354	0.0051623
3366	0.00467324
3378	0.00510796
3390	0.00630344
3402	0.00581438
3414	0.00700986
3426	0.0070642
3438	0.0073359
3450	0.00559702
3462	0.00711854
3474	0.00603174
3486	0.00532532
3498	0.00505362
3510	0.0051623
3522	0.00412984
3534	0.00304304
3546	0.00467324
3558	0.00228228
3570	0.00565136
3582	0.0032604
3594	0.00576004
3606	0.00744458
3618	0.0157586
3630	0.0353753
3642	0.0664035
3654	0.115799
3666	0.112049
3678	0.0795538
3690	0.0371686
3702	0.0195081
3714	0.0103246
3726	0.00592306
3738	0.00412984
3750	0.00097812
3762	0.00059774
3774	0.00032604
3786	0.00222794
3798	0.00451022
3810	0.00277134
3822	0.00695552
3834	0.0048906
3846	0.00945516
3858	0.00912912
3870	0.0051623
3882	0.00700986
3894	0.00728156
3906	0.0113571
3918	0.00581438
3930	0.00456456
3942	0.00695552
3954	0.00315172
3966	0.00315172
