Infrared Spectrum: Aniline, N-methyl-
Formula: C 7 H 9 N
CAS: 100-61-8
Origin: Sadtler Research Labs Under US-EPA Contract
1/CM	ABSORBANCE
450	0.0472749
462	0.0544568
474	0.0504126
486	0.059756
498	0.0829054
510	0.0902267
522	0.0725161
534	0.0535503
546	0.0299129
558	0.0324928
570	0.0235677
582	0.0338873
594	0.0306102
606	0.0361883
618	0.0384196
630	0.0456712
642	0.0429518
654	0.0518072
666	0.0715399
678	0.137711
690	0.246694
702	0.133388
714	0.0829054
726	0.110936
738	0.213016
750	0.311819
762	0.154724
774	0.0594074
786	0.040093
798	0.0210576
810	0.0117141
822	0.00746079
834	0.00453226
846	0.00941315
858	0.0193144
870	0.0343057
882	0.016595
894	0.00962233
906	0.00327717
918	0.00355608
930	0.00271935
942	0.00237072
954	0.00446253
966	0.00474144
978	0.00962233
990	0.0220337
1002	0.0220337
1014	0.00760024
1026	0.0117141
1038	0.010738
1050	0.0214062
1062	0.0492273
1074	0.0601047
1086	0.0442766
1098	0.025032
1110	0.0168739
1122	0.0163161
1134	0.0348635
1146	0.065892
1158	0.0734923
1170	0.0769786
1182	0.0795585
1194	0.049297
1206	0.0226613
1218	0.0180593
1230	0.0258687
1242	0.0856945
1254	0.214689
1266	0.24
1278	0.117002
1290	0.0870193
1302	0.189239
1314	0.312935
1326	0.225985
1338	0.0614295
1350	0.0315166
1362	0.0194538
1374	0.0162464
1386	0.0151308
1398	0.0147124
1410	0.0303312
1422	0.0603139
1434	0.0614295
1446	0.0426032
1458	0.0475538
1470	0.0792796
1482	0.127182
1494	0.289158
1506	0.679559
1518	0.577967
1530	0.125021
1542	0.0396049
1554	0.0432307
1566	0.045462
1578	0.0625451
1590	0.197676
1602	0.581802
1614	0.586474
1626	0.212667
1638	0.043161
1650	0.0186868
1662	0.0168042
1674	0.0145032
1686	0.00718188
1698	0.00648461
1710	0.011226
1722	0.00920396
1734	0.00251017
1746	0.0105985
1758	0.01276
1770	0.00808833
1782	0.00746079
1794	0.00495062
1806	0.00990123
1818	0.0121325
1830	0.0108774
1842	0.00760024
1854	0.00432307
1866	0.00327717
1878	0.00397444
1890	0.00599652
1902	0.0134573
1914	0.0149216
1926	0.0156188
1938	0.00913424
1950	0.00341662
1962	0.00313772
1974	0.00376526
1986	0.00348635
1998	0.00278908
2010	0.0025799
2022	0.00306799
2034	0.00292853
2046	0.00327717
2058	0.00460198
2070	0.00369553
2082	0.00327717
2094	0.00390471
2106	0.00495062
2118	0.00453226
2130	0.00397444
2142	0.00299826
2154	0.00139454
2166	0.000906451
2178	0.00118536
2190	0.00132481
2202	0.00132481
2214	0.00188263
2226	0.00146427
2238	0.00188263
2250	0.00153399
2262	0.000976178
2274	0.00139454
2286	0.00209181
2298	0.00313772
2310	0.00160372
2322	0.000766997
2334	0.000766997
2346	0.000766997
2358	0.000766997
2370	0.000766997
2382	0.0018129
2394	0.00411389
2406	0.0051598
2418	0.00425335
2430	0.00299826
2442	0.00251017
2454	0.00341662
2466	0.00383499
2478	0.00348635
2490	0.00341662
2502	0.00313772
2514	0.00327717
2526	0.00411389
2538	0.00446253
2550	0.00711215
2562	0.012272
2574	0.0149913
2586	0.0117839
2598	0.00760024
2610	0.00571761
2622	0.00578734
2634	0.00571761
2646	0.00634516
2658	0.00641488
2670	0.00557816
2682	0.00655434
2694	0.00711215
2706	0.00676352
2718	0.0077397
2730	0.0103196
2742	0.0135968
2754	0.0161069
2766	0.0178501
2778	0.0198025
2790	0.0270541
2802	0.0443464
2814	0.0912726
2826	0.126345
2838	0.0992215
2850	0.0608019
2862	0.0622662
2874	0.078164
2886	0.113027
2898	0.152563
2910	0.165881
2922	0.154236
2934	0.12781
2946	0.118675
2958	0.109959
2970	0.10975
2982	0.136874
2994	0.120279
3006	0.0785126
3018	0.11233
3030	0.130459
3042	0.12265
3054	0.173062
3066	0.194329
3078	0.134224
3090	0.100546
3102	0.0780245
3114	0.0511796
3126	0.0292156
3138	0.0140151
3150	0.00871588
3162	0.00704243
3174	0.00641488
3186	0.00502034
3198	0.00522953
3210	0.0051598
3222	0.00536898
3234	0.0051598
3246	0.00474144
3258	0.00446253
3270	0.00509007
3282	0.00467171
3294	0.00418362
3306	0.00397444
3318	0.00460198
3330	0.00488089
3342	0.00557816
3354	0.00460198
3366	0.00502034
3378	0.00662407
3390	0.00662407
3402	0.00711215
3414	0.00976178
3426	0.0161767
3438	0.0299826
3450	0.0519466
3462	0.0547357
3474	0.0338176
3486	0.0161767
3498	0.0122022
3510	0.00976178
3522	0.00892506
3534	0.00948287
3546	0.00892506
3558	0.00892506
3570	0.00578734
3582	0.00718188
3594	0.0062057
3606	0.00662407
3618	0.00557816
3630	0.00237072
3642	0.00704243
3654	0.00557816
3666	0.00655434
3678	0.00174318
3690	0.00320744
3702	0.00488089
3714	0.00209181
3726	0.00376526
3738	0.000976178
3750	0.000766997
3762	0.00369553
3774	0.00418362
3786	0.00411389
3798	0.00244045
3810	0.00383499
3822	0.00251017
3834	0.00432307
3846	0.00299826
3858	0.00264963
3870	0.0036258
3882	0.00481116
3894	0.00502034
3906	0.00599652
3918	0.00648461
3930	0.00794888
3942	0.00850669
3954	0
3966	0.000766997
