Infrared Spectrum: Benzene, 1-ethoxy-4-nitro-
Formula: C 8 H 9 N O 3
CAS: 100-29-8
Origin: Sadtler Research Labs Under US-EPA Contract
1/CM	ABSORBANCE
450	0.00542628
462	0
474	0.019399
486	0.014651
498	0.0238756
510	0.0360848
522	0.0263175
534	0.0135657
546	0.00678285
558	0.00257748
570	0.00217051
582	0.00461234
594	0.00529062
606	0.0231973
618	0.056162
630	0.0504644
642	0.0668789
654	0.105677
666	0.028488
678	0.03717
690	0.0425963
702	0.0245539
714	0.00854639
726	0.00447668
738	0.0344569
750	0.0915685
762	0.0535845
774	0.00963165
786	0.00217051
798	0.00596891
810	0.00773245
822	0.0382553
834	0.127382
846	0.253
858	0.359898
870	0.0773245
882	0.0313368
894	0.0396118
906	0.0739331
918	0.0782741
930	0.0581969
942	0.0241469
954	0.0137014
966	0.0111239
978	0.0128874
990	0.0161432
1002	0.0290306
1014	0.0554837
1026	0.120463
1038	0.277961
1050	0.251915
1062	0.120599
1074	0.0737974
1086	0.127789
1098	0.17147
1110	0.34077
1122	0.220307
1134	0.0477513
1146	0.036763
1158	0.107305
1170	0.326391
1182	0.135521
1194	0.0637588
1206	0.0750183
1218	0.135928
1230	0.309298
1242	0.829543
1254	1.34029
1266	0.833205
1278	0.200637
1290	0.243097
1302	0.301566
1314	0.222477
1326	0.321371
1338	0.521466
1350	1.24954
1362	0.475342
1374	0.196838
1386	0.142847
1398	0.1868
1410	0.106491
1422	0.0625379
1434	0.0701347
1446	0.0773245
1458	0.10432
1470	0.139455
1482	0.320693
1494	0.644913
1506	0.514954
1518	0.344704
1530	0.750048
1542	0.786268
1554	0.338464
1566	0.157633
1578	0.225055
1590	0.677878
1602	0.780028
1614	0.380382
1626	0.151258
1638	0.0520923
1650	0.042732
1662	0.0257748
1674	0.0264531
1686	0.0236043
1698	0.0256392
1710	0.0109882
1722	0.0128874
1734	0.0248252
1746	0.0174998
1758	0.0226547
1770	0.0250965
1782	0.0109882
1794	0.0127518
1806	0.00705416
1818	0.00352708
1830	0.00868205
1842	0.00718982
1854	0.00312011
1866	0.00881771
1878	0.00908902
1890	0.0170928
1902	0.018178
1914	0.0169571
1926	0.0107169
1938	0.00786811
1950	0.00718982
1962	0.00732548
1974	0.00664719
1986	0.00339142
1998	0.00406971
2010	0.00651154
2022	0.00813942
2034	0.00664719
2046	0.0101743
2058	0.00881771
2070	0.00556194
2082	0.00447668
2094	0.00434102
2106	0.00501931
2118	0.00529062
2130	0.00257748
2142	0.00230617
2154	0.00135657
2166	0.000678285
2178	0.000678285
2190	0.000135657
2202	0.00108526
2214	0.00217051
2226	0.00244183
2238	0.0018992
2250	0.0018992
2262	0.00312011
2274	0.00529062
2286	0.00474799
2298	0.00230617
2310	0.000678285
2322	0.000542628
2334	0.00108526
2346	0.00244183
2358	0.00244183
2370	0.00596891
2382	0.00610456
2394	0.00664719
2406	0.00637588
2418	0.00664719
2430	0.00691851
2442	0.00963165
2454	0.0145153
2466	0.0143796
2478	0.0112595
2490	0.0104456
2502	0.0113952
2514	0.0105812
2526	0.00773245
2538	0.00841073
2550	0.0126161
2562	0.0124804
2574	0.0120735
2586	0.0112595
2598	0.00908902
2610	0.0104456
2622	0.00908902
2634	0.00773245
2646	0.00732548
2658	0.00596891
2670	0.00501931
2682	0.00515497
2694	0.00624022
2706	0.00759679
2718	0.00786811
2730	0.00827508
2742	0.00881771
2754	0.00963165
2766	0.00936033
2778	0.00990296
2790	0.0105812
2802	0.0100386
2814	0.0115308
2826	0.0157362
2838	0.0198059
2850	0.027674
2862	0.0378483
2874	0.0572473
2886	0.0811229
2898	0.0884484
2910	0.0952312
2922	0.0964521
2934	0.107983
2946	0.135386
2958	0.0944173
2970	0.079088
2982	0.142982
2994	0.200772
3006	0.106626
3018	0.0408328
3030	0.0230617
3042	0.0168215
3054	0.014244
3066	0.0177711
3078	0.0259105
3090	0.0501931
3102	0.0269957
3114	0.00895336
3126	0.00732548
3138	0.00529062
3150	0.00447668
3162	0.00312011
3174	0.0028488
3186	0.00298445
3198	0.00447668
3210	0.00596891
3222	0.00529062
3234	0.00434102
3246	0.0028488
3258	0.00217051
3270	0.00203485
3282	0.00176354
3294	0.00176354
3306	0.0018992
3318	0.00122091
3330	0.0018992
3342	0.00176354
3354	0.00203485
3366	0.00230617
3378	0.00203485
3390	0.00217051
3402	0.00203485
3414	0.00176354
3426	0.00135657
3438	0.00203485
3450	0.00122091
3462	0.0018992
3474	0.00135657
3486	0.0018992
3498	0.00149223
3510	0.000949599
3522	0.00135657
3534	0.000949599
3546	0.00122091
3558	0.000406971
3570	0.0018992
3582	0.00271314
3594	0.00149223
3606	0.000678285
3618	0.0018992
3630	0.0028488
3642	0.00176354
3654	0.00122091
3666	0.00176354
3678	0.00488365
3690	0.00217051
3702	0.00244183
3714	0.00529062
3726	0.00298445
3738	0.00352708
3750	0.00542628
3762	0.0037984
3774	0.0028488
3786	0.00203485
3798	0.00122091
3810	0.00447668
3822	0.00515497
3834	0.00312011
3846	0.00447668
3858	0.0037984
3870	0.00447668
3882	0.00434102
3894	0.00312011
3906	0.00298445
3918	0.0037984
3930	0.00122091
3942	0.0037984
3954	0.00217051
3966	0.0028488
