Infrared Spectrum: Benzenemethanethiol
Formula: C 7 H 8 S
CAS: 100-53-8
Origin: Sadtler Research Labs Under US-EPA Contract
1/CM	ABSORBANCE
450	0.0171258
462	0.0652795
474	0.0388856
486	0.0135663
498	0.0163199
510	0.0047012
522	0.00725328
534	0.0357291
546	0.0539966
558	0.0851589
570	0.0435868
582	0.0286773
594	0.0119545
606	0.0157154
618	0.0153796
630	0.0114844
642	0.0187376
654	0.0368708
666	0.0876438
678	0.271192
690	0.547555
702	0.583419
714	0.30081
726	0.143588
738	0.128074
750	0.153931
762	0.150976
774	0.0858305
786	0.0431167
798	0.0303563
810	0.026461
822	0.018066
834	0.00920092
846	0.0070518
858	0.008395
870	0.0118873
882	0.0120216
894	0.0132977
906	0.0182675
918	0.0141036
930	0.00967104
942	0.0110142
954	0.0136335
966	0.0193421
978	0.025588
990	0.0238418
1002	0.021424
1014	0.02814
1026	0.063802
1038	0.0464747
1050	0.0202823
1062	0.05037
1074	0.0626603
1086	0.0415049
1098	0.0233717
1110	0.0128276
1122	0.00611156
1134	0.0053728
1146	0.00846216
1158	0.0135663
1170	0.0204838
1182	0.0227001
1194	0.0280057
1206	0.030222
1218	0.0239761
1230	0.0467434
1242	0.0965761
1254	0.136671
1266	0.0742118
1278	0.0245806
1290	0.0198794
1302	0.0149767
1314	0.0166557
1326	0.0190063
1338	0.0156483
1350	0.0106113
1362	0.00799204
1374	0.0080592
1386	0.00685032
1398	0.0060444
1410	0.00859648
1422	0.021827
1434	0.0568845
1446	0.108799
1458	0.104568
1470	0.0556756
1482	0.0412362
1494	0.173541
1506	0.137678
1518	0.0150438
1530	0.011753
1542	0.0102083
1554	0.0080592
1566	0.00752192
1578	0.0136335
1590	0.0368037
1602	0.0789802
1614	0.0581606
1626	0.01679
1638	0.00631304
1650	0.00893228
1662	0.00799204
1674	0.00517132
1686	0.0036938
1698	0.00329084
1710	0.00161184
1722	0.00617872
1734	0.0118873
1746	0.0106784
1758	0.00698464
1770	0.00779056
1782	0.0116187
1794	0.0287445
1806	0.0224314
1818	0.00812636
1830	0.00483552
1842	0.00456688
1854	0.0110142
1866	0.0169243
1878	0.021424
1890	0.0143051
1902	0.00517132
1914	0.00624588
1926	0.0142379
1938	0.0251178
1950	0.0329756
1962	0.0228344
1974	0.00483552
1986	0.00275356
1998	0.00208196
2010	0.00120888
2022	0.00073876
2034	0.00040296
2046	6.716e-05
2058	0.00107456
2070	0.0013432
2082	0.00094024
2094	0.00120888
2106	0.00127604
2118	0.00127604
2130	0.00120888
2142	0.00147752
2154	0.00060444
2166	0.0003358
2178	0.00087308
2190	0.00114172
2202	0.00174616
2214	0.00241776
2226	0.00248492
2238	0.003358
2250	0.00416392
2262	0.00423108
2274	0.00315652
2286	0.00342516
2298	0.00423108
2310	0.00678316
2322	0.00832784
2334	0.0053728
2346	0.00543996
2358	0.0063802
2370	0.00094024
2382	0.001679
2394	0.00228344
2406	0.0023506
2418	0.0020148
2430	0.00194764
2442	0.00221628
2454	0.00120888
2466	0.00026864
2478	0.00060444
2490	0.00060444
2502	0.00114172
2514	0.00161184
2526	0.00188048
2538	0.0023506
2550	0.00329084
2562	0.00490268
2574	0.0090666
2586	0.0240433
2598	0.0218942
2610	0.00953672
2622	0.00651452
2634	0.00597724
2646	0.00456688
2658	0.00322368
2670	0.00429824
2682	0.00631304
2694	0.0077234
2706	0.0057086
2718	0.0040296
2730	0.00396244
2742	0.00423108
2754	0.00342516
2766	0.00261924
2778	0.0043654
2790	0.00517132
2802	0.0057086
2814	0.00745476
2826	0.00893228
2838	0.0132977
2850	0.02223
2862	0.028946
2874	0.0265282
2886	0.0221628
2898	0.0239761
2910	0.0342516
2922	0.058765
2934	0.0998669
2946	0.122701
2958	0.103158
2970	0.0852932
2982	0.0656153
2994	0.0400274
3006	0.047415
3018	0.103964
3030	0.257693
3042	0.328009
3054	0.186168
3066	0.243254
3078	0.324651
3090	0.197115
3102	0.133245
3114	0.0723313
3126	0.027267
3138	0.00685032
3150	0.00490268
3162	0.0057086
3174	0.00725328
3186	0.0053728
3198	0.00355948
3210	0.00181332
3222	0.001679
3234	0.001679
3246	0.00080592
3258	0.00114172
3270	0.001679
3282	0.00127604
3294	0.0023506
3306	0.0040296
3318	0.00355948
3330	0.00275356
3342	0.00329084
3354	0.00275356
3366	0.0023506
3378	0.0026864
3390	0.00107456
3402	0.00047012
3414	0.00154468
3426	0.00154468
3438	0.00147752
3450	0.0020148
3462	0.00295504
3474	0.00255208
3486	0.00376096
3498	0.003358
3510	0.00221628
3522	0.00282072
3534	0.00275356
3546	0.00188048
3558	0.00376096
3570	0.00282072
3582	0.00114172
3594	0.00154468
3606	0.00194764
3618	0.00443256
3630	0.00483552
3642	0.00557428
3654	0.0036938
3666	0.0060444
3678	0.005037
3690	0.00228344
3702	0.00174616
3714	0.00228344
3726	0.00248492
3738	0.0006716
3750	0.00188048
3762	0.00073876
3774	0.00094024
3786	0.0026864
3798	0.00597724
3810	0.00631304
3822	0.00423108
3834	0.00523848
3846	0.005037
3858	0.00382812
3870	0.00718612
3882	0.00308936
3894	0.00040296
3906	0.00094024
3918	0.00275356
3930	0.00416392
3942	0.00859648
3954	0.0087308
3966	0.00779056
