Infrared Spectrum: Benzaldehyde
Formula: C 7 H 6 O
CAS: 100-52-7
Origin: Sadtler Research Labs Under US-EPA Contract
1/CM	ABSORBANCE
450	0.0183971
462	0.0298539
474	0.0156981
486	0.0150371
498	0.0139906
510	0.0133847
522	0.0137152
534	0.0145965
546	0.0161387
558	0.0137703
570	0.0153676
582	0.0159735
594	0.00324978
606	0.0148168
618	0.0177361
630	0.0282566
642	0.0539794
654	0.0543099
666	0.0413658
678	0.0541997
690	0.0810792
702	0.0592121
714	0.0569538
726	0.0796471
738	0.149049
750	0.0844392
762	0.0505093
774	0.0209308
786	0.0138253
798	0.0175708
810	0.0372348
822	0.0825664
834	0.0873585
846	0.0256127
858	0.0129991
870	0.00963917
882	0.00831723
894	0.00947393
906	0.00974934
918	0.00925361
930	0.00732577
942	0.00710545
954	0.00694021
966	0.00688513
978	0.00683004
990	0.00837231
1002	0.0114018
1014	0.0161387
1026	0.0167446
1038	0.0112365
1050	0.0114568
1062	0.0212062
1074	0.0238501
1086	0.0209308
1098	0.0159735
1110	0.0110713
1122	0.00941885
1134	0.0101349
1146	0.0148168
1158	0.0502339
1170	0.0731476
1182	0.0681352
1194	0.126521
1206	0.130652
1218	0.0270999
1230	0.016304
1242	0.0125585
1254	0.0131093
1266	0.016304
1278	0.0200495
1290	0.0185623
1302	0.0444504
1314	0.0490772
1326	0.0226934
1338	0.0130542
1350	0.0161938
1362	0.00969426
1374	0.0147617
1386	0.0226934
1398	0.0166345
1410	0.00793166
1422	0.00749102
1434	0.00771134
1446	0.0229137
1458	0.0228586
1470	0.0198842
1482	0.00974934
1494	0.00660972
1506	0.00280913
1518	0.00258881
1530	0.00236848
1542	0.0011567
1554	0.0046268
1566	0.00743594
1578	0.0239052
1590	0.0476451
1602	0.0540345
1614	0.0398786
1626	0.0145965
1638	0.0145965
1650	0.0184521
1662	0.0154778
1674	0.00881296
1686	0.0175158
1698	0.0284769
1710	0.196143
1722	0.529769
1734	0.464057
1746	0.0575046
1758	0.04759
1770	0.0444504
1782	0.0106857
1794	0.00517761
1806	0.0110713
1818	0.0133847
1830	0.0112365
1842	0.00760118
1854	0.00561826
1866	0.00440648
1878	0.00727069
1890	0.00721561
1902	0.00848247
1914	0.0066648
1926	0.00578351
1938	0.00776642
1950	0.00952901
1962	0.00952901
1974	0.0100247
1986	0.00793166
1998	0.00572842
2010	0.0063894
2022	0.00644448
2034	0.00572842
2046	0.00424124
2058	0.00374551
2070	0.00369043
2082	0.00363535
2094	0.00330486
2106	0.00352518
2118	0.00330486
2130	0.00313962
2142	0.00363535
2154	0.00402091
2166	0.00402091
2178	0.00335994
2190	0.00313962
2202	0.00308454
2214	0.00324978
2226	0.0034701
2238	0.00363535
2250	0.00380059
2262	0.00369043
2274	0.0034701
2286	0.00291929
2298	0.00209308
2310	0.00297437
2322	0.00402091
2334	0.00363535
2346	0.00324978
2358	0.00324978
2370	0.00308454
2382	0.00308454
2394	0.00396583
2406	0.00374551
2418	0.00352518
2430	0.0034701
2442	0.00330486
2454	0.00308454
2466	0.00313962
2478	0.00341502
2490	0.00341502
2502	0.00358027
2514	0.00396583
2526	0.00363535
2538	0.00302946
2550	0.0034701
2562	0.00352518
2574	0.00407599
2586	0.00512253
2598	0.00495729
2610	0.00473697
2622	0.00512253
2634	0.00484713
2646	0.00495729
2658	0.00528778
2670	0.00776642
2682	0.0185072
2694	0.0242356
2706	0.0324978
2718	0.077554
2730	0.0898371
2742	0.0657667
2754	0.0179013
2766	0.0110713
2778	0.0188377
2790	0.0511702
2802	0.0981543
2814	0.0930318
2826	0.051666
2838	0.0260533
2850	0.0188377
2862	0.0127237
2874	0.0078215
2886	0.00633432
2898	0.00683004
2910	0.00749102
2922	0.0078215
2934	0.00716053
2946	0.00699529
2958	0.00633432
2970	0.00495729
2982	0.00468189
2994	0.00501237
3006	0.00738085
3018	0.0146515
3030	0.0313962
3042	0.0376203
3054	0.0302946
3066	0.0408701
3078	0.0576698
3090	0.0472595
3102	0.0337096
3114	0.0172954
3126	0.00710545
3138	0.00407599
3150	0.00374551
3162	0.00457172
3174	0.00506745
3186	0.00413108
3198	0.00363535
3210	0.00341502
3222	0.00341502
3234	0.00341502
3246	0.00313962
3258	0.0031947
3270	0.00341502
3282	0.00302946
3294	0.00302946
3306	0.00352518
3318	0.00363535
3330	0.00358027
3342	0.00374551
3354	0.00330486
3366	0.00385567
3378	0.00396583
3390	0.00385567
3402	0.00418616
3414	0.00545302
3426	0.00996966
3438	0.0104654
3450	0.00324978
3462	0.00258881
3474	0.00220324
3486	0.00313962
3498	0.00291929
3510	0.00236848
3522	0.00313962
3534	0.00324978
3546	0.00269897
3558	0.00275405
3570	0.00473697
3582	0.0131093
3594	0.0116221
3606	0.00264389
3618	0.00341502
3630	0.00308454
3642	0.00330486
3654	0.00369043
3666	0.0034701
3678	0.00297437
3690	0.00253373
3702	0.00374551
3714	0.00385567
3726	0.00308454
3738	0.00402091
3750	0.0031947
3762	0.00247865
3774	0.00280913
3786	0.00275405
3798	0.00302946
3810	0.00258881
3822	0.00324978
3834	0.00385567
3846	0.00258881
3858	0.00341502
3870	0.00385567
3882	0.00275405
3894	0.00352518
3906	0.00484713
3918	0.00484713
3930	0.00385567
3942	0.00286421
3954	0.00286421
3966	0.00253373
