Infrared Spectrum: Benzene, methoxy-
Formula: C 7 H 8 O
CAS: 100-66-3
Origin: Sadtler Research Labs Under US-EPA Contract
1/CM	ABSORBANCE
450	0
462	0.00454966
474	0.0152178
486	0.0251016
498	0.0448691
510	0.0632247
522	0.0621265
534	0.0552235
546	0.0578906
558	0.043614
570	0.0277686
582	0.0161592
594	0.00533409
606	0.0127077
618	0.00988375
630	0.0062754
642	0.00909933
654	0.0158454
666	0.0483206
678	0.160493
690	0.349697
702	0.167396
714	0.0676174
726	0.0608714
738	0.195322
750	0.441161
762	0.36413
774	0.291492
786	0.183869
798	0.0638522
810	0.0244741
822	0.017728
834	0.0105113
846	0.00674605
858	0.0114526
870	0.031377
882	0.0594594
894	0.0359267
906	0.0164729
918	0.00753048
930	0.00643229
942	0.00956998
954	0.0131783
966	0.0171005
978	0.0283962
990	0.0433003
1002	0.0517721
1014	0.0663624
1026	0.142295
1038	0.350638
1050	0.477558
1062	0.333224
1074	0.132411
1086	0.0994651
1098	0.0407901
1110	0.0251016
1122	0.0181987
1134	0.0194537
1146	0.0462811
1158	0.108878
1170	0.22764
1182	0.258233
1194	0.146844
1206	0.0986807
1218	0.171162
1230	0.41402
1242	1.3558
1254	1.51112
1266	0.456065
1278	0.275647
1290	0.340597
1302	0.315653
1314	0.190929
1326	0.10323
1338	0.0975825
1350	0.0513014
1362	0.0243172
1374	0.0203951
1386	0.0211795
1398	0.0180418
1410	0.0175711
1422	0.0290237
1434	0.0775012
1446	0.150296
1458	0.215874
1470	0.268744
1482	0.379662
1494	0.983041
1506	0.856121
1518	0.160023
1530	0.0362404
1542	0.0411039
1554	0.0549098
1566	0.0869143
1578	0.177751
1590	0.466105
1602	0.74991
1614	0.463595
1626	0.091464
1638	0.0320045
1650	0.0175711
1662	0.0130215
1674	0.0186693
1686	0.0257291
1698	0.02871
1710	0.0208657
1722	0.0130215
1734	0.0106682
1746	0.0103544
1758	0.01914
1770	0.0241603
1782	0.0164729
1794	0.0128646
1806	0.0116095
1818	0.0138059
1830	0.0199244
1842	0.0252585
1854	0.0192969
1866	0.0108251
1878	0.0062754
1890	0.0062754
1902	0.0105113
1914	0.0225914
1926	0.0252585
1938	0.0263567
1950	0.0207088
1962	0.0106682
1974	0.00658917
1986	0.0062754
1998	0.00847179
2010	0.0141196
2022	0.0283962
2034	0.0352991
2046	0.0254154
2058	0.0197675
2070	0.0213364
2082	0.0225914
2094	0.0199244
2106	0.0128646
2118	0.00674605
2130	0.00439278
2142	0.00345147
2154	0.0031377
2166	0.00298081
2178	0.00360836
2190	0.00360836
2202	0.00360836
2214	0.00376524
2226	0.00470655
2238	0.0051772
2250	0.00580475
2262	0.00705982
2274	0.0114526
2286	0.0134921
2298	0.0111388
2310	0.00956998
2322	0.00878556
2334	0.00800113
2346	0.00800113
2358	0.00909933
2370	0.0094131
2382	0.0111388
2394	0.0094131
2406	0.00643229
2418	0.00658917
2430	0.00658917
2442	0.00596163
2454	0.00658917
2466	0.00784425
2478	0.00909933
2490	0.0130215
2502	0.0125508
2514	0.00909933
2526	0.0116095
2538	0.016316
2550	0.0199244
2562	0.0158454
2574	0.00768736
2586	0.00784425
2598	0.00894245
2610	0.00925621
2622	0.00925621
2634	0.0094131
2646	0.0083149
2658	0.00721671
2670	0.00502032
2682	0.00454966
2694	0.00549098
2706	0.00596163
2718	0.00643229
2730	0.0073736
2742	0.00862868
2754	0.00972687
2766	0.0103544
2778	0.0127077
2790	0.0149041
2802	0.0180418
2814	0.0260429
2826	0.0553804
2838	0.173515
2850	0.201127
2862	0.0966412
2874	0.054596
2886	0.0636953
2898	0.0977394
2910	0.164259
2922	0.201754
2934	0.197675
2946	0.264979
2958	0.3042
2970	0.181673
2982	0.110447
2994	0.133038
3006	0.246466
3018	0.223718
3030	0.143079
3042	0.185752
3054	0.205206
3066	0.203323
3078	0.221522
3090	0.18889
3102	0.127077
3114	0.0933466
3126	0.0431434
3138	0.016316
3150	0.0103544
3162	0.00862868
3174	0.0073736
3186	0.00690294
3198	0.00674605
3210	0.00643229
3222	0.00533409
3234	0.00502032
3246	0.00580475
3258	0.0051772
3270	0.00486344
3282	0.00502032
3294	0.00423589
3306	0.00486344
3318	0.00470655
3330	0.00502032
3342	0.0051772
3354	0.00486344
3366	0.00439278
3378	0.00439278
3390	0.00376524
3402	0.00423589
3414	0.00470655
3426	0.00470655
3438	0.00439278
3450	0.0051772
3462	0.00486344
3474	0.00470655
3486	0.0051772
3498	0.00423589
3510	0.00470655
3522	0.00533409
3534	0.00486344
3546	0.00470655
3558	0.00470655
3570	0.00423589
3582	0.00470655
3594	0.00486344
3606	0.00376524
3618	0.0051772
3630	0.00596163
3642	0.00470655
3654	0.00596163
3666	0.00549098
3678	0.00580475
3690	0.00533409
3702	0.00533409
3714	0.00580475
3726	0.00454966
3738	0.00439278
3750	0.00454966
3762	0.00470655
3774	0.00392213
3786	0.00376524
3798	0.0051772
3810	0.0051772
3822	0.00611851
3834	0.00533409
3846	0.0051772
3858	0.00705982
3870	0.00596163
3882	0.00533409
3894	0.00643229
3906	0.00721671
3918	0.00470655
3930	0.00392213
3942	0.00486344
3954	0.00533409
3966	0.0062754
