Infrared Spectrum: Benzeneethanol, 4-nitro-
Formula: C 8 H 9 N O 3
CAS: 100-27-6
Origin: Sadtler Research Labs Under US-EPA Contract
1/CM	ABSORBANCE
450	0
462	0.0767848
474	0.0664941
486	0.0677119
498	0.0686862
510	0.0801339
522	0.0850661
534	0.0864666
546	0.0734966
558	0.0785507
570	0.0747754
582	0.0722179
594	0.0669812
606	0.0717308
618	0.0803774
630	0.0697213
642	0.0724006
654	0.0686862
666	0.0724006
678	0.0770893
690	0.0924341
702	0.104004
714	0.0833003
726	0.0875627
738	0.109118
750	0.104673
762	0.100837
774	0.0949306
786	0.0801948
798	0.0887196
810	0.112163
822	0.11539
834	0.140112
846	0.172629
858	0.205693
870	0.0912771
882	0.0725833
894	0.0672857
906	0.0646064
918	0.0639366
930	0.0667985
942	0.0699649
954	0.076115
966	0.0792205
978	0.0818997
990	0.0874409
1002	0.106135
1014	0.141635
1026	0.153509
1038	0.212939
1050	0.257086
1062	0.176648
1074	0.129335
1086	0.101142
1098	0.108022
1110	0.126534
1122	0.0965747
1134	0.0762977
1146	0.0668594
1158	0.0745927
1170	0.0804383
1182	0.0960876
1194	0.0890241
1206	0.0833611
1218	0.0800121
1230	0.0786725
1242	0.0786725
1254	0.0816562
1266	0.0875627
1278	0.0833003
1290	0.0881716
1302	0.0948088
1314	0.110519
1326	0.134815
1338	0.288628
1350	0.60892
1362	0.311645
1374	0.141148
1386	0.121053
1398	0.10309
1410	0.0871973
1422	0.0803165
1434	0.081169
1446	0.0847617
1458	0.0853706
1470	0.0920078
1482	0.104125
1494	0.137616
1506	0.155275
1518	0.246613
1530	0.37546
1542	0.429898
1554	0.248135
1566	0.129883
1578	0.112346
1590	0.133962
1602	0.192297
1614	0.131588
1626	0.0805601
1638	0.0663114
1650	0.0657634
1662	0.0635104
1674	0.0627797
1686	0.0610138
1698	0.0578474
1710	0.0579692
1722	0.057482
1734	0.0585172
1746	0.0599177
1758	0.0566296
1770	0.0575429
1782	0.0608311
1794	0.0610747
1806	0.0567513
1818	0.0567513
1830	0.0549246
1842	0.0549246
1854	0.0533414
1866	0.0553508
1878	0.0549246
1890	0.0545592
1902	0.0570558
1914	0.0597351
1926	0.0601613
1938	0.0562642
1950	0.0551073
1962	0.0547419
1974	0.0543157
1986	0.0530369
1998	0.0535241
2010	0.0532196
2022	0.0531587
2034	0.0534632
2046	0.0540112
2058	0.0537067
2070	0.0543766
2082	0.0542548
2094	0.0541939
2106	0.0536459
2118	0.0534632
2130	0.0532805
2142	0.0527325
2154	0.0527934
2166	0.0526107
2178	0.0532196
2190	0.0532196
2202	0.053585
2214	0.0540112
2226	0.0537067
2238	0.0530978
2250	0.053585
2262	0.0532196
2274	0.0534632
2286	0.0548637
2298	0.055229
2310	0.0539503
2322	0.0530369
2334	0.0524889
2346	0.0525498
2358	0.0528543
2370	0.0539503
2382	0.0549855
2394	0.054681
2406	0.0543157
2418	0.0548028
2430	0.0548028
2442	0.0554117
2454	0.0569949
2466	0.0560206
2478	0.0551073
2490	0.054133
2502	0.0545592
2514	0.0542548
2526	0.0545592
2538	0.0543157
2550	0.0544983
2562	0.0544983
2574	0.0540721
2586	0.0548637
2598	0.0557162
2610	0.0563251
2622	0.0559597
2634	0.0555335
2646	0.0555335
2658	0.0562033
2670	0.0564469
2682	0.0565687
2694	0.0577865
2706	0.058639
2718	0.0588826
2730	0.0583345
2742	0.0587608
2754	0.0587608
2766	0.0594306
2778	0.0598568
2790	0.0607093
2802	0.0611965
2814	0.0617445
2826	0.0638148
2838	0.0679555
2850	0.0739229
2862	0.0833003
2874	0.0996802
2886	0.120992
2898	0.111371
2910	0.104369
2922	0.119896
2934	0.136824
2946	0.135058
2958	0.129395
2970	0.109179
2982	0.080073
2994	0.0664941
3006	0.0624752
3018	0.0619272
3030	0.0619881
3042	0.069356
3054	0.0748363
3066	0.0722788
3078	0.0701476
3090	0.0661287
3102	0.0583954
3114	0.0569949
3126	0.0552899
3138	0.0551073
3150	0.0551073
3162	0.0554726
3174	0.0545592
3186	0.0551073
3198	0.0548637
3210	0.0554117
3222	0.0548028
3234	0.0550464
3246	0.053585
3258	0.0545592
3270	0.0548028
3282	0.0550464
3294	0.0555335
3306	0.0551073
3318	0.0552899
3330	0.0557771
3342	0.0556553
3354	0.0558989
3366	0.0562033
3378	0.0568122
3390	0.0568122
3402	0.0552899
3414	0.0559597
3426	0.056386
3438	0.0566905
3450	0.055838
3462	0.0564469
3474	0.054681
3486	0.0547419
3498	0.0540721
3510	0.0545592
3522	0.0550464
3534	0.0543157
3546	0.0551073
3558	0.0557162
3570	0.0556553
3582	0.0550464
3594	0.0571167
3606	0.0565078
3618	0.057482
3630	0.0586999
3642	0.0668594
3654	0.0719135
3666	0.0899375
3678	0.083422
3690	0.0611965
3702	0.0588217
3714	0.0560206
3726	0.0570558
3738	0.0575429
3750	0.0526716
3762	0.0575429
3774	0.0561424
3786	0.0559597
3798	0.0542548
3810	0.0559597
3822	0.0558989
3834	0.053585
3846	0.0554117
3858	0.0557162
3870	0.0568731
3882	0.0577865
3894	0.0562033
3906	0.0599786
3918	0.0573603
3930	0.0523671
3942	0.0570558
3954	0.0526716
3966	0.0568731
