Infrared Spectrum: Benzene, 1-methoxy-4-nitro-
Formula: C 7 H 7 N O 3
CAS: 100-17-4
Origin: Sadtler Research Labs Under US-EPA Contract
1/CM	ABSORBANCE
450	0.032723
462	0.0215562
474	0.0231817
486	0.0207787
498	0.0236058
510	0.0248073
522	0.0172449
534	0.01046
546	0.00812774
558	0.00127217
570	0.00360448
582	0.0017669
594	0.00791571
606	0.0362568
618	0.0846698
630	0.0519469
642	0.035338
654	0.0132164
666	0.0202133
678	0.0333591
690	0.0359741
702	0.0257967
714	0.0166089
726	0.0140645
738	0.0297546
750	0.0559047
762	0.0391545
774	0.0177397
786	0.0118029
798	0.0133578
810	0.0159021
822	0.0266449
834	0.0762594
846	0.161989
858	0.217399
870	0.0641738
882	0.0140645
894	0.0130751
906	0.0125803
918	0.0110961
930	0.00939991
942	0.0112375
954	0.0120149
966	0.0144179
978	0.0171036
990	0.0189412
1002	0.0249486
1014	0.0463635
1026	0.11393
1038	0.166089
1050	0.0729376
1062	0.0286945
1074	0.0231111
1086	0.0313801
1098	0.0589438
1110	0.142059
1122	0.0871435
1134	0.0183758
1146	0.0179517
1158	0.0501093
1170	0.147713
1182	0.101349
1194	0.0508867
1206	0.0315922
1218	0.0407801
1230	0.0744925
1242	0.17457
1254	0.519045
1266	0.654248
1278	0.151176
1290	0.120644
1302	0.124531
1314	0.0897585
1326	0.174994
1338	0.341082
1350	0.546962
1362	0.312388
1374	0.108841
1386	0.0501093
1398	0.0326523
1410	0.0267862
1422	0.033147
1434	0.0471409
1446	0.0808533
1458	0.091172
1470	0.0961194
1482	0.0996532
1494	0.306875
1506	0.363204
1518	0.193087
1530	0.361013
1542	0.384265
1554	0.20906
1566	0.0884864
1578	0.117464
1590	0.360942
1602	0.367091
1614	0.217258
1626	0.106933
1638	0.0316628
1650	0.0245952
1662	0.0164675
1674	0.0138525
1686	0.0117322
1698	0.0119442
1710	0.00636084
1722	0.00692625
1734	0.0101067
1746	0.00890518
1758	0.0109548
1770	0.0110255
1782	0.00692625
1794	0.00925856
1806	0.00607814
1818	0.00424056
1830	0.00494732
1842	0.0038165
1854	0.00374583
1866	0.00692625
1878	0.00918788
1890	0.0112375
1902	0.0103187
1914	0.00876382
1926	0.00650219
1938	0.00487664
1950	0.00424056
1962	0.00473529
1974	0.0038165
1986	0.00219096
1998	0.00233231
2010	0.00332177
2022	0.00537138
2034	0.00968261
2046	0.0135698
2058	0.010248
2070	0.00777436
2082	0.00487664
2094	0.00261501
2106	0.0035338
2118	0.00402853
2130	0.00197893
2142	0.000636084
2154	0.000141352
2166	0
2178	0
2190	0.00035338
2202	0.000989464
2214	0.0017669
2226	0.00183758
2238	0.00120149
2250	0.000989464
2262	0.00155487
2274	0.0035338
2286	0.00452326
2298	0.0035338
2310	0.00261501
2322	0.00219096
2334	0.00212028
2346	0.00289772
2358	0.00332177
2370	0.00487664
2382	0.0053007
2394	0.00310974
2406	0.00282704
2418	0.00226163
2430	0.00310974
2442	0.00452326
2454	0.00664354
2466	0.00537138
2478	0.00346312
2490	0.00282704
2502	0.00402853
2514	0.00508867
2526	0.00487664
2538	0.00395786
2550	0.00636084
2562	0.00742098
2574	0.00614881
2586	0.00763301
2598	0.00593678
2610	0.00508867
2622	0.00515935
2634	0.00416988
2646	0.00424056
2658	0.00339245
2670	0.00247366
2682	0.00254434
2694	0.00282704
2706	0.0038165
2718	0.00367515
2730	0.00282704
2742	0.00303907
2754	0.00388718
2766	0.00360448
2778	0.00367515
2790	0.00487664
2802	0.00544205
2814	0.0067849
2826	0.0108134
2838	0.0228283
2850	0.0508867
2862	0.0404973
2874	0.0215562
2886	0.0195066
2898	0.0226163
2910	0.0316628
2922	0.0388011
2934	0.0409921
2946	0.0614881
2958	0.0731497
2970	0.0578836
2982	0.0356207
2994	0.0224043
3006	0.0276343
3018	0.0550566
3030	0.0255847
3042	0.0105307
3054	0.00763301
3066	0.00869315
3078	0.0134991
3090	0.0262915
3102	0.017457
3114	0.00579543
3126	0.00409921
3138	0.00374583
3150	0.00289772
3162	0.0020496
3174	0.00190825
3186	0.00226163
3198	0.00247366
3210	0.00318042
3222	0.00310974
3234	0.00261501
3246	0.00162555
3258	0.00141352
3270	0.00155487
3282	0.0020496
3294	0.00183758
3306	0.00219096
3318	0.00162555
3330	0.00134284
3342	0.0017669
3354	0.00113082
3366	0.00183758
3378	0.00162555
3390	0.00141352
3402	0.0017669
3414	0.00190825
3426	0.0020496
3438	0.00141352
3450	0.00226163
3462	0.0014842
3474	0.00219096
3486	0.00155487
3498	0.00169622
3510	0.00183758
3522	0.00155487
3534	0.00197893
3546	0.00254434
3558	0.00268569
3570	0.00289772
3582	0.00190825
3594	0.00416988
3606	0.00261501
3618	0.00318042
3630	0.00459394
3642	0.00339245
3654	0.00473529
3666	0.00141352
3678	0.00607814
3690	0.00310974
3702	0.00310974
3714	0.00431124
3726	0.00318042
3738	0.00515935
3750	0.00318042
3762	0.00367515
3774	0.00395786
3786	0.00268569
3798	0.0035338
3810	0.0020496
3822	0.00466462
3834	0.0038165
3846	0.0038165
3858	0.00402853
3870	0.00480597
3882	0.00523002
3894	0.00537138
3906	0.00508867
3918	0.00367515
3930	0.00268569
3942	0.0038165
3954	0.0032511
3966	0.00416988
