Infrared Spectrum: 3-Cyclohexene-1-carboxaldehyde
Formula: C 7 H 10 O
CAS: 100-50-5
Origin: Sadtler Research Labs Under US-EPA Contract
1/CM	ABSORBANCE
450	0
462	0.0382171
474	0.0495215
486	0.0554848
498	0.0484326
510	0.0639372
522	0.0419507
534	0.0451138
546	0.0501956
558	0.0584406
570	0.0651817
582	0.0435582
594	0.0492623
606	0.0504031
618	0.0540329
630	0.0696413
642	0.101273
654	0.136379
666	0.121859
678	0.090487
690	0.0606185
702	0.0516994
714	0.0409136
726	0.0500401
738	0.0595295
750	0.0515439
762	0.0407062
774	0.0469806
786	0.0459954
798	0.0434026
810	0.0370763
822	0.0396172
834	0.040395
846	0.0446472
858	0.0514402
870	0.0549144
882	0.0463584
894	0.0429878
906	0.0568849
918	0.0706265
930	0.0889313
942	0.0736341
954	0.0604629
966	0.0605666
978	0.0594777
990	0.0539292
1002	0.0486918
1014	0.0461509
1026	0.0492623
1038	0.062226
1050	0.0623816
1062	0.0550182
1074	0.0574553
1086	0.0626927
1098	0.069745
1110	0.0621741
1122	0.0584924
1134	0.0558478
1146	0.0575072
1158	0.0527884
1170	0.0519069
1182	0.0551219
1194	0.0545515
1206	0.0537736
1218	0.050766
1230	0.0432471
1242	0.0459954
1254	0.0502475
1266	0.0526328
1278	0.0540329
1290	0.0504031
1302	0.0503512
1314	0.0509735
1326	0.0509735
1338	0.0519069
1350	0.0538773
1362	0.0527365
1374	0.0531514
1386	0.0566257
1398	0.0526847
1410	0.0455287
1422	0.0541366
1434	0.0771084
1446	0.0953095
1458	0.0832273
1470	0.0541366
1482	0.0412247
1494	0.0416396
1506	0.0395654
1518	0.0411729
1530	0.037543
1542	0.041847
1554	0.0434545
1566	0.0404469
1578	0.041847
1590	0.0402913
1602	0.0449583
1614	0.0470325
1626	0.0456843
1638	0.0547589
1650	0.0694857
1662	0.062226
1674	0.0584406
1686	0.0710932
1698	0.078664
1710	0.0887239
1722	0.148772
1734	0.40561
1746	0.502319
1758	0.233762
1770	0.105577
1782	0.0805827
1794	0.0646113
1806	0.0556404
1818	0.0490548
1830	0.0461509
1842	0.0431434
1854	0.0443879
1866	0.0437138
1878	0.0413803
1890	0.0421063
1902	0.0415877
1914	0.041121
1926	0.0415877
1938	0.0413284
1950	0.0412766
1962	0.0415877
1974	0.041484
1986	0.0406543
1998	0.0404988
2010	0.040758
2022	0.0407062
2034	0.040395
2046	0.0394617
2058	0.0395135
2070	0.0400321
2082	0.0398765
2094	0.0399802
2106	0.0405506
2118	0.0402395
2130	0.0400839
2142	0.0400839
2154	0.0396691
2166	0.0394617
2178	0.0394617
2190	0.0394617
2202	0.0393061
2214	0.0392024
2226	0.0386838
2238	0.0383727
2250	0.0385801
2262	0.0387357
2274	0.0384246
2286	0.0374393
2298	0.0368689
2310	0.0368689
2322	0.037543
2334	0.0372837
2346	0.0361429
2358	0.0369208
2370	0.0373356
2382	0.0376986
2394	0.0393061
2406	0.0401358
2418	0.0390987
2430	0.0378023
2442	0.0364022
2454	0.0359355
2466	0.0366096
2478	0.0363504
2490	0.037543
2502	0.0380097
2514	0.0376986
2526	0.0381134
2538	0.0380616
2550	0.0380616
2562	0.0380097
2574	0.0393579
2586	0.0398765
2598	0.0409655
2610	0.0413803
2622	0.0440249
2634	0.0484326
2646	0.0556404
2658	0.0643521
2670	0.0749823
2682	0.0999764
2694	0.153906
2706	0.174959
2718	0.136793
2730	0.0971763
2742	0.0840051
2754	0.0780936
2766	0.0763306
2778	0.0786122
2790	0.0956725
2802	0.120822
2814	0.11237
2826	0.0897092
2838	0.112733
2850	0.169514
2862	0.180611
2874	0.155461
2886	0.150898
2898	0.166869
2910	0.208924
2922	0.288625
2934	0.34691
2946	0.249993
2958	0.145401
2970	0.0945317
2982	0.0716118
2994	0.0608259
3006	0.0548626
3018	0.0667374
3030	0.16381
3042	0.185848
3054	0.0981615
3066	0.0562108
3078	0.052944
3090	0.047914
3102	0.0464102
3114	0.0448546
3126	0.0449064
3138	0.0438693
3150	0.0429878
3162	0.0427804
3174	0.04221
3186	0.0424174
3198	0.04221
3210	0.04221
3222	0.0421581
3234	0.0426248
3246	0.0428322
3258	0.0426767
3270	0.0426248
3282	0.0435582
3294	0.0438693
3306	0.0434026
3318	0.0420025
3330	0.0415359
3342	0.0410173
3354	0.0410692
3366	0.041484
3378	0.0408099
3390	0.0406543
3402	0.041484
3414	0.0412247
3426	0.0413284
3438	0.0427285
3450	0.0445434
3462	0.0470325
3474	0.0468769
3486	0.0418988
3498	0.0395135
3510	0.0390987
3522	0.0393579
3534	0.0387357
3546	0.0394617
3558	0.0378023
3570	0.04221
3582	0.0393579
3594	0.041484
3606	0.0388912
3618	0.0392542
3630	0.044336
3642	0.0371282
3654	0.0448027
3666	0.0381134
3678	0.0404469
3690	0.042573
3702	0.0397728
3714	0.0412766
3726	0.0374393
3738	0.038995
3750	0.0477066
3762	0.0373875
3774	0.0404469
3786	0.0390468
3798	0.0430396
3810	0.0383208
3822	0.0448027
3834	0.0423137
3846	0.0405506
3858	0.0452176
3870	0.0455287
3882	0.0416396
3894	0.0419507
3906	0.0455287
3918	0.043973
3930	0.0427804
3942	0.0406025
3954	0.0431952
3966	0.0418988
