Infrared Spectrum: 1,3-Dioxolane-4-methanol, 2,2-dimethyl-
Formula: C 6 H 12 O 3
CAS: 100-79-8
Origin: Sadtler Research Labs Under US-EPA Contract
1/CM	ABSORBANCE
450	0.00825695
462	0.0156498
474	0.0111373
486	0.0168019
498	0.0312036
510	0.0832415
522	0.078633
534	0.0326437
546	0.0130575
558	0.00691279
570	0.00691279
582	0.0101772
594	0.0145937
606	0.0118094
618	0.00998514
630	0.00902503
642	0.0106572
654	0.017762
666	0.0152657
678	0.00912104
690	0.00182421
702	0.00374443
714	0.00201623
726	0.00297634
738	0.00374443
750	0.00499257
762	0.00547263
774	0.00768088
786	0.026115
798	0.0411887
810	0.0459893
822	0.096107
834	0.17426
846	0.246844
858	0.243484
870	0.139408
882	0.0909224
894	0.0813213
906	0.0851618
918	0.0809373
930	0.0565505
942	0.0445491
954	0.0587587
966	0.114637
978	0.142096
990	0.121934
1002	0.120206
1014	0.152657
1026	0.284193
1038	0.517691
1050	0.715282
1062	0.912777
1074	0.936011
1086	0.596804
1098	0.32999
1110	0.281792
1122	0.225914
1134	0.15717
1146	0.180981
1158	0.293698
1170	0.277856
1182	0.202775
1194	0.261246
1206	0.439346
1218	0.603045
1230	0.635785
1242	0.61255
1254	0.544094
1266	0.376555
1278	0.197783
1290	0.103596
1302	0.0709521
1314	0.0667276
1326	0.0779609
1338	0.0849697
1350	0.0893862
1362	0.182901
1374	0.442419
1386	0.473526
1398	0.21036
1410	0.105228
1422	0.0495417
1434	0.0336999
1446	0.0432049
1458	0.078825
1470	0.0718162
1482	0.0404206
1494	0.0218905
1506	0.00902503
1518	0.00326437
1530	0.00124814
1542	0.00211224
1554	0.00134415
1566	0.0017282
1578	0.00230426
1590	0.00220825
1602	0.00153618
1614	0.000864099
1626	0.000576066
1638	0.00105612
1650	0.00115213
1662	0.00192022
1674	0.00220825
1686	0.0034564
1698	0.00691279
1710	0.0096011
1722	0.0116173
1734	0.0129615
1746	0.01757
1758	0.0168979
1770	0.00921706
1782	0.00518459
1794	0.00566465
1806	0.0052806
1818	0.00547263
1830	0.00422448
1842	0.00288033
1854	0.00144016
1866	0.00230426
1878	0.00220825
1890	0.00192022
1902	0.00192022
1914	0.00105612
1926	0.000192022
1938	0.000288033
1950	0.000768088
1962	0.00105612
1974	0.00134415
1986	0.00144016
1998	0.00163219
2010	0.00278432
2022	0.0034564
2034	0.00336039
2046	0.00297634
2058	0.00268831
2070	0.00288033
2082	0.00288033
2094	0.00201623
2106	0.00249629
2118	0.00297634
2130	0.00355241
2142	0.00364842
2154	0.00355241
2166	0.00336039
2178	0.00316836
2190	0.00153618
2202	0.00163219
2214	0.00153618
2226	0.00096011
2238	0.000576066
2250	0.000576066
2262	0.000384044
2274	0.000864099
2286	0.00153618
2298	0.00163219
2310	0.00115213
2322	0.000384044
2334	0.00134415
2346	0.00326437
2358	0.00124814
2370	0.00249629
2382	0.00249629
2394	0.00115213
2406	0.00124814
2418	0.00134415
2430	0.00096011
2442	0.000672077
2454	0.000768088
2466	0.000768088
2478	0.000384044
2490	0.000576066
2502	0.000672077
2514	0.000768088
2526	0.00105612
2538	0.0017282
2550	0.00240027
2562	0.00278432
2574	0.00384044
2586	0.00518459
2598	0.00633673
2610	0.00691279
2622	0.00652875
2634	0.0070088
2646	0.00672077
2658	0.00806492
2670	0.00864099
2682	0.00979312
2694	0.00940908
2706	0.00864099
2718	0.0102732
2730	0.0125774
2742	0.0143056
2754	0.0167059
2766	0.0194902
2778	0.0213144
2790	0.0218905
2802	0.0244828
2814	0.0274591
2826	0.0327398
2838	0.0448371
2850	0.0720082
2862	0.136528
2874	0.266911
2886	0.423793
2898	0.430609
2910	0.301859
2922	0.285057
2934	0.379627
2946	0.468438
2958	0.392301
2970	0.240988
2982	0.310692
2994	0.621479
3006	0.428401
3018	0.0746966
3030	0.0240027
3042	0.0154578
3054	0.0115213
3066	0.00835296
3078	0.00624071
3090	0.00566465
3102	0.00518459
3114	0.00441651
3126	0.00441651
3138	0.0034564
3150	0.00288033
3162	0.00316836
3174	0.00460853
3186	0.0052806
3198	0.00518459
3210	0.00432049
3222	0.00364842
3234	0.00230426
3246	0.00124814
3258	0.000384044
3270	0
3282	0.000576066
3294	0.000192022
3306	0.000576066
3318	0.000864099
3330	0.0017282
3342	0.0017282
3354	0.000768088
3366	0.00144016
3378	0.00105612
3390	0.00105612
3402	0.000576066
3414	0.000288033
3426	0.000864099
3438	0.000672077
3450	0.00096011
3462	0.00105612
3474	0.00182421
3486	0.00220825
3498	0.0025923
3510	0.00307235
3522	0.00307235
3534	0.0025923
3546	0.00278432
3558	0.00297634
3570	0.00508858
3582	0.0070088
3594	0.0103692
3606	0.0274591
3618	0.0913065
3630	0.11915
3642	0.0669197
3654	0.0343719
3666	0.0399406
3678	0.0466613
3690	0.0276512
3702	0.00681678
3714	0.00364842
3726	0.00336039
3738	0.00364842
3750	0.0034564
3762	0.00220825
3774	0
3786	0
3798	0
3810	0
3822	0
3834	0
3846	0
3858	0
3870	0
3882	0
3894	0
3906	0
3918	0
3930	0
3942	0
3954	0.000384044
3966	0
