Infrared Spectrum: Acetophenone, 4'-nitro-
Formula: C 8 H 7 N O 3
CAS: 100-19-6
Origin: Sadtler Research Labs Under US-EPA Contract
1/CM	ABSORBANCE
450	0
462	0.0336494
474	0.0272362
486	0.0125097
498	0.0182103
510	0.0409335
522	0.00522555
534	0.00989687
546	0.00467132
558	0.00562143
570	0.0217731
582	0.0358663
594	0.0433087
606	0.100077
618	0.0631817
630	0.0151224
642	0.00902595
654	0.00704658
666	0.0104511
678	0.0477425
690	0.0806793
702	0.0576394
714	0.0247026
726	0.02399
738	0.170464
750	0.163101
762	0.0589062
774	0.0186061
786	0.0110053
798	0.0148849
810	0.0255735
822	0.036658
834	0.0594604
846	0.235862
858	0.426912
870	0.101582
882	0.0220898
894	0.0135389
906	0.0150432
918	0.0117971
930	0.0133806
942	0.0381623
954	0.11425
966	0.0616773
978	0.0236733
990	0.0179727
1002	0.0281863
1014	0.106094
1026	0.0319867
1038	0.01536
1050	0.0148057
1062	0.0260486
1074	0.044338
1086	0.0278696
1098	0.028503
1110	0.0351537
1122	0.0207439
1134	0.00989687
1146	0.00894678
1158	0.00997605
1170	0.013143
1182	0.0152016
1194	0.0193979
1206	0.0381623
1218	0.0998397
1230	0.280992
1242	0.420103
1254	0.674017
1266	0.487797
1278	0.132935
1290	0.117971
1302	0.116466
1314	0.0908929
1326	0.111003
1338	0.380753
1350	0.79175
1362	0.461511
1374	0.2399
1386	0.153916
1398	0.121613
1410	0.104273
1422	0.0650027
1434	0.0524138
1446	0.0409335
1458	0.028503
1470	0.0305615
1482	0.0455256
1494	0.0708616
1506	0.100711
1518	0.14584
1530	0.366026
1542	0.747966
1554	0.597059
1566	0.1977
1578	0.128422
1590	0.171651
1602	0.23127
1614	0.177431
1626	0.0608856
1638	0.0323826
1650	0.0307199
1662	0.0361038
1674	0.0599355
1686	0.0811544
1698	0.209893
1710	0.696898
1722	0.423903
1734	0.0898636
1746	0.0428337
1758	0.0336494
1770	0.0196354
1782	0.013143
1794	0.0157558
1806	0.01631
1818	0.0079175
1830	0.0079175
1842	0.00720493
1854	0.00704658
1866	0.00847172
1878	0.00625483
1890	0.00387958
1902	0.0076008
1914	0.00934265
1926	0.00965935
1938	0.009501
1950	0.00783833
1962	0.00752162
1974	0.00720493
1986	0.00364205
1998	0.0034837
2010	0.00300865
2022	0.00269195
2034	0.0034837
2046	0.00277113
2058	0.00197937
2070	0.0025336
2082	0.00174185
2094	0.00166267
2106	0.00245443
2118	0.00261277
2130	0.00300865
2142	0.003167
2154	0.00245443
2166	0.00292947
2178	0.003167
2190	0.00245443
2202	0.00308783
2214	0.00403793
2226	0.00324618
2238	0.0028503
2250	0.00213773
2262	0.00182102
2274	0.00364205
2286	0.00419628
2298	0.003167
2310	0.0025336
2322	0.00356288
2334	0.00554225
2346	0.00562143
2358	0.00498803
2370	0.00736327
2382	0.00554225
2394	0.00530472
2406	0.0047505
2418	0.0038004
2430	0.00419628
2442	0.00514637
2454	0.00577978
2466	0.00482968
2478	0.00451297
2490	0.00419628
2502	0.0034837
2514	0.00332535
2526	0.00229607
2538	0.0025336
2550	0.00245443
2562	0.00245443
2574	0.0038004
2586	0.00419628
2598	0.00490885
2610	0.00609647
2622	0.00530472
2634	0.00372122
2646	0.00482968
2658	0.00625483
2670	0.0072841
2682	0.00847172
2694	0.00902595
2706	0.0085509
2718	0.00752162
2730	0.00514637
2742	0.0047505
2754	0.00403793
2766	0.00482968
2778	0.0060173
2790	0.00593812
2802	0.00546308
2814	0.00625483
2826	0.0079175
2838	0.00997605
2850	0.0132222
2862	0.0157558
2874	0.0196354
2886	0.0216148
2898	0.0174185
2910	0.014489
2922	0.01631
2934	0.0196354
2946	0.0199521
2958	0.0184478
2970	0.020823
2982	0.0201896
2994	0.0163892
3006	0.0207439
3018	0.0345995
3030	0.0222482
3042	0.0149641
3054	0.0166267
3066	0.0258902
3078	0.0364205
3090	0.0243859
3102	0.0157558
3114	0.0142515
3126	0.0104511
3138	0.00934265
3150	0.0085509
3162	0.0082342
3174	0.00752162
3186	0.00783833
3198	0.00736327
3210	0.0072841
3222	0.0079175
3234	0.00807585
3246	0.00799667
3258	0.00847172
3270	0.00767998
3282	0.00783833
3294	0.00847172
3306	0.0085509
3318	0.00870925
3330	0.00878843
3342	0.0085509
3354	0.0091843
3366	0.009501
3378	0.0091843
3390	0.0133806
3402	0.0201896
3414	0.0165476
3426	0.0091843
3438	0.0072841
3450	0.00562143
3462	0.00680905
3474	0.00641318
3486	0.00490885
3498	0.0060173
3510	0.00562143
3522	0.0060173
3534	0.0057006
3546	0.00364205
3558	0.00482968
3570	0.00332535
3582	0.00459215
3594	0.00356288
3606	0.0038004
3618	0.00174185
3630	0.0034837
3642	0.00261277
3654	0.00150432
3666	0.00340452
3678	0.00213773
3690	0.0028503
3702	0.0022169
3714	0.00174185
3726	0.00292947
3738	0.00277113
3750	0.00269195
3762	0.00150432
3774	0.00150432
3786	0.00150432
3798	0.00150432
3810	0.00150432
3822	0.00150432
3834	0.00150432
3846	0.00150432
3858	0.00261277
3870	0.0015835
3882	0.00150432
3894	0.0019002
3906	0.00150432
3918	0.0015835
3930	0.00292947
3942	0.00150432
3954	0.0028503
3966	0.00364205
