Infrared Spectrum: Cyclohexene, 4-ethenyl-
Formula: C 8 H 12
CAS: 100-40-3
Origin: Sadtler Research Labs Under US-EPA Contract
1/CM	ABSORBANCE
450	0
462	0.0168052
474	0.0281436
486	0.0198423
498	0.0203484
510	0.02703
522	0.0208546
534	0.0203484
546	0.0213608
558	0.0176151
570	0.0185262
582	0.0217657
594	0.0262201
606	0.0249041
618	0.0340153
630	0.0656009
642	0.158434
654	0.269996
666	0.255216
678	0.136061
690	0.0740035
702	0.0524402
714	0.0564897
726	0.0811913
738	0.0618552
750	0.0375586
762	0.0275362
774	0.0234868
786	0.0222719
798	0.0238917
810	0.0242966
822	0.0220694
834	0.0257139
846	0.0345215
858	0.0461636
870	0.0531489
882	0.0619564
894	0.11551
906	0.287105
918	0.364855
930	0.205813
942	0.088784
954	0.0701565
966	0.0650947
978	0.092226
990	0.140313
1002	0.128873
1014	0.0753196
1026	0.0643861
1038	0.0668158
1050	0.0571983
1062	0.0367487
1074	0.0292572
1086	0.0258152
1098	0.0238917
1110	0.027435
1122	0.0373561
1134	0.0497069
1146	0.0526427
1158	0.0339141
1170	0.0283461
1182	0.0342178
1194	0.0317881
1206	0.0247016
1218	0.0233855
1230	0.0257139
1242	0.0357363
1254	0.0396845
1266	0.0334079
1278	0.0310795
1290	0.0338128
1302	0.0366474
1314	0.0363437
1326	0.0406969
1338	0.043734
1350	0.039482
1362	0.0313832
1374	0.0260177
1386	0.0298646
1398	0.032193
1410	0.0462649
1422	0.0767369
1434	0.120471
1446	0.134138
1458	0.0907075
1470	0.0440377
1482	0.0219682
1494	0.016299
1506	0.0161978
1518	0.0139706
1530	0.0160965
1542	0.0183237
1554	0.0191336
1566	0.0229806
1578	0.0248028
1590	0.0226769
1602	0.0306745
1614	0.0421142
1626	0.0765344
1638	0.160155
1650	0.1802
1662	0.0876704
1674	0.0305733
1686	0.0283461
1698	0.0279411
1710	0.0241954
1722	0.0208546
1734	0.0176151
1746	0.0149829
1758	0.0146792
1770	0.0147805
1782	0.014173
1794	0.0157928
1806	0.0160965
1818	0.02703
1830	0.0463661
1842	0.0385709
1854	0.0198423
1866	0.0177163
1878	0.0174126
1890	0.0159953
1902	0.0148817
1914	0.0148817
1926	0.0148817
1938	0.0137681
1950	0.0129582
1962	0.0137681
1974	0.0148817
1986	0.0151854
1998	0.0137681
2010	0.012452
2022	0.0116421
2034	0.0119458
2046	0.0115409
2058	0.0117434
2070	0.0120471
2082	0.0125533
2094	0.0138693
2106	0.0138693
2118	0.0126545
2130	0.0117434
2142	0.0114397
2154	0.0109335
2166	0.011136
2178	0.0105285
2190	0.011136
2202	0.0121483
2214	0.0122496
2226	0.0125533
2238	0.0129582
2250	0.0126545
2262	0.0120471
2274	0.0115409
2286	0.011136
2298	0.011136
2310	0.0104273
2322	0.0106298
2334	0.0103261
2346	0.0103261
2358	0.011136
2370	0.0103261
2382	0.0118446
2394	0.0125533
2406	0.0119458
2418	0.0116421
2430	0.0117434
2442	0.0112372
2454	0.0105285
2466	0.0112372
2478	0.0122496
2490	0.0123508
2502	0.0117434
2514	0.0113384
2526	0.0118446
2538	0.0121483
2550	0.0122496
2562	0.0122496
2574	0.0130594
2586	0.0133632
2598	0.0137681
2610	0.014578
2622	0.0154891
2634	0.0153879
2646	0.0172101
2658	0.0213608
2670	0.0230818
2682	0.0198423
2694	0.0173114
2706	0.0173114
2718	0.0175138
2730	0.0181212
2742	0.01802
2754	0.0181212
2766	0.0232843
2778	0.0262201
2790	0.0242966
2802	0.0254102
2814	0.0313832
2826	0.0639812
2838	0.213912
2850	0.381862
2862	0.369208
2874	0.279411
2886	0.325777
2898	0.444021
2910	0.616224
2922	0.884296
2934	0.927625
2946	0.536045
2958	0.239929
2970	0.16218
2982	0.195588
2994	0.184958
3006	0.177467
3018	0.203586
3030	0.538474
3042	0.484617
3054	0.108323
3066	0.100122
3078	0.171797
3090	0.212393
3102	0.11551
3114	0.0309782
3126	0.0216645
3138	0.0169064
3150	0.0142743
3162	0.0131607
3174	0.011136
3186	0.0112372
3198	0.011136
3210	0.010731
3222	0.0109335
3234	0.0116421
3246	0.0117434
3258	0.0123508
3270	0.0138693
3282	0.0152866
3294	0.0174126
3306	0.0169064
3318	0.0136669
3330	0.0122496
3342	0.0112372
3354	0.0112372
3366	0.0118446
3378	0.0109335
3390	0.0116421
3402	0.0114397
3414	0.0118446
3426	0.0122496
3438	0.0114397
3450	0.0103261
3462	0.0112372
3474	0.011136
3486	0.011136
3498	0.0108323
3510	0.011136
3522	0.0112372
3534	0.0117434
3546	0.012452
3558	0.0126545
3570	0.0117434
3582	0.0121483
3594	0.0125533
3606	0.0118446
3618	0.0123508
3630	0.0144767
3642	0.0115409
3654	0.0105285
3666	0.0134644
3678	0.0130594
3690	0.0119458
3702	0.0132619
3714	0.0134644
3726	0.0140718
3738	0.0129582
3750	0.0146792
3762	0.0129582
3774	0.0122496
3786	0.0119458
3798	0.0110347
3810	0.0134644
3822	0.0133632
3834	0.012857
3846	0.0133632
3858	0.011136
3870	0.0120471
3882	0.0133632
3894	0.011136
3906	0.0143755
3918	0.0122496
3930	0.0125533
3942	0.0131607
3954	0.0121483
3966	0.0125533
