Infrared Spectrum: 1,2-Ethanediamine, N,N-diethyl-
Formula: C 6 H 16 N 2
CAS: 100-36-7
Origin: Sadtler Research Labs Under US-EPA Contract
1/CM	ABSORBANCE
450	0
462	0.0187077
474	0.0492368
486	0.034087
498	0.0377597
510	0.0394812
522	0.043613
534	0.0539424
546	0.0492368
558	0.0413176
570	0.0249053
582	0.0293814
594	0.0273155
606	0.0236428
618	0.0301848
630	0.0262826
642	0.0316768
654	0.0293814
666	0.0335131
678	0.0426948
690	0.0475152
702	0.064157
714	0.0985883
726	0.148743
738	0.186388
750	0.215196
762	0.264547
774	0.252496
786	0.263973
798	0.297257
810	0.301503
822	0.248479
834	0.15012
846	0.0813726
858	0.0624354
870	0.0593366
882	0.0693217
894	0.0679444
906	0.058648
918	0.056123
930	0.0432687
942	0.0331688
954	0.0304143
966	0.0386778
978	0.0496958
990	0.0655342
1002	0.0760932
1014	0.0941122
1026	0.128429
1038	0.176173
1050	0.255136
1062	0.325835
1074	0.31321
1086	0.276598
1098	0.247332
1110	0.173189
1122	0.122116
1134	0.0913577
1146	0.0742568
1158	0.0717319
1170	0.0857339
1182	0.0961781
1194	0.13543
1206	0.222311
1218	0.186503
1230	0.0960633
1242	0.0646161
1254	0.0701251
1266	0.0849305
1278	0.101343
1290	0.15035
1302	0.172157
1314	0.136118
1326	0.117296
1338	0.150809
1350	0.200849
1362	0.21554
1374	0.270171
1386	0.311718
1398	0.184093
1410	0.0670263
1422	0.0502697
1434	0.0609434
1446	0.111787
1458	0.176173
1470	0.189602
1482	0.139562
1494	0.0719614
1506	0.0479743
1518	0.0434982
1530	0.0351199
1542	0.0387926
1554	0.0363824
1566	0.0339722
1578	0.0400551
1590	0.0448755
1602	0.0679444
1614	0.0970963
1626	0.0995065
1638	0.0752898
1650	0.0504992
1662	0.0247905
1674	0.0301848
1686	0.0282337
1698	0.0261678
1710	0.0280041
1722	0.0500402
1734	0.0394812
1746	0.0208883
1758	0.0184781
1770	0.0193963
1782	0.0173304
1794	0.0188224
1806	0.020544
1818	0.0196258
1830	0.0207736
1842	0.0174452
1854	0.019052
1866	0.0199702
1878	0.01756
1890	0.0183634
1902	0.0188224
1914	0.0181338
1926	0.0193963
1938	0.0193963
1950	0.0183634
1962	0.0182486
1974	0.0192815
1986	0.0192815
1998	0.0189372
2010	0.0191668
2022	0.0197406
2034	0.0196258
2046	0.0196258
2058	0.0198554
2070	0.020544
2082	0.0207736
2094	0.0210031
2106	0.0207736
2118	0.020544
2130	0.0196258
2142	0.0191668
2154	0.0191668
2166	0.0193963
2178	0.0201997
2190	0.0200849
2202	0.0193963
2214	0.0188224
2226	0.0191668
2238	0.0191668
2250	0.0203145
2262	0.0204292
2274	0.0210031
2286	0.0211179
2298	0.0224951
2310	0.0236428
2322	0.0232985
2334	0.0214622
2346	0.0228394
2358	0.0234133
2370	0.0232985
2382	0.0241019
2394	0.0214622
2406	0.022036
2418	0.0222656
2430	0.0232985
2442	0.0235281
2454	0.0228394
2466	0.0222656
2478	0.0223803
2490	0.0229542
2502	0.0237576
2514	0.0246758
2526	0.0263973
2538	0.0274303
2550	0.0297257
2562	0.0336279
2574	0.0367267
2586	0.0393665
2598	0.0393665
2610	0.0406289
2622	0.0431539
2634	0.0487777
2646	0.0584184
2658	0.0667967
2670	0.0747159
2682	0.0852749
2694	0.0969815
2706	0.113509
2718	0.131068
2730	0.145415
2742	0.157581
2754	0.182371
2766	0.221852
2778	0.277516
2790	0.426374
2802	0.676575
2814	0.755652
2826	0.598416
2838	0.434982
2850	0.37335
2862	0.374153
2874	0.43854
2886	0.503041
2898	0.482956
2910	0.507403
2922	0.580053
2934	0.775852
2946	0.875932
2958	0.753586
2970	0.999082
2982	1.07931
2994	0.452657
3006	0.151383
3018	0.0931941
3030	0.0742568
3042	0.0639274
3054	0.0563526
3066	0.0510731
3078	0.0457936
3090	0.0418914
3102	0.0392517
3114	0.0366119
3126	0.0352347
3138	0.0335131
3150	0.0324802
3162	0.0329393
3174	0.033054
3186	0.031562
3198	0.0293814
3210	0.027545
3222	0.0269712
3234	0.0259382
3246	0.0251348
3258	0.0249053
3270	0.0239871
3282	0.0234133
3294	0.024561
3306	0.0246758
3318	0.0265121
3330	0.0354642
3342	0.0415471
3354	0.0329393
3366	0.026053
3378	0.024561
3390	0.0284632
3402	0.0333984
3414	0.0335131
3426	0.0301848
3438	0.0255939
3450	0.0232985
3462	0.0236428
3474	0.0228394
3486	0.0218065
3498	0.0222656
3510	0.0197406
3522	0.0228394
3534	0.0219213
3546	0.0241019
3558	0.0185929
3570	0.0258235
3582	0.0206588
3594	0.0227247
3606	0.0228394
3618	0.0232985
3630	0.028578
3642	0.0203145
3654	0.0261678
3666	0.0239871
3678	0.0221508
3690	0.0236428
3702	0.0267416
3714	0.0253644
3726	0.0227247
3738	0.0232985
3750	0.0311029
3762	0.0212326
3774	0.022036
3786	0.0228394
3798	0.0237576
3810	0.0227247
3822	0.0254792
3834	0.0249053
3846	0.0239871
3858	0.0244462
3870	0.0278894
3882	0.0254792
3894	0.0235281
3906	0.0269712
3918	0.0293814
3930	0.0231837
3942	0.0249053
3954	0.0283484
3966	0.0298405
