Infrared Spectrum: Benzyl chloride
Formula: C 7 H 7 Cl
CAS: 100-44-7
Origin: Sadtler Research Labs Under US-EPA Contract
1/CM	ABSORBANCE
450	0.0279415
462	0.029194
474	0.0252437
486	0.0102131
498	0.00510655
510	0.0053956
522	0.00607005
534	0.00780435
546	0.0299648
558	0.111284
570	0.0713953
582	0.0170539
594	0.011562
606	0.0098277
618	0.0107912
630	0.0121401
642	0.0204262
654	0.0396962
666	0.0682158
678	0.232782
690	0.668765
702	0.902992
714	0.577618
726	0.270936
738	0.139033
750	0.0869077
762	0.0846916
774	0.0642655
786	0.0386363
798	0.0511619
810	0.132192
822	0.1135
834	0.0185955
846	0.00549195
858	0.00067445
870	0.0030832
882	0.0073226
894	0.0067445
906	0.00568465
918	0.00722625
930	0.0073226
942	0.00818975
954	0.00549195
966	0.00183065
978	0
990	0.00105985
1002	0.0042394
1014	0.0080934
1026	0.0357458
1038	0.0274597
1050	0.0122364
1062	0.0334334
1074	0.0398889
1086	0.027267
1098	0.0172466
1110	0.0108875
1122	0.0063591
1134	0.0065518
1146	0.0053956
1158	0.0065518
1170	0.0128145
1182	0.0217751
1194	0.0226422
1206	0.0288086
1218	0.0228349
1230	0.0199444
1242	0.0395035
1254	0.116102
1266	0.320075
1278	0.225074
1290	0.0762128
1302	0.050391
1314	0.0259182
1326	0.0209079
1338	0.0184028
1350	0.0139707
1362	0.00973135
1374	0.0109839
1386	0.0117547
1398	0.00857515
1410	0.0073226
1422	0.0142598
1434	0.0386363
1446	0.0946157
1458	0.10454
1470	0.0568465
1482	0.0315064
1494	0.0961573
1506	0.0878712
1518	0.0118511
1530	0.0106949
1542	0.0114656
1554	0.0090569
1566	0.0084788
1578	0.00915325
1590	0.0135853
1602	0.0262072
1614	0.0232204
1626	0.0090569
1638	0.00375765
1650	0.0063591
1662	0.00491385
1674	0.0067445
1686	0.0063591
1698	0.003854
1710	0.00645545
1722	0.0129109
1734	0.015416
1746	0.0128145
1758	0.0158014
1770	0.0158977
1782	0.0123328
1794	0.0256291
1806	0.0212933
1818	0.00857515
1830	0.00703355
1842	0.005781
1854	0.0080934
1866	0.0122364
1878	0.0138744
1890	0.0149342
1902	0.00896055
1914	0.00645545
1926	0.00973135
1938	0.0175357
1950	0.0223532
1962	0.0205226
1974	0.00626275
1986	0.001927
1998	0.00125255
2010	0.00105985
2022	0.0015416
2034	0.0007708
2046	0.00125255
2058	0.00202335
2070	0.00144525
2082	0.0009635
2094	0.00048175
2106	0.0001927
2118	9.635e-05
2130	0.0001927
2142	0
2154	0.0003854
2166	0.0005781
2178	0.00028905
2190	0.0001927
2202	0.00048175
2214	0.00048175
2226	0.0007708
2238	0.0009635
2250	0.00144525
2262	0.0015416
2274	0.00125255
2286	0.0009635
2298	0.0009635
2310	0.00202335
2322	0.0048175
2334	0.00433575
2346	0.0030832
2358	0.00298685
2370	0.0009635
2382	0.0011562
2394	0.0013489
2406	0.00144525
2418	0.00144525
2430	0.0011562
2442	0.0007708
2454	0.0005781
2466	0.00067445
2478	0.00105985
2490	0.00086715
2502	0.00048175
2514	0.0001927
2526	0.0005781
2538	0
2550	0.00048175
2562	0.0005781
2574	0.0003854
2586	0.00086715
2598	0.00183065
2610	0.0021197
2622	0.00183065
2634	0.0021197
2646	0.0021197
2658	0.0015416
2670	0.0013489
2682	0.00144525
2694	0.0021197
2706	0.0044321
2718	0.00568465
2730	0.00395035
2742	0.00317955
2754	0.0017343
2766	0.0013489
2778	0.0021197
2790	0.0036613
2802	0.00452845
2814	0.00472115
2826	0.00395035
2838	0.0052029
2850	0.0080934
2862	0.0126219
2874	0.0199444
2886	0.0221605
2898	0.0171503
2910	0.0135853
2922	0.0153196
2934	0.0248583
2946	0.0420086
2958	0.0701428
2970	0.0995295
2982	0.0793924
2994	0.0546304
3006	0.0572319
3018	0.0785253
3030	0.151944
3042	0.244633
3054	0.177284
3066	0.174297
3078	0.245596
3090	0.165915
3102	0.109261
3114	0.0654216
3126	0.0287123
3138	0.0065518
3150	0.00337225
3162	0.00337225
3174	0.00433575
3186	0.0028905
3198	0.0011562
3210	0.0011562
3222	0.00067445
3234	0.00048175
3246	0.00086715
3258	0.0003854
3270	0.0009635
3282	0.00086715
3294	0.0007708
3306	0.0007708
3318	0.00086715
3330	0.00086715
3342	0.0005781
3354	0.0005781
3366	0
3378	0.00067445
3390	0.00086715
3402	0.0007708
3414	0.00028905
3426	0.0007708
3438	0.00105985
3450	0.00105985
3462	0.00067445
3474	0.0011562
3486	0.0001927
3498	0.0007708
3510	0.0003854
3522	0.0011562
3534	0.0005781
3546	0.00144525
3558	0.00125255
3570	0.00144525
3582	0.0032759
3594	0.00356495
3606	0.0017343
3618	0.00260145
3630	0.0042394
3642	0.00375765
3654	0.00356495
3666	0.00356495
3678	0.00298685
3690	0.00163795
3702	0.00260145
3714	0.00337225
3726	0.0032759
3738	0.0015416
3750	0.0021197
3762	0.00163795
3774	0.00163795
3786	0.0015416
3798	0.0013489
3810	0.00163795
3822	0.00240875
3834	0.0009635
3846	0.00240875
3858	0.0032759
3870	0.00260145
3882	0.0040467
3894	0.00279415
3906	0.00356495
3918	0.00298685
3930	0.0028905
3942	0.001927
3954	0.00202335
3966	0.00163795
