Infrared Spectrum: Cyclohexanamine, N-methyl-
Formula: C 7 H 15 N
CAS: 100-60-7
Origin: Sadtler Research Labs Under US-EPA Contract
1/CM	ABSORBANCE
450	0.0504464
462	0.02212
474	0.0294403
486	0.0206878
498	0.0264167
510	0.0214835
522	0.0206878
534	0.0329414
546	0.0316683
558	0.0319865
570	0.0292812
582	0.0334188
594	0.0246662
606	0.0284855
618	0.0351693
630	0.0380337
642	0.0335779
654	0.039466
666	0.05347
678	0.0746353
690	0.0865705
702	0.0860931
714	0.0840243
726	0.0878436
738	0.0628591
750	0.0294403
762	0.0235523
774	0.0227566
786	0.0283264
798	0.0281672
810	0.0144815
822	0.0135266
834	0.018619
846	0.0251436
858	0.00986649
870	0.0168685
882	0.0440809
894	0.0485368
906	0.0275307
918	0.0316683
930	0.0388294
942	0.0445584
954	0.0170277
966	0.00493325
978	0.00843426
990	0.00891167
1002	0.0111396
1014	0.00970736
1026	0.0213244
1038	0.0211652
1050	0.0245071
1062	0.0307134
1074	0.0412165
1086	0.0496507
1098	0.0798868
1110	0.0762266
1122	0.0634957
1134	0.0825921
1146	0.11426
1158	0.112032
1170	0.0689063
1182	0.0362832
1194	0.0256211
1206	0.0257802
1218	0.0270533
1230	0.0297586
1242	0.0342145
1254	0.0437627
1266	0.0378746
1278	0.0225975
1290	0.0171868
1302	0.0229157
1314	0.0335779
1326	0.0391477
1338	0.0434444
1350	0.0611086
1362	0.0816373
1374	0.0787728
1386	0.0413756
1398	0.0249845
1410	0.0291221
1422	0.0396251
1434	0.0679515
1446	0.154363
1458	0.204332
1470	0.147043
1482	0.0997789
1494	0.0450358
1506	0.012731
1518	0.00541066
1530	0.00350101
1542	0.0042967
1554	0.00843426
1566	0.00652462
1578	0.00652462
1590	0.00477411
1602	0.00556979
1614	0.00381929
1626	0.00334188
1638	0.00413756
1650	0.00684289
1662	0.00938908
1674	0.0122535
1686	0.02212
1698	0.0907081
1710	0.133039
1722	0.0356467
1734	0.0154363
1746	0.00907081
1758	0.00763858
1770	0.00620634
1782	0.00556979
1794	0.0042967
1806	0.00541066
1818	0.00493325
1830	0.00381929
1842	0.0030236
1854	0.00350101
1866	0.00366015
1878	0.00206878
1890	0.00238705
1902	0.00238705
1914	0.0012731
1926	0.00159137
1938	0.00143223
1950	0.000159137
1962	0.000159137
1974	0.000159137
1986	0.000318274
1998	0
2010	0.000159137
2022	0.000318274
2034	0.000795685
2046	0.000795685
2058	0.000636548
2070	0.000795685
2082	0.00159137
2094	0.00143223
2106	0.00175051
2118	0.00159137
2130	0.00190964
2142	0.00238705
2154	0.00270533
2166	0.00206878
2178	0.00286447
2190	0.0030236
2202	0.00238705
2214	0.00190964
2226	0.00270533
2238	0.00413756
2250	0.00381929
2262	0.00381929
2274	0.00381929
2286	0.00525152
2298	0.00652462
2310	0.00779771
2322	0.00620634
2334	0.00541066
2346	0.00747944
2358	0.00779771
2370	0.00779771
2382	0.00954822
2394	0.00843426
2406	0.0100256
2418	0.0109805
2430	0.00875254
2442	0.0073203
2454	0.00636548
2466	0.00636548
2478	0.00684289
2490	0.00684289
2502	0.00604721
2514	0.00636548
2526	0.00716117
2538	0.0085934
2550	0.00970736
2562	0.0119353
2574	0.0140041
2586	0.0178233
2598	0.0229157
2610	0.0253028
2622	0.0257802
2634	0.0292812
2646	0.0362832
2658	0.0439218
2670	0.0466271
2682	0.0405799
2694	0.0361241
2706	0.0358058
2718	0.0370789
2730	0.0396251
2742	0.0434444
2754	0.0558571
2766	0.0829104
2778	0.137813
2790	0.218177
2802	0.250163
2814	0.187623
2826	0.128424
2838	0.15484
2850	0.353443
2862	0.623976
2874	0.484731
2886	0.271329
2898	0.290584
2910	0.470727
2922	0.838015
2934	1.54936
2946	1.34232
2958	0.59008
2970	0.245867
2982	0.138767
2994	0.0669967
3006	0.0318274
3018	0.02212
3030	0.0176642
3042	0.0140041
3054	0.0122535
3066	0.0109805
3078	0.0085934
3090	0.00747944
3102	0.00684289
3114	0.00493325
3126	0.00461497
3138	0.00556979
3150	0.00652462
3162	0.00700203
3174	0.00556979
3186	0.00461497
3198	0.0042967
3210	0.0042967
3222	0.00445584
3234	0.00445584
3246	0.0042967
3258	0.00413756
3270	0.00445584
3282	0.00477411
3294	0.00445584
3306	0.0042967
3318	0.00366015
3330	0.00445584
3342	0.0042967
3354	0.00509238
3366	0.00493325
3378	0.00397842
3390	0.0042967
3402	0.00413756
3414	0.00334188
3426	0.00270533
3438	0.00381929
3450	0.00366015
3462	0.0042967
3474	0.00541066
3486	0.00445584
3498	0.00445584
3510	0.00413756
3522	0.00461497
3534	0.00493325
3546	0.00588807
3558	0.00413756
3570	0.00827512
3582	0.00556979
3594	0.00652462
3606	0.00604721
3618	0.00604721
3630	0.0108213
3642	0.0268942
3654	0.0345327
3666	0.0146406
3678	0.00366015
3690	0.00238705
3702	0.00509238
3714	0.00445584
3726	0.00413756
3738	0.00334188
3750	0.00556979
3762	0.00286447
3774	0.00350101
3786	0.00381929
3798	0.00477411
3810	0.00509238
3822	0.00572893
3834	0.00493325
3846	0.00493325
3858	0.00525152
3870	0.00556979
3882	0.00811599
3894	0.00477411
3906	0.00652462
3918	0.00970736
3930	0.00668375
3942	0.00779771
3954	0.0073203
3966	0.0117761
