Infrared Spectrum: Ethanol, 2-(diethylamino)-
Formula: C 6 H 15 N O
CAS: 100-37-8
Origin: Sadtler Research Labs Under US-EPA Contract
1/CM	ABSORBANCE
450	0.00329304
462	0.0174872
474	0.00454212
486	0.0177143
498	0.00669963
510	0.00147619
522	0.012945
534	0.0179414
546	0.0296373
558	0.0378131
570	0.0295238
582	0.0126044
594	0.0151025
606	0.0148754
618	0.0171465
630	0.0154432
642	0.0126044
654	0.0131721
666	0.0179414
678	0.0138535
690	0.0174872
702	0.021348
714	0.0355421
726	0.0760805
738	0.0809633
750	0.0507582
762	0.0324762
774	0.0329304
786	0.038608
798	0.0547325
810	0.0457619
822	0.0290696
834	0.0222564
846	0.024641
858	0.0478058
870	0.0836886
882	0.0707435
894	0.0479194
906	0.0538241
918	0.0501904
930	0.0387216
942	0.0365641
954	0.0361099
966	0.0401978
978	0.0506446
990	0.0707435
1002	0.0960658
1014	0.138194
1026	0.233806
1038	0.403908
1050	0.554025
1062	0.62352
1074	0.585139
1086	0.457164
1098	0.266509
1110	0.145007
1122	0.109806
1134	0.0843699
1146	0.072901
1158	0.0958387
1170	0.155341
1182	0.174304
1194	0.228696
1206	0.31352
1218	0.237326
1230	0.130813
1242	0.0851647
1254	0.0931135
1266	0.116846
1278	0.116051
1290	0.141373
1302	0.165106
1314	0.138875
1326	0.13456
1338	0.162267
1350	0.204963
1362	0.230058
1374	0.279113
1386	0.35826
1398	0.349289
1410	0.258787
1422	0.122978
1434	0.0838021
1446	0.120026
1458	0.167604
1470	0.176802
1482	0.131381
1494	0.0595018
1506	0.0290696
1518	0.0212344
1530	0.0169194
1542	0.014989
1554	0.0126044
1566	0.00987911
1578	0.00953845
1590	0.00806226
1602	0.00704029
1614	0.00669963
1626	0.00601831
1638	0.00613186
1650	0.00613186
1662	0.00522344
1674	0.00431501
1686	0.00488278
1698	0.00420146
1710	0.00306593
1722	0.0038608
1734	0.00374725
1746	0.00295238
1758	0.0038608
1770	0.0036337
1782	0.0038608
1794	0.00454212
1806	0.00454212
1818	0.00431501
1830	0.00317948
1842	0.00317948
1854	0.00272527
1866	0.00272527
1878	0.00227106
1890	0.00317948
1902	0.00465567
1914	0.00499633
1926	0.0055641
1938	0.00613186
1950	0.00488278
1962	0.00397435
1974	0.00295238
1986	0.00204395
1998	0.00204395
2010	0.00113553
2022	0.000227106
2034	0.000567765
2046	0.000794871
2058	0.00124908
2070	0.00261172
2082	0.00420146
2094	0.00545054
2106	0.0057912
2118	0.0057912
2130	0.00442857
2142	0.0036337
2154	0.00306593
2166	0.00306593
2178	0.00340659
2190	0.00283883
2202	0.00295238
2214	0.00261172
2226	0.00249817
2238	0.00261172
2250	0.00317948
2262	0.00397435
2274	0.00476923
2286	0.00397435
2298	0.00295238
2310	0.00454212
2322	0.00681318
2334	0.00692673
2346	0.00510988
2358	0.00897069
2370	0.0019304
2382	0.00306593
2394	0.00442857
2406	0.00317948
2418	0.00317948
2430	0.00306593
2442	0.00295238
2454	0.00283883
2466	0.00215751
2478	0.00238461
2490	0.0017033
2502	0.00227106
2514	0.00261172
2526	0.00397435
2538	0.00465567
2550	0.00669963
2562	0.00828937
2574	0.00953845
2586	0.0119231
2598	0.0126044
2610	0.0131721
2622	0.0165787
2634	0.020326
2646	0.0267985
2658	0.0371318
2670	0.0421282
2682	0.0451941
2694	0.0531428
2706	0.0657472
2718	0.078238
2730	0.0875494
2742	0.0920915
2754	0.104469
2766	0.131267
2778	0.161472
2790	0.233692
2802	0.407428
2814	0.615571
2826	0.634648
2838	0.469201
2850	0.314655
2862	0.294216
2874	0.426732
2886	0.511102
2898	0.440359
2910	0.389487
2922	0.46375
2934	0.656563
2946	0.748996
2958	0.69097
2970	0.943625
2982	1.06524
2994	0.471586
3006	0.130586
3018	0.0633626
3030	0.0437179
3042	0.036337
3054	0.029978
3066	0.0235055
3078	0.0181685
3090	0.0152161
3102	0.012945
3114	0.0115824
3126	0.0104469
3138	0.00885713
3150	0.00783516
3162	0.0077216
3174	0.00863003
3186	0.00806226
3198	0.00590476
3210	0.00408791
3222	0.00261172
3234	0.00306593
3246	0.00329304
3258	0.00283883
3270	0.0038608
3282	0.00567765
3294	0.00488278
3306	0.0038608
3318	0.0038608
3330	0.00454212
3342	0.00476923
3354	0.0057912
3366	0.00669963
3378	0.00931135
3390	0.0112417
3402	0.0173736
3414	0.0233919
3426	0.0261172
3438	0.0207802
3450	0.0189634
3462	0.0200989
3474	0.0221428
3486	0.0191905
3498	0.0220293
3510	0.0441721
3522	0.0936812
3534	0.123091
3546	0.0917508
3558	0.0627948
3570	0.0413333
3582	0.0346337
3594	0.0282747
3606	0.0147619
3618	0.0118095
3630	0.0123773
3642	0.0140806
3654	0.0231648
3666	0.0348608
3678	0.0317948
3690	0.0183956
3702	0.0103333
3714	0.0105604
3726	0.00760805
3738	0.00828937
3750	0.0110146
3762	0.00976556
3774	0.0104469
3786	0.00919779
3798	0.00613186
3810	0.00488278
3822	0.0126044
3834	0.0154432
3846	0.0103333
3858	0.013967
3870	0.0172601
3882	0.0110146
3894	0.012945
3906	0.0115824
3918	0.0146483
3930	0.0138535
3942	0.0138535
3954	0.0111282
3966	0.0146483
