Infrared Spectrum: Benzene, 1-chloro-4-nitro-
Formula: C 6 H 4 Cl N O 2
CAS: 100-00-5
Origin: Sadtler Research Labs Under US-EPA Contract
1/CM	ABSORBANCE
450	0.0250642
462	0.019621
474	0.0336721
486	0.0417737
498	0.0241781
510	0.0583566
522	0.189374
534	0.20102
546	0.0751927
558	0.018988
570	0.0105067
582	0.0194944
594	0.0127853
606	0.011646
618	0.00860792
630	0.00797498
642	0.00670911
654	0.0126587
666	0.0341785
678	0.05304
690	0.0283555
702	0.00417737
714	0.00784839
726	0.0831677
738	0.22254
750	0.153297
762	0.0470904
774	0.00696229
786	0.005823
798	0.0100004
810	0.0225325
822	0.085826
834	0.240768
846	0.669265
858	0.829398
870	0.0783574
882	0.0222793
894	0.013798
906	0.0126587
918	0.00886109
930	0.0155702
942	0.0206337
954	0.0111397
966	0.00468372
978	0.00354444
990	0.0039242
1002	0.0237984
1014	0.205704
1026	0.0563312
1038	0.0115194
1050	0.0227857
1062	0.0383559
1074	0.0546856
1086	0.202792
1098	0.632555
1110	0.34976
1122	0.0731673
1134	0.013798
1146	0.0039242
1158	0.00734205
1170	0.0620276
1182	0.0377229
1194	0.0200007
1206	0.0198742
1218	0.0311404
1230	0.0387356
1242	0.0235452
1254	0.0394951
1266	0.0649391
1278	0.0724078
1290	0.0521538
1302	0.0513943
1314	0.0769649
1326	0.310518
1338	0.925351
1350	1.19245
1362	0.839905
1374	0.24849
1386	0.176083
1398	0.087345
1410	0.104941
1422	0.14355
1434	0.0551919
1446	0.0260769
1458	0.0425332
1470	0.236844
1482	0.586731
1494	0.150639
1506	0.128106
1518	0.350899
1530	0.873957
1542	1.26587
1554	0.941554
1566	0.431282
1578	0.415205
1590	0.441029
1602	0.493689
1614	0.356975
1626	0.124055
1638	0.0553185
1650	0.050888
1662	0.0478499
1674	0.0326594
1686	0.0141777
1698	0.00772181
1710	0.00544324
1722	0.00696229
1734	0.00417737
1746	0.00303809
1758	0.00544324
1770	0.01595
1782	0.0240515
1794	0.00835474
1806	0.00620276
1818	0.00658252
1830	0.00962061
1842	0.00772181
1854	0.00430396
1866	0.00354444
1878	0.00506348
1890	0.0103801
1902	0.0213932
1914	0.0293682
1926	0.0203805
1938	0.005823
1950	0.00265833
1962	0.0029115
1974	0.00202539
1986	0.000886109
1998	0.000886109
2010	0.00139246
2022	0.00139246
2034	0.00177222
2046	0.0010127
2058	0.00126587
2070	0.00126587
2082	0.00164563
2094	0.00177222
2106	0.00177222
2118	0.00215198
2130	0.00202539
2142	0.00164563
2154	0.00151904
2166	0.00113928
2178	0.0010127
2190	0.00177222
2202	0.00278491
2214	0.00379761
2226	0.00341785
2238	0.00202539
2250	0.00215198
2262	0.00354444
2274	0.00632935
2286	0.00519007
2298	0.00164563
2310	0.0010127
2322	0.000126587
2334	0
2346	0.00151904
2358	0.00430396
2370	0.000126587
2382	0.00493689
2394	0.00848133
2406	0.00696229
2418	0.00468372
2430	0.00531665
2442	0.00784839
2454	0.00962061
2466	0.00860792
2478	0.00531665
2490	0.00531665
2502	0.00519007
2514	0.00455713
2526	0.00493689
2538	0.00556983
2550	0.00734205
2562	0.00734205
2574	0.00670911
2586	0.00962061
2598	0.00734205
2610	0.00405078
2622	0.00341785
2634	0.00341785
2646	0.00443055
2658	0.00620276
2670	0.00886109
2682	0.0118992
2694	0.0136714
2706	0.0108865
2718	0.00784839
2730	0.005823
2742	0.00632935
2754	0.00746863
2766	0.00708887
2778	0.00519007
2790	0.00455713
2802	0.00443055
2814	0.00556983
2826	0.00696229
2838	0.0103801
2850	0.0154436
2862	0.0221527
2874	0.0253174
2886	0.0243047
2898	0.02114
2910	0.0177222
2922	0.0144309
2934	0.0132916
2946	0.0113928
2958	0.00860792
2970	0.00531665
2982	0.00417737
2994	0.00430396
3006	0.00468372
3018	0.00417737
3030	0.00468372
3042	0.00620276
3054	0.00519007
3066	0.00886109
3078	0.0197476
3090	0.0400015
3102	0.0241781
3114	0.00898768
3126	0.00430396
3138	0.00354444
3150	0.00354444
3162	0.00316468
3174	0.00354444
3186	0.00405078
3198	0.00519007
3210	0.00544324
3222	0.00417737
3234	0.00240515
3246	0.0018988
3258	0.00177222
3270	0.0018988
3282	0.00151904
3294	0.00265833
3306	0.00240515
3318	0.00240515
3330	0.00215198
3342	0.00202539
3354	0.00316468
3366	0.00379761
3378	0.00278491
3390	0.00379761
3402	0.00354444
3414	0.00430396
3426	0.00519007
3438	0.00405078
3450	0.00354444
3462	0.00265833
3474	0.00430396
3486	0.00367102
3498	0.0039242
3510	0.00303809
3522	0.00341785
3534	0.00227857
3546	0.00202539
3558	0.00164563
3570	0.00164563
3582	0.00278491
3594	0.00215198
3606	0.000759522
3618	0.00278491
3630	0.0018988
3642	0.00303809
3654	0.00443055
3666	0.00341785
3678	0.00126587
3690	0.00569641
3702	0.00632935
3714	0.00455713
3726	0.00721546
3738	0.00556983
3750	0.00721546
3762	0.00354444
3774	0.00506348
3786	0.005823
3798	0.00721546
3810	0.00468372
3822	0.00556983
3834	0.0103801
3846	0.00746863
3858	0.00569641
3870	0.00645594
3882	0.00670911
3894	0.0039242
3906	0.00379761
3918	0.0110131
3930	0.00632935
3942	0.00544324
3954	0.00354444
3966	0.00708887
