Infrared Spectrum: Morpholine, 4-ethyl-
Formula: C 6 H 13 N O
CAS: 100-74-3
Origin: Sadtler Research Labs Under US-EPA Contract
1/CM	ABSORBANCE
450	0
462	0.0133939
474	0.0231577
486	0.0242843
498	0.0252858
510	0.0192773
522	0.0101393
534	0.0108904
546	0.00888757
558	0.00713509
570	0.012017
582	0.0142702
594	0.0244095
606	0.0801133
618	0.0878743
630	0.0271634
642	0.01064
654	0.0092631
666	0.00863721
678	0.00826168
690	0.0112659
702	0.0107652
714	0.0118918
726	0.0168989
738	0.0254109
750	0.0441875
762	0.0818658
774	0.121422
786	0.0670949
798	0.0307935
810	0.0210297
822	0.0200283
834	0.0173996
846	0.0515729
858	0.175248
870	0.187265
882	0.0547023
894	0.0400566
906	0.0991402
918	0.130935
930	0.13444
942	0.236334
954	0.178502
966	0.0421846
978	0.0227822
990	0.0312943
1002	0.0589584
1014	0.127931
1026	0.218809
1038	0.185637
1050	0.0674704
1062	0.0743551
1074	0.0991402
1086	0.111783
1098	0.164858
1110	0.430233
1122	1.01043
1134	1.16177
1146	0.679085
1158	0.451639
1170	0.203413
1182	0.0885001
1194	0.0781104
1206	0.0773594
1218	0.0537009
1230	0.0384293
1242	0.0935072
1254	0.200659
1266	0.245973
1278	0.188767
1290	0.176249
1302	0.241091
1314	0.227321
1326	0.168739
1338	0.16273
1350	0.21205
1362	0.205666
1374	0.178127
1386	0.182258
1398	0.147208
1410	0.0907533
1422	0.0484435
1434	0.0634647
1446	0.165108
1458	0.22244
1470	0.156096
1482	0.0847448
1494	0.0326712
1506	0.0166485
1518	0.0121422
1530	0.012017
1542	0.0118918
1554	0.00988898
1566	0.00838686
1578	0.00788615
1590	0.00901274
1602	0.00863721
1614	0.00901274
1626	0.00801133
1638	0.00826168
1650	0.0060085
1662	0.00663438
1674	0.00788615
1686	0.00951345
1698	0.0111408
1710	0.01765
1722	0.0182758
1734	0.00851204
1746	0.00588332
1758	0.00776097
1770	0.00851204
1782	0.00901274
1794	0.0065092
1806	0.00776097
1818	0.00675956
1830	0.00463155
1842	0.0065092
1854	0.00625885
1866	0.0065092
1878	0.00838686
1890	0.0092631
1902	0.0113911
1914	0.012017
1926	0.0136443
1938	0.014145
1950	0.0126429
1962	0.0131436
1974	0.0194024
1986	0.0216556
1998	0.0148961
2010	0.00801133
2022	0.00500708
2034	0.00575814
2046	0.00813651
2058	0.0100142
2070	0.0113911
2082	0.0111408
2094	0.00801133
2106	0.00638403
2118	0.0065092
2130	0.00700991
2142	0.00776097
2154	0.00776097
2166	0.00688473
2178	0.00588332
2190	0.00513226
2202	0.00513226
2214	0.0060085
2226	0.00663438
2238	0.00826168
2250	0.00951345
2262	0.00938827
2274	0.00913792
2286	0.00988898
2298	0.012017
2310	0.0126429
2322	0.00976381
2334	0.00938827
2346	0.00851204
2358	0.00538261
2370	0.0123925
2382	0.0107652
2394	0.0107652
2406	0.0112659
2418	0.0102645
2430	0.00901274
2442	0.00751062
2454	0.0076358
2466	0.00826168
2478	0.00888757
2490	0.0092631
2502	0.0092631
2514	0.0100142
2526	0.0105149
2538	0.0122673
2550	0.0151464
2562	0.0168989
2574	0.0172744
2586	0.016273
2598	0.0175248
2610	0.0196528
2622	0.0232829
2634	0.0332971
2646	0.0479428
2658	0.0654676
2670	0.0788615
2682	0.101143
2694	0.121046
2706	0.12017
2718	0.1238
2730	0.144079
2742	0.178878
2754	0.245848
2766	0.341233
2778	0.404197
2790	0.54815
2802	0.788114
2814	0.868603
2826	0.632144
2838	0.390052
2850	0.45264
2862	0.771967
2874	0.633771
2886	0.455644
2898	0.444378
2910	0.462905
2922	0.538637
2934	0.656679
2946	0.753816
2958	0.859966
2970	1.13711
2982	1.04423
2994	0.36076
3006	0.0956352
3018	0.040307
3030	0.030418
3042	0.0279145
3054	0.0287907
3066	0.0280396
3078	0.024034
3090	0.0209046
3102	0.0212801
3114	0.0224067
3126	0.0201535
3138	0.0167737
3150	0.0157723
3162	0.0153968
3174	0.0156471
3186	0.0158975
3198	0.016273
3210	0.0151464
3222	0.0161478
3234	0.0148961
3246	0.0133939
3258	0.0122673
3270	0.0128932
3282	0.0105149
3294	0.0092631
3306	0.00838686
3318	0.00788615
3330	0.00700991
3342	0.00638403
3354	0.00700991
3366	0.00675956
3378	0.00563297
3390	0.00713509
3402	0.00513226
3414	0.0060085
3426	0.0065092
3438	0.00700991
3450	0.00613367
3462	0.0076358
3474	0.00688473
3486	0.00700991
3498	0.00688473
3510	0.00738544
3522	0.00726027
3534	0.00675956
3546	0.00713509
3558	0.00675956
3570	0.00951345
3582	0.00876239
3594	0.00826168
3606	0.00575814
3618	0.0076358
3630	0.00963863
3642	0.00538261
3654	0.00726027
3666	0.00588332
3678	0.0113911
3690	0.00851204
3702	0.00851204
3714	0.0100142
3726	0.0126429
3738	0.0113911
3750	0.0118918
3762	0.0102645
3774	0.0110156
3786	0.00700991
3798	0.00963863
3810	0.0065092
3822	0.0105149
3834	0.0121422
3846	0.00851204
3858	0.00938827
3870	0.00838686
3882	0.0108904
3894	0.0131436
3906	0.0101393
3918	0.0130184
3930	0.0121422
3942	0.0128932
3954	0.0117666
3966	0.00938827
