Infrared Spectrum: Benzene, 1-methoxy-3-methyl-
Formula: C 8 H 10 O
CAS: 100-84-5
Origin: Sadtler Research Labs Under US-EPA Contract
1/CM	ABSORBANCE
450	0
462	0.0228223
474	0.0144503
486	0.0142209
498	0.018923
510	0.0292447
522	0.0338321
534	0.033144
546	0.0508055
558	0.0606684
570	0.053902
582	0.0384195
594	0.0246573
606	0.0205286
618	0.0184643
630	0.0186937
642	0.0214461
654	0.0191524
666	0.02913
678	0.130282
690	0.292561
702	0.135328
714	0.0746599
726	0.0949592
738	0.0527551
750	0.0884221
762	0.244852
774	0.366189
786	0.228338
798	0.0777564
810	0.0307356
822	0.0373873
834	0.0595215
846	0.0777564
858	0.0878487
870	0.0988585
882	0.08739
894	0.0955326
906	0.129709
918	0.0971382
930	0.0369286
942	0.026951
954	0.0287859
966	0.0347496
978	0.0509201
990	0.0674348
1002	0.0686963
1014	0.0635355
1026	0.0983997
1038	0.275817
1050	0.522161
1062	0.497389
1074	0.256206
1086	0.12214
1098	0.0832613
1110	0.0544754
1122	0.0568838
1134	0.0891102
1146	0.394516
1158	0.828599
1170	0.508743
1182	0.225241
1194	0.141407
1206	0.0904865
1218	0.0784445
1230	0.113079
1242	0.275817
1254	0.761394
1266	1.14685
1278	0.811855
1290	0.746026
1302	0.57354
1314	0.268363
1326	0.173862
1338	0.115373
1350	0.0625033
1362	0.0442684
1374	0.0488558
1386	0.0643383
1398	0.0762655
1410	0.0884221
1422	0.170766
1434	0.338091
1446	0.347496
1458	0.357817
1470	0.405526
1482	0.523193
1494	0.735016
1506	0.470782
1518	0.264693
1530	0.205401
1542	0.168014
1554	0.135099
1566	0.16572
1578	0.354491
1590	0.707148
1602	0.952918
1614	0.769422
1626	0.349445
1638	0.112047
1650	0.0581453
1662	0.0403691
1674	0.0330293
1686	0.0298181
1698	0.0300475
1710	0.0370433
1722	0.0464474
1734	0.0427775
1746	0.0317677
1758	0.0246573
1770	0.0215608
1782	0.0181202
1794	0.0196111
1806	0.0260335
1818	0.0276391
1830	0.0298181
1842	0.0295887
1854	0.0228223
1866	0.0227076
1878	0.0295887
1890	0.0306209
1902	0.0302768
1914	0.0357817
1926	0.031309
1938	0.0222489
1950	0.0208727
1962	0.0221342
1974	0.0224783
1986	0.0232811
1998	0.0220195
2010	0.0227076
2022	0.0238545
2034	0.0237398
2046	0.0270657
2058	0.0268363
2070	0.0239692
2082	0.025116
2094	0.0256894
2106	0.0248866
2118	0.0225929
2130	0.0208727
2142	0.0206433
2154	0.0238545
2166	0.0241985
2178	0.0238545
2190	0.0244279
2202	0.0235104
2214	0.0241985
2226	0.0204139
2238	0.0160559
2250	0.0146797
2262	0.0142209
2274	0.0144503
2286	0.0152531
2298	0.0161706
2310	0.0194965
2322	0.0220195
2334	0.0193818
2346	0.0181202
2358	0.0183496
2370	0.0161706
2382	0.0168587
2394	0.0186937
2406	0.020758
2418	0.0224783
2430	0.0217902
2442	0.0220195
2454	0.0213314
2466	0.0193818
2478	0.0200699
2490	0.0201846
2502	0.0191524
2514	0.0192671
2526	0.020758
2538	0.0238545
2550	0.0286713
2562	0.026951
2574	0.0230517
2586	0.0230517
2598	0.0224783
2610	0.0216755
2622	0.0205286
2634	0.0196111
2646	0.0197258
2658	0.0193818
2670	0.0184643
2682	0.0177762
2694	0.0182349
2706	0.0191524
2718	0.0209874
2730	0.0259188
2742	0.0322265
2754	0.0310796
2766	0.0274097
2778	0.0289006
2790	0.0318824
2802	0.0364698
2814	0.0479383
2826	0.0871606
2838	0.225241
2850	0.2749
2862	0.177532
2874	0.192785
2886	0.208153
2898	0.217787
2910	0.289809
2922	0.414357
2934	0.473649
2946	0.532482
2958	0.495669
2970	0.280061
2982	0.199781
2994	0.252422
3006	0.40759
3018	0.322035
3030	0.253454
3042	0.284992
3054	0.295199
3066	0.257353
3078	0.192671
3090	0.148288
3102	0.0989732
3114	0.0704166
3126	0.043695
3138	0.0295887
3150	0.0243132
3162	0.0213314
3174	0.0202992
3186	0.0188083
3198	0.0181202
3210	0.0175468
3222	0.0172027
3234	0.0170881
3246	0.016744
3258	0.0165146
3270	0.0165146
3282	0.0161706
3294	0.0164
3306	0.0157118
3318	0.0159412
3330	0.0162853
3342	0.0164
3354	0.0164
3366	0.0161706
3378	0.0155972
3390	0.0157118
3402	0.0160559
3414	0.0164
3426	0.0164
3438	0.0155972
3450	0.0164
3462	0.0159412
3474	0.0168587
3486	0.0159412
3498	0.0172027
3510	0.0168587
3522	0.0159412
3534	0.0155972
3546	0.0153678
3558	0.0155972
3570	0.0159412
3582	0.0164
3594	0.0150237
3606	0.0160559
3618	0.0162853
3630	0.0157118
3642	0.0152531
3654	0.0154825
3666	0.0153678
3678	0.0143356
3690	0.0147944
3702	0.0157118
3714	0.0149091
3726	0.0151384
3738	0.0161706
3750	0.0170881
3762	0.0175468
3774	0.0170881
3786	0.0159412
3798	0.0162853
3810	0.0170881
3822	0.016744
3834	0.0162853
3846	0.0160559
3858	0.0151384
3870	0.0161706
3882	0.0169734
3894	0.0182349
3906	0.018579
3918	0.0180055
3930	0.0180055
3942	0.0165146
3954	0.0173174
3966	0.0173174
