Infrared Spectrum: Decane, 1-chloro-
Formula: C 10 H 21 Cl
CAS: 1002-69-3
Origin: Sadtler Research Labs Under US-EPA Contract
1/CM	ABSORBANCE
450	0
462	0.03766
474	0.0458745
486	0.0418305
498	0.0342479
510	0.0248961
522	0.0288137
534	0.031594
546	0.0248961
558	0.0267917
570	0.02755
582	0.032605
594	0.0298247
606	0.0278027
618	0.0312149
630	0.0320995
642	0.0375337
654	0.0597758
666	0.0793641
678	0.0420832
690	0.0375337
702	0.0422096
714	0.058133
726	0.0829027
738	0.0974359
750	0.0869467
762	0.0653364
774	0.0454954
786	0.0369018
798	0.0398084
810	0.0432206
822	0.0338688
834	0.0343743
846	0.0371545
858	0.0363963
870	0.0355117
882	0.035638
894	0.0375337
906	0.0350062
918	0.0341215
930	0.0334896
942	0.032605
954	0.0324786
966	0.0362699
978	0.032605
990	0.0361435
1002	0.0370282
1014	0.0317204
1026	0.0338688
1038	0.0341215
1050	0.0363963
1062	0.0343743
1074	0.0323523
1086	0.0304566
1098	0.0289401
1110	0.0300775
1122	0.0300775
1134	0.0279291
1146	0.0279291
1158	0.0286874
1170	0.028561
1182	0.0289401
1194	0.0291929
1206	0.029572
1218	0.0318468
1230	0.034627
1242	0.0381656
1254	0.0465064
1266	0.0554791
1278	0.0658419
1290	0.0877049
1302	0.090738
1314	0.0826499
1326	0.0659683
1338	0.0550999
1350	0.0623034
1362	0.0586385
1374	0.0538362
1386	0.0545944
1398	0.0379128
1410	0.0347534
1422	0.0370282
1434	0.0538362
1446	0.0923809
1458	0.136865
1470	0.128651
1482	0.0629352
1494	0.035638
1506	0.030583
1518	0.0276763
1530	0.026539
1542	0.0250224
1554	0.0238851
1566	0.0238851
1578	0.0223686
1590	0.0235059
1602	0.0233796
1614	0.0230004
1626	0.0217367
1638	0.0226213
1650	0.0213575
1662	0.0224949
1674	0.0214839
1686	0.0213575
1698	0.0212312
1710	0.0216103
1722	0.0212312
1734	0.0207257
1746	0.021863
1758	0.0213575
1770	0.0205993
1782	0.020852
1794	0.0204729
1806	0.0207257
1818	0.019841
1830	0.0200938
1842	0.0199674
1854	0.0202202
1866	0.0203465
1878	0.0203465
1890	0.0199674
1902	0.0200938
1914	0.0202202
1926	0.0207257
1938	0.0203465
1950	0.0203465
1962	0.0199674
1974	0.0204729
1986	0.0200938
1998	0.0195883
2010	0.0195883
2022	0.0207257
2034	0.0212312
2046	0.0212312
2058	0.0213575
2070	0.0200938
2082	0.0199674
2094	0.0200938
2106	0.0193355
2118	0.0195883
2130	0.0199674
2142	0.0195883
2154	0.0199674
2166	0.019841
2178	0.0202202
2190	0.019841
2202	0.0194619
2214	0.019841
2226	0.019841
2238	0.019841
2250	0.0200938
2262	0.0199674
2274	0.019841
2286	0.0209784
2298	0.0209784
2310	0.0216103
2322	0.021863
2334	0.0213575
2346	0.0226213
2358	0.0212312
2370	0.0245169
2382	0.0233796
2394	0.0216103
2406	0.0212312
2418	0.0217367
2430	0.0216103
2442	0.0213575
2454	0.0216103
2466	0.0214839
2478	0.021863
2490	0.0223686
2502	0.0221158
2514	0.0226213
2526	0.0232532
2538	0.0236323
2550	0.0238851
2562	0.0241378
2574	0.0252752
2586	0.0256543
2598	0.0256543
2610	0.0262862
2622	0.0269181
2634	0.0278027
2646	0.0289401
2658	0.030583
2670	0.0318468
2682	0.032605
2694	0.0327314
2706	0.0312149
2718	0.0303302
2730	0.0318468
2742	0.0337424
2754	0.0327314
2766	0.0329841
2778	0.0345006
2790	0.0381656
2802	0.0446107
2814	0.0521933
2826	0.06521
2838	0.0903588
2850	0.18691
2862	0.474795
2874	0.447877
2886	0.319226
2898	0.269181
2910	0.393535
2922	0.718827
2934	1.26376
2946	0.931391
2958	0.536845
2970	0.577412
2982	0.2434
2994	0.155948
3006	0.117403
3018	0.0635671
3030	0.0508032
3042	0.0428415
3054	0.0372809
3066	0.0341215
3078	0.0319731
3090	0.0291929
3102	0.0291929
3114	0.02755
3126	0.0271708
3138	0.0261598
3150	0.0264126
3162	0.025528
3174	0.0250224
3186	0.0257807
3198	0.0243906
3210	0.0237587
3222	0.0219894
3234	0.0219894
3246	0.0211048
3258	0.0216103
3270	0.0211048
3282	0.0214839
3294	0.0209784
3306	0.020852
3318	0.0207257
3330	0.0194619
3342	0.0211048
3354	0.0212312
3366	0.0193355
3378	0.0212312
3390	0.0209784
3402	0.0213575
3414	0.0217367
3426	0.021863
3438	0.0212312
3450	0.0221158
3462	0.0214839
3474	0.0217367
3486	0.0217367
3498	0.0238851
3510	0.0217367
3522	0.0205993
3534	0.021863
3546	0.0236323
3558	0.0205993
3570	0.0227477
3582	0.0224949
3594	0.0214839
3606	0.0251488
3618	0.0219894
3630	0.0237587
3642	0.0259071
3654	0.0250224
3666	0.0250224
3678	0.0245169
3690	0.0257807
3702	0.0252752
3714	0.0269181
3726	0.0270445
3738	0.0283082
3750	0.021863
3762	0.0280555
3774	0.0242642
3786	0.0245169
3798	0.0256543
3810	0.0243906
3822	0.0256543
3834	0.0266653
3846	0.0227477
3858	0.0260335
3870	0.0271708
3882	0.025528
3894	0.0278027
3906	0.0270445
3918	0.0238851
3930	0.026539
3942	0.0269181
3954	0.0248961
3966	0.0242642
