Infrared Spectrum: Nitrous Oxide
Formula: N 2 O
CAS: 10024-97-2
Origin: Sadtler Research Labs Under US-EPA Contract
1/CM	ABSORBANCE
450	0.0111655
462	0.00280733
474	0.00778397
486	0.00599748
498	0.00689072
510	0.00650791
522	0.00440241
534	0.00810298
546	0.00950665
558	0.00880481
570	0.0268611
582	0.020736
594	0.0468952
606	0.0199703
618	0.0225863
630	0.00835819
642	0.00165888
654	0.00720974
666	0.00625269
678	0.00797537
690	0.00816678
702	0.00618889
714	0.00759256
726	0.00599748
738	0.00561466
750	0.00669931
762	0.0063803
774	0.00599748
786	0.0063165
798	0.00586988
810	0.0064441
822	0.00612509
834	0.00567847
846	0.00555086
858	0.0064441
870	0.00529565
882	0.00593368
894	0.00555086
906	0.00555086
918	0.00606128
930	0.00535945
942	0.00567847
954	0.00586988
966	0.00529565
978	0.00523185
990	0.00523185
1002	0.00510424
1014	0.00529565
1026	0.00440241
1038	0.00491283
1050	0.00478522
1062	0.00478522
1074	0.00465762
1086	0.00478522
1098	0.00446621
1110	0.00497663
1122	0.00606128
1134	0.00810298
1146	0.0112931
1158	0.0103361
1170	0.00797537
1182	0.011995
1194	0.00963425
1206	0.00708213
1218	0.00612509
1230	0.00988947
1242	0.0287114
1254	0.0772654
1266	0.138644
1278	0.137113
1290	0.0810936
1302	0.190835
1314	0.138835
1326	0.0412805
1338	0.00740115
1350	0.00376438
1362	0.00395579
1374	0.00363677
1386	0.00382818
1398	0.00357297
1410	0.00357297
1422	0.0042748
1434	0.00363677
1446	0.00331776
1458	0.00350916
1470	0.00357297
1482	0.00312635
1494	0.00331776
1506	0.00370057
1518	0.00370057
1530	0.00312635
1542	0.00338156
1554	0.00312635
1566	0.00319015
1578	0.00293494
1590	0.00255212
1602	0.00293494
1614	0.00293494
1626	0.00293494
1638	0.00299874
1650	0.00312635
1662	0.00280733
1674	0.00287113
1686	0.00293494
1698	0.00287113
1710	0.00267973
1722	0.00293494
1734	0.00248832
1746	0.00255212
1758	0.00255212
1770	0.0022331
1782	0.00242451
1794	0.00236071
1806	0.00229691
1818	0.00165888
1830	0.0020417
1842	0.00229691
1854	0.00178648
1866	0.00229691
1878	0.00299874
1890	0.0021693
1902	0.00191409
1914	0.00146747
1926	0.00159508
1938	0.00127606
1950	0.00121226
1962	0.00133986
1974	0.00140367
1986	0.000893242
1998	0.00114845
2010	0.00140367
2022	0.00108465
2034	0.00108465
2046	0.00133986
2058	0.00121226
2070	0.00140367
2082	0.00102085
2094	0.00140367
2106	0.00185029
2118	0.00236071
2130	0.00599748
2142	0.016844
2154	0.0431946
2166	0.109614
2178	0.232498
2190	0.362656
2202	0.457787
2214	0.467357
2226	0.344728
2238	0.63803
2250	0.43654
2262	0.0685244
2274	0.000319015
2286	0.00133986
2298	0.000765636
2310	0.00172268
2322	0.0022331
2334	0.000382818
2346	0.0022331
2358	0.00242451
2370	0.000127606
2382	0.000510424
2394	0.000510424
2406	0.000446621
2418	0.00185029
2430	0.00408339
2442	0.00695453
2454	0.00529565
2466	0.00382818
2478	0.008422
2490	0.00516804
2502	0.00178648
2514	0.00261592
2526	0.00720974
2538	0.0156317
2550	0.0215654
2562	0.0111655
2574	0.0245004
2586	0.0276905
2598	0.011995
2610	0.00306254
2622	0.000765636
2634	0.00063803
2646	0.000446621
2658	0.000829439
2670	0.000957045
2682	0.00108465
2694	0.000701833
2706	0.00063803
2718	0.000957045
2730	0.000957045
2742	0.00108465
2754	0.00121226
2766	0.00159508
2778	0.0021055
2790	0.00121226
2802	0.00185029
2814	0.00197789
2826	0.00108465
2838	0.000701833
2850	0.000893242
2862	0.000765636
2874	0.000510424
2886	0.000829439
2898	0.00121226
2910	0.000957045
2922	0.00108465
2934	0.00063803
2946	0.000765636
2958	0.00102085
2970	0.000765636
2982	0.00114845
2994	0.00102085
3006	0.000701833
3018	0.00108465
3030	0.000893242
3042	0.00146747
3054	0.000829439
3066	0.00102085
3078	0.000957045
3090	0.00121226
3102	0.00121226
3114	0.00121226
3126	0.00121226
3138	0.000957045
3150	0.00159508
3162	0.00121226
3174	0.00108465
3186	0.00121226
3198	0.00165888
3210	0.00127606
3222	0.00127606
3234	0.000765636
3246	0.00108465
3258	0.00159508
3270	0.00127606
3282	0.00108465
3294	0.00153127
3306	0.00165888
3318	0.0021693
3330	0.00236071
3342	0.00248832
3354	0.00344536
3366	0.0021693
3378	0.00287113
3390	0.00325395
3402	0.00261592
3414	0.00357297
3426	0.0063803
3438	0.012314
3450	0.0223949
3462	0.0324119
3474	0.0234795
3486	0.0267973
3498	0.0509148
3510	0.0139091
3522	0.00197789
3534	0.00127606
3546	0.000701833
3558	0.00172268
3570	0.00146747
3582	0.00255212
3594	0.00133986
3606	0.00178648
3618	0.00165888
3630	0.00159508
3642	0.000765636
3654	0.000701833
3666	0.00191409
3678	0.000701833
3690	0.00229691
3702	0.000701833
3714	0.00229691
3726	0.0021055
3738	0.00280733
3750	0.00114845
3762	0.00267973
3774	0.00312635
3786	0.0022331
3798	0.0021693
3810	0.00280733
3822	0.00280733
3834	0.00312635
3846	0.00338156
3858	0.00382818
3870	0.00338156
3882	0.00306254
3894	0.00242451
3906	0.0020417
3918	0.000893242
3930	0.00293494
3942	0.00127606
3954	0.00312635
3966	0.0021693
