Infrared Spectrum: Pentadecanoic acid
Formula: C 15 H 30 O 2
CAS: 1002-84-2
Origin: Sadtler Research Labs Under US-EPA Contract
1/CM	ABSORBANCE
450	0.0820492
462	0.0374033
474	0.0379986
486	0.00694491
498	0.0241088
510	0.0160725
522	0.0326411
534	0.0161717
546	0.0217276
558	0.0118063
570	0.0264899
582	0.0161717
594	0.0306568
606	0.0279781
618	0.0295655
630	0.0263907
642	0.0136914
654	0.0162709
666	0.00902838
678	0.012104
690	0.0104174
702	0.00555593
714	0.0189497
726	0.0133938
738	0.00823468
750	0.00674648
762	0.0125008
774	0.00833389
786	0.00932602
798	0.000496065
810	0.0123024
822	0.0135922
834	0.0142867
846	0.0148819
858	0.00882996
870	0.00734176
882	0.00674648
894	0.00833389
906	0.0126001
918	0.0205371
930	0.0204379
942	0.0143859
954	0.0133938
966	0.00982209
978	0.00793704
990	0.00466301
1002	0.00267875
1014	0.00644884
1026	0.027482
1038	0.0252001
1050	0.0272836
1062	0.0460348
1074	0.0728223
1086	0.103777
1098	0.139196
1110	0.15755
1122	0.146141
1134	0.147927
1146	0.123421
1158	0.101991
1170	0.0967327
1182	0.0787751
1194	0.0686554
1206	0.0600239
1218	0.0559561
1230	0.0522853
1242	0.0538727
1254	0.0565514
1266	0.0785767
1278	0.0760964
1290	0.06429
1302	0.0630003
1314	0.062405
1326	0.0550632
1338	0.0613136
1350	0.0719294
1362	0.0786759
1374	0.0787751
1386	0.079668
1398	0.0668696
1410	0.062901
1422	0.0633971
1434	0.0764932
1446	0.103082
1458	0.151895
1470	0.159535
1482	0.0911767
1494	0.0536742
1506	0.040975
1518	0.028871
1530	0.0277796
1542	0.0380978
1554	0.0472254
1566	0.0655798
1578	0.0792712
1590	0.0770885
1602	0.0815531
1614	0.0714334
1626	0.0628018
1638	0.067068
1650	0.0520868
1662	0.0379986
1674	0.0320458
1686	0.0284741
1698	0.0319466
1710	0.044249
1722	0.0630995
1734	0.0761956
1746	0.107348
1758	0.157451
1770	0.254184
1782	0.289404
1794	0.163602
1806	0.0891925
1818	0.0411734
1830	0.0229182
1842	0.0145843
1854	0.0108142
1866	0.00892917
1878	0.00793704
1890	0.00744097
1902	0.00734176
1914	0.00575435
1926	0.00694491
1938	0.00605199
1950	0.00446459
1962	0.00496065
1974	0.00545672
1986	0.00505986
1998	0.00476222
2010	0.00446459
2022	0.00515908
2034	0.00476222
2046	0.00496065
2058	0.00486144
2070	0.00377009
2082	0.00406773
2094	0.0030756
2106	0.00377009
2118	0.00287718
2130	0.00337324
2142	0.00327403
2154	0.00416695
2166	0.00486144
2178	0.0045638
2190	0.00555593
2202	0.00476222
2214	0.00317482
2226	0.00287718
2238	0.00297639
2250	0.00267875
2262	0.00257954
2274	0.00248032
2286	0.00277796
2298	0.00297639
2310	0.00545672
2322	0.00783783
2334	0.00555593
2346	0.00724255
2358	0.00873074
2370	0.00218269
2382	0.00128977
2394	0.00208347
2406	0.00109134
2418	0.00218269
2430	0.00158741
2442	0.00158741
2454	0.000892917
2466	0.000892917
2478	0.000496065
2490	0.000297639
2502	0.000297639
2514	0.000892917
2526	0.00109134
2538	0.000595278
2550	0.00198426
2562	0.00257954
2574	0.0030756
2586	0.00367088
2598	0.00416695
2610	0.0045638
2622	0.00496065
2634	0.00634963
2646	0.00674648
2658	0.00863153
2670	0.0101197
2682	0.0109134
2694	0.00962366
2706	0.00922681
2718	0.00972287
2730	0.0110126
2742	0.0115087
2754	0.0110126
2766	0.0125008
2778	0.0143859
2790	0.0198426
2802	0.0253985
2814	0.0348238
2826	0.0501026
2838	0.0828429
2850	0.205669
2862	0.38832
2874	0.278888
2886	0.201502
2898	0.225015
2910	0.360143
2922	0.672367
2934	0.99213
2946	0.583968
2958	0.312025
2970	0.236325
2982	0.111416
2994	0.0580396
3006	0.035419
3018	0.0245056
3030	0.0193465
3042	0.0135922
3054	0.0113103
3066	0.00932602
3078	0.00833389
3090	0.0068457
3102	0.00476222
3114	0.00416695
3126	0.00416695
3138	0.00386931
3150	0.00337324
3162	0.0030756
3174	0.00386931
3186	0.00357167
3198	0.00287718
3210	0.00248032
3222	0.00257954
3234	0.00357167
3246	0.0030756
3258	0.00406773
3270	0.00367088
3282	0.00416695
3294	0.00466301
3306	0.0045638
3318	0.00525829
3330	0.00476222
3342	0.00515908
3354	0.0053575
3366	0.00525829
3378	0.00545672
3390	0.0068457
3402	0.00496065
3414	0.00386931
3426	0.00386931
3438	0.00426616
3450	0.0030756
3462	0.0022819
3474	0.00109134
3486	0.00238111
3498	0.00168662
3510	0.00198426
3522	0.00218269
3534	0.00555593
3546	0.0084331
3558	0.0170646
3570	0.0661751
3582	0.0930618
3594	0.0146835
3606	0.0053575
3618	0.00446459
3630	0.0030756
3642	0.00327403
3654	0.00178583
3666	0.00178583
3678	0.00555593
3690	0.00426616
3702	0.00347246
3714	0.00396852
3726	0.00605199
3738	0.0100205
3750	0.00734176
3762	0.00218269
3774	0.00406773
3786	0.00297639
3798	0.00615121
3810	0.00634963
3822	0.0053575
3834	0.0101197
3846	0.00287718
3858	0.00783783
3870	0.0084331
3882	0.00585357
3894	0.00853232
3906	0.00386931
3918	0.00238111
3930	0.00267875
3942	0.00496065
3954	0.00248032
3966	0.00277796
