Infrared Spectrum: Acetophenone, 4'-methoxy-3'-methyl-
Formula: C 10 H 12 O 2
CAS: 10024-90-5
Origin: Sadtler Research Labs Under US-EPA Contract
1/CM	ABSORBANCE
450	0.0805872
462	0.00614959
474	0.0306562
486	0.00624138
498	0.0363469
510	0.0301973
522	0.0177145
534	0.0477282
546	0.0273519
558	0.0150527
570	0.0335933
582	0.0545203
594	0.0915096
606	0.0544285
618	0.041854
630	0.026893
642	0.0200091
654	0.0131253
666	0.0173474
678	0.020927
690	0.0139513
702	0.0147774
714	0.0167967
726	0.0122074
738	0.0235887
750	0.0424965
762	0.0227627
774	0.0191831
786	0.0203763
798	0.0409361
810	0.0712252
822	0.060211
834	0.0300137
846	0.0226709
858	0.0174392
870	0.0223955
882	0.0397429
894	0.0267094
906	0.0288205
918	0.0260669
930	0.0199173
942	0.0284534
954	0.0562642
966	0.0601192
978	0.04011
990	0.0317576
1002	0.030748
1014	0.041854
1026	0.0841668
1038	0.122074
1050	0.0722348
1062	0.0319412
1074	0.0318494
1086	0.0409361
1098	0.0289123
1110	0.0350619
1122	0.0988524
1134	0.25452
1146	0.219366
1158	0.0863697
1170	0.170628
1182	0.1296
1194	0.0500228
1206	0.0443322
1218	0.043139
1230	0.0669113
1242	0.177879
1254	0.691233
1266	0.769158
1278	0.191831
1290	0.190821
1302	0.168334
1314	0.119779
1326	0.0555299
1338	0.049105
1350	0.09564
1362	0.173657
1374	0.0718677
1386	0.0415786
1398	0.0535107
1410	0.0834326
1422	0.068288
1434	0.0618631
1446	0.078568
1458	0.0756308
1470	0.0940796
1482	0.0719594
1494	0.13731
1506	0.204772
1518	0.0648002
1530	0.0327672
1542	0.0251491
1554	0.0314823
1566	0.0454336
1578	0.0821476
1590	0.139238
1602	0.263515
1614	0.167508
1626	0.0473611
1638	0.0301973
1650	0.0276273
1662	0.0350619
1674	0.0344194
1686	0.110876
1698	0.440568
1710	0.242771
1722	0.0349701
1734	0.0221202
1746	0.0265259
1758	0.0210188
1770	0.014961
1782	0.0128499
1794	0.00972921
1806	0.00936207
1818	0.00789351
1830	0.00752637
1842	0.00908672
1854	0.00816887
1866	0.0073428
1878	0.00688388
1890	0.00614959
1902	0.0073428
1914	0.00871958
1926	0.00688388
1938	0.00624138
1950	0.00541532
1962	0.00504818
1974	0.00578246
1986	0.00651674
1998	0.00743459
2010	0.0101881
2022	0.00927028
2034	0.00936207
2046	0.00972921
2058	0.009821
2070	0.00972921
2082	0.00633316
2094	0.00266176
2106	0.00266176
2118	0.00312069
2130	0.00275355
2142	0.00312069
2154	0.00312069
2166	0.00302891
2178	0.00312069
2190	0.00284534
2202	0.00247819
2214	0.00284534
2226	0.00238641
2238	0.00284534
2250	0.00385497
2262	0.0036714
2274	0.00256998
2286	0.00284534
2298	0.00220284
2310	0.00137678
2322	0.000275355
2334	9.1785e-05
2346	0.00256998
2358	0.000458925
2370	0.00339605
2382	0.00541532
2394	0.00348783
2406	0.00247819
2418	0.00266176
2430	0.00339605
2442	0.00330426
2454	0.00385497
2466	0.00440568
2478	0.00495639
2490	0.00587424
2502	0.00679209
2514	0.00697566
2526	0.00679209
2538	0.00642495
2550	0.00752637
2562	0.0100046
2574	0.00936207
2586	0.00725102
2598	0.00752637
2610	0.00651674
2622	0.00477282
2634	0.00449746
2646	0.00330426
2658	0.00201927
2670	0.00174391
2682	0.00293712
2694	0.00569067
2706	0.00541532
2718	0.00440568
2730	0.00596602
2742	0.00826065
2754	0.00798529
2766	0.00706745
2778	0.00633316
2790	0.00715923
2802	0.00862779
2814	0.0106471
2826	0.014502
2838	0.0357044
2850	0.0613124
2862	0.0423129
2874	0.0321248
2886	0.0289123
2898	0.0344194
2910	0.0501146
2922	0.0673702
2934	0.087104
2946	0.106012
2958	0.103901
2970	0.084534
2982	0.0572738
2994	0.0474528
3006	0.0787515
3018	0.0737951
3030	0.0342358
3042	0.0334097
3054	0.0301973
3066	0.0317576
3078	0.0280862
3090	0.0234052
3102	0.0194584
3114	0.0165213
3126	0.0115649
3138	0.00743459
3150	0.00706745
3162	0.00559889
3174	0.00504818
3186	0.00468104
3198	0.00413032
3210	0.00284534
3222	0.00385497
3234	0.00302891
3246	0.00422211
3258	0.00541532
3270	0.00211106
3282	0.00431389
3294	0.00284534
3306	0.00449746
3318	0.00312069
3330	0.00394675
3342	0.00440568
3354	0.0055071
3366	0.00523175
3378	0.0103717
3390	0.00963742
3402	0.00348783
3414	0.00293712
3426	0.00532353
3438	0.0055071
3450	0.00247819
3462	0.00413032
3474	0.00357961
3486	0.00284534
3498	0.00348783
3510	0.00302891
3522	0.0036714
3534	0.00513996
3546	0.00165213
3558	0.00523175
3570	0.00247819
3582	0.00348783
3594	0.00357961
3606	0.00256998
3618	0.00403854
3630	0.00128499
3642	0.00192749
3654	0.00201927
3666	0.00376319
3678	0.00275355
3690	0.00128499
3702	0.00376319
3714	0.00211106
3726	0.00376319
3738	0.00348783
3750	0.00256998
3762	0.00587424
3774	0.00431389
3786	0.00385497
3798	0.00495639
3810	0.00697566
3822	0.00165213
3834	0.00422211
3846	0.00559889
3858	0.00624138
3870	0.00770994
3882	0.0055071
3894	0.0018357
3906	0.00605781
3918	0.00330426
3930	0.00559889
3942	0.00330426
3954	0.00403854
3966	0.00422211
