Infrared Spectrum: 1H-Pyrrole-2-carboxaldehyde
Formula: C 5 H 5 N O
CAS: 1003-29-8
Origin: Sadtler Research Labs Under US-EPA Contract
1/CM	ABSORBANCE
450	0
462	0.0129178
474	0.0127936
486	0.0160231
498	0.0151536
510	0.0144084
522	0.0227304
534	0.0413619
546	0.0832207
558	0.14222
570	0.139364
582	0.0866986
594	0.0404925
606	0.0209915
618	0.0222336
630	0.0339093
642	0.0385051
654	0.0498082
666	0.0327914
678	0.0280715
690	0.0173894
702	0.0286925
714	0.082227
726	0.162964
738	0.389895
750	0.409645
762	0.369897
774	0.138743
786	0.0344062
798	0.0370146
810	0.0517956
822	0.0424798
834	0.0330399
846	0.0185073
858	0.0180105
870	0.0280715
882	0.040244
894	0.0459577
906	0.0137873
918	0.0113031
930	0.0136631
942	0.017762
954	0.024221
966	0.0219852
978	0.0211157
990	0.0173894
1002	0.0227304
1014	0.0454609
1026	0.202711
1038	0.147065
1050	0.0834691
1062	0.0571366
1074	0.176378
1086	0.169422
1098	0.106696
1110	0.0657071
1122	0.0551492
1134	0.0558945
1146	0.0377598
1158	0.030183
1170	0.0317978
1182	0.0320462
1194	0.0314251
1206	0.0269536
1218	0.0213641
1230	0.019501
1242	0.0221094
1254	0.027202
1266	0.0506777
1278	0.166317
1290	0.194637
1302	0.159361
1314	0.017141
1326	0.0129178
1338	0.0192526
1350	0.0442188
1362	0.0465788
1374	0.0406167
1386	0.0657071
1398	0.163957
1410	0.294502
1422	0.3027
1434	0.117378
1446	0.0717934
1458	0.0583787
1470	0.0662039
1482	0.0401198
1494	0.024221
1506	0.0157747
1518	0.0157747
1530	0.0290651
1542	0.0772586
1554	0.0879407
1566	0.0740292
1578	0.020122
1590	0.0183831
1602	0.0253388
1614	0.0309283
1626	0.0358967
1638	0.0479451
1650	0.0598692
1662	0.163212
1674	1.01678
1686	1.05181
1698	0.795938
1710	0.12893
1722	0.104957
1734	0.0828481
1746	0.027202
1758	0.0187557
1770	0.0168926
1782	0.0192526
1794	0.0186315
1806	0.0134147
1818	0.0108063
1830	0.0103094
1842	0.00956417
1854	0.00832207
1866	0.0086947
1878	0.0126694
1890	0.0136631
1902	0.0105579
1914	0.00931575
1926	0.00832207
1938	0.00732839
1950	0.00670734
1962	0.00670734
1974	0.00683155
1986	0.00645892
1998	0.00658313
2010	0.00683155
2022	0.00670734
2034	0.00943996
2046	0.0106821
2058	0.0106821
2070	0.00757681
2082	0.00720418
2094	0.00720418
2106	0.00819786
2118	0.00857049
2130	0.00757681
2142	0.00670734
2154	0.00857049
2166	0.0108063
2178	0.0110547
2190	0.00857049
2202	0.00782523
2214	0.00770102
2226	0.00807365
2238	0.00807365
2250	0.00919154
2262	0.00881891
2274	0.00857049
2286	0.0101852
2298	0.0126694
2310	0.0141599
2322	0.0111789
2334	0.00782523
2346	0.00881891
2358	0.0108063
2370	0.0110547
2382	0.0132905
2394	0.00695576
2406	0.0062105
2418	0.00633471
2430	0.00844628
2442	0.0109305
2454	0.0108063
2466	0.00844628
2478	0.00844628
2490	0.00968838
2502	0.0104336
2514	0.0109305
2526	0.0120484
2538	0.0119242
2550	0.0110547
2562	0.00943996
2574	0.00906733
2586	0.00931575
2598	0.00931575
2610	0.00981259
2622	0.0086947
2634	0.00943996
2646	0.0101852
2658	0.0118
2670	0.0135389
2682	0.017762
2694	0.0309283
2706	0.0331641
2718	0.0341578
2730	0.0223578
2742	0.0214883
2754	0.0260841
2766	0.0335367
2778	0.0515471
2790	0.094027
2802	0.124086
2814	0.169919
2826	0.148058
2838	0.136507
2850	0.0739049
2862	0.0392504
2874	0.0237241
2886	0.0186315
2898	0.0172652
2910	0.0188799
2922	0.0211157
2934	0.0192526
2946	0.0181347
2958	0.0183831
2970	0.0173894
2982	0.0139115
2994	0.0115515
3006	0.0104336
3018	0.0110547
3030	0.012421
3042	0.0132905
3054	0.0136631
3066	0.0119242
3078	0.0126694
3090	0.0132905
3102	0.0168926
3114	0.0222336
3126	0.0237241
3138	0.022482
3150	0.0168926
3162	0.0109305
3174	0.00857049
3186	0.00844628
3198	0.00881891
3210	0.00881891
3222	0.00919154
3234	0.00981259
3246	0.0099368
3258	0.00894312
3270	0.00819786
3282	0.00981259
3294	0.00943996
3306	0.00956417
3318	0.00919154
3330	0.0113031
3342	0.0175136
3354	0.0185073
3366	0.0158989
3378	0.00757681
3390	0.00770102
3402	0.00807365
3414	0.00956417
3426	0.00981259
3438	0.0141599
3450	0.0303072
3462	0.0744018
3474	0.166317
3486	0.274007
3498	0.261835
3510	0.0924122
3522	0.0285683
3534	0.0113031
3546	0.00782523
3558	0.00770102
3570	0.0074526
3582	0.00782523
3594	0.00819786
3606	0.00707997
3618	0.00645892
3630	0.00633471
3642	0.00807365
3654	0.00695576
3666	0.00807365
3678	0.00857049
3690	0.00881891
3702	0.00794944
3714	0.00757681
3726	0.0074526
3738	0.00707997
3750	0.00596208
3762	0.0074526
3774	0.00720418
3786	0.0074526
3798	0.00670734
3810	0.00720418
3822	0.00658313
3834	0.00683155
3846	0.00844628
3858	0.00757681
3870	0.00844628
3882	0.00732839
3894	0.00757681
3906	0.00968838
3918	0.00894312
3930	0.0062105
3942	0.00943996
3954	0.0099368
3966	0.0086947
