Infrared Spectrum: Acetic acid, 2-ethylbutyl ester
Formula: C 8 H 16 O 2
CAS: 10031-87-5
Origin: Sadtler Research Labs Under US-EPA Contract
1/CM	ABSORBANCE
450	0.0173169
462	0.0195908
474	0.0195908
486	0.025538
498	0.0209902
510	0.0117195
522	0.0150429
534	0.0232641
546	0.0202905
558	0.017142
570	0.0173169
582	0.0173169
594	0.0304357
606	0.04268
618	0.0342839
630	0.0297361
642	0.0446041
654	0.0295611
666	0.0104951
678	0.00472279
690	0.00594721
702	0.00472279
714	0.00349836
726	0.00699672
738	0.0048977
750	0.0134687
762	0.0190661
774	0.0288615
786	0.0201156
798	0.0146931
810	0.0187162
822	0.0223895
834	0.0250133
846	0.0288615
858	0.0313103
870	0.0304357
882	0.0351585
894	0.0376074
906	0.0398813
918	0.0372575
930	0.0313103
942	0.0439044
954	0.0507262
966	0.0523005
978	0.0458285
990	0.0509011
1002	0.0808121
1014	0.171245
1026	0.301734
1038	0.371001
1050	0.317301
1062	0.19171
1074	0.126291
1086	0.0998782
1098	0.0771388
1110	0.0734656
1122	0.0626206
1134	0.049152
1146	0.0484523
1158	0.0542246
1170	0.0589474
1182	0.0687428
1194	0.0979541
1206	0.201331
1218	0.572507
1230	1.54418
1242	1.49258
1254	0.620609
1266	0.327097
1278	0.197657
1290	0.112822
1302	0.0753897
1314	0.0563236
1326	0.0412806
1338	0.0404061
1350	0.0571982
1362	0.206053
1374	0.315377
1386	0.244885
1398	0.178067
1410	0.0631454
1422	0.0451288
1434	0.0514259
1446	0.072591
1458	0.134862
1470	0.167047
1482	0.0970795
1494	0.0442543
1506	0.0313103
1518	0.0269374
1530	0.0227393
1542	0.0206403
1554	0.0173169
1566	0.0150429
1578	0.0131189
1590	0.0115446
1602	0.01067
1614	0.0110198
1626	0.0118944
1638	0.0139934
1650	0.0159175
1662	0.0160925
1674	0.0185413
1686	0.0229143
1698	0.0304357
1710	0.0493269
1722	0.089558
1734	0.1604
1746	0.368377
1758	1.0077
1770	0.831385
1782	0.265526
1794	0.124192
1806	0.0715415
1818	0.0374325
1830	0.0208152
1842	0.014868
1854	0.0115446
1866	0.0101452
1878	0.0087459
1890	0.00839606
1902	0.00752147
1914	0.00647197
1926	0.00664688
1938	0.00629705
1950	0.00507262
1962	0.00507262
1974	0.00454787
1986	0.00472279
1998	0.00542246
2010	0.00559738
2022	0.00472279
2034	0.00454787
2046	0.00524754
2058	0.00454787
2070	0.0038482
2082	0.00542246
2094	0.00629705
2106	0.0068218
2118	0.00664688
2130	0.00647197
2142	0.00594721
2154	0.00542246
2166	0.00472279
2178	0.00402311
2190	0.00297361
2202	0.00349836
2214	0.00314852
2226	0.00244885
2238	0.00279869
2250	0.00262377
2262	0.00262377
2274	0.00314852
2286	0.00244885
2298	0.00209902
2310	0.0019241
2322	0.00227393
2334	0.00157426
2346	0.00332344
2358	0.00157426
2370	0.00244885
2382	0.00209902
2394	0.00314852
2406	0.00332344
2418	0.00349836
2430	0.00297361
2442	0.00332344
2454	0.00402311
2466	0.00454787
2478	0.00454787
2490	0.00297361
2502	0.0019241
2514	0.00139934
2526	0.000699672
2538	0.000699672
2550	0.00104951
2562	0.0019241
2574	0.00157426
2586	0.00279869
2598	0.00524754
2610	0.00594721
2622	0.0068218
2634	0.00577229
2646	0.00542246
2658	0.00734656
2670	0.00734656
2682	0.00349836
2694	0.0048977
2706	0.00822115
2718	0.00909574
2730	0.0103202
2742	0.0125941
2754	0.014868
2766	0.0125941
2778	0.0125941
2790	0.0141684
2802	0.0162674
2814	0.0199407
2826	0.0265875
2838	0.0374325
2850	0.0613962
2862	0.130139
2874	0.246459
2886	0.317126
2898	0.27742
2910	0.252407
2922	0.333219
2934	0.46913
2946	0.527378
2958	0.491694
2970	0.775411
2982	0.546094
2994	0.173519
3006	0.0727659
3018	0.0495018
3030	0.0407559
3042	0.0349836
3054	0.0318351
3066	0.0265875
3078	0.0225644
3090	0.0199407
3102	0.0155677
3114	0.0118944
3126	0.0113697
3138	0.0087459
3150	0.00927065
3162	0.00839606
3174	0.00857098
3186	0.00892082
3198	0.00542246
3210	0.0038482
3222	0.00524754
3234	0.00402311
3246	0.00349836
3258	0.00262377
3270	0.00279869
3282	0.00244885
3294	0.00157426
3306	0.00262377
3318	0.00209902
3330	0.00244885
3342	0.00314852
3354	0.00262377
3366	0.0019241
3378	0.0038482
3390	0.00349836
3402	0.0019241
3414	0.00332344
3426	0.00402311
3438	0.00402311
3450	0.00244885
3462	0.00367328
3474	0.00472279
3486	0.00629705
3498	0.0087459
3510	0.00944557
3522	0.0048977
3534	0.00139934
3546	0.00209902
3558	0.00332344
3570	0.00612213
3582	0.00892082
3594	0.00769639
3606	0.00472279
3618	0.00297361
3630	0.00454787
3642	0.00472279
3654	0.00419803
3666	0.00594721
3678	0.00594721
3690	0.00612213
3702	0.00559738
3714	0.00647197
3726	0.00262377
3738	0.00524754
3750	0.0038482
3762	0.00612213
3774	0.00454787
3786	0.00647197
3798	0.00542246
3810	0.0048977
3822	0.00437295
3834	0.00367328
3846	0.00349836
3858	0.00262377
3870	0.00594721
3882	0.00244885
3894	0.0048977
3906	0.00787131
3918	0.00454787
3930	0.00752147
3942	0.00472279
3954	0
3966	0.00857098
