Infrared Spectrum: Pyridine, 3-methyl-, 1-oxide
Formula: C 6 H 7 N O
CAS: 1003-73-2
Origin: Sadtler Research Labs Under US-EPA Contract
1/CM	ABSORBANCE
450	0.018831
462	0.0256587
474	0.020593
486	0.0526388
498	0.0531894
510	0.0427277
522	0.0210335
534	0.0231258
546	0.0831429
558	0.0784076
570	0.0383228
582	0.0154172
594	0.0137654
606	0.013435
618	0.0208132
630	0.0221347
642	0.0372216
654	0.0926134
666	0.129945
678	0.138975
690	0.0824821
702	0.042067
714	0.0364507
726	0.0373317
738	0.0758747
750	0.115519
762	0.203728
774	0.405143
786	0.211656
798	0.0529692
810	0.000991107
822	0.0146464
834	0.039424
846	0.0883186
858	0.0787379
870	0.104947
882	0.0639815
894	0.0351292
906	0.0175096
918	0.0209234
930	0.0330369
942	0.0523084
954	0.0473529
966	0.0311648
978	0.0407455
990	0.0888693
1002	0.311428
1014	0.432233
1026	0.267048
1038	0.0428378
1050	0.0202626
1062	0.0193816
1074	0.0155273
1086	0.0138755
1098	0.0100212
1110	0.0247777
1122	0.0370013
1134	0.0490047
1146	0.218925
1158	0.381026
1170	0.478264
1182	0.344575
1194	0.0910717
1206	0.0627701
1218	0.0624397
1230	0.0724609
1242	0.0510971
1254	0.0414062
1266	0.0564931
1278	0.201525
1290	0.450623
1302	0.871183
1314	1.06015
1326	0.885169
1338	0.146243
1350	0.060017
1362	0.0421771
1374	0.0510971
1386	0.0661839
1398	0.0961374
1410	0.22421
1422	0.46527
1434	0.51042
1446	0.338738
1458	0.319467
1470	0.402389
1482	0.315502
1494	0.210445
1506	0.145032
1518	0.136993
1530	0.137874
1542	0.150208
1554	0.170911
1566	0.18776
1578	0.176527
1590	0.352504
1602	0.472648
1614	0.318586
1626	0.0820416
1638	0.0436087
1650	0.0363406
1662	0.0291826
1674	0.0299535
1686	0.0325964
1698	0.0415164
1710	0.0503262
1722	0.0468023
1734	0.0319357
1746	0.0215841
1758	0.0225752
1770	0.0248878
1782	0.0212537
1794	0.0234562
1806	0.025108
1818	0.0216942
1830	0.0162982
1842	0.00858959
1854	0.00803898
1866	0.00869972
1878	0.0127743
1890	0.0220246
1902	0.0247777
1914	0.0198221
1926	0.0095807
1938	0.00638713
1950	0.00550615
1962	0.00517578
1974	0.00220246
1986	0.000880984
1998	0.000330369
2010	0
2022	0.000660738
2034	0.00132148
2046	0.00220246
2058	0.00363406
2070	0.00363406
2082	0.00121135
2094	0.00121135
2106	0.00176197
2118	0.00132148
2130	0.000770861
2142	0.000220246
2154	0.000440492
2166	0.00121135
2178	0.00132148
2190	0.0014316
2202	0.00110123
2214	0.000991107
2226	0.00209234
2238	0.00385431
2250	0.00550615
2262	0.00616689
2274	0.00550615
2286	0.00759849
2298	0.011673
2310	0.0144261
2322	0.013435
2334	0.0109022
2346	0.0139856
2358	0.0140957
2370	0.0148666
2382	0.0175096
2394	0.0115629
2406	0.012554
2418	0.0139856
2430	0.0138755
2442	0.0111224
2454	0.0121135
2466	0.0147565
2478	0.0194918
2490	0.0171792
2502	0.0103516
2514	0.00385431
2526	0.00319357
2538	0.00396443
2550	0.00451504
2562	0.00605677
2574	0.00880984
2586	0.011673
2598	0.0162982
2610	0.01795
2622	0.0173994
2634	0.0128844
2646	0.0067175
2658	0.00385431
2670	0.00418467
2682	0.00363406
2694	0.00440492
2706	0.00506566
2718	0.00649726
2730	0.00925033
2742	0.0137654
2754	0.0167387
2766	0.0146464
2778	0.00969082
2790	0.00737824
2802	0.0067175
2814	0.00726812
2826	0.00836935
2838	0.0106819
2850	0.0170691
2862	0.0333673
2874	0.0550615
2886	0.0593563
2898	0.0497756
2910	0.057264
2922	0.0897502
2934	0.13457
2946	0.129725
2958	0.0773063
2970	0.0601272
2982	0.0589158
2994	0.0605677
3006	0.0646422
3018	0.0768659
3030	0.0885389
3042	0.101423
3054	0.095807
3066	0.076095
3078	0.0602373
3090	0.0494452
3102	0.0427277
3114	0.0263194
3126	0.0165185
3138	0.00880984
3150	0.00605677
3162	0.00550615
3174	0.00385431
3186	0.00330369
3198	0.00341381
3210	0.00319357
3222	0.00319357
3234	0.00308344
3246	0.00341381
3258	0.00330369
3270	0.00319357
3282	0.00297332
3294	0.00264295
3306	0.00264295
3318	0.00264295
3330	0.00242271
3342	0.00220246
3354	0.00209234
3366	0.00187209
3378	0.000991107
3390	0.00154172
3402	0.00187209
3414	0.00198221
3426	0.00198221
3438	0.00198221
3450	0.00165185
3462	0.0014316
3474	0.00242271
3486	0.00132148
3498	0.00121135
3510	0.00132148
3522	0.00176197
3534	0.00121135
3546	0.00352394
3558	0.00308344
3570	0.00440492
3582	0.00506566
3594	0.00660738
3606	0.0028632
3618	0.00253283
3630	0.00550615
3642	0.00319357
3654	0.00209234
3666	0.000660738
3678	0.00462517
3690	0.0028632
3702	0.00264295
3714	0.00187209
3726	0.00297332
3738	0.00363406
3750	0.00110123
3762	0.000880984
3774	0.0028632
3786	0.000991107
3798	0.00308344
3810	0.000330369
3822	0.00319357
3834	0.00220246
3846	0.0028632
3858	0.00407455
3870	0.00374418
3882	0.00297332
3894	0.00418467
3906	0.00363406
3918	0.00407455
3930	0.00363406
3942	0.00352394
3954	0.00341381
3966	0.00308344
