Infrared Spectrum: 2-Thiophenecarbonitrile
Formula: C 5 H 3 N S
CAS: 1003-31-2
Origin: Sadtler Research Labs Under US-EPA Contract
1/CM	ABSORBANCE
450	0.00283217
462	0.0025859
474	0.0197021
486	0.0264747
498	0.037434
510	0.068711
522	0.0965402
534	0.0366951
546	0.0216723
558	0.0309076
570	0.0497478
582	0.0240119
594	0.00578749
606	0.000985104
618	0.00381728
630	0.00418669
642	0.0114518
654	0.0215492
666	0.0230268
678	0.0716663
690	0.364365
702	0.611011
714	0.751881
726	0.524568
738	0.0988798
750	0.0163774
762	0.0120675
774	0.0110824
786	0.00911221
798	0.0051718
810	0.0224111
822	0.0711738
834	0.124369
846	0.24566
858	0.219063
870	0.166236
882	0.0251202
894	0.00837338
906	0.0126832
918	0.015146
930	0.0165005
942	0.00898907
954	0.00307845
966	0.00726514
978	0.0129295
990	0.0168699
1002	0.016993
1014	0.0163774
1026	0.0467924
1038	0.0793009
1050	0.0746216
1062	0.0334935
1074	0.0317696
1086	0.0358332
1098	0.0232731
1110	0.0197021
1122	0.0408818
1134	0.0529493
1146	0.111809
1158	0.093708
1170	0.0711738
1182	0.0235194
1194	0.00788083
1206	0.00825025
1218	0.0496246
1230	0.190248
1242	0.206133
1254	0.0540576
1266	0.0299225
1278	0.0280755
1290	0.0231499
1302	0.0177319
1314	0.0132989
1326	0.0104667
1338	0.0150228
1350	0.0311539
1362	0.0254896
1374	0.0199484
1386	0.0204409
1398	0.0491321
1410	0.197021
1422	0.219801
1434	0.139515
1446	0.0331241
1458	0.0141609
1470	0.0156385
1482	0.0150228
1494	0.0136683
1506	0.0216723
1518	0.0334935
1530	0.0568898
1542	0.0740059
1554	0.0604608
1566	0.0185938
1578	0.0128064
1590	0.0144071
1602	0.0268441
1614	0.0254896
1626	0.0188401
1638	0.00898907
1650	0.00935849
1662	0.014284
1674	0.0243813
1686	0.0268441
1698	0.0185938
1710	0.021426
1722	0.0315233
1734	0.0434677
1746	0.0333704
1758	0.014284
1770	0.0105899
1782	0.0087428
1794	0.0188401
1806	0.0317696
1818	0.0291837
1830	0.00701887
1842	0.00283217
1854	0.00147766
1866	0.00110824
1878	0.00110824
1890	0.00283217
1902	0.00381728
1914	0.00295531
1926	0.00110824
1938	0.000861966
1950	0.00061569
1962	0.000246276
1974	0.000123138
1986	0
1998	0.000123138
2010	0.000369414
2022	0.000369414
2034	0.00061569
2046	0.000985104
2058	0.00160079
2070	0.00394042
2082	0.00689573
2094	0.00652631
2106	0.00480238
2118	0.00394042
2130	0.00184707
2142	0.00184707
2154	0.00443297
2166	0.00812711
2178	0.00726514
2190	0.00861966
2202	0.0179781
2214	0.0744985
2226	0.233223
2238	0.261791
2250	0.0568898
2262	0.00701887
2274	0.00861966
2286	0.00775769
2298	0.00578749
2310	0.00652631
2322	0.00529493
2334	0.00394042
2346	0.00430983
2358	0.00578749
2370	0.00628004
2382	0.00751142
2394	0.00418669
2406	0.00184707
2418	0.00295531
2430	0.00307845
2442	0.00381728
2454	0.00578749
2466	0.00504866
2478	0.00233962
2490	0.00147766
2502	0.00246276
2514	0.00197021
2526	0.000861966
2538	0.000738828
2550	0.00172393
2562	0.00418669
2574	0.00529493
2586	0.00307845
2598	0.000246276
2610	0
2622	0.000369414
2634	0.00197021
2646	0.00283217
2658	0.00369414
2670	0.0051718
2682	0.00467924
2694	0.00233962
2706	0.00566435
2718	0.007142
2730	0.00566435
2742	0.00541807
2754	0.00467924
2766	0.00270904
2778	0.00233962
2790	0.00172393
2802	0.00184707
2814	0.00394042
2826	0.00738828
2838	0.00800397
2850	0.00529493
2862	0.00443297
2874	0.00467924
2886	0.0051718
2898	0.00566435
2910	0.00775769
2922	0.0097279
2934	0.00861966
2946	0.00861966
2958	0.00689573
2970	0.00726514
2982	0.00701887
2994	0.00467924
3006	0.00566435
3018	0.00566435
3030	0.00541807
3042	0.00443297
3054	0.00295531
3066	0.00332473
3078	0.0097279
3090	0.0349712
3102	0.037434
3114	0.0179781
3126	0.0100973
3138	0.0061569
3150	0.0025859
3162	0.00110824
3174	0.000985104
3186	0.000369414
3198	0.000123138
3210	0.000738828
3222	0.00061569
3234	0.000123138
3246	0.00061569
3258	0.00123138
3270	0.00160079
3282	0.00123138
3294	0.00110824
3306	0.000985104
3318	0.00061569
3330	0.000985104
3342	0.00061569
3354	0.00110824
3366	0.00307845
3378	0.00443297
3390	0.0051718
3402	0.00270904
3414	0.00197021
3426	0.00233962
3438	0.00172393
3450	0.00184707
3462	0.00160079
3474	0.00160079
3486	0.00209335
3498	0.00233962
3510	0.00332473
3522	0.00270904
3534	0.00295531
3546	0.00332473
3558	0.00332473
3570	0.00480238
3582	0.00664945
3594	0.00689573
3606	0.00529493
3618	0.0051718
3630	0.00603376
3642	0.0104667
3654	0.011575
3666	0.00689573
3678	0.00541807
3690	0.00467924
3702	0.00430983
3714	0.003571
3726	0.00381728
3738	0.00480238
3750	0.00578749
3762	0.0051718
3774	0.00467924
3786	0.00541807
3798	0.00640318
3810	0.00381728
3822	0.00554121
3834	0.00788083
3846	0.00997418
3858	0.0109593
3870	0.00751142
3882	0.00307845
3894	0.00430983
3906	0.00295531
3918	0.00295531
3930	0.00381728
3942	0.00640318
3954	0.00985104
3966	0.00960476
