Infrared Spectrum: 1H-Imidazole-2-carboxaldehyde, 1-(phenylmethyl)-
Formula: C 11 H 10 N 2 O
CAS: 10045-65-5
Origin: Sadtler Research Labs Under US-EPA Contract
1/CM	ABSORBANCE
450	0.00860513
462	0.0142361
474	0.00820858
486	0.00384653
498	0.00523446
510	0.00864479
522	0.00388619
534	0.00448101
546	0.00392584
558	0.00543274
570	0.00733617
582	0.00975513
594	0.00487756
606	0.00547239
618	0.0129672
630	0.01035
642	0.00697928
654	0.0231585
666	0.0222068
678	0.0325568
690	0.0749479
702	0.12757
714	0.179042
726	0.130861
738	0.0536929
750	0.066779
762	0.229325
774	0.194349
786	0.0490532
798	0.033905
810	0.0406067
822	0.0211361
834	0.00820858
846	0.00463963
858	0.0100327
870	0.00364826
882	0.00182413
894	0.0117379
906	0.0194309
918	0.0113413
930	0.00130861
942	0.00126896
954	0.00245861
966	0.00210172
978	0.000991375
990	0.00226034
1002	0.00507584
1014	0.0106672
1026	0.0473877
1038	0.0195103
1050	0.00574998
1062	0.0229999
1074	0.0672945
1086	0.0198672
1098	0.0144344
1110	0.0200258
1122	0.0105482
1134	0.00931893
1146	0.0151086
1158	0.0153861
1170	0.0121344
1182	0.0112224
1194	0.0132844
1206	0.0127689
1218	0.0272826
1230	0.0777238
1242	0.0574997
1254	0.0313671
1266	0.0432239
1278	0.0881531
1290	0.0789928
1302	0.0312085
1314	0.0143551
1326	0.0233964
1338	0.0549222
1350	0.0569446
1362	0.0522256
1374	0.032755
1386	0.0297016
1398	0.0576584
1410	0.146882
1422	0.104174
1434	0.0499653
1446	0.08851
1458	0.0831565
1470	0.0902944
1482	0.079429
1494	0.103063
1506	0.103896
1518	0.0366412
1530	0.0178051
1542	0.0101517
1554	0.00662238
1566	0.0106275
1578	0.0128086
1590	0.00856548
1602	0.0161396
1614	0.0209775
1626	0.0103896
1638	0.00432239
1650	0.00586894
1662	0.0120948
1674	0.0273619
1686	0.0701893
1698	0.321761
1710	0.329454
1722	0.050917
1734	0.025974
1746	0.0156241
1758	0.0102706
1770	0.00816893
1782	0.00408446
1794	0.00646376
1806	0.00630514
1818	0.00186378
1830	0.00023793
1842	0.000118965
1854	0.00115
1866	0.00210172
1878	0.0028155
1890	0.00162586
1902	0.00063448
1914	0.00130861
1926	0.0023793
1938	0.0039655
1950	0.00543274
1962	0.00507584
1974	0.00178447
1986	0.00111034
1998	0.0012293
2010	0.000991375
2022	0.00063448
2034	0.00047586
2046	0.00031724
2058	0.00047586
2070	0.000515515
2082	0.000515515
2094	0.00071379
2106	0.00055517
2118	0.00087241
2130	0.000912065
2142	0.0012293
2154	0.00138792
2166	0.00166551
2178	0.00233965
2190	0.00226034
2202	0.00214137
2214	0.0015862
2226	0.00118965
2238	0.00118965
2250	0.00162586
2262	0.00194309
2274	0.00222068
2286	0.00309309
2298	0.00487756
2310	0.00658273
2322	0.00638445
2334	0.00376722
2346	0.00638445
2358	0.00547239
2370	0.0039655
2382	0.00539308
2394	0.00170517
2406	0.00126896
2418	0.00130861
2430	0.00107069
2442	0.000515515
2454	0.0007931
2466	0.000753445
2478	0.00103103
2490	0.00107069
2502	0.0007931
2514	0.00111034
2526	0.00138792
2538	0.00174482
2550	0.00214137
2562	0.00329137
2574	0.00344999
2586	0.00257757
2598	0.00154654
2610	0.00190344
2622	0.00190344
2634	0.00226034
2646	0.00261723
2658	0.00293447
2670	0.0035293
2682	0.0031724
2694	0.00372757
2706	0.00337068
2718	0.00432239
2730	0.00594825
2742	0.00733617
2754	0.00709824
2766	0.00531377
2778	0.00590859
2790	0.007931
2802	0.0108655
2814	0.0126896
2826	0.0210568
2838	0.0557153
2850	0.0818876
2862	0.0460395
2874	0.0250223
2886	0.0164172
2898	0.0128086
2910	0.0141965
2922	0.0194706
2934	0.0318826
2946	0.0396947
2958	0.0327154
2970	0.0176068
2982	0.010231
2994	0.00947755
3006	0.0118172
3018	0.0189154
3030	0.0429464
3042	0.0609101
3054	0.0356498
3066	0.0436602
3078	0.0661049
3090	0.0373947
3102	0.0287499
3114	0.0275999
3126	0.0222068
3138	0.0116586
3150	0.00816893
3162	0.00372757
3174	0.00273619
3186	0.00222068
3198	0.00146723
3210	0.00111034
3222	0.000674135
3234	0.0012293
3246	0.00071379
3258	0.000753445
3270	0.000753445
3282	0.000674135
3294	0.00134827
3306	0.00118965
3318	0.00103103
3330	0.00055517
3342	0.000753445
3354	0.00107069
3366	0.00146723
3378	0.00289481
3390	0.00444136
3402	0.00154654
3414	0.0012293
3426	0.000753445
3438	0.0015862
3450	0.00107069
3462	0.00130861
3474	0.00118965
3486	0.000912065
3498	0.00182413
3510	0.0012293
3522	0.00178447
3534	0.00174482
3546	0.00146723
3558	0.00210172
3570	0.00178447
3582	0.00249826
3594	0.00273619
3606	0.00154654
3618	0.0015862
3630	0.00142758
3642	0.00218103
3654	0.00241895
3666	0.00222068
3678	0.0023793
3690	0.00198275
3702	0.00142758
3714	0.00194309
3726	0.00289481
3738	0.00107069
3750	0.00214137
3762	0.000832755
3774	0.00289481
3786	0.00087241
3798	0.00214137
3810	0.00194309
3822	0.00269654
3834	0.00297412
3846	0.00174482
3858	0.00265688
3870	0.00226034
3882	0.00249826
3894	0.00202241
3906	0.00178447
3918	0.00229999
3930	0.00214137
3942	0.00226034
3954	0.0028155
3966	0.00265688
