Infrared Spectrum: Morpholine, 2,6-dimethyl-4-isopentyl-,
Formula: C 11 H 23 N O
CAS: 10056-30-1
Origin: Sadtler Research Labs Under US-EPA Contract
1/CM	ABSORBANCE
450	0.0187775
462	0.0290955
474	0.00596009
486	0.0117279
498	0.0347992
510	0.0140351
522	0.0199311
534	0.0215973
546	0.0103821
558	0.0165344
570	0.0135864
582	0.0128174
594	0.0125611
606	0.0108948
618	0.0117279
630	0.00762635
642	0.00762635
654	0.0121765
666	0.00865174
678	0.00743409
690	0.0112152
702	0.00422974
714	0.00422974
726	0.00948488
738	0.00762635
750	0.0125611
762	0.00884401
774	0.015445
786	0.0136505
798	0.0306977
810	0.0318512
822	0.0315308
834	0.0372345
846	0.0457581
858	0.0367859
870	0.0370423
882	0.0498597
894	0.0367859
906	0.0255066
918	0.0285828
930	0.0273011
942	0.0279419
954	0.026532
966	0.0416566
978	0.0417206
990	0.033902
1002	0.0337098
1014	0.0517823
1026	0.0642793
1038	0.120355
1050	0.0804292
1062	0.0739564
1074	0.233533
1086	0.306208
1098	0.125803
1110	0.102796
1122	0.144388
1134	0.214563
1146	0.31973
1158	0.360361
1170	0.178931
1182	0.0762635
1194	0.0371064
1206	0.0295441
1218	0.0583833
1230	0.0959382
1242	0.0637025
1254	0.0563966
1266	0.0492829
1278	0.0631257
1290	0.0583833
1302	0.0540253
1314	0.088376
1326	0.159128
1338	0.0893373
1350	0.0807496
1362	0.114972
1374	0.203861
1386	0.165152
1398	0.0955537
1410	0.0508851
1422	0.0264038
1434	0.0322998
1446	0.077353
1458	0.125995
1470	0.130737
1482	0.0480652
1494	0.0189057
1506	0.0125611
1518	0.00954896
1530	0.00685731
1542	0.00833131
1554	0.00672913
1566	0.00563966
1578	0.00621644
1590	0.004422
1602	0.00596009
1614	0.00647279
1626	0.00422974
1638	0.00660096
1650	0.00871583
1662	0.00416565
1674	0.00704957
1686	0.00749818
1698	0.00871583
1710	0.00910035
1722	0.00794679
1734	0.00660096
1746	0.00576783
1758	0.00615235
1770	0.00628053
1782	0.00467835
1794	0.00531922
1806	0.00487061
1818	0.00410157
1830	0.00410157
1842	0.00307618
1854	0.00301209
1866	0.00371705
1878	0.00288391
1890	0.0034607
1902	0.00352478
1914	0.00378113
1926	0.00429383
1938	0.00371705
1950	0.00333252
1962	0.00320435
1974	0.00326844
1986	0.0034607
1998	0.00390931
2010	0.0034607
2022	0.00288391
2034	0.00262757
2046	0.00224304
2058	0.00275574
2070	0.00224304
2082	0.00211487
2094	0.00230713
2106	0.00211487
2118	0.00153809
2130	0.00153809
2142	0.00140991
2154	0.00160217
2166	0.00192261
2178	0.00211487
2190	0.00160217
2202	0.00205078
2214	0.00237122
2226	0.00211487
2238	0.00205078
2250	0.00275574
2262	0.00314026
2274	0.00262757
2286	0.00211487
2298	0.00185852
2310	0.00140991
2322	0.00256348
2334	0.00166626
2346	0.00224304
2358	0.00211487
2370	0.00301209
2382	0.00230713
2394	0.00205078
2406	0.00262757
2418	0.00237122
2430	0.00205078
2442	0.00211487
2454	0.00288391
2466	0.00326844
2478	0.00320435
2490	0.00339661
2502	0.00358887
2514	0.00429383
2526	0.00435792
2538	0.00538331
2550	0.00570374
2562	0.0064087
2574	0.00775453
2586	0.00948488
2598	0.0116638
2610	0.0151886
2622	0.0205719
2634	0.0240326
2646	0.0237763
2658	0.022815
2670	0.0244171
2682	0.0298005
2694	0.0350556
2706	0.0442841
2718	0.0571015
2730	0.0738923
2742	0.0890809
2754	0.10491
2766	0.140991
2778	0.199567
2790	0.215845
2802	0.250132
2814	0.265769
2826	0.166178
2838	0.0992708
2850	0.111063
2862	0.208026
2874	0.349851
2886	0.333252
2898	0.235007
2910	0.258207
2922	0.352222
2934	0.54192
2946	0.565952
2958	0.530448
2970	0.624912
2982	0.445469
2994	0.256348
3006	0.0453736
3018	0.0228791
3030	0.0157013
3042	0.0136505
3054	0.0123688
3066	0.0113434
3078	0.0115997
3090	0.0115997
3102	0.0109589
3114	0.0106384
3126	0.0108307
3138	0.0114075
3150	0.0108307
3162	0.0108948
3174	0.0116638
3186	0.0114075
3198	0.0104462
3210	0.0078827
3222	0.00519105
3234	0.00487061
3246	0.00455018
3258	0.00384522
3270	0.00448609
3282	0.00410157
3294	0.00416565
3306	0.00390931
3318	0.00429383
3330	0.00410157
3342	0.00378113
3354	0.00474244
3366	0.00384522
3378	0.00410157
3390	0.00365296
3402	0.00378113
3414	0.00307618
3426	0.0034607
3438	0.00365296
3450	0.00269165
3462	0.00249939
3474	0.00455018
3486	0.00314026
3498	0.00358887
3510	0.00269165
3522	0.00275574
3534	0.00269165
3546	0.00256348
3558	0.00179444
3570	0.00301209
3582	0.00288391
3594	0.00224304
3606	0.00269165
3618	0.00429383
3630	0.0034607
3642	0.00275574
3654	0.00365296
3666	0.00390931
3678	0.00314026
3690	0.00429383
3702	0.00461426
3714	0.00352478
3726	0.00205078
3738	0.00269165
3750	0.00544739
3762	0.00384522
3774	0.00269165
3786	0.00333252
3798	0.00314026
3810	0.00480652
3822	0.00557557
3834	0.00551148
3846	0.00557557
3858	0.00262757
3870	0.00519105
3882	0.00365296
3894	0.00596009
3906	0.00512696
3918	0.00538331
3930	0.002948
3942	0.001474
3954	0.00743409
3966	0.0064087
