Infrared Spectrum: Nicotinamide, N,N-dipropyl-,
Formula: C 12 H 18 N 2 O
CAS: 10052-09-2
Origin: Sadtler Research Labs Under US-EPA Contract
1/CM	ABSORBANCE
450	0
462	0.0239309
474	0.021691
486	0.00954877
498	0.0301788
510	0.0156788
522	0.029
534	0.00895934
546	0.0233414
558	0.0139105
570	0.0306504
582	0.0255813
594	0.0255813
606	0.0233414
618	0.0340691
630	0.0233414
642	0.0287642
654	0.0285284
666	0.0337154
678	0.0431463
690	0.0315934
702	0.0793373
714	0.136748
726	0.0877072
738	0.0828739
750	0.089947
762	0.0449146
774	0.0339512
786	0.0396097
798	0.0340691
810	0.0780405
822	0.0669592
834	0.0265244
846	0.0319471
858	0.0255813
870	0.0213374
882	0.0389024
894	0.0544633
906	0.0438536
918	0.0323008
930	0.0302967
942	0.036191
954	0.0339512
966	0.023813
978	0.0202764
990	0.0198048
1002	0.0202764
1014	0.0588251
1026	0.131325
1038	0.0406707
1050	0.0347764
1062	0.0443251
1074	0.0855852
1086	0.165394
1098	0.330317
1110	0.249329
1122	0.098199
1134	0.0401991
1146	0.0295894
1158	0.0278211
1170	0.0386666
1182	0.0669592
1194	0.0714389
1206	0.0952519
1218	0.0603576
1230	0.048569
1242	0.074504
1254	0.18237
1266	0.217618
1278	0.189679
1290	0.193569
1302	0.23589
1314	0.19404
1326	0.149951
1338	0.130028
1350	0.143939
1362	0.156553
1374	0.178126
1386	0.198402
1398	0.252276
1410	0.515515
1422	0.408947
1434	0.208894
1446	0.164569
1458	0.217382
1470	0.216085
1482	0.144175
1494	0.0852316
1506	0.0753292
1518	0.0635406
1530	0.0516341
1542	0.0609471
1554	0.048569
1566	0.0683739
1578	0.0890039
1590	0.149008
1602	0.0561137
1614	0.0562316
1626	0.0809877
1638	0.118475
1650	0.306032
1662	1.05119
1674	0.745747
1686	0.17789
1698	0.0973738
1710	0.0602397
1722	0.0411422
1734	0.0410243
1746	0.0328902
1758	0.0261707
1770	0.0273496
1782	0.0198048
1794	0.0219268
1806	0.0139105
1818	0.00943088
1830	0.0161504
1842	0.0150894
1854	0.0101382
1866	0.0136748
1878	0.0124959
1890	0.0129675
1902	0.0156788
1914	0.0162683
1926	0.0132032
1938	0.0122601
1950	0.00860568
1962	0.00943088
1974	0.0075447
1986	0.00660162
1998	0.00636584
2010	0.00613007
2022	0.00707316
2034	0.00648373
2046	0.00730893
2058	0.00660162
2070	0.00613007
2082	0.00565853
2094	0.00542276
2106	0.00518698
2118	0.00565853
2130	0.00577641
2142	0.00577641
2154	0.00613007
2166	0.00636584
2178	0.00648373
2190	0.00636584
2202	0.00660162
2214	0.00624796
2226	0.00577641
2238	0.00554064
2250	0.00483333
2262	0.0050691
2274	0.00459755
2286	0.0042439
2298	0.00483333
2310	0.00483333
2322	0.00412601
2334	0.00412601
2346	0.00483333
2358	0.0058943
2370	0.00636584
2382	0.00730893
2394	0.0075447
2406	0.00836991
2418	0.00742682
2430	0.00683739
2442	0.00660162
2454	0.00613007
2466	0.0058943
2478	0.0058943
2490	0.00613007
2502	0.00648373
2514	0.00636584
2526	0.00648373
2538	0.00648373
2550	0.00636584
2562	0.00624796
2574	0.00601219
2586	0.00648373
2598	0.00730893
2610	0.00813413
2622	0.00719105
2634	0.00683739
2646	0.00707316
2658	0.00836991
2670	0.00836991
2682	0.00931299
2694	0.00860568
2706	0.00966665
2718	0.0119065
2730	0.0132032
2742	0.0149715
2754	0.0147358
2766	0.0139105
2778	0.0143821
2790	0.015561
2802	0.0180366
2814	0.0213374
2826	0.0253455
2838	0.0327723
2850	0.0420853
2862	0.0669592
2874	0.140638
2886	0.243199
2898	0.167398
2910	0.147004
2922	0.191093
2934	0.271727
2946	0.317585
2958	0.248504
2970	0.466946
2982	0.45669
2994	0.162565
3006	0.0780405
3018	0.0622438
3030	0.0729714
3042	0.107512
3054	0.0996137
3066	0.0565853
3078	0.0479796
3090	0.0656625
3102	0.0234593
3114	0.0167398
3126	0.0157967
3138	0.0153252
3150	0.0121423
3162	0.00990242
3174	0.0111992
3186	0.00943088
3198	0.00836991
3210	0.00836991
3222	0.0067195
3234	0.00683739
3246	0.00683739
3258	0.00719105
3270	0.00648373
3282	0.00707316
3294	0.00919511
3306	0.0139105
3318	0.0142642
3330	0.00919511
3342	0.00695527
3354	0.0058943
3366	0.00660162
3378	0.00518698
3390	0.00613007
3402	0.0058943
3414	0.00577641
3426	0.00613007
3438	0.00766259
3450	0.00613007
3462	0.00613007
3474	0.00719105
3486	0.0067195
3498	0.00624796
3510	0.00624796
3522	0.00636584
3534	0.0058943
3546	0.00577641
3558	0.00695527
3570	0.0067195
3582	0.00601219
3594	0.00742682
3606	0.00412601
3618	0.00789836
3630	0.0067195
3642	0.00624796
3654	0.00872356
3666	0.00518698
3678	0.0126138
3690	0.00836991
3702	0.00518698
3714	0.00931299
3726	0.00813413
3738	0.00990242
3750	0.00683739
3762	0.00860568
3774	0.00719105
3786	0.00742682
3798	0.00730893
3810	0.00813413
3822	0.0127317
3834	0.00954877
3846	0.00801625
3858	0.00872356
3870	0.00966665
3882	0.00542276
3894	0.0102561
3906	0.0108455
3918	0.00872356
3930	0.00943088
3942	0.00766259
3954	0.00554064
3966	0.0109634
