Infrared Spectrum: Benzothiazole, 5-chloro-2-methyl-
Formula: C 8 H 6 Cl N S
CAS: 1006-99-1
Origin: Sadtler Research Labs Under US-EPA Contract
1/CM	ABSORBANCE
450	0
462	0.0067392
474	0.00476928
486	0.0251424
498	0.00948672
510	0.0104198
522	0.0227578
534	0.0211507
546	0.00689472
558	0.00694656
570	0.0216691
582	0.0614822
594	0.0110938
606	0.0283046
618	0.0463968
630	0.0548467
642	0.104613
654	0.0536026
666	0.00995328
678	0.0704506
690	0.00642816
702	0.0119232
714	0.00870912
726	0.020425
738	0.0435456
750	0.0062208
762	0.002592
774	0.00896832
786	0.0798854
798	0.220061
810	0.0860026
822	0.0124416
834	0.00471744
846	0.00658368
858	0.0263866
870	0.100155
882	0.0861062
894	0.0656813
906	0.285898
918	0.0799891
930	0.0166406
942	0.0117677
954	0.0189216
966	0.0261274
978	0.0404352
990	0.0709171
1002	0.0565574
1014	0.0236909
1026	0.0187661
1038	0.0322963
1050	0.0537581
1062	0.139605
1074	0.426436
1086	0.0504922
1098	0.0201658
1110	0.0291341
1122	0.0193363
1134	0.0557798
1146	0.136443
1158	0.136236
1170	0.232813
1182	0.184188
1194	0.0354586
1206	0.00964224
1218	0.0167443
1230	0.0231725
1242	0.0504403
1254	0.0526694
1266	0.0163814
1278	0.0293933
1290	0.0684806
1302	0.0492998
1314	0.0157594
1326	0.0145152
1338	0.0135302
1350	0.0136858
1362	0.0203731
1374	0.0343181
1386	0.047641
1398	0.0864173
1410	0.0831514
1422	0.0946598
1434	0.417934
1446	0.339448
1458	0.0494035
1470	0.0469152
1482	0.035303
1494	0.0472262
1506	0.0785376
1518	0.195592
1530	0.331413
1542	0.233539
1554	0.122446
1566	0.0286675
1578	0.0402278
1590	0.0718502
1602	0.0617933
1614	0.0285638
1626	0.0132192
1638	0.0128045
1650	0.0134266
1662	0.00637632
1674	0.0046656
1686	0.00399168
1698	0.00772416
1710	0.0110938
1722	0.0225504
1734	0.0300672
1746	0.0234835
1758	0.0141005
1770	0.00912384
1782	0.00767232
1794	0.00798336
1806	0.00772416
1818	0.0054432
1830	0.00409536
1842	0.00497664
1854	0.0093312
1866	0.0187661
1878	0.0121306
1890	0.00321408
1902	0.00191808
1914	0.00196992
1926	0.00217728
1938	0.0023328
1950	0.00254016
1962	0.00290304
1974	0.0028512
1986	0.00191808
1998	0.00202176
2010	0.00243648
2022	0.00316224
2034	0.00295488
2046	0.002592
2058	0.00290304
2070	0.002592
2082	0.00191808
2094	0.0015552
2106	0.00186624
2118	0.00269568
2130	0.00290304
2142	0.0028512
2154	0.0028512
2166	0.00368064
2178	0.00326592
2190	0.00222912
2202	0.00243648
2214	0.00222912
2226	0.00279936
2238	0.00228096
2250	0.00202176
2262	0.00191808
2274	0.00228096
2286	0.00300672
2298	0.00357696
2310	0.00368064
2322	0.00451008
2334	0.0044064
2346	0.00342144
2358	0.00482112
2370	0.003888
2382	0.00368064
2394	0.00445824
2406	0.00435456
2418	0.00430272
2430	0.00513216
2442	0.00513216
2454	0.0046656
2466	0.00497664
2478	0.00482112
2490	0.00445824
2502	0.00435456
2514	0.00461376
2526	0.00497664
2538	0.00497664
2550	0.0057024
2562	0.00435456
2574	0.0041472
2586	0.003888
2598	0.00342144
2610	0.00404352
2622	0.00342144
2634	0.00254016
2646	0.0036288
2658	0.00352512
2670	0.00445824
2682	0.005184
2694	0.00559872
2706	0.00528768
2718	0.00409536
2730	0.00425088
2742	0.00419904
2754	0.00399168
2766	0.00461376
2778	0.00430272
2790	0.00368064
2802	0.00419904
2814	0.00565056
2826	0.00865728
2838	0.00886464
2850	0.0108346
2862	0.0208397
2874	0.0170554
2886	0.0120269
2898	0.011975
2910	0.0125971
2922	0.0170554
2934	0.0614304
2946	0.0628819
2958	0.0206323
2970	0.0198029
2982	0.0172109
2994	0.013945
3006	0.0134784
3018	0.0153446
3030	0.0166925
3042	0.016848
3054	0.0162259
3066	0.0263866
3078	0.0307411
3090	0.0215136
3102	0.012649
3114	0.00720576
3126	0.00606528
3138	0.00445824
3150	0.00373248
3162	0.00305856
3174	0.0031104
3186	0.0028512
3198	0.00295488
3210	0.00290304
3222	0.00316224
3234	0.00269568
3246	0.00248832
3258	0.00217728
3270	0.00222912
3282	0.002592
3294	0.00254016
3306	0.00274752
3318	0.00238464
3330	0.00228096
3342	0.00243648
3354	0.00202176
3366	0.00212544
3378	0.00290304
3390	0.00191808
3402	0.00274752
3414	0.0031104
3426	0.00248832
3438	0.00326592
3450	0.00347328
3462	0.00326592
3474	0.0031104
3486	0.00264384
3498	0.00238464
3510	0.00352512
3522	0.00445824
3534	0.00305856
3546	0.003888
3558	0.00264384
3570	0.00383616
3582	0.00435456
3594	0.00368064
3606	0.00331776
3618	0.00331776
3630	0.00347328
3642	0.00445824
3654	0.00202176
3666	0.00352512
3678	0.00342144
3690	0.0028512
3702	0.00352512
3714	0.00321408
3726	0.00316224
3738	0.00373248
3750	0.003888
3762	0.00269568
3774	0.00399168
3786	0.00264384
3798	0.0033696
3810	0.00305856
3822	0.00393984
3834	0.00342144
3846	0.00279936
3858	0.00393984
3870	0.00331776
3882	0.00171072
3894	0.00383616
3906	0.00290304
3918	0.00331776
3930	0.0033696
3942	0.00228096
3954	0.00368064
3966	0.00445824
