Infrared Spectrum: 1-Phenyl-2-butanone
Formula: C 10 H 12 O
CAS: 1007-32-5
Origin: Sadtler Research Labs Under US-EPA Contract
1/CM	ABSORBANCE
450	0.0148874
462	0.0136512
474	0.0170372
486	0.00682562
498	0.0070406
510	0.0146186
522	0.0216055
534	0.0140812
546	0.013705
558	0.0123614
570	0.0168222
582	0.0167147
594	0.0147261
606	0.0190257
618	0.0257439
630	0.018757
642	0.01306
654	0.0106953
666	0.0123614
678	0.0328382
690	0.125495
702	0.192407
714	0.107329
726	0.106791
738	0.102868
750	0.0525089
762	0.0231104
774	0.00881418
786	0.00456832
798	0.00424585
810	0.00446083
822	0.00360092
834	0.00591195
846	0.00370841
858	0.000698685
870	0.00193482
882	0.0026335
894	0.00548199
906	0.0146186
918	0.01392
930	0.00698685
942	0.00591195
954	0.00978159
966	0.0153173
978	0.0220355
990	0.0283236
1002	0.0197782
1014	0.0171447
1026	0.0532613
1038	0.0769628
1050	0.0427273
1062	0.0328382
1074	0.0345043
1086	0.0369228
1098	0.0559485
1110	0.104803
1122	0.100987
1134	0.0591732
1146	0.0417599
1158	0.037729
1170	0.0329994
1182	0.0500366
1194	0.0786289
1206	0.072932
1218	0.0387501
1230	0.0196169
1242	0.0138125
1254	0.0155861
1266	0.0204768
1278	0.0284311
1290	0.0318708
1302	0.0304197
1314	0.0373528
1326	0.0538525
1338	0.0849708
1350	0.104373
1362	0.0639028
1374	0.0378902
1386	0.0378902
1398	0.0261738
1410	0.032677
1422	0.0548199
1434	0.0652464
1446	0.0637953
1458	0.0790589
1470	0.0620755
1482	0.0318708
1494	0.0989445
1506	0.072717
1518	0.0115014
1530	0.00865295
1542	0.00978159
1554	0.00639566
1566	0.00661064
1578	0.0125763
1590	0.0230566
1602	0.0467044
1614	0.0374603
1626	0.00924414
1638	0.00392338
1650	0.00822299
1662	0.00854546
1674	0.0159623
1686	0.0317096
1698	0.0579909
1710	0.138447
1722	0.401421
1734	0.506439
1746	0.212239
1758	0.0795426
1770	0.0336444
1782	0.0171984
1794	0.0182733
1806	0.0163385
1818	0.00956661
1830	0.00655689
1842	0.0042996
1854	0.00376215
1866	0.0070406
1878	0.00790052
1890	0.00714809
1902	0.00279474
1914	0.00171984
1926	0.00327845
1938	0.00833048
1950	0.0102653
1962	0.00763179
1974	0.0016661
1986	0.000591195
1998	0.000376215
2010	0.000268725
2022	0.000376215
2034	0.000161235
2046	5.3745e-05
2058	0
2070	0.00021498
2082	0.000376215
2094	0.00042996
2106	0.000591195
2118	0.00064494
2130	0.00042996
2142	0.00021498
2154	0.00021498
2166	0.000376215
2178	0.00032247
2190	0.000268725
2202	0
2214	0.000161235
2226	0.000268725
2238	0.000161235
2250	0.000161235
2262	0.00042996
2274	0.00032247
2286	0.00032247
2298	0.000376215
2310	0.00064494
2322	0.00042996
2334	0.000268725
2346	0.000376215
2358	0
2370	0
2382	0.00021498
2394	0.000698685
2406	0.000483705
2418	0.00064494
2430	0.000806175
2442	0.000483705
2454	0.00064494
2466	0.00102115
2478	0.00075243
2490	0.000698685
2502	0.00075243
2514	0.00064494
2526	0.00085992
2538	0.000483705
2550	0.000591195
2562	0.000698685
2574	0.000698685
2586	0.00112864
2598	0.00145112
2610	0.00171984
2622	0.00150486
2634	0.00171984
2646	0.00134362
2658	0.00123613
2670	0.00102115
2682	0.00188108
2694	0.00177359
2706	0.0021498
2718	0.00268725
2730	0.00317096
2742	0.00360092
2754	0.00376215
2766	0.00386964
2778	0.00419211
2790	0.00612693
2802	0.00833048
2814	0.010534
2826	0.0131138
2838	0.0161772
2850	0.0190795
2862	0.0234866
2874	0.0338056
2886	0.0622367
2898	0.091259
2910	0.10362
2922	0.122001
2934	0.120443
2946	0.135222
2958	0.135545
2970	0.107812
2982	0.149304
2994	0.135491
3006	0.0670738
3018	0.0591732
3030	0.110715
3042	0.140328
3054	0.0626129
3066	0.0871744
3078	0.128289
3090	0.0744368
3102	0.0492304
3114	0.0275174
3126	0.0127913
3138	0.00553573
3150	0.00440709
3162	0.00456832
3174	0.00489079
3186	0.00311721
3198	0.00198856
3210	0.00161235
3222	0.00161235
3234	0.00145112
3246	0.00134362
3258	0.00112864
3270	0.000806175
3282	0.00096741
3294	0.0010749
3306	0.00075243
3318	0.00118239
3330	0.000698685
3342	0.00118239
3354	0.00118239
3366	0.00145112
3378	0.00128988
3390	0.00182733
3402	0.00177359
3414	0.00284848
3426	0.00618068
3438	0.00881418
3450	0.00666438
3462	0.00343968
3474	0.00193482
3486	0.00134362
3498	0.0010749
3510	0.000698685
3522	0.000913665
3534	0.00085992
3546	0.000913665
3558	0.000913665
3570	0.00182733
3582	0.00241852
3594	0.00193482
3606	0.000698685
3618	0.000483705
3630	0.00112864
3642	0.00102115
3654	0.0016661
3666	0.00161235
3678	0.00064494
3690	0.000591195
3702	0.000483705
3714	0.00064494
3726	0.000913665
3738	0.00075243
3750	0.000161235
3762	0.00112864
3774	0.00139737
3786	0.000806175
3798	0.00112864
3810	0.00155861
3822	0.00032247
3834	0.00177359
3846	0.000806175
3858	0.00171984
3870	0.00155861
3882	0.00139737
3894	0.00123613
3906	0.00155861
3918	0.00075243
3930	0.00112864
3942	0.00112864
3954	0.00182733
3966	0.00290223
