Infrared Spectrum: Ethanethiol, 2-benzylamino-,
Formula: C 9 H 13 N S
CAS: 1007-54-1
Origin: Sadtler Research Labs Under US-EPA Contract
1/CM	ABSORBANCE
450	0.00895637
462	0.0509141
474	0.0257798
486	0.00492197
498	0.0297739
510	0.0263043
522	0.0206158
534	0.0444187
546	0.0385689
558	0.0400212
570	0.0248922
582	0.0303387
594	0.0302177
606	0.0449029
618	0.0453063
630	0.0344538
642	0.03518
654	0.0315894
666	0.0358658
678	0.0417964
690	0.0527296
702	0.0691496
714	0.0830683
726	0.12434
738	0.160004
750	0.146247
762	0.134628
774	0.174891
786	0.241459
798	0.323034
810	0.380484
822	0.235528
834	0.137654
846	0.0811318
858	0.0576919
870	0.0589829
882	0.0658414
894	0.0435312
906	0.0373989
918	0.0351396
930	0.0361079
942	0.0344538
954	0.0324366
966	0.036713
978	0.0394161
990	0.037762
1002	0.0364306
1014	0.0388513
1026	0.0532541
1038	0.0647118
1050	0.060395
1062	0.0379234
1074	0.0245292
1086	0.0117401
1098	0.0137573
1110	0.0137976
1122	0.0131925
1134	0.0156938
1146	0.0342117
1158	0.0480497
1170	0.0289266
1182	0.0129101
1194	0.00693917
1206	0.0133539
1218	0.0150483
1230	0.0160166
1242	0.0195265
1254	0.0228347
1266	0.0186793
1278	0.0169445
1290	0.018881
1302	0.0149273
1314	0.0184372
1326	0.0271515
1338	0.0389723
1350	0.042926
1362	0.0516807
1374	0.0704003
1386	0.0791146
1398	0.0568044
1410	0.0469604
1422	0.0490583
1434	0.054303
1446	0.068141
1458	0.0853276
1470	0.0869817
1482	0.0910564
1494	0.145359
1506	0.189697
1518	0.0910161
1530	0.0355027
1542	0.0307421
1554	0.0310245
1566	0.03167
1578	0.032719
1590	0.0413123
1602	0.066729
1614	0.10558
1626	0.092186
1638	0.0499862
1650	0.03167
1662	0.0209789
1674	0.0110139
1686	0.00887568
1698	0.00589022
1710	0.00710054
1722	0.010086
1734	0.0164604
1746	0.0188003
1758	0.0171462
1770	0.011498
1782	0.00984394
1794	0.0077057
1806	0.0101263
1818	0.0114174
1830	0.0102877
1842	0.0118611
1854	0.0118208
1866	0.0125873
1878	0.0166217
1890	0.0159762
1902	0.00831086
1914	0.00681814
1926	0.0056885
1938	0.00455887
1950	0.0043975
1962	0.00379234
1974	0.00387302
1986	0.00383268
1998	0.0036713
2010	0.00262236
2022	0.00274339
2034	0.00197686
2046	0.00242064
2058	0.00242064
2070	0.00205754
2082	0.00205754
2094	0.0023803
2106	0.00229961
2118	0.00189617
2130	0.00177514
2142	0.00133135
2154	0.00133135
2166	0.0010086
2178	0.0010086
2190	0.000847224
2202	0.000524472
2214	0.000443784
2226	0.00108929
2238	0.000726192
2250	0.0013717
2262	0.000968256
2274	0.00153307
2286	0.00209789
2298	0.0030258
2310	0.00310649
2322	0.00250133
2334	0.00149273
2346	0.000847224
2358	0.00169445
2370	0.00221892
2382	0.00250133
2394	0.00157342
2406	0.0020172
2418	0.00213823
2430	0.00177514
2442	0.00233995
2454	0.00225926
2466	0.00225926
2478	0.00225926
2490	0.00233995
2502	0.00205754
2514	0.00189617
2526	0.00229961
2538	0.00225926
2550	0.00242064
2562	0.00225926
2574	0.00278374
2586	0.00286442
2598	0.00334855
2610	0.00411509
2622	0.00387302
2634	0.00423612
2646	0.00427646
2658	0.00508334
2670	0.00548678
2682	0.00633401
2694	0.0066971
2706	0.00835121
2718	0.00984394
2730	0.0162586
2742	0.0254571
2754	0.0214227
2766	0.0163393
2778	0.0172269
2790	0.0210999
2802	0.0257798
2814	0.032719
2826	0.0455484
2838	0.06919
2850	0.111753
2862	0.185744
2874	0.265181
2886	0.264697
2898	0.225886
2910	0.229799
2922	0.31311
2934	0.392063
2946	0.307139
2958	0.218019
2970	0.174609
2982	0.161255
2994	0.177594
3006	0.225805
3018	0.227903
3030	0.178805
3042	0.160085
3054	0.163232
3066	0.0975921
3078	0.0538996
3090	0.034131
3102	0.0234399
3114	0.0205351
3126	0.0184776
3138	0.0122646
3150	0.00701986
3162	0.00508334
3174	0.00359062
3186	0.0033889
3198	0.00286442
3210	0.00290477
3222	0.00270305
3234	0.00254167
3246	0.00270305
3258	0.00193651
3270	0.00246098
3282	0.00217858
3294	0.0023803
3306	0.00157342
3318	0.00262236
3330	0.00512369
3342	0.00903706
3354	0.0074233
3366	0.00443784
3378	0.00233995
3390	0.00221892
3402	0.0043975
3414	0.00431681
3426	0.0036713
3438	0.0030258
3450	0.00229961
3462	0.00371165
3474	0.00209789
3486	0.00250133
3498	0.00185582
3510	0.00169445
3522	0.0030258
3534	0.00157342
3546	0.00480094
3558	0.0023803
3570	0.00512369
3582	0.00246098
3594	0.00492197
3606	0.00233995
3618	0.00258202
3630	0.00246098
3642	0.00443784
3654	0.00548678
3666	0.00310649
3678	0.00391337
3690	0.0033889
3702	0.00346958
3714	0.00524472
3726	0.00617263
3738	0.0043975
3750	0.00544644
3762	0.00371165
3774	0.00359062
3786	0.00447818
3798	0.00310649
3810	0.00080688
3822	0.0040344
3834	0.00205754
3846	0.00419578
3858	0.00548678
3870	0.00383268
3882	0.0046799
3894	0.0043975
3906	0.00762502
3918	0.00681814
3930	0.00310649
3942	0.0056885
3954	0.00080688
3966	0.00193651
