Infrared Spectrum: 2-Butenedioic acid (Z)-, bis(1-methylethyl) ester
Formula: C 10 H 16 O 4
CAS: 10099-70-4
Origin: Sadtler Research Labs Under US-EPA Contract
1/CM	ABSORBANCE
450	0.00829768
462	0.00582076
474	0.0091646
486	0.00854537
498	0.0172765
510	0.00848345
522	0.00600653
534	0.00736884
546	0.00724499
558	0.0061923
570	0.00705922
582	0.0110223
594	0.0114558
606	0.00736884
618	0.0069973
630	0.00544922
642	0.00631615
654	0.00637807
666	0.00594461
678	0.00625422
690	0.00662576
702	0.00724499
714	0.0101554
726	0.0091646
738	0.00842153
750	0.00959806
762	0.0115177
774	0.0135611
786	0.0197534
798	0.0252027
810	0.0324477
822	0.0481142
834	0.0554211
846	0.0425411
858	0.0314569
870	0.0219827
882	0.0295992
894	0.0226019
906	0.0175861
918	0.0244596
930	0.0395688
942	0.0572169
954	0.0387019
966	0.0400023
978	0.102978
990	0.11109
1002	0.0304661
1014	0.0149854
1026	0.0129419
1038	0.0156046
1050	0.0176481
1062	0.0196915
1074	0.02737
1086	0.0530061
1098	0.1771
1110	0.444793
1122	0.256795
1134	0.172579
1146	0.1784
1158	0.260696
1170	0.369123
1182	0.282245
1194	0.263978
1206	0.41346
1218	0.408568
1230	0.222427
1242	0.190475
1254	0.220074
1266	0.207504
1278	0.177038
1290	0.189794
1302	0.12558
1314	0.0581457
1326	0.0431603
1338	0.0502815
1350	0.0563499
1362	0.0549257
1374	0.0927607
1386	0.181372
1398	0.167378
1410	0.0913364
1422	0.0292896
1434	0.0230354
1446	0.0284227
1458	0.0383923
1470	0.0476807
1482	0.0343053
1494	0.0147377
1506	0.00897883
1518	0.00749268
1530	0.00755461
1542	0.00730691
1554	0.00786422
1566	0.00749268
1578	0.00873114
1590	0.00928845
1602	0.0115796
1614	0.0151092
1626	0.0235307
1638	0.0520153
1650	0.0592603
1662	0.0318284
1674	0.02093
1686	0.0237784
1698	0.0336242
1710	0.0478046
1722	0.0956091
1734	0.345159
1746	0.61923
1758	0.311597
1770	0.0933799
1782	0.0420457
1794	0.0256361
1806	0.0190104
1818	0.0155427
1830	0.0108365
1842	0.00767845
1854	0.00674961
1866	0.00631615
1878	0.00606845
1890	0.00414884
1902	0.00359153
1914	0.00340576
1926	0.00439653
1938	0.00433461
1950	0.00322
1962	0.0029723
1974	0.00346769
1986	0.00390115
1998	0.0037773
2010	0.00383923
2022	0.00470615
2034	0.00520153
2046	0.00557307
2058	0.00563499
2070	0.00464423
2082	0.00346769
2094	0.0029723
2106	0.00322
2118	0.00247692
2130	0.00235307
2142	0.002415
2154	0.00272461
2166	0.00222923
2178	0.00216731
2190	0.00167192
2202	0.00210538
2214	0.002415
2226	0.00204346
2238	0.00204346
2250	0.00191961
2262	0.00247692
2274	0.00260077
2286	0.00291038
2298	0.00284846
2310	0.00315807
2322	0.00334384
2334	0.00278653
2346	0.00340576
2358	0.00278653
2370	0.00383923
2382	0.00532538
2394	0.00433461
2406	0.00322
2418	0.00272461
2430	0.00371538
2442	0.00309615
2454	0.00253884
2466	0.00198154
2478	0.00266269
2490	0.00309615
2502	0.00291038
2514	0.00284846
2526	0.00272461
2538	0.00315807
2550	0.00365346
2562	0.00309615
2574	0.00303423
2586	0.0029723
2598	0.00371538
2610	0.0037773
2622	0.00179577
2634	0.00061923
2646	0.00154807
2658	0.000866922
2670	0.00117654
2682	0.00427269
2694	0.00507769
2706	0.00482999
2718	0.00464423
2730	0.00464423
2742	0.00600653
2754	0.00551115
2766	0.00588268
2778	0.00557307
2790	0.0045823
2802	0.00470615
2814	0.00606845
2826	0.00786422
2838	0.00798807
2850	0.00842153
2862	0.0102173
2874	0.0195677
2886	0.0358534
2898	0.0324477
2910	0.0295992
2922	0.0351103
2934	0.0583934
2946	0.0821718
2958	0.0579599
2970	0.0510865
2982	0.176357
2994	0.207566
3006	0.0660718
3018	0.0221065
3030	0.0124465
3042	0.00904076
3054	0.0100934
3066	0.0110842
3078	0.0078023
3090	0.00705922
3102	0.00712114
3114	0.0069973
3126	0.00557307
3138	0.00476807
3150	0.00594461
3162	0.00643999
3174	0.0069973
3186	0.00482999
3198	0.00495384
3210	0.00582076
3222	0.00489192
3234	0.00402499
3246	0.00198154
3258	0.00185769
3270	0.00284846
3282	0.00179577
3294	0
3306	0.000990768
3318	0.00253884
3330	0.00315807
3342	0.00371538
3354	0.00173384
3366	0.00154807
3378	0.00266269
3390	0.00303423
3402	0.002415
3414	0.00179577
3426	0.00154807
3438	0.00346769
3450	0.00495384
3462	0.00582076
3474	0.00489192
3486	0.00433461
3498	0.00328192
3510	0.00216731
3522	0.00105269
3534	0.00117654
3546	0.00260077
3558	0.00309615
3570	0.00322
3582	0.00365346
3594	0.0029723
3606	0.00322
3618	0.00359153
3630	0.00260077
3642	0.00247692
3654	0.00421076
3666	0.0061923
3678	0.00631615
3690	0.0045823
3702	0.00557307
3714	0.00705922
3726	0.0069973
3738	0.00662576
3750	0.00390115
3762	0.00371538
3774	0.00495384
3786	0.00482999
3798	0.00365346
3810	0.0037773
3822	0.00476807
3834	0.00594461
3846	0.00569692
3858	0.00433461
3870	0.00322
3882	0.00625422
3894	0.00662576
3906	0.00482999
3918	0.00284846
3930	0.00396307
3942	0.00774037
3954	0.00817384
3966	0.00786422
