Infrared Spectrum: Pyridazine, 3-butylamino-6-chloro-,
Formula: C 8 H 12 Cl N 3
CAS: 1009-84-3
Origin: Sadtler Research Labs Under US-EPA Contract
1/CM	ABSORBANCE
450	0.00435326
462	0.00717007
474	0.00132305
486	0.00221931
498	0.000682864
510	0.00443862
522	0.0052922
534	0.0018352
546	0.00456665
558	0.00729811
570	0.00926134
582	0.0100296
594	0.0142121
606	0.0186507
618	0.0232601
630	0.0246685
642	0.0305155
654	0.0361064
666	0.0364905
678	0.0341859
690	0.0250953
702	0.012761
714	0.00439594
726	0.00260342
738	0.0040545
750	0.00618846
762	0.00503612
774	0.00580434
786	0.0100722
798	0.0194189
810	0.0565497
822	0.0943633
834	0.0497637
846	0.0217663
858	0.0109258
870	0.00810901
882	0.00554827
894	0.003457
906	0.00277414
918	0.00119501
930	0.00213395
942	0.00204859
954	0.00431058
966	0.0061031
978	0.0075115
990	0.00896259
1002	0.0140414
1014	0.0447703
1026	0.0626955
1038	0.0442581
1050	0.042551
1062	0.0595799
1074	0.074859
1086	0.0523245
1098	0.0398195
1110	0.0381123
1122	0.0451971
1134	0.0616285
1146	0.141566
1158	0.212712
1170	0.0558241
1182	0.0249672
1194	0.0173277
1206	0.0198457
1218	0.0269731
1230	0.028979
1242	0.0420388
1254	0.0571045
1266	0.0614578
1278	0.0433619
1290	0.056379
1302	0.0890711
1314	0.0408865
1326	0.0328202
1338	0.0429351
1350	0.0623113
1362	0.103198
1374	0.139432
1386	0.104478
1398	0.12155
1410	0.101789
1422	0.276731
1434	0.399305
1446	0.195214
1458	0.198415
1470	0.319751
1482	0.389531
1494	0.226199
1506	0.0897539
1518	0.0437887
1530	0.0344846
1542	0.0619699
1554	0.113611
1566	0.0648721
1578	0.16329
1590	0.281169
1602	0.111734
1614	0.0307289
1626	0.0194616
1638	0.0149803
1650	0.0121208
1662	0.00785294
1674	0.00729811
1686	0.006914
1698	0.0075115
1710	0.0067006
1722	0.00478005
1734	0.00559095
1746	0.0040545
1758	0.00354236
1770	0.00392647
1782	0.00290217
1794	0.00200591
1806	0.00153644
1818	0.00149377
1830	0.00149377
1842	0.00187788
1854	0.00145109
1866	0.00179252
1878	0.00128037
1890	0.00187788
1902	0.00332896
1914	0.00439594
1926	0.00192056
1938	0.000554827
1950	0.000554827
1962	0.00042679
1974	0.000384111
1986	0.000213395
1998	0.000256074
2010	0
2022	0.000213395
2034	0.000469469
2046	0.000597506
2058	0.00042679
2070	0.000597506
2082	0.000725543
2094	0.000682864
2106	0.000682864
2118	0.00085358
2130	0.000938938
2142	0.00119501
2154	0.000938938
2166	0.00106697
2178	0.00200591
2190	0.00174984
2202	0.000554827
2214	0.000512148
2226	0.00119501
2238	0.00136573
2250	0.00196323
2262	0.00196323
2274	0.00239002
2286	0.00320093
2298	0.0050788
2310	0.0058897
2322	0.0052922
2334	0.00452397
2346	0.00495076
2358	0.00571899
2370	0.00473737
2382	0.00388379
2394	0.000938938
2406	0.000725543
2418	0.000512148
2430	0.000128037
2442	0
2454	0.000341432
2466	0.000213395
2478	0.000554827
2490	0.000298753
2502	0.000981617
2514	0.00119501
2526	0.00136573
2538	0.00115233
2550	0.00136573
2562	0.00149377
2574	0.00217663
2586	0.00290217
2598	0.00379843
2610	0.0032436
2622	0.0024327
2634	0.00239002
2646	0.00277414
2658	0.00268878
2670	0.003457
2682	0.00401183
2694	0.00452397
2706	0.00546291
2718	0.00567631
2730	0.00593238
2742	0.00584702
2754	0.00665792
2766	0.00478005
2778	0.00640185
2790	0.00665792
2802	0.00883455
2814	0.00985885
2826	0.0133158
2838	0.0194616
2850	0.0346127
2862	0.0609029
2874	0.0846751
2886	0.096796
2898	0.0775051
2910	0.0807487
2922	0.113142
2934	0.164186
2946	0.17588
2958	0.143572
2970	0.171314
2982	0.103155
2994	0.0376856
3006	0.0209981
3018	0.0162607
3030	0.0134866
3042	0.0132732
3054	0.0136146
3066	0.0146389
3078	0.0128891
3090	0.00759686
3102	0.00499344
3114	0.00396915
3126	0.00349968
3138	0.00260342
3150	0.00209127
3162	0.00217663
3174	0.00157912
3186	0.00153644
3198	0.00174984
3210	0.00136573
3222	0.000981617
3234	0.0010243
3246	0.00110965
3258	0.00149377
3270	0.00196323
3282	0.00200591
3294	0.00166448
3306	0.00217663
3318	0.00277414
3330	0.00268878
3342	0.00268878
3354	0.00315825
3366	0.00294485
3378	0.00371307
3390	0.00542023
3402	0.00891991
3414	0.0142548
3426	0.0198031
3438	0.0209127
3450	0.0251379
3462	0.0269731
3474	0.0183093
3486	0.00879187
3498	0.00332896
3510	0.00239002
3522	0.00119501
3534	0.00166448
3546	0.00106697
3558	0.000341432
3570	0.00136573
3582	0.00128037
3594	0.000896259
3606	0.000810901
3618	0.000810901
3630	0.00123769
3642	0.00140841
3654	0.00106697
3666	0.00128037
3678	0.0018352
3690	0.00145109
3702	0.00157912
3714	0.0018352
3726	0.00179252
3738	0.00145109
3750	0.00136573
3762	0.00251806
3774	0.00115233
3786	0.00157912
3798	0.00110965
3810	0.00166448
3822	0.00256074
3834	0.00115233
3846	0.00209127
3858	0.0024327
3870	0.00311557
3882	0.00234735
3894	0.00166448
3906	0.00153644
3918	0.00221931
3930	0.00268878
3942	0.0016218
3954	0.00247538
3966	0.00217663
