Infrared Spectrum: 1-Butanone, 1-(4-hydroxyphenyl)-
Formula: C 10 H 12 O 2
CAS: 1009-11-6
Origin: Sadtler Research Labs Under US-EPA Contract
1/CM	ABSORBANCE
450	0.0167272
462	0.00648414
474	0.0160694
486	0.0232113
498	0.0308231
510	0.0204861
522	0.0158814
534	0.017291
546	0.027816
558	0.0568537
570	0.0682244
582	0.0744266
594	0.0554441
606	0.0454829
618	0.0272522
630	0.0185127
642	0.0213319
654	0.0151297
666	0.0107129
678	0.0024433
690	0.00272522
702	0.00479262
714	0.00319508
726	0.00150357
738	0.00657811
750	0.017291
762	0.0229294
774	0.020768
786	0.0301653
798	0.0637137
810	0.0909659
822	0.123387
834	0.199035
846	0.129871
858	0.0434155
870	0.0249028
882	0.0219897
894	0.0412541
906	0.0224595
918	0.00742387
930	0.00751784
942	0.00920935
954	0.0135321
966	0.0256546
978	0.0819445
990	0.149793
1002	0.0995174
1014	0.0337363
1026	0.0220837
1038	0.0321388
1050	0.0391867
1062	0.0318568
1074	0.0351459
1086	0.0464227
1098	0.0874889
1110	0.0945368
1122	0.0692581
1134	0.0951946
1146	0.166332
1158	0.454641
1170	0.93973
1182	0.687882
1194	0.409346
1206	0.277314
1218	0.335484
1230	0.216138
1242	0.178737
1254	0.322515
1266	0.606032
1278	0.272146
1290	0.145282
1302	0.13861
1314	0.162103
1326	0.180804
1338	0.129119
1350	0.149417
1362	0.159942
1374	0.0960404
1386	0.0531887
1398	0.0407843
1410	0.0621162
1422	0.119722
1434	0.150545
1446	0.0881467
1458	0.0762121
1470	0.0651233
1482	0.0472684
1494	0.0548802
1506	0.153082
1518	0.130059
1530	0.03477
1542	0.0265944
1554	0.0362736
1566	0.0630559
1578	0.158157
1590	0.376926
1602	0.583854
1614	0.488848
1626	0.116996
1638	0.0547863
1650	0.0586392
1662	0.0733929
1674	0.107129
1686	0.308513
1698	0.606126
1710	0.281825
1722	0.0564778
1734	0.0309171
1746	0.0217078
1758	0.0198283
1770	0.0163513
1782	0.00845757
1794	0.00601427
1806	0.00507454
1818	0.00319508
1830	0.00225535
1842	0.00216138
1854	0.00357097
1866	0.0048866
1878	0.00516852
1890	0.00639016
1902	0.00751784
1914	0.00526249
1926	0.00413481
1938	0.00375892
1950	0.00234933
1962	0.00159754
1974	0.0024433
1986	0.00263124
1998	0.00413481
2010	0.00432276
2022	0.00328905
2034	0.00253727
2046	0.00169151
2058	0.00225535
2070	0.00375892
2082	0.00385289
2094	0.0045107
2106	0.00422879
2118	0.00131562
2130	0.000657811
2142	0.000563838
2154	0.000375892
2166	0.000657811
2178	0.000563838
2190	0.000375892
2202	0.000751784
2214	0.000845757
2226	0.000751784
2238	0.0010337
2250	0.00112768
2262	0.00187946
2274	0.00328905
2286	0.00319508
2298	0.00234933
2310	0.00197343
2322	0.00159754
2334	0.000281919
2346	0.00263124
2358	0.000563838
2370	0.00093973
2382	0.0045107
2394	0.00535646
2406	0.006954
2418	0.00864552
2430	0.0124044
2442	0.0142839
2454	0.0109948
2466	0.00686003
2478	0.00545043
2490	0.00535646
2502	0.00535646
2514	0.00648414
2526	0.00864552
2538	0.00629619
2550	0.0048866
2562	0.0048866
2574	0.00554441
2586	0.00639016
2598	0.00704798
2610	0.00639016
2622	0.00629619
2634	0.0059203
2646	0.00667208
2658	0.0079877
2670	0.00789373
2682	0.00751784
2694	0.00817565
2706	0.00751784
2718	0.00808168
2730	0.00883346
2742	0.00949127
2754	0.0108069
2766	0.0119346
2778	0.0124984
2790	0.0125924
2802	0.0137201
2814	0.0165392
2826	0.0183247
2838	0.0202042
2850	0.0251848
2862	0.0378711
2874	0.0752724
2886	0.116996
2898	0.0988596
2910	0.104592
2922	0.111828
2934	0.147162
2946	0.17244
2958	0.177703
2970	0.291034
2982	0.217078
2994	0.0900261
3006	0.0561019
3018	0.0507454
3030	0.055632
3042	0.073017
3054	0.0394687
3066	0.0469865
3078	0.0545983
3090	0.0301653
3102	0.0247149
3114	0.0223656
3126	0.0177609
3138	0.0143779
3150	0.0131562
3162	0.0132502
3174	0.0141899
3186	0.0142839
3198	0.0130622
3210	0.0125924
3222	0.0125924
3234	0.0130622
3246	0.0133442
3258	0.013908
3270	0.014096
3282	0.0147538
3294	0.0153176
3306	0.0171031
3318	0.0185127
3330	0.0184187
3342	0.0191705
3354	0.020768
3366	0.0239631
3378	0.0256546
3390	0.0223656
3402	0.017573
3414	0.0167272
3426	0.0149417
3438	0.014096
3450	0.0132502
3462	0.0118406
3474	0.0110888
3486	0.0093973
3498	0.00892744
3510	0.00686003
3522	0.00714195
3534	0.00676606
3546	0.00507454
3558	0.00573235
3570	0.00131562
3582	0.00714195
3594	0.00610824
3606	0.0048866
3618	0.00639016
3630	0.0284738
3642	0.280134
3654	0.326744
3666	0.0297894
3678	0.003477
3690	0.00093973
3702	0.00122165
3714	0.000187946
3726	0.000187946
3738	0.000187946
3750	0.000187946
3762	0.000281919
3774	0.00169151
3786	0.000187946
3798	0.000187946
3810	0.000187946
3822	0.000187946
3834	0.000187946
3846	9.3973e-05
3858	0.000187946
3870	0.000187946
3882	9.3973e-05
3894	0.000187946
3906	0.000187946
3918	0.000187946
3930	0.000751784
3942	0.0010337
3954	0.00206741
3966	0.00122165
