Infrared Spectrum: 2,4,6-Triallyloxy-1,3,5-triazine
Formula: C 12 H 15 N 3 O 3
CAS: 101-37-1
Origin: Sadtler Research Labs Under US-EPA Contract
1/CM	ABSORBANCE
450	0.00557522
462	0.00675784
474	0.00498391
486	0.00650442
498	0.00802494
510	0.00777152
522	0.00870072
534	0.00675784
546	0.00810941
558	0.00827835
570	0.00886967
582	0.00743362
594	0.00861625
606	0.0100523
618	0.0103057
630	0.0112349
642	0.00946098
654	0.0114883
666	0.00929203
678	0.0132623
690	0.0138536
702	0.00827835
714	0.0097144
726	0.011066
738	0.00920756
750	0.0104747
762	0.00802494
774	0.00692679
786	0.00988334
798	0.00895414
810	0.0123331
822	0.0440104
834	0.0272848
846	0.0100523
858	0.0112349
870	0.013938
882	0.015712
894	0.0261022
906	0.0358166
918	0.0572727
930	0.109055
942	0.0652976
954	0.0667337
966	0.0693523
978	0.0618342
990	0.0602292
1002	0.0416452
1014	0.0318463
1026	0.0238214
1038	0.0212872
1050	0.0182462
1062	0.0202735
1074	0.0254264
1086	0.0410539
1098	0.0797425
1110	0.159147
1122	0.262204
1134	0.319815
1146	0.28045
1158	0.146561
1170	0.0757723
1182	0.0324376
1194	0.0223009
1206	0.0186685
1218	0.0168946
1230	0.0190064
1242	0.0240748
1254	0.0222164
1266	0.0306637
1278	0.0540627
1290	0.100692
1302	0.0656355
1314	0.104662
1326	0.476259
1338	0.701464
1350	0.252321
1362	0.119022
1374	0.0711263
1386	0.118685
1398	0.491548
1410	0.57298
1422	0.213801
1434	0.176211
1446	0.135917
1458	0.183306
1470	0.0874296
1482	0.0388576
1494	0.0374215
1506	0.0515285
1518	0.0577795
1530	0.078222
1542	0.18508
1554	0.470684
1566	0.682711
1578	0.573741
1590	0.386971
1602	0.163117
1614	0.0759412
1626	0.0489943
1638	0.0393644
1650	0.0363234
1662	0.0248351
1674	0.021794
1686	0.0229767
1698	0.0218785
1710	0.0198512
1722	0.0183306
1734	0.0178238
1746	0.0163033
1758	0.018922
1770	0.0196822
1782	0.0222164
1794	0.0214561
1806	0.0108125
1818	0.00929203
1830	0.0114883
1842	0.0123331
1854	0.0135157
1866	0.0146983
1878	0.0115728
1890	0.0106436
1902	0.0097144
1914	0.00886967
1926	0.00870072
1938	0.00827835
1950	0.00785599
1962	0.00785599
1974	0.00734915
1986	0.00743362
1998	0.00692679
2010	0.00641995
2022	0.00599758
2034	0.00641995
2046	0.00658889
2058	0.00641995
2070	0.00599758
2082	0.00641995
2094	0.00684231
2106	0.00675784
2118	0.00641995
2130	0.00650442
2142	0.00633548
2154	0.00650442
2166	0.00591311
2178	0.00557522
2190	0.00599758
2202	0.00591311
2214	0.00582864
2226	0.00549075
2238	0.00549075
2250	0.00599758
2262	0.00616653
2274	0.00608206
2286	0.00608206
2298	0.00658889
2310	0.00768704
2322	0.00886967
2334	0.00827835
2346	0.00810941
2358	0.0109815
2370	0.00929203
2382	0.00658889
2394	0.00616653
2406	0.00658889
2418	0.00667337
2430	0.00633548
2442	0.00667337
2454	0.00667337
2466	0.00658889
2478	0.00658889
2490	0.00667337
2502	0.00718021
2514	0.00760257
2526	0.00895414
2538	0.00886967
2550	0.00912308
2562	0.00870072
2574	0.00870072
2586	0.00743362
2598	0.00675784
2610	0.00675784
2622	0.00667337
2634	0.00684231
2646	0.00684231
2658	0.00675784
2670	0.006251
2682	0.00574416
2694	0.00506838
2706	0.00473049
2718	0.0043926
2730	0.00473049
2742	0.00447707
2754	0.00422365
2766	0.00481496
2778	0.00540627
2790	0.00633548
2802	0.00633548
2814	0.00667337
2826	0.00658889
2838	0.00709573
2850	0.00160499
2862	0.000506838
2874	0.00498391
2886	0.00861625
2898	0.0116573
2910	0.00718021
2922	0.00101368
2934	0.00962992
2946	0.0317618
2958	0.0371681
2970	0.0284674
2982	0.0204425
2994	0.0278761
3006	0.0230611
3018	0.0174014
3030	0.0243282
3042	0.012502
3054	0.0106436
3066	0.0108125
3078	0.0145294
3090	0.0257643
3102	0.0309171
3114	0.0136846
3126	0.00802494
3138	0.0084473
3150	0.00819388
3162	0.00709573
3174	0.00616653
3186	0.00574416
3198	0.00608206
3210	0.00582864
3222	0.00540627
3234	0.0053218
3246	0.00549075
3258	0.00540627
3270	0.00506838
3282	0.00464601
3294	0.00489943
3306	0.0053218
3318	0.00456154
3330	0.00430812
3342	0.00456154
3354	0.00540627
3366	0.00523733
3378	0.00481496
3390	0.00447707
3402	0.0040547
3414	0.00557522
3426	0.00456154
3438	0.00456154
3450	0.00616653
3462	0.00777152
3474	0.00709573
3486	0.00523733
3498	0.00422365
3510	0.00515285
3522	0.00498391
3534	0.00523733
3546	0.00549075
3558	0.0053218
3570	0.00743362
3582	0.00549075
3594	0.00456154
3606	0.00506838
3618	0.00641995
3630	0.00802494
3642	0.00557522
3654	0.00574416
3666	0.0053218
3678	0.00903861
3690	0.0075181
3702	0.00540627
3714	0.00684231
3726	0.00709573
3738	0.00836283
3750	0.00777152
3762	0.00557522
3774	0.00540627
3786	0.00549075
3798	0.00616653
3810	0.00582864
3822	0.00734915
3834	0.00692679
3846	0.00641995
3858	0.00608206
3870	0.00641995
3882	0.00701126
3894	0.00667337
3906	0.00650442
3918	0.00515285
3930	0.00565969
3942	0.00574416
3954	0.00320997
3966	0.00337892
