Infrared Spectrum: 2-Propenoic acid, 2-methyl-, cyclohexyl ester
Formula: C 10 H 16 O 2
CAS: 101-43-9
Origin: Sadtler Research Labs Under US-EPA Contract
1/CM	ABSORBANCE
450	0.0142981
462	0.0219114
474	0.0193118
486	0.0178262
498	0.0189404
510	0.0144838
522	0.0135554
534	0.0180119
546	0.0150409
558	0.0191261
570	0.0194974
582	0.0254395
594	0.0265537
606	0.026368
618	0.0196831
630	0.0152266
642	0.0202402
654	0.0222828
666	0.0176405
678	0.00761329
690	0.00408518
702	0.00259966
714	0.00167121
726	0.0018569
738	0.00148552
750	0.00129983
762	0.00315673
774	0.00464225
786	0.0100273
798	0.02154
810	0.0571925
822	0.0456797
834	0.0389949
846	0.0384378
858	0.0187547
870	0.0194974
882	0.0213543
894	0.0417802
906	0.0542215
918	0.114571
930	0.228213
942	0.184947
954	0.0805895
966	0.0794753
978	0.0388092
990	0.0265537
1002	0.0683339
1014	0.179377
1026	0.194974
1038	0.236198
1050	0.197388
1062	0.0324957
1074	0.0297104
1086	0.0393663
1098	0.0471653
1110	0.0908024
1122	0.226727
1134	0.213729
1146	0.338327
1158	0.905982
1170	1.8569
1182	1.05268
1194	0.320501
1206	0.190332
1218	0.0976729
1230	0.0588637
1242	0.0486508
1254	0.0534787
1266	0.103244
1278	0.132026
1290	0.393291
1302	0.442499
1314	0.392734
1326	0.368966
1338	0.23007
1350	0.105101
1362	0.058121
1374	0.0553356
1386	0.0700051
1398	0.0798467
1410	0.12237
1422	0.0690767
1434	0.0768757
1446	0.128312
1458	0.230256
1470	0.133697
1482	0.0505077
1494	0.023954
1506	0.0165264
1518	0.0146695
1530	0.0103986
1542	0.0111414
1554	0.0105843
1566	0.0120699
1578	0.0152266
1590	0.0157836
1602	0.0200545
1614	0.0330528
1626	0.0523646
1638	0.0961874
1650	0.0746474
1662	0.0261823
1674	0.0256252
1686	0.0350954
1698	0.0441942
1710	0.0872743
1722	0.442314
1734	1.01015
1746	0.464225
1758	0.0915452
1770	0.0328671
1782	0.0259966
1794	0.0258109
1806	0.0172692
1818	0.0126269
1830	0.00872743
1842	0.00705622
1854	0.00835605
1866	0.0128126
1878	0.016155
1890	0.0124412
1902	0.00705622
1914	0.00575639
1926	0.0055707
1938	0.00408518
1950	0.00297104
1962	0.00445656
1974	0.00445656
1986	0.00464225
1998	0.00649915
2010	0.00965588
2022	0.00761329
2034	0.00334242
2046	0.00148552
2058	0.00111414
2070	0.0018569
2082	0.00018569
2094	0.00167121
2106	0.00427087
2118	0.00389949
2130	0.0037138
2142	0.00389949
2154	0.00445656
2166	0.00464225
2178	0.00389949
2190	0.00389949
2202	0.0037138
2214	0.00315673
2226	0.00334242
2238	0.00389949
2250	0.0037138
2262	0.00334242
2274	0.00334242
2286	0.00241397
2298	0.00074276
2310	0
2322	0
2334	0.00687053
2346	0.00984157
2358	0.00018569
2370	0.0146695
2382	0.00854174
2394	0.00389949
2406	0.00315673
2418	0.00315673
2430	0.00278535
2442	0.00315673
2454	0.00259966
2466	0.00389949
2478	0.00482794
2490	0.00445656
2502	0.00334242
2514	0.00204259
2526	0.00352811
2538	0.00278535
2550	0.00278535
2562	0.00334242
2574	0.00297104
2586	0.00408518
2598	0.00594208
2610	0.00798467
2622	0.00761329
2634	0.00649915
2646	0.00909881
2658	0.0074276
2670	0.00761329
2682	0.00724191
2694	0.0074276
2706	0.00854174
2718	0.00687053
2730	0.0055707
2742	0.00594208
2754	0.00705622
2766	0.00612777
2778	0.00724191
2790	0.0111414
2802	0.0137411
2814	0.0152266
2826	0.0168978
2838	0.0217257
2850	0.0544072
2862	0.255881
2874	0.335728
2886	0.137968
2898	0.0906167
2910	0.131654
2922	0.254952
2934	0.635988
2946	1.26028
2958	0.634503
2970	0.222457
2982	0.124227
2994	0.0993441
3006	0.0618348
3018	0.040109
3030	0.0304532
3042	0.0198688
3054	0.0202402
3066	0.01077
3078	0.00724191
3090	0.00817036
3102	0.0200545
3114	0.0306388
3126	0.00631346
3138	0.00427087
3150	0.0055707
3162	0.00519932
3174	0.0037138
3186	0.00148552
3198	0.00278535
3210	0.00389949
3222	0.00352811
3234	0.00575639
3246	0.00297104
3258	0.00352811
3270	0.0037138
3282	0.00204259
3294	0.00297104
3306	0.00278535
3318	0.00297104
3330	0.00259966
3342	0.00259966
3354	0.00315673
3366	0.00464225
3378	0.00482794
3390	0.00482794
3402	0.00445656
3414	0.00352811
3426	0.00334242
3438	0.00947019
3450	0.0133697
3462	0.00817036
3474	0.00055707
3486	0.00297104
3498	0.00259966
3510	0.00259966
3522	0.00278535
3534	0.00111414
3546	0.0037138
3558	0.00167121
3570	0.00167121
3582	0.00167121
3594	0.0018569
3606	0.00148552
3618	0.00222828
3630	0.0037138
3642	0.00315673
3654	0.00204259
3666	0.00222828
3678	0.00148552
3690	0.0037138
3702	0.00222828
3714	0.00297104
3726	0.00297104
3738	0.00427087
3750	0.0018569
3762	0.00482794
3774	0.0018569
3786	0.00854174
3798	0.00148552
3810	0.0037138
3822	0
3834	0.00167121
3846	0.00167121
3858	0.00222828
3870	0
3882	0.00111414
3894	0.00817036
3906	0.00204259
3918	0.00129983
3930	0
3942	0
3954	0.00315673
3966	0.00575639
