Infrared Spectrum: 1,4-Benzenediamine, N-(1-methylethyl)-N'-phenyl-
Formula: C 15 H 18 N 2
CAS: 101-72-4
Origin: Sadtler Research Labs Under US-EPA Contract
1/CM	ABSORBANCE
450	0
462	0.00530295
474	0.0120521
486	0.0102553
498	0.0159088
510	0.0157335
522	0.00946642
534	0.00591651
546	0.0043826
558	0.00653007
570	0.00701216
582	0.00333078
594	0.0011833
606	0.00381286
618	0.00688068
630	0.0063986
642	0.00880903
654	0.0085899
666	0.0119645
678	0.0163033
690	0.0316424
702	0.0218692
714	0.0136737
726	0.0136299
738	0.0360688
750	0.0389175
762	0.012841
774	0.00933494
786	0.013104
798	0.0205544
810	0.0257259
822	0.0236222
834	0.0158212
846	0.0154706
858	0.00863372
870	0.0106059
882	0.00398817
894	0.00166539
906	0.000525912
918	0.000832694
930	0.00113948
942	0.001008
954	0.001008
966	0.00271721
978	0.00359373
990	0.00333078
1002	0.00276104
1014	0.00267339
1026	0.0085899
1038	0.00197217
1050	0.00210365
1062	0.00381286
1074	0.00591651
1086	0.00560973
1098	0.0089405
1110	0.0175742
1122	0.0184507
1134	0.0174866
1146	0.0212118
1158	0.0305029
1170	0.0514955
1182	0.0485592
1194	0.0185822
1206	0.0188452
1218	0.0273474
1230	0.0523721
1242	0.0860743
1254	0.0978196
1266	0.0846718
1278	0.0903692
1290	0.120127
1302	0.134371
1314	0.0777911
1326	0.0421168
1338	0.0357182
1350	0.0273036
1362	0.0273912
1374	0.0310726
1386	0.0431248
1398	0.0273912
1410	0.0248932
1422	0.0268653
1434	0.0258135
1446	0.0281801
1458	0.0372521
1470	0.0416347
1482	0.0598663
1494	0.201863
1506	0.284606
1518	0.39439
1530	0.0977758
1542	0.0447025
1554	0.0314232
1566	0.027698
1578	0.0316424
1590	0.0645119
1602	0.119207
1614	0.0730579
1626	0.0362441
1638	0.0173551
1650	0.0119207
1662	0.0105182
1674	0.00937876
1686	0.00850224
1698	0.0085899
1710	0.00832694
1722	0.00999233
1734	0.0124904
1746	0.0108688
1758	0.00981702
1770	0.00854607
1782	0.00670538
1794	0.00503999
1806	0.00460173
1818	0.00473321
1830	0.00460173
1842	0.00560973
1854	0.00534677
1866	0.00486469
1878	0.0042073
1890	0.00346225
1902	0.00346225
1914	0.00429495
1926	0.00407582
1938	0.00341843
1950	0.00210365
1962	0.00170921
1974	0.00144626
1986	0.00122713
1998	0.00131478
2010	0.001008
2022	0.00109565
2034	0.0011833
2046	0.00105182
2058	0.00162156
2070	0.00140243
2082	0.00166539
2094	0.00166539
2106	0.00153391
2118	0.00113948
2130	0.00105182
2142	0.000832694
2154	0.000788868
2166	0.000701216
2178	0.000613564
2190	0.000482086
2202	0.000569738
2214	0.000569738
2226	0.000613564
2238	0.000920346
2250	0.00131478
2262	0.00149008
2274	0.00188452
2286	0.0023666
2298	0.00258573
2310	0.00328695
2322	0.00376904
2334	0.00350608
2346	0.0033746
2358	0.00363756
2370	0.00315547
2382	0.00293634
2394	0.00131478
2406	0.00127095
2418	0.000920346
2430	0.000920346
2442	0.0011833
2454	0.00144626
2466	0.00184069
2478	0.00214747
2490	0.00214747
2502	0.00223513
2514	0.00271721
2526	0.00306782
2538	0.00302399
2550	0.00284869
2562	0.00223513
2574	0.00197217
2586	0.00179687
2598	0.00188452
2610	0.00192834
2622	0.00232278
2634	0.0021913
2646	0.00210365
2658	0.00192834
2670	0.00188452
2682	0.00188452
2694	0.00184069
2706	0.00241043
2718	0.00276104
2730	0.00315547
2742	0.00276104
2754	0.00267339
2766	0.00271721
2778	0.00315547
2790	0.0033746
2802	0.00425112
2814	0.00534677
2826	0.00600416
2838	0.0065739
2850	0.00863372
2862	0.0126219
2874	0.0199847
2886	0.0244987
2898	0.0193273
2910	0.0221321
2922	0.0280486
2934	0.035762
2946	0.0370768
2958	0.0378657
2970	0.0639421
2982	0.0787115
2994	0.0280925
3006	0.0200285
3018	0.0314671
3030	0.0449655
3042	0.0351046
3054	0.0425112
3066	0.0331763
3078	0.0262956
3090	0.0220007
3102	0.0149885
3114	0.00920346
3126	0.00490851
3138	0.0031993
3150	0.00258573
3162	0.00197217
3174	0.00188452
3186	0.00127095
3198	0.00162156
3210	0.00135861
3222	0.0011833
3234	0.00109565
3246	0.000964172
3258	0.00087652
3270	0.000964172
3282	0.00105182
3294	0.000964172
3306	0.00109565
3318	0.00135861
3330	0.00127095
3342	0.00166539
3354	0.00166539
3366	0.00223513
3378	0.00254191
3390	0.00407582
3402	0.00600416
3414	0.00837077
3426	0.010825
3438	0.0102553
3450	0.00626712
3462	0.00390051
3474	0.00249808
3486	0.0023666
3498	0.00175304
3510	0.00254191
3522	0.00227895
3534	0.00144626
3546	0.00065739
3558	0.00065739
3570	0.00184069
3582	0.00135861
3594	0.00105182
3606	0.000745042
3618	0.00109565
3630	0.00149008
3642	0.00157774
3654	0.00157774
3666	0.00184069
3678	0.00135861
3690	0.00157774
3702	0.00149008
3714	0.00109565
3726	0.00153391
3738	0.00157774
3750	0.00162156
3762	0.0011833
3774	0.00113948
3786	0.000613564
3798	0.000394434
3810	0.00087652
3822	0.00105182
3834	0.00175304
3846	0.00192834
3858	0.0021913
3870	0.002016
3882	0.00162156
3894	0.00153391
3906	0.00140243
3918	0.00254191
3930	0.00241043
3942	0.00144626
3954	0.0021913
3966	0.00149008
