Infrared Spectrum: Phenol, 4-(phenylmethyl)-
Formula: C 13 H 12 O
CAS: 101-53-1
Origin: Sadtler Research Labs Under US-EPA Contract
1/CM	ABSORBANCE
450	0.00362023
462	0.00362023
474	0.0236824
486	0.0403756
498	0.0827122
510	0.0786898
522	0.0503313
534	0.0156877
546	0.0134753
558	0.0194587
570	0.0231293
582	0.0324815
594	0.0594824
606	0.03399
618	0.0110618
630	0.0101065
642	0.0107099
654	0.0135256
666	0.021118
678	0.0375096
690	0.0889471
702	0.122183
714	0.101819
726	0.113032
738	0.0636557
750	0.0314256
762	0.0369565
774	0.103579
786	0.0999586
798	0.0767288
810	0.0646111
822	0.0637563
834	0.0871873
846	0.0828631
858	0.0351967
870	0.0213694
882	0.0145312
894	0.0152854
906	0.0167939
918	0.0148329
930	0.0141792
942	0.010207
954	0.00985508
966	0.00874889
978	0.00920142
990	0.0103579
1002	0.0131736
1014	0.0241852
1026	0.0344425
1038	0.0221236
1050	0.0142798
1062	0.0214197
1074	0.0311239
1086	0.0411299
1098	0.0629015
1110	0.0427389
1122	0.0346436
1134	0.0466105
1146	0.0582254
1158	0.16819
1170	0.500447
1182	0.351464
1194	0.210024
1206	0.106043
1218	0.0613428
1230	0.0573203
1242	0.0921651
1254	0.340553
1266	0.152754
1278	0.0372079
1290	0.0304703
1302	0.0314759
1314	0.0415321
1326	0.0834665
1338	0.0799468
1350	0.0301183
1362	0.0177995
1374	0.0110618
1386	0.0104082
1398	0.00930199
1410	0.015738
1422	0.040627
1434	0.0808016
1446	0.0632032
1458	0.0424372
1470	0.0241852
1482	0.033638
1494	0.113635
1506	0.274786
1518	0.415774
1530	0.0627507
1542	0.0224756
1554	0.0240343
1566	0.033286
1578	0.0332357
1590	0.0649128
1602	0.108054
1614	0.131937
1626	0.0614937
1638	0.0179503
1650	0.0104082
1662	0.0103076
1674	0.00543035
1686	0.00482698
1698	0.00356995
1710	0.0047767
1722	0.00613428
1734	0.00678794
1746	0.00829636
1758	0.0108104
1770	0.00653653
1782	0.00724046
1794	0.00920142
1806	0.00809524
1818	0.00638569
1830	0.00311742
1842	0.00638569
1854	0.0104584
1866	0.0116652
1878	0.0126708
1890	0.00980479
1902	0.00784384
1914	0.00538007
1926	0.00673765
1938	0.00950311
1950	0.0111121
1962	0.0068885
1974	0.0039722
1986	0.00367051
1998	0.00236321
2010	0.00296658
2022	0.0039722
2034	0.00472641
2046	0.00346939
2058	0.00261461
2070	0.00281574
2082	0.0021118
2094	0.00321798
2106	0.00326827
2118	0.00170955
2130	0.00150843
2142	0.000955339
2154	0.000854777
2166	0.000754215
2178	0.000905058
2190	0.000905058
2202	0.00050281
2214	0.00135759
2226	0.000754215
2238	0.00170955
2250	0.00145815
2262	0.00150843
2274	0.00246377
2286	0.00246377
2298	0.0031677
2310	0.00246377
2322	0.00367051
2334	0.00367051
2346	0.00145815
2358	0.0031677
2370	0.00115646
2382	0.00346939
2394	0.00241349
2406	0.00377108
2418	0.00729075
2430	0.00774327
2442	0.00517894
2454	0.00362023
2466	0.00321798
2478	0.00236321
2490	0.00311742
2502	0.00492754
2514	0.00467613
2526	0.0029163
2538	0.00206152
2550	0.00216208
2562	0.0021118
2574	0.00165927
2586	0.00296658
2598	0.00331855
2610	0.00427388
2622	0.00326827
2634	0.00251405
2646	0.0031677
2658	0.00256433
2670	0.00251405
2682	0.00286602
2694	0.00266489
2706	0.00281574
2718	0.00196096
2730	0.00281574
2742	0.00276545
2754	0.00437445
2766	0.00467613
2778	0.00412304
2790	0.00367051
2802	0.00331855
2814	0.00356995
2826	0.00492754
2838	0.0117155
2850	0.0240846
2862	0.022375
2874	0.0150843
2886	0.0145815
2898	0.0238835
2910	0.0474653
2922	0.0747176
2934	0.0560633
2946	0.0257439
2958	0.0131736
2970	0.00799468
2982	0.00930199
2994	0.0154865
3006	0.0456551
3018	0.0999083
3030	0.144407
3042	0.139731
3054	0.0787903
3066	0.11087
3078	0.110518
3090	0.0621976
3102	0.0396214
3114	0.0247383
3126	0.0124697
3138	0.00769299
3150	0.00407276
3162	0.00356995
3174	0.00306714
3186	0.00281574
3198	0.00201124
3210	0.00196096
3222	0.00221236
3234	0.0021118
3246	0.00231293
3258	0.0010559
3270	0.00286602
3282	0.00231293
3294	0.00165927
3306	0.00160899
3318	0.00196096
3330	0.00311742
3342	0.00377108
3354	0.00457557
3366	0.00356995
3378	0.00472641
3390	0.00457557
3402	0.00206152
3414	0.00372079
3426	0.00331855
3438	0.00412304
3450	0.00281574
3462	0.00216208
3474	0.00341911
3486	0.00135759
3498	0.00296658
3510	0.00221236
3522	0.00331855
3534	0.00367051
3546	0.000754215
3558	0.00266489
3570	0.00221236
3582	0.00407276
3594	0.00266489
3606	0.00372079
3618	0.00452529
3630	0.0142295
3642	0.0803993
3654	0.259249
3666	0.0615942
3678	0.0138273
3690	0.00306714
3702	0.00246377
3714	0.00221236
3726	0.00266489
3738	0.000452529
3750	0.000905058
3762	0.00221236
3774	0.00356995
3786	0.00472641
3798	0.00527951
3810	0.0029163
3822	0.00512866
3834	0.000603372
3846	0.00432417
3858	0.0050281
3870	0.00548063
3882	0.00372079
3894	0.00507838
3906	0.00668737
3918	0.00346939
3930	0.00331855
3942	0.00191068
3954	0.0124697
3966	0.00588288
