Infrared Spectrum: Benzene, 1,1'-methylenebis[4-chloro-
Formula: C 13 H 10 Cl 2
CAS: 101-76-8
Origin: Sadtler Research Labs Under US-EPA Contract
1/CM	ABSORBANCE
450	0.0168855
462	0.0236077
474	0.0447345
486	0.0870683
498	0.0550579
510	0.0998724
522	0.0939505
534	0.0199265
546	0.00624203
558	0.00392127
570	0.00168055
582	0.00168055
594	0.0018406
606	0.00448146
618	0.00504164
630	0.0115237
642	0.0136844
654	0.0332108
666	0.0894691
678	0.0208868
690	0.0058419
702	0.00600195
714	0.00336109
726	0.0080026
738	0.0164854
750	0.0381724
762	0.03089
774	0.0781054
786	0.226714
798	0.226634
810	0.24608
822	0.107155
834	0.0825068
846	0.0661015
858	0.0393728
870	0.0156051
882	0.00920299
894	0.00944307
906	0.0139245
918	0.021607
930	0.0220872
942	0.00872283
954	0.0083227
966	0.00712231
978	0.00544177
990	0.00680221
1002	0.0202466
1014	0.380043
1026	0.0475354
1038	0.0158451
1050	0.021607
1062	0.0248881
1074	0.0569785
1086	0.316183
1098	0.527211
1110	0.174377
1122	0.0549779
1134	0.0221672
1146	0.0148048
1158	0.0125641
1170	0.0210468
1182	0.0301698
1194	0.027609
1206	0.0225673
1218	0.0220872
1230	0.0303299
1242	0.0110436
1254	0.0128042
1266	0.0150449
1278	0.0208068
1290	0.0221672
1302	0.0173656
1314	0.0128842
1326	0.0110436
1338	0.0110436
1350	0.0083227
1362	0.00840273
1374	0.0098432
1386	0.0182459
1398	0.0416935
1410	0.055378
1422	0.0380924
1434	0.0503364
1446	0.067622
1458	0.0450546
1470	0.0556981
1482	0.233516
1494	0.80026
1506	0.156691
1518	0.0309701
1530	0.0156051
1542	0.00960312
1554	0.00872283
1566	0.012404
1578	0.0190462
1590	0.0414535
1602	0.0442544
1614	0.0235276
1626	0.0180059
1638	0.0112036
1650	0.00840273
1662	0.00728237
1674	0.0124841
1686	0.0168855
1698	0.00824268
1710	0.00288094
1722	0.00456148
1734	0.00864281
1746	0.00912296
1758	0.0119239
1770	0.0231275
1782	0.0134444
1794	0.00424138
1806	0.00288094
1818	0.00248081
1830	0.00256083
1842	0.00256083
1854	0.00320104
1866	0.00672218
1878	0.012404
1890	0.0240078
1902	0.0218471
1914	0.00864281
1926	0.00344112
1938	0.00192062
1950	0.00144047
1962	0.00128042
1974	0.000880286
1986	0.000720234
1998	0.000880286
2010	0.000480156
2022	0.000560182
2034	0.00112036
2046	0.000960312
2058	0.000640208
2070	0.000720234
2082	0.00160052
2094	0.00128042
2106	0.00112036
2118	0.00080026
2130	0.000640208
2142	0.000560182
2154	0.000320104
2166	0.000320104
2178	0.000560182
2190	0.000480156
2202	0.000560182
2214	0.000640208
2226	0.00080026
2238	0.00104034
2250	0.00136044
2262	0.00240078
2274	0.0036812
2286	0.00464151
2298	0.00360117
2310	0.00312101
2322	0.00128042
2334	0.00104034
2346	0.0040013
2358	0.00208068
2370	0.00144047
2382	0.00296096
2394	0.00160052
2406	0.00192062
2418	0.000960312
2430	0.00104034
2442	0.00128042
2454	0.00104034
2466	0.00104034
2478	0.00104034
2490	0.0018406
2502	0.00176057
2514	0.00120039
2526	0.0018406
2538	0.0018406
2550	0.00232075
2562	0.00256083
2574	0.00304099
2586	0.00440143
2598	0.00312101
2610	0.00320104
2622	0.00240078
2634	0.00224073
2646	0.00248081
2658	0.0018406
2670	0.00264086
2682	0.00248081
2694	0.00296096
2706	0.00256083
2718	0.00240078
2730	0.00304099
2742	0.00312101
2754	0.00296096
2766	0.00328107
2778	0.00320104
2790	0.00280091
2802	0.00296096
2814	0.00392127
2826	0.00520169
2838	0.00952309
2850	0.0235276
2862	0.0273689
2874	0.0144847
2886	0.00944307
2898	0.0126441
2910	0.0333708
2922	0.0821867
2934	0.0710631
2946	0.0296096
2958	0.0141646
2970	0.0129642
2982	0.0179258
2994	0.0166454
3006	0.0150449
3018	0.0280091
3030	0.0859479
3042	0.082987
3054	0.0539375
3066	0.0325706
3078	0.0404932
3090	0.0593793
3102	0.042974
3114	0.0160852
3126	0.00560182
3138	0.00304099
3150	0.00320104
3162	0.00256083
3174	0.00248081
3186	0.00160052
3198	0.00192062
3210	0.00152049
3222	0.00128042
3234	0.00120039
3246	0.000720234
3258	0.00144047
3270	0.00208068
3282	0.00136044
3294	0.0021607
3306	0.00152049
3318	0.00128042
3330	0.00224073
3342	0.00144047
3354	0.00200065
3366	0.000960312
3378	0.00152049
3390	0.00224073
3402	0.00208068
3414	0.00152049
3426	0.00120039
3438	0.00152049
3450	0.00176057
3462	0.00192062
3474	0.00240078
3486	0.0021607
3498	0.00176057
3510	0.00104034
3522	0.00192062
3534	0.00104034
3546	0.00104034
3558	0.00120039
3570	0.00144047
3582	0.00264086
3594	0.00320104
3606	0.00136044
3618	0.00112036
3630	0.00160052
3642	0.00080026
3654	0.00328107
3666	0.00192062
3678	0.00136044
3690	0.00296096
3702	0.00304099
3714	0.00264086
3726	0.00200065
3738	0.00264086
3750	0.00280091
3762	8.0026e-05
3774	8.0026e-05
3786	0.00136044
3798	0.000320104
3810	0.000160052
3822	0.000480156
3834	0.00128042
3846	0.00136044
3858	0.00200065
3870	8.0026e-05
3882	0.000160052
3894	0.00208068
3906	0.0018406
3918	0.00120039
3930	0.000320104
3942	0.000240078
3954	8.0026e-05
3966	0.000320104
