Infrared Spectrum: 3-Hydroxydiphenylamine
Formula: C 12 H 11 N O
CAS: 101-18-8
Origin: Sadtler Research Labs Under US-EPA Contract
1/CM	ABSORBANCE
450	0.0312401
462	0.0147096
474	0.0148167
486	0.014781
498	0.00913997
510	0.00574818
522	0.00546256
534	0.00571248
546	0.00160663
558	0.003606
570	0.00635513
582	0.00574818
594	0.00257062
606	0.00296335
618	0.00189226
630	0.00174945
642	0.00335608
654	0.00749763
666	0.0146382
678	0.0387021
690	0.0651223
702	0.0388806
714	0.0196724
726	0.0270986
738	0.0573747
750	0.0633728
762	0.0557681
774	0.0309902
786	0.0155665
798	0.0147453
810	0.0196366
822	0.0207791
834	0.0174588
846	0.0179586
858	0.0145668
870	0.0102468
882	0.00731912
894	0.00674787
906	0.00371311
918	0.00257062
930	0.00253491
942	0.0047842
954	0.0174945
966	0.0460926
978	0.0276341
990	0.00938989
1002	0.0112464
1014	0.0154951
1026	0.0318828
1038	0.0181014
1050	0.0112107
1062	0.016709
1074	0.0269915
1086	0.0264202
1098	0.0176373
1110	0.0143169
1122	0.0164948
1134	0.0342035
1146	0.13103
1158	0.145561
1170	0.0695494
1182	0.0867226
1194	0.0551611
1206	0.0373096
1218	0.030776
1230	0.0471637
1242	0.0775826
1254	0.0624088
1266	0.0852945
1278	0.0757975
1290	0.0543043
1302	0.0761902
1314	0.101646
1326	0.0872938
1338	0.0481633
1350	0.0199937
1362	0.0140313
1374	0.0116749
1386	0.011782
1398	0.0238853
1410	0.0427008
1422	0.0319185
1434	0.0202079
1446	0.0255991
1458	0.0435934
1470	0.0502698
1482	0.108073
1494	0.277662
1506	0.226107
1518	0.11225
1530	0.0548398
1542	0.0410585
1554	0.037024
1566	0.0511267
1578	0.0937204
1590	0.246958
1602	0.338464
1614	0.171303
1626	0.104574
1638	0.0409156
1650	0.0162449
1662	0.00803318
1674	0.00774755
1686	0.0101039
1698	0.0083902
1710	0.00621232
1722	0.005891
1734	0.00567678
1746	0.00399874
1758	0.00389163
1770	0.00549826
1782	0.00481991
1794	0.00364171
1806	0.0035703
1818	0.00303476
1830	0.00264202
1842	0.0035703
1854	0.00199937
1866	0.0023921
1878	0.00228499
1890	0.00349889
1902	0.00385592
1914	0.00485561
1926	0.00453428
1938	0.00378452
1950	0.00221359
1962	0.0012139
1974	0.000821169
1986	0.000464139
1998	0.000285624
2010	0.000321327
2022	0.000428436
2034	0.000142812
2046	0.000571248
2058	0.000571248
2070	0.000535545
2082	0.000392733
2094	0.000285624
2106	0.000642654
2118	0.000749763
2130	0.000535545
2142	0.000214218
2154	0.000392733
2166	0.000571248
2178	0.000678357
2190	0.000285624
2202	0.000142812
2214	0.000214218
2226	0.000392733
2238	0.000535545
2250	0.000499842
2262	0.000892575
2274	0.00157093
2286	0.00246351
2298	0.00364171
2310	0.00524834
2322	0.00435577
2334	0.0023564
2346	0.00421295
2358	0.00449858
2370	0.00396303
2382	0.00424866
2394	0.00199937
2406	0.00192796
2418	0.00164234
2430	0.00157093
2442	0.00182085
2454	0.00217788
2466	0.00249921
2478	0.00257062
2490	0.00253491
2502	0.00253491
2514	0.0023207
2526	0.00207077
2538	0.00171374
2550	0.00167804
2562	0.0011782
2574	0.00128531
2586	0.00142812
2598	0.00132101
2610	0.00107109
2622	0.00149953
2634	0.00110679
2646	0.0012139
2658	0.00103539
2670	0.000963981
2682	0.000928278
2694	0.00103539
2706	0.000785466
2718	0.000963981
2730	0.00135671
2742	0.00142812
2754	0.00157093
2766	0.00160663
2778	0.00160663
2790	0.00182085
2802	0.00178515
2814	0.00174945
2826	0.00192796
2838	0.00214218
2850	0.00167804
2862	0.00203507
2874	0.00203507
2886	0.00289194
2898	0.00292765
2910	0.00346319
2922	0.00342749
2934	0.00328468
2946	0.00335608
2958	0.00485561
2970	0.00724771
2982	0.00492701
2994	0.00499842
3006	0.00924708
3018	0.0193867
3030	0.0302761
3042	0.0433791
3054	0.0501627
3066	0.0427008
3078	0.0379523
3090	0.028848
3102	0.0197081
3114	0.010818
3126	0.00510553
3138	0.00264202
3150	0.00174945
3162	0.00149953
3174	0.0012139
3186	0.00146382
3198	0.00196366
3210	0.00207077
3222	0.00207077
3234	0.00153523
3246	0.00110679
3258	0.0012139
3270	0.0012496
3282	0.00149953
3294	0.00157093
3306	0.00174945
3318	0.00214218
3330	0.00157093
3342	0.00217788
3354	0.00246351
3366	0.00207077
3378	0.00307046
3390	0.00332038
3402	0.00464139
3414	0.00674787
3426	0.00942559
3438	0.0120319
3450	0.0101039
3462	0.00614092
3474	0.00378452
3486	0.00307046
3498	0.00196366
3510	0.00142812
3522	0.00228499
3534	0.00164234
3546	0.00135671
3558	0.00107109
3570	0.00110679
3582	0.00139242
3594	0.0023921
3606	0.00149953
3618	0.00157093
3630	0.00739052
3642	0.0320613
3654	0.0812957
3666	0.0159949
3678	0.00442717
3690	0.00132101
3702	0.000642654
3714	0.000142812
3726	0.000428436
3738	0.000107109
3750	0.00035703
3762	0.000142812
3774	0.000785466
3786	0
3798	0.000142812
3810	0.00071406
3822	0.000285624
3834	0.000214218
3846	0.000142812
3858	0.000142812
3870	0.000142812
3882	0.000428436
3894	0.000821169
3906	0.000107109
3918	0.00103539
3930	0.000142812
3942	0.000142812
3954	0.000142812
3966	0.000178515
