Infrared Spectrum: Benzeneacetic acid, ethyl ester
Formula: C 10 H 12 O 2
CAS: 101-97-3
Origin: Sadtler Research Labs Under US-EPA Contract
1/CM	ABSORBANCE
450	0.0194853
462	0.0232008
474	0.0177515
486	0.00313747
498	0.00272465
510	0.00445851
522	0.015935
534	0.0204761
546	0.00792624
558	0.00305491
570	0.00454108
582	0.00693546
594	0.00635751
606	0.00776111
618	0.0166781
630	0.0322829
642	0.0200633
654	0.00875189
666	0.0127976
678	0.0431815
690	0.127068
702	0.178918
714	0.178258
726	0.115013
738	0.0548232
750	0.0409522
762	0.0296408
774	0.014614
786	0.00817394
798	0.0116417
810	0.00999037
822	0.0116417
834	0.0133755
846	0.0200633
858	0.0148617
870	0.0116417
882	0.00916472
894	0.0108986
906	0.0213843
918	0.0241915
930	0.0303014
942	0.0293106
954	0.0173387
966	0.00916472
978	0.00842163
990	0.0099078
1002	0.0168433
1014	0.0464841
1026	0.178423
1038	0.289638
1050	0.140526
1062	0.0595294
1074	0.0558965
1086	0.0635751
1098	0.109399
1110	0.125334
1122	0.202202
1134	0.419926
1146	0.593973
1158	0.505711
1170	0.293849
1182	0.19378
1194	0.150599
1206	0.164469
1218	0.234815
1230	0.322499
1242	0.478299
1254	0.525939
1266	0.326627
1278	0.189652
1290	0.177928
1302	0.182304
1314	0.170414
1326	0.160424
1338	0.136728
1350	0.0739782
1362	0.0652264
1374	0.112619
1386	0.0525113
1398	0.0427687
1410	0.0372368
1422	0.0454933
1434	0.0656392
1446	0.0769506
1458	0.0790147
1470	0.0681987
1482	0.0449154
1494	0.0907389
1506	0.0743911
1518	0.0131278
1530	0.00932985
1542	0.0131278
1554	0.0108986
1566	0.00974267
1578	0.012715
1590	0.019733
1602	0.0388056
1614	0.0333563
1626	0.0104032
1638	0.00908215
1650	0.00924728
1662	0.00858676
1674	0.0120545
1686	0.0200633
1698	0.0277418
1710	0.0416953
1722	0.0719967
1734	0.171983
1746	0.544516
1758	0.82565
1770	0.448493
1782	0.139948
1794	0.0573827
1806	0.0304665
1818	0.0175038
1830	0.0125499
1842	0.0104032
1854	0.0107335
1866	0.0118894
1878	0.0117242
1890	0.010816
1902	0.00800881
1914	0.0066052
1926	0.00974267
1938	0.0134581
1950	0.0135407
1962	0.0115591
1974	0.00561442
1986	0.00511903
1998	0.00404569
2010	0.00322004
2022	0.00222926
2034	0.00280721
2046	0.00222926
2058	0.00255952
2070	0.00322004
2082	0.00421082
2094	0.00379799
2106	0.00255952
2118	0.00198156
2130	0.00132104
2142	0.001899
2154	0.000247695
2166	0.00082565
2178	0.00107335
2190	0.00033026
2202	0.000412825
2214	0.000743085
2226	0.000577955
2238	0.00107335
2250	0.00206412
2262	0.0016513
2274	0.0016513
2286	0.00231182
2298	0.00264208
2310	0.00322004
2322	0.00222926
2334	0.00214669
2346	0.0049539
2358	0.00264208
2370	0.00652264
2382	0.00635751
2394	0.00338517
2406	0.00247695
2418	0.00297234
2430	0.00272465
2442	0.00255952
2454	0.00255952
2466	0.00255952
2478	0.00239439
2490	0.00305491
2502	0.00272465
2514	0.00214669
2526	0.00231182
2538	0.00231182
2550	0.001899
2562	0.00239439
2574	0.00181643
2586	0.00288978
2598	0.00305491
2610	0.00297234
2622	0.00396312
2634	0.0035503
2646	0.00322004
2658	0.00288978
2670	0.00346773
2682	0.00346773
2694	0.00346773
2706	0.00454108
2718	0.00478877
2730	0.00462364
2742	0.00462364
2754	0.00470621
2766	0.0049539
2778	0.0066052
2790	0.00561442
2802	0.00478877
2814	0.00776111
2826	0.0102381
2838	0.0119719
2850	0.0145314
2862	0.0172561
2874	0.0227879
2886	0.0359983
2898	0.0405394
2910	0.0547406
2922	0.0652264
2934	0.0823173
2946	0.118811
2958	0.0995734
2970	0.10849
2982	0.18478
2994	0.19733
3006	0.112784
3018	0.0754644
3030	0.0926379
3042	0.138874
3054	0.0800055
3066	0.0843814
3078	0.119472
3090	0.068529
3102	0.0499518
3114	0.0307142
3126	0.0163479
3138	0.00891702
3150	0.00536673
3162	0.00536673
3174	0.00619238
3186	0.00487134
3198	0.00412825
3210	0.00363286
3222	0.00288978
3234	0.00264208
3246	0.00280721
3258	0.00288978
3270	0.00297234
3282	0.00264208
3294	0.00206412
3306	0.00297234
3318	0.00322004
3330	0.00148617
3342	0.00272465
3354	0.00115591
3366	0.00107335
3378	0.00239439
3390	0.00264208
3402	0.00181643
3414	0.001899
3426	0.00288978
3438	0.00198156
3450	0.00247695
3462	0.00322004
3474	0.00511903
3486	0.00759598
3498	0.00842163
3510	0.00635751
3522	0.00264208
3534	0.00198156
3546	0.00181643
3558	0.001899
3570	0.00239439
3582	0.00280721
3594	0.00231182
3606	0.00066052
3618	0.00222926
3630	0.00396312
3642	0.00412825
3654	0.00544929
3666	0.00511903
3678	0.00577955
3690	0.00511903
3702	0.00454108
3714	0.00412825
3726	0.00412825
3738	0.00586212
3750	0.00313747
3762	0.0033026
3774	0.00536673
3786	0.00322004
3798	0.00272465
3810	0.00627494
3822	0.00379799
3834	0.00429338
3846	0.00487134
3858	0.00569699
3870	0.00528416
3882	0.00445851
3894	0.00264208
3906	0.00412825
3918	0.00371543
3930	0.00288978
3942	0.00247695
3954	0.0016513
3966	0.00305491
