Infrared Spectrum: Benzene, 1-bromo-4-phenoxy-
Formula: C 12 H 9 Br O
CAS: 101-55-3
Origin: Sadtler Research Labs Under US-EPA Contract
1/CM	ABSORBANCE
450	0.0134871
462	0.0192317
474	0.0604424
486	0.10465
498	0.0991555
510	0.0392126
522	0.0174833
534	0.0197312
546	0.0117388
558	0.0107398
570	0.0139867
582	0.019981
594	0.0227283
606	0.0139867
618	0.0149857
630	0.0197312
642	0.0272241
654	0.0124881
666	0.0159848
678	0.0392126
690	0.113642
702	0.0726807
714	0.0294719
726	0.0237274
738	0.0666865
750	0.16834
762	0.111644
774	0.0464557
786	0.0404614
798	0.0422098
810	0.0469553
822	0.0874167
834	0.118887
846	0.0774262
858	0.0686845
870	0.16834
882	0.0239772
894	0.0149857
906	0.0169838
918	0.00699334
930	0.000749286
942	0.00149857
954	0.000499524
966	0.00174833
978	0.00599429
990	0.0072431
1002	0.0417103
1014	0.18932
1026	0.0467055
1038	0.00824215
1050	0.0124881
1062	0.0626903
1074	0.293221
1086	0.0389629
1098	0.0329686
1110	0.0229781
1122	0.0122383
1134	0.00899143
1146	0.0169838
1158	0.0636893
1170	0.124881
1182	0.0432088
1194	0.0596931
1206	0.101403
1218	0.242019
1230	0.730304
1242	1.55477
1254	0.742792
1266	0.341425
1278	0.179829
1290	0.126879
1302	0.0811726
1314	0.0404614
1326	0.0352164
1338	0.0292222
1350	0.0217293
1362	0.0127379
1374	0.0117388
1386	0.0184824
1398	0.0177331
1410	0.0184824
1422	0.0507017
1434	0.0244767
1446	0.0302212
1458	0.0846693
1470	0.190069
1482	1.1017
1494	0.824714
1506	0.151106
1518	0.0539486
1530	0.0289724
1542	0.0227283
1554	0.0279733
1566	0.0684348
1578	0.299215
1590	0.245266
1602	0.166841
1614	0.0546979
1626	0.0272241
1638	0.019981
1650	0.0162345
1662	0.00824215
1674	0.00549476
1686	0.00574453
1698	0.00774262
1710	0.00949096
1722	0.00999048
1734	0.0102402
1746	0.00974072
1758	0.0124881
1770	0.0117388
1782	0.0112393
1794	0.00549476
1806	0.00299714
1818	0.00149857
1830	0.00249762
1842	0.005245
1854	0.00849191
1866	0.0149857
1878	0.0207302
1890	0.0122383
1902	0.00424595
1914	0.00599429
1926	0.00999048
1938	0.00999048
1950	0.00974072
1962	0.00299714
1974	0.00299714
1986	0.00474548
1998	0.00749286
2010	0.00899143
2022	0.0127379
2034	0.0129876
2046	0.00749286
2058	0.00899143
2070	0.00949096
2082	0.00449572
2094	0.00274738
2106	0.00149857
2118	0.000749286
2130	0.000499524
2142	0.000499524
2154	0
2166	0.000499524
2178	0.000249762
2190	0
2202	0
2214	0
2226	0.000749286
2238	0.000999048
2250	0.0019981
2262	0.00249762
2274	0.00274738
2286	0.00149857
2298	0.000249762
2310	0.00124881
2322	0.00149857
2334	0.0019981
2346	0.00149857
2358	0.00324691
2370	0.00174833
2382	0.00324691
2394	0.00749286
2406	0.0107398
2418	0.01049
2430	0.0144862
2442	0.0137369
2454	0.00874167
2466	0.00674357
2478	0.00499524
2490	0.00399619
2502	0.00274738
2514	0.00249762
2526	0.00249762
2538	0.00274738
2550	0.00399619
2562	0.00374643
2574	0.00249762
2586	0.00149857
2598	0.00124881
2610	0.00124881
2622	0.00124881
2634	0.00149857
2646	0.00224786
2658	0.000999048
2670	0.000499524
2682	0.00149857
2694	0.00124881
2706	0.000249762
2718	0
2730	0.00124881
2742	0.000999048
2754	0.000499524
2766	0.000749286
2778	0.00124881
2790	0.00149857
2802	0.00149857
2814	0.00299714
2826	0.00424595
2838	0.00424595
2850	0.00324691
2862	0.00299714
2874	0.00349667
2886	0.00274738
2898	0.0019981
2910	0.00224786
2922	0.00174833
2934	0.0019981
2946	0.00224786
2958	0.00149857
2970	0.0019981
2982	0.00249762
2994	0.00299714
3006	0.00474548
3018	0.0142364
3030	0.0272241
3042	0.06294
3054	0.0634395
3066	0.05245
3078	0.0884157
3090	0.0761774
3102	0.0517007
3114	0.0192317
3126	0.00474548
3138	0.00224786
3150	0.00149857
3162	0.000999048
3174	0.00124881
3186	0.00174833
3198	0.000749286
3210	0.00124881
3222	0.000749286
3234	0.00124881
3246	0.000749286
3258	0.000749286
3270	0.000499524
3282	0.000999048
3294	0.000499524
3306	0.000999048
3318	0.000749286
3330	0.000999048
3342	0.00149857
3354	0.000999048
3366	0.000749286
3378	0.000999048
3390	0.000749286
3402	0.000249762
3414	0.000999048
3426	0.000749286
3438	0.000499524
3450	0.000999048
3462	0.000499524
3474	0.000499524
3486	0.000749286
3498	0
3510	0
3522	0.000749286
3534	0.000999048
3546	0
3558	0.000499524
3570	0.000749286
3582	0.0019981
3594	0.000499524
3606	0.000249762
3618	0
3630	0.000499524
3642	0.000499524
3654	0.000749286
3666	0.00224786
3678	0.000999048
3690	0.0019981
3702	0.00224786
3714	0.00174833
3726	0.00249762
3738	0.00224786
3750	0.00274738
3762	0.000749286
3774	0.00224786
3786	0.00224786
3798	0.00149857
3810	0.00174833
3822	0.000749286
3834	0.000499524
3846	0.00174833
3858	0.00249762
3870	0.00224786
3882	0.00124881
3894	0.00224786
3906	0.00249762
3918	0.00249762
3930	0.00124881
3942	0.00149857
3954	0.00174833
3966	0.00174833
