Infrared Spectrum: Diphenyl ether
Formula: C 12 H 10 O
CAS: 101-84-8
Origin: Sadtler Research Labs Under US-EPA Contract
1/CM	ABSORBANCE
450	0
462	0.0315793
474	0.0552153
486	0.0635461
498	0.0703269
510	0.0412662
522	0.0290607
534	0.0275108
546	0.0251859
558	0.0211174
570	0.0226673
582	0.0242172
594	0.0116243
606	0.016274
618	0.015499
630	0.0166615
642	0.0158865
654	0.023636
666	0.0346791
678	0.101519
690	0.252634
702	0.150922
714	0.0494032
726	0.0484345
738	0.175139
750	0.304169
762	0.137748
774	0.0718768
786	0.0916381
798	0.0883445
810	0.0528905
822	0.0331292
834	0.0240235
846	0.0277045
858	0.120118
870	0.23636
882	0.0581214
894	0.0482408
906	0.0449472
918	0.0253797
930	0.0139491
942	0.0131742
954	0.0129804
966	0.0168552
978	0.0187926
990	0.0153053
1002	0.0174364
1014	0.0342916
1026	0.0788514
1038	0.0143366
1050	0.016274
1062	0.045141
1074	0.0577339
1086	0.0265421
1098	0.0149178
1110	0.0153053
1122	0.0129804
1134	0.0143366
1146	0.0308043
1158	0.128255
1170	0.141235
1182	0.0823386
1194	0.0666459
1206	0.0817574
1218	0.195675
1230	0.64941
1242	1.93738
1254	0.784639
1266	0.186957
1278	0.133292
1290	0.0916381
1302	0.068002
1314	0.0757516
1326	0.0763328
1338	0.0689707
1350	0.0368102
1362	0.0302231
1374	0.0277045
1386	0.028092
1398	0.0216987
1410	0.0172427
1422	0.0193738
1434	0.0255734
1446	0.0503719
1458	0.109462
1470	0.140073
1482	0.613568
1494	1.32478
1506	0.142591
1518	0.0540529
1530	0.0397163
1542	0.0490157
1554	0.0712956
1566	0.132904
1578	0.356672
1590	0.655028
1602	0.293707
1614	0.0656772
1626	0.0356478
1638	0.028092
1650	0.024411
1662	0.0182114
1674	0.0201488
1686	0.0209237
1698	0.0242172
1710	0.0253797
1722	0.0246047
1734	0.0222799
1746	0.0184051
1758	0.0176302
1770	0.0271233
1782	0.0271233
1794	0.0184051
1806	0.0143366
1818	0.0122055
1830	0.0158865
1842	0.0211174
1854	0.0232486
1866	0.0238298
1878	0.0182114
1890	0.0141429
1902	0.0143366
1914	0.0228611
1926	0.0313856
1938	0.0298357
1950	0.0257672
1962	0.0153053
1974	0.0153053
1986	0.0195675
1998	0.0209237
2010	0.0149178
2022	0.0185988
2034	0.0259609
2046	0.0271233
2058	0.019955
2070	0.0184051
2082	0.0127867
2094	0.0110431
2106	0.0106556
2118	0.0102681
2130	0.00988064
2142	0.0100744
2154	0.0100744
2166	0.0102681
2178	0.0100744
2190	0.0096869
2202	0.0096869
2214	0.00988064
2226	0.0106556
2238	0.0120118
2250	0.0110431
2262	0.00988064
2274	0.0102681
2286	0.011818
2298	0.0102681
2310	0.0120118
2322	0.0135617
2334	0.0112368
2346	0.0120118
2358	0.0123992
2370	0.0110431
2382	0.0127867
2394	0.0178239
2406	0.0216987
2418	0.0211174
2430	0.0261546
2442	0.028867
2454	0.0185988
2466	0.0164677
2478	0.015499
2490	0.0135617
2502	0.0122055
2514	0.0123992
2526	0.0123992
2538	0.0127867
2550	0.0133679
2562	0.0149178
2574	0.0135617
2586	0.0122055
2598	0.0114305
2610	0.0122055
2622	0.0122055
2634	0.0114305
2646	0.0108493
2658	0.0110431
2670	0.0102681
2682	0.0106556
2694	0.0110431
2706	0.0104619
2718	0.0102681
2730	0.0112368
2742	0.0120118
2754	0.0112368
2766	0.0110431
2778	0.0108493
2790	0.0110431
2802	0.0104619
2814	0.0108493
2826	0.0108493
2838	0.0116243
2850	0.011818
2862	0.0129804
2874	0.0127867
2886	0.012593
2898	0.0133679
2910	0.0139491
2922	0.0127867
2934	0.0135617
2946	0.0139491
2958	0.0122055
2970	0.012593
2982	0.0122055
2994	0.0133679
3006	0.0187926
3018	0.0397163
3030	0.068002
3042	0.131548
3054	0.149759
3066	0.117405
3078	0.189863
3090	0.155184
3102	0.0962878
3114	0.0472721
3126	0.0193738
3138	0.0133679
3150	0.0122055
3162	0.0110431
3174	0.0120118
3186	0.0123992
3198	0.011818
3210	0.0116243
3222	0.0112368
3234	0.0114305
3246	0.0108493
3258	0.0108493
3270	0.0114305
3282	0.0106556
3294	0.0110431
3306	0.0112368
3318	0.0114305
3330	0.0120118
3342	0.0116243
3354	0.0120118
3366	0.011818
3378	0.0114305
3390	0.011818
3402	0.0108493
3414	0.011818
3426	0.0112368
3438	0.0116243
3450	0.0112368
3462	0.0108493
3474	0.0116243
3486	0.0106556
3498	0.0096869
3510	0.0108493
3522	0.0106556
3534	0.0114305
3546	0.0108493
3558	0.0114305
3570	0.0102681
3582	0.0114305
3594	0.0108493
3606	0.0112368
3618	0.0110431
3630	0.0112368
3642	0.0127867
3654	0.012593
3666	0.0141429
3678	0.012593
3690	0.0135617
3702	0.0141429
3714	0.0131742
3726	0.012593
3738	0.0122055
3750	0.0127867
3762	0.0131742
3774	0.0137554
3786	0.0139491
3798	0.0131742
3810	0.0133679
3822	0.0116243
3834	0.0123992
3846	0.011818
3858	0.0122055
3870	0.0133679
3882	0.0127867
3894	0.0131742
3906	0.0120118
3918	0.012593
3930	0.0131742
3942	0.0131742
3954	0.0123992
3966	0.012593
