Infrared Spectrum: Benzene, (2,2-dimethoxyethyl)-
Formula: C 10 H 14 O 2
CAS: 101-48-4
Origin: Sadtler Research Labs Under US-EPA Contract
1/CM	ABSORBANCE
450	0.0103192
462	0.0130348
474	0.00814674
486	0.00248282
498	0.00806915
510	0.00147417
522	0.00962091
534	0.0148193
546	0.0407337
558	0.0709154
570	0.0550099
582	0.0257592
594	0.0291731
606	0.0186211
618	0.0108623
630	0.00845709
642	0.0103968
654	0.0130348
666	0.0211815
678	0.053303
690	0.159055
702	0.203746
714	0.0898469
726	0.0767345
738	0.125072
750	0.142374
762	0.0315783
774	0.0226557
786	0.0159055
798	0.0172245
810	0.023354
822	0.0496563
834	0.0723896
846	0.0483373
858	0.0194746
870	0.0162159
882	0.014121
894	0.0333628
906	0.0475614
918	0.0252937
930	0.0436045
942	0.0360008
954	0.040113
966	0.0865106
978	0.150598
990	0.13027
1002	0.121813
1014	0.0917866
1026	0.115296
1038	0.153004
1050	0.223453
1062	0.406096
1074	0.61954
1086	0.680136
1098	0.526202
1110	0.406328
1122	0.681378
1134	0.647937
1146	0.253402
1158	0.15215
1170	0.149047
1182	0.195367
1194	0.208712
1206	0.180625
1218	0.12996
1230	0.113744
1242	0.0944246
1254	0.0671912
1266	0.0531478
1278	0.048958
1290	0.0416648
1302	0.0448459
1314	0.0396475
1326	0.0399578
1338	0.0490356
1350	0.0729327
1362	0.170461
1374	0.182875
1386	0.0904676
1398	0.0442252
1410	0.0291731
1422	0.0279317
1434	0.0594324
1446	0.093416
1458	0.10358
1470	0.0701396
1482	0.0515184
1494	0.101718
1506	0.0875193
1518	0.0162935
1530	0.0157504
1542	0.0189315
1554	0.0138883
1566	0.01544
1578	0.0201729
1590	0.0250609
1602	0.0470183
1614	0.0442252
1626	0.0139658
1638	0.0183884
1650	0.0298714
1662	0.0230436
1674	0.0104744
1686	0.0127244
1698	0.0149745
1710	0.020716
1722	0.0226557
1734	0.0386388
1746	0.0477166
1758	0.0432941
1770	0.0358457
1782	0.0192418
1794	0.0205608
1806	0.0165262
1818	0.00861227
1830	0.00698292
1842	0.00558634
1854	0.00744845
1866	0.010164
1878	0.0121813
1890	0.0090778
1902	0.00605186
1914	0.00612945
1926	0.0090778
1938	0.0150521
1950	0.0172245
1962	0.0121037
1974	0.00651739
1986	0.00605186
1998	0.00566392
2010	0.00706051
2022	0.00690533
2034	0.00690533
2046	0.00737086
2058	0.00845709
2070	0.00791398
2082	0.00744845
2094	0.00744845
2106	0.00690533
2118	0.00698292
2130	0.00589669
2142	0.00543116
2154	0.0051984
2166	0.00574151
2178	0.00543116
2190	0.00395699
2202	0.00287076
2214	0.00225005
2226	0.00217246
2238	0.00147417
2250	0.00248282
2262	0.00201729
2274	0.00240523
2286	0.00147417
2298	0.00240523
2310	0.00395699
2322	0.00488804
2334	0.00473287
2346	0.00636222
2358	0.00675016
2370	0.00566392
2382	0.00225005
2394	0.001319
2406	0.00178452
2418	0.00124141
2430	0.00209488
2442	0.00139658
2454	0.001319
2466	0.00077588
2478	0.00116382
2490	0.00108623
2502	0.000310352
2514	0.00124141
2526	0.00124141
2538	0.001319
2550	0.00271558
2562	0.00240523
2574	0.00403458
2586	0.0051984
2598	0.00628463
2610	0.00659498
2622	0.0071381
2634	0.00830192
2646	0.0111727
2658	0.0116382
2670	0.0115606
2682	0.0136555
2694	0.0150521
2706	0.0148193
2718	0.0134227
2730	0.0144314
2742	0.0129572
2754	0.0125693
2766	0.0139658
2778	0.0173021
2790	0.0258368
2802	0.0405785
2814	0.060829
2826	0.13027
2838	0.263101
2850	0.176125
2862	0.0965971
2874	0.0808467
2886	0.106296
2898	0.178064
2910	0.240678
2922	0.246497
2934	0.303136
2946	0.319197
2958	0.300188
2970	0.226169
2982	0.144857
2994	0.19141
3006	0.168831
3018	0.106373
3030	0.161616
3042	0.192108
3054	0.108623
3066	0.131434
3078	0.163711
3090	0.091709
3102	0.0637773
3114	0.0377854
3126	0.0171469
3138	0.00861227
3150	0.0051984
3162	0.00535357
3174	0.00527598
3186	0.00302593
3198	0.00225005
3210	0.00217246
3222	0.00155176
3234	0.00232764
3246	0.00225005
3258	0.00232764
3270	0.000853468
3282	0.00186211
3294	0.00178452
3306	0.00155176
3318	0
3330	0.00162935
3342	0.00077588
3354	0.00147417
3366	0.00170694
3378	0.00124141
3390	0.000853468
3402	0.0019397
3414	0.00162935
3426	0.00147417
3438	0.00147417
3450	0.0019397
3462	0.00201729
3474	0.000698292
3486	0.00116382
3498	0.00100864
3510	0.00178452
3522	0.00162935
3534	0.00100864
3546	0.00147417
3558	0.00170694
3570	0.00349146
3582	0.0064398
3594	0.00597428
3606	0.00201729
3618	0.00457769
3630	0.00605186
3642	0.0045001
3654	0.00667257
3666	0.00612945
3678	0.00737086
3690	0.0071381
3702	0.00675016
3714	0.00876744
3726	0.00721568
3738	0.00861227
3750	0.00799156
3762	0.00706051
3774	0.00659498
3786	0.00706051
3798	0.00830192
3810	0.00884503
3822	0.00985368
3834	0.010164
3846	0.0109399
3858	0.0107071
3870	0.0115606
3882	0.0107071
3894	0.0119486
3906	0.0121037
3918	0.0127244
3930	0.0102416
3942	0.010552
3954	0.00124141
3966	0.00209488
