Infrared Spectrum: Octanal, 2-(phenylmethylene)-
Formula: C 15 H 20 O
CAS: 101-86-0
Origin: Sadtler Research Labs Under US-EPA Contract
1/CM	ABSORBANCE
450	0.00277319
462	0.0039724
474	0.00464696
486	0.0113176
498	0.00659569
510	0.00921897
522	0.0149902
534	0.00344775
546	0.00532152
558	0.0158896
570	0.0110927
582	0.00592113
594	0.0113926
606	0.0221105
618	0.0113926
630	0.00869432
642	0.0041223
654	0.0114675
666	0.0282565
678	0.0478187
690	0.090241
702	0.0972114
714	0.0475939
726	0.0516412
738	0.0579371
750	0.0680555
762	0.0471442
774	0.0257082
786	0.0219606
798	0.0205366
810	0.0195622
822	0.0200869
834	0.0272072
846	0.0310297
858	0.0442211
870	0.0543395
882	0.0346274
894	0.0286313
906	0.0254833
918	0.0342526
930	0.0227851
942	0.0135661
954	0.015365
966	0.0158147
978	0.0187377
990	0.0227851
1002	0.030655
1014	0.0296056
1026	0.0338029
1038	0.0215859
1050	0.0171638
1062	0.0269824
1074	0.0404735
1086	0.064308
1098	0.0727774
1110	0.0373256
1122	0.024509
1134	0.0256332
1146	0.049018
1158	0.0650575
1170	0.0466195
1182	0.0368009
1194	0.0417477
1206	0.0396491
1218	0.0200119
1230	0.0150652
1242	0.0128166
1254	0.0149902
1266	0.0172387
1278	0.022935
1290	0.0263078
1302	0.0276569
1314	0.030655
1326	0.0272072
1338	0.0317043
1350	0.0370258
1362	0.0534401
1374	0.0486432
1386	0.032079
1398	0.0359015
1410	0.0235346
1422	0.0160395
1434	0.0233847
1446	0.0490929
1458	0.0655072
1470	0.0567379
1482	0.029006
1494	0.0383749
1506	0.0165642
1518	0.00861936
1530	0.00869432
1542	0.00674559
1554	0.00757005
1566	0.00951878
1578	0.0152151
1590	0.018288
1602	0.0255583
1614	0.0324538
1626	0.0622843
1638	0.0471442
1650	0.0211362
1662	0.0258581
1674	0.0368009
1686	0.0799727
1698	0.347098
1710	0.708212
1722	0.147803
1734	0.0513414
1746	0.033653
1758	0.0309548
1770	0.027507
1782	0.0215109
1794	0.0171638
1806	0.0124419
1818	0.0073452
1830	0.00614598
1842	0.00584618
1854	0.00479686
1866	0.00577123
1878	0.00674559
1890	0.0071953
1902	0.00652074
1914	0.0041223
1926	0.00487181
1938	0.00682054
1950	0.00839451
1962	0.00914402
1974	0.00404735
1986	0.00314794
1998	0.00299804
2010	0.00269824
2022	0.0035227
2034	0.00307299
2046	0.00247338
2058	0.00262328
2070	0.00187377
2082	0.00134912
2094	0.00179882
2106	0.00224853
2118	0.00179882
2130	0.00194873
2142	0.00127417
2154	0.00164892
2166	0.00157397
2178	0.00119922
2190	0.00179882
2202	0.00127417
2214	0.00172387
2226	0.00172387
2238	0.00172387
2250	0.00127417
2262	0.00164892
2274	0.00172387
2286	0.00164892
2298	0.00217358
2310	0.00314794
2322	0.00254833
2334	0.00359765
2346	0.00202368
2358	0.00427221
2370	0.00119922
2382	0.00127417
2394	0.000899412
2406	0.00149902
2418	0.00134912
2430	0.00119922
2442	0.00119922
2454	0.000824461
2466	0.00074951
2478	0.000974363
2490	0.00149902
2502	0.00127417
2514	0.00187377
2526	0.00149902
2538	0.00179882
2550	0.00194873
2562	0.00247338
2574	0.00292309
2586	0.00322289
2598	0.00344775
2610	0.00299804
2622	0.0039724
2634	0.00502172
2646	0.00547142
2658	0.00674559
2670	0.00899412
2682	0.0143156
2694	0.039799
2706	0.103058
2718	0.0549391
2730	0.0312546
2742	0.0288561
2754	0.0274321
2766	0.0286313
2778	0.0343276
2790	0.0420475
2802	0.0725526
2814	0.0965369
2826	0.050442
2838	0.0418976
2850	0.0646827
2862	0.138734
2874	0.155673
2886	0.127117
2898	0.0999097
2910	0.137835
2922	0.2301
2934	0.377828
2946	0.299729
2958	0.230774
2970	0.280017
2982	0.110253
2994	0.0532902
3006	0.0375505
3018	0.0320041
3030	0.0514164
3042	0.0463947
3054	0.0331283
3066	0.0629588
3078	0.0658819
3090	0.0426471
3102	0.0274321
3114	0.0150652
3126	0.00742015
3138	0.00509667
3150	0.00554637
3162	0.00472191
3174	0.00314794
3186	0.00322289
3198	0.00269824
3210	0.00209863
3222	0.00232348
3234	0.00149902
3246	0.00217358
3258	0.00112426
3270	0.00187377
3282	0.00179882
3294	0.00157397
3306	0.00179882
3318	0.000824461
3330	0.00284814
3342	0.00209863
3354	0.00127417
3366	0.00427221
3378	0.00592113
3390	0.0125918
3402	0.00742015
3414	0.00322289
3426	0.00134912
3438	0.00307299
3450	0.00194873
3462	0.00187377
3474	0.00179882
3486	0.00104931
3498	0.00104931
3510	0.00194873
3522	0.00217358
3534	0.000224853
3546	0.00262328
3558	0.00239843
3570	0.00472191
3582	0.00712034
3594	0.00224853
3606	0.00262328
3618	0.00262328
3630	0.00194873
3642	0.00269824
3654	0.00127417
3666	0.00292309
3678	7.4951e-05
3690	0.00104931
3702	0.00187377
3714	0.00134912
3726	0.00187377
3738	0.00172387
3750	0.00202368
3762	0.000374755
3774	0.000974363
3786	0.000824461
3798	0.00202368
3810	0.000449706
3822	0.000974363
3834	0.00074951
3846	0.00187377
3858	0.000449706
3870	0.00104931
3882	0.000449706
3894	0.00277319
3906	0.00119922
3918	0.000599608
3930	0.00104931
3942	0.00074951
3954	0
3966	0.000149902
