Infrared Spectrum: 1,2-Benzenediol, 3-(1,1-dimethylethyl)-5-methyl-
Formula: C 11 H 16 O 2
CAS: 1010-99-7
Origin: Sadtler Research Labs Under US-EPA Contract
1/CM	ABSORBANCE
450	0.0576565
462	0.0495738
474	0.0347941
486	0.0307142
498	0.0230934
510	0.0152416
522	0.0147028
534	0.0183208
546	0.0116237
558	0.0130093
570	0.0211689
582	0.0153956
594	0.0346401
606	0.055886
618	0.0219387
630	0.0113158
642	0.0232474
654	0.0328696
666	0.0113927
678	0.00200143
690	0.000461868
702	0.00361797
714	0.0151647
726	0.0485731
738	0.0706658
750	0.094529
762	0.0182438
774	0.0045417
786	0.00369494
798	0.00492659
810	0.052653
822	0.0604277
834	0.038489
846	0.0622752
858	0.0702809
870	0.0435695
882	0.00800571
894	0.00161654
906	0.0038489
918	0.0125474
930	0.038335
942	0.0302524
954	0.0635838
966	0.112311
978	0.0744377
990	0.055809
1002	0.0772089
1014	0.114697
1026	0.134481
1038	0.0644306
1050	0.0287898
1062	0.0220927
1074	0.0185517
1086	0.0219387
1098	0.0500357
1110	0.0986088
1122	0.0488041
1134	0.0310221
1146	0.066355
1158	0.187903
1170	0.408522
1182	0.647077
1194	0.361643
1206	0.213229
1218	0.246945
1230	0.374036
1242	0.218694
1254	0.19868
1266	0.213383
1278	0.271809
1290	0.464331
1302	0.628987
1314	0.436465
1326	0.125551
1338	0.0857535
1350	0.102458
1362	0.136328
1374	0.119855
1386	0.0605817
1398	0.0724363
1410	0.10469
1422	0.159037
1434	0.125397
1446	0.108693
1458	0.12278
1470	0.122472
1482	0.166272
1494	0.332699
1506	0.339473
1518	0.327464
1530	0.208687
1542	0.0766701
1554	0.0491889
1566	0.0414911
1578	0.04203
1590	0.0684334
1602	0.12201
1614	0.145565
1626	0.0867542
1638	0.0289437
1650	0.00600428
1662	0.00438775
1674	0.00500357
1686	0.00146258
1698	0.00200143
1710	0.000846758
1722	0.00638917
1734	0.00854456
1746	0.00261725
1758	0.00130863
1770	0.00169352
1782	0.00153956
1794	0.00307912
1806	0.00277121
1818	0.0024633
1830	0.0024633
1842	0.00284819
1854	0.00300214
1866	0.00300214
1878	0.00407983
1890	0.0038489
1902	0.00438775
1914	0.0045417
1926	0.00484961
1938	0.00438775
1950	0.00346401
1962	0.0031561
1974	0.00269423
1986	0.00254027
1998	0.00277121
2010	0.00269423
2022	0.00161654
2034	0.00177049
2046	0.00223236
2058	0.00215538
2070	0.00215538
2082	0.00192445
2094	0.00107769
2106	0.000461868
2118	0.000538846
2130	0.000538846
2142	0.00038489
2154	0.000538846
2166	0.000923736
2178	0.00192445
2190	0.00192445
2202	0.00115467
2214	0.00038489
2226	0.000461868
2238	0.000923736
2250	0.00130863
2262	0.00115467
2274	0.0013856
2286	0.00153956
2298	0.00238632
2310	0.00354099
2322	0.00423379
2334	0.00423379
2346	0.00407983
2358	0.00477264
2370	0.00508055
2382	0.00608126
2394	0.00392588
2406	0.00261725
2418	0.00200143
2430	0.00192445
2442	0.00207841
2454	0.00207841
2466	0.00169352
2478	0.00207841
2490	0.00192445
2502	0.00215538
2514	0.00254027
2526	0.00269423
2538	0.00223236
2550	0.0024633
2562	0.00230934
2574	0.00153956
2586	0.00100071
2598	0.00100071
2610	0.000692802
2622	0.00153956
2634	0.00192445
2646	0.00254027
2658	0.00277121
2670	0.00292516
2682	0.00223236
2694	0.00284819
2706	0.00361797
2718	0.00561939
2730	0.007005
2742	0.00808269
2754	0.00792873
2766	0.00484961
2778	0.00484961
2790	0.00731291
2802	0.00823665
2814	0.0118546
2826	0.0160114
2838	0.0215538
2850	0.0411832
2862	0.100764
2874	0.179128
2886	0.180821
2898	0.171892
2910	0.230087
2922	0.250409
2934	0.262341
2946	0.288437
2958	0.555935
2970	0.76978
2982	0.375884
2994	0.115544
3006	0.0423379
3018	0.0295596
3030	0.0347171
3042	0.049112
3054	0.0617364
3066	0.0538076
3078	0.0306372
3090	0.0157035
3102	0.00916038
3114	0.00808269
3126	0.00685104
3138	0.00662011
3150	0.00515753
3162	0.00446472
3174	0.00554242
3186	0.00715895
3198	0.00723593
3210	0.00692802
3222	0.00677406
3234	0.00731291
3246	0.00708198
3258	0.00554242
3270	0.00685104
3282	0.00831362
3294	0.0076978
3306	0.0052345
3318	0.00477264
3330	0.00407983
3342	0.00531148
3354	0.00500357
3366	0.00461868
3378	0.00577335
3390	0.00623522
3402	0.00646615
3414	0.00692802
3426	0.00692802
3438	0.00877549
3450	0.0110079
3462	0.0119316
3474	0.0124704
3486	0.0137791
3498	0.0111618
3510	0.0101611
3522	0.00939132
3534	0.00854456
3546	0.0100071
3558	0.0106999
3570	0.0169352
3582	0.0577335
3594	0.308759
3606	0.446857
3618	0.11362
3630	0.0391818
3642	0.0657392
3654	0.151878
3666	0.183131
3678	0.0502666
3690	0.00538846
3702	0.000538846
3714	0.000307912
3726	0.00115467
3738	0.00161654
3750	0.0013856
3762	0.000230934
3774	0.000230934
3786	0.000230934
3798	0.000230934
3810	0.000230934
3822	0.000230934
3834	0.000230934
3846	0.000230934
3858	0.000230934
3870	0.000615824
3882	0.00223236
3894	0.00169352
3906	0.00354099
3918	0.00230934
3930	0.000230934
3942	0.000230934
3954	0.000230934
3966	0.000230934
