Infrared Spectrum: Cyclohexanamine, N-butyl-
Formula: C 10 H 21 N
CAS: 10108-56-2
Origin: Sadtler Research Labs Under US-EPA Contract
1/CM	ABSORBANCE
450	0
462	0.0344562
474	0.0310286
486	0.0196635
498	0.0248951
510	0.0299462
522	0.0250755
534	0.0214675
546	0.0214675
558	0.0209263
570	0.0257971
582	0.0337346
594	0.030307
606	0.0245343
618	0.0274206
630	0.0290442
642	0.0333738
654	0.0353582
666	0.0432958
678	0.064222
690	0.0737832
702	0.0635004
714	0.0609749
726	0.0523157
738	0.0452801
750	0.0335542
762	0.0277814
774	0.0214675
786	0.0250755
798	0.0257971
810	0.0225499
822	0.0209263
834	0.0221891
846	0.0254363
858	0.0250755
870	0.0234519
882	0.0349974
894	0.0441978
906	0.0257971
918	0.0238127
930	0.0239931
942	0.0218283
954	0.0256167
966	0.0279618
978	0.028503
990	0.0254363
1002	0.0200243
1014	0.0230911
1026	0.0292246
1038	0.0281422
1050	0.028503
1062	0.0306678
1074	0.0386054
1086	0.0487077
1098	0.073242
1110	0.0936271
1122	0.131691
1134	0.21251
1146	0.1988
1158	0.102106
1170	0.0514137
1182	0.0371622
1194	0.0315698
1206	0.029405
1218	0.037523
1230	0.041131
1242	0.0441978
1254	0.0550217
1266	0.0616965
1278	0.043837
1290	0.0413114
1302	0.0512333
1314	0.0568257
1326	0.0622377
1338	0.0707164
1350	0.101745
1362	0.105353
1374	0.0995802
1386	0.0676496
1398	0.0416722
1410	0.0368014
1422	0.0418526
1434	0.0737832
1446	0.159834
1458	0.256347
1470	0.226762
1482	0.107698
1494	0.0479861
1506	0.0432958
1518	0.0301266
1530	0.0254363
1542	0.0212871
1554	0.0209263
1566	0.0220087
1578	0.0225499
1590	0.0227303
1602	0.0297658
1614	0.0288638
1626	0.0227303
1638	0.0205655
1650	0.0193027
1662	0.0207459
1674	0.0212871
1686	0.0203851
1698	0.0209263
1710	0.0218283
1722	0.0212871
1734	0.0209263
1746	0.0218283
1758	0.0214675
1770	0.0211067
1782	0.0211067
1794	0.0218283
1806	0.0214675
1818	0.0211067
1830	0.0216479
1842	0.0209263
1854	0.0200243
1866	0.0198439
1878	0.0200243
1890	0.0194831
1902	0.0196635
1914	0.0193027
1926	0.0202047
1938	0.0196635
1950	0.0196635
1962	0.0194831
1974	0.0189419
1986	0.0187615
1998	0.0193027
2010	0.0191223
2022	0.0191223
2034	0.0198439
2046	0.0200243
2058	0.0202047
2070	0.0198439
2082	0.0198439
2094	0.0194831
2106	0.0198439
2118	0.0200243
2130	0.0200243
2142	0.0194831
2154	0.0200243
2166	0.0203851
2178	0.0205655
2190	0.0209263
2202	0.0207459
2214	0.0200243
2226	0.0200243
2238	0.0205655
2250	0.0203851
2262	0.0200243
2274	0.0196635
2286	0.0180399
2298	0.0158751
2310	0.0151535
2322	0.0174987
2334	0.0225499
2346	0.0243539
2358	0.0211067
2370	0.0256167
2382	0.0207459
2394	0.0212871
2406	0.0211067
2418	0.0211067
2430	0.0212871
2442	0.0205655
2454	0.0205655
2466	0.0205655
2478	0.0212871
2490	0.0220087
2502	0.0212871
2514	0.0216479
2526	0.0223695
2538	0.0230911
2550	0.0234519
2562	0.0252559
2574	0.0268795
2586	0.0313894
2598	0.0349974
2610	0.0351778
2622	0.033915
2634	0.0358994
2646	0.0407702
2658	0.0478057
2670	0.0537589
2682	0.0488881
2694	0.0463625
2706	0.0476253
2718	0.0481665
2730	0.0485273
2742	0.0557433
2754	0.0616965
2766	0.0672888
2778	0.0840659
2790	0.118161
2802	0.165065
2814	0.196815
2826	0.197717
2838	0.199341
2850	0.326522
2862	0.661343
2874	0.501509
2886	0.36603
2898	0.352139
2910	0.557433
2922	0.945652
2934	1.67843
2946	1.42786
2958	0.540836
2970	0.502952
2982	0.217561
2994	0.0876739
3006	0.0582689
3018	0.0470841
3030	0.042033
3042	0.0351778
3054	0.0315698
3066	0.0299462
3078	0.0270598
3090	0.0263383
3102	0.0250755
3114	0.0236323
3126	0.0229107
3138	0.0232715
3150	0.0229107
3162	0.0232715
3174	0.0218283
3186	0.0205655
3198	0.0200243
3210	0.0189419
3222	0.0191223
3234	0.0187615
3246	0.0187615
3258	0.0184007
3270	0.0184007
3282	0.0184007
3294	0.0180399
3306	0.0184007
3318	0.0185811
3330	0.0202047
3342	0.0194831
3354	0.0203851
3366	0.0198439
3378	0.0198439
3390	0.0194831
3402	0.0189419
3414	0.0196635
3426	0.0193027
3438	0.0193027
3450	0.0185811
3462	0.0182203
3474	0.0187615
3486	0.0178595
3498	0.0180399
3510	0.0180399
3522	0.0180399
3534	0.0182203
3546	0.0178595
3558	0.0178595
3570	0.0182203
3582	0.0191223
3594	0.0185811
3606	0.0178595
3618	0.0174987
3630	0.0178595
3642	0.0189419
3654	0.0171379
3666	0.0198439
3678	0.0174987
3690	0.0167771
3702	0.0205655
3714	0.0194831
3726	0.0202047
3738	0.0193027
3750	0.0165967
3762	0.0202047
3774	0.0200243
3786	0.0189419
3798	0.0169575
3810	0.0203851
3822	0.0176791
3834	0.0194831
3846	0.0182203
3858	0.0178595
3870	0.0189419
3882	0.0184007
3894	0.0191223
3906	0.0187615
3918	0.0176791
3930	0.0209263
3942	0.0180399
3954	0.0216479
3966	0.0182203
