Infrared Spectrum: Benzo[b]thiophene-5-carboxaldehyde
Formula: C 9 H 6 O S
CAS: 10133-30-9
Origin: Sadtler Research Labs Under US-EPA Contract
1/CM	ABSORBANCE
450	0.000554
462	0.0222708
474	0.0551784
486	0.02493
498	0.0090856
510	0.0037672
522	0.0107476
534	0.017728
546	0.024376
558	0.0176172
570	0.0063156
582	0.0073128
594	0.007756
606	0.0036564
618	0.004986
630	0.00277
642	0.0004432
654	0.020498
666	0.0556216
678	0.0823244
690	0.217833
702	0.175618
714	0.072574
726	0.0111908
738	0.027146
750	0.0647072
762	0.081438
774	0.136062
786	0.152793
798	0.112019
810	0.104817
822	0.0521868
834	0.0280324
846	0.0122988
858	0.0062048
870	0.0106368
882	0.0269244
894	0.0472008
906	0.0405528
918	0.0239328
930	0.0346804
942	0.0262596
954	0.0499708
966	0.0100828
978	0.00554
990	0.0098612
1002	0.0120772
1014	0.01108
1026	0.0147364
1038	0.0511896
1050	0.186476
1062	0.073682
1074	0.0206088
1086	0.10105
1098	0.102158
1110	0.0291404
1122	0.0370072
1134	0.132517
1146	0.0999416
1158	0.046536
1170	0.0146256
1182	0.006094
1194	0.0085316
1206	0.0606076
1218	0.169635
1230	0.1385
1242	0.034348
1254	0.0237112
1266	0.0154012
1278	0.0056508
1290	0.0056508
1302	0.0172848
1314	0.0821028
1326	0.203983
1338	0.0503032
1350	0.0145148
1362	0.0208304
1374	0.0335724
1386	0.0544028
1398	0.0440984
1410	0.0223816
1422	0.0445416
1434	0.0644856
1446	0.0414392
1458	0.0212736
1470	0.0085316
1482	0.0035456
1494	0.0117448
1506	0.0267028
1518	0.0178388
1530	0.009972
1542	0.0386692
1554	0.0665908
1566	0.0524084
1578	0.056508
1590	0.109027
1602	0.127974
1614	0.0717984
1626	0.0488628
1638	0.0342372
1650	0.0183928
1662	0.014958
1674	0.0301376
1686	0.053738
1698	0.139165
1710	0.660036
1722	1.108
1734	0.31855
1746	0.0466468
1758	0.0541812
1770	0.0335724
1782	0.0167308
1794	0.0198332
1806	0.0136284
1818	0.007202
1830	0.0058724
1842	0.0062048
1854	0.0043212
1866	0.0059832
1878	0.0087532
1890	0.0114124
1902	0.008864
1914	0.006648
1926	0.0042104
1938	0.001662
1950	0.0018836
1962	0.0029916
1974	0.003324
1986	0.0018836
1998	0.0023268
2010	0.002216
2022	0.0015512
2034	0.0012188
2046	0.0015512
2058	0.0021052
2070	0.0035456
2082	0.0028808
2094	0.0019944
2106	0.001108
2118	0.0003324
2130	0.000554
2142	0.001662
2154	0.0026592
2166	0.0021052
2178	0.0017728
2190	0.0017728
2202	0.0012188
2214	0.0008864
2226	0.0003324
2238	0.0004432
2250	0.001108
2262	0.0025484
2274	0.0028808
2286	0.004432
2298	0.0067588
2310	0.0079776
2322	0.004986
2334	0.0036564
2346	0.0067588
2358	0.0069804
2370	0.0067588
2382	0.0058724
2394	0.0017728
2406	0.0019944
2418	0.0014404
2430	0.0014404
2442	0.0013296
2454	0.0013296
2466	0.0017728
2478	0.0014404
2490	0.0009972
2502	0.0015512
2514	0.0023268
2526	0.0039888
2538	0.004986
2550	0.004432
2562	0.0035456
2574	0.003878
2586	0.0039888
2598	0.0037672
2610	0.004432
2622	0.0070912
2634	0.0122988
2646	0.0157336
2658	0.0125204
2670	0.0119664
2682	0.0229356
2694	0.0450956
2706	0.060386
2718	0.0985012
2730	0.151907
2742	0.10526
2754	0.0347912
2766	0.0350128
2778	0.0582808
2790	0.0610508
2802	0.091964
2814	0.144926
2826	0.0978364
2838	0.0392232
2850	0.0169524
2862	0.0126312
2874	0.0120772
2886	0.0115232
2898	0.0114124
2910	0.0109692
2922	0.0111908
2934	0.0118556
2946	0.01108
2958	0.0119664
2970	0.0117448
2982	0.0097504
2994	0.0089748
3006	0.0126312
3018	0.014404
3030	0.015512
3042	0.0190576
3054	0.016066
3066	0.0186144
3078	0.0313564
3090	0.0316888
3102	0.0173956
3114	0.0113016
3126	0.0074236
3138	0.003878
3150	0.003878
3162	0.0032132
3174	0.0025484
3186	0.0032132
3198	0.0028808
3210	0.0025484
3222	0.0024376
3234	0.001662
3246	0.002216
3258	0.0021052
3270	0.002216
3282	0.0018836
3294	0.0019944
3306	0.0021052
3318	0.0029916
3330	0.00277
3342	0.00277
3354	0.002216
3366	0.0025484
3378	0.0031024
3390	0.003878
3402	0.0079776
3414	0.018282
3426	0.0130744
3438	0.0039888
3450	0.0028808
3462	0.0021052
3474	0.0021052
3486	0.0017728
3498	0.0017728
3510	0.0017728
3522	0.0017728
3534	0.0023268
3546	0.0015512
3558	0.0023268
3570	0.0012188
3582	0.007202
3594	0.0050968
3606	0.001108
3618	0.0024376
3630	0.0028808
3642	0.0015512
3654	0.0028808
3666	0.0002216
3678	0.004432
3690	0.003324
3702	0.0018836
3714	0.001662
3726	0
3738	0.0014404
3750	0.0028808
3762	0.0024376
3774	0.00277
3786	0.0013296
3798	0.001662
3810	0.000554
3822	0.003324
3834	0.00277
3846	0.0019944
3858	0.0036564
3870	0.0032132
3882	0.0025484
3894	0.0042104
3906	0.0028808
3918	0.0045428
3930	0.0029916
3942	0.00277
3954	0.0037672
3966	0.0031024
