Infrared Spectrum: Aniline, N-(2-ethylhexyl)-
Formula: C 14 H 23 N
CAS: 10137-80-1
Origin: Sadtler Research Labs Under US-EPA Contract
1/CM	ABSORBANCE
450	0
462	0.0399314
474	0.0366777
486	0.0452556
498	0.066996
510	0.0522805
522	0.0394138
534	0.0282478
546	0.0286914
558	0.0470303
570	0.0357164
582	0.0338677
594	0.0388961
606	0.0283956
618	0.0338677
630	0.0345332
642	0.0443682
654	0.0538334
666	0.0640381
678	0.103969
690	0.192188
702	0.12009
714	0.0825249
726	0.0912506
738	0.180283
750	0.264656
762	0.108998
774	0.0738731
786	0.0610063
798	0.040449
810	0.0310577
822	0.0289872
834	0.0349769
846	0.0324627
858	0.0329804
870	0.0497663
882	0.0300964
894	0.0289133
906	0.0343854
918	0.0286914
930	0.0262512
942	0.023663
954	0.025142
966	0.0249941
978	0.0284696
990	0.0399314
1002	0.0361601
1014	0.022332
1026	0.0299485
1038	0.0292091
1050	0.0323888
1062	0.0544989
1074	0.0537595
1086	0.060045
1098	0.0459211
1110	0.0329064
1122	0.0323148
1134	0.0495445
1146	0.0527982
1158	0.0513192
1170	0.0388222
1182	0.0618936
1194	0.0454774
1206	0.0479177
1218	0.0510974
1230	0.0786057
1242	0.177029
1254	0.271312
1266	0.208604
1278	0.16394
1290	0.150556
1302	0.214742
1314	0.263325
1326	0.163275
1338	0.0871096
1350	0.0646297
1362	0.0627071
1374	0.0618936
1386	0.0742428
1398	0.0397095
1410	0.0380088
1422	0.0791972
1434	0.11129
1446	0.0738731
1458	0.137098
1470	0.213707
1482	0.217922
1494	0.358051
1506	0.703236
1518	0.240106
1530	0.0889582
1542	0.0687707
1554	0.0718025
1566	0.0596752
1578	0.0930993
1590	0.266135
1602	0.64674
1614	0.35953
1626	0.120903
1638	0.0609323
1650	0.0454035
1662	0.0269167
1674	0.0329804
1686	0.0344593
1698	0.0524284
1710	0.0842256
1722	0.048805
1734	0.0358643
1746	0.0318712
1758	0.0309098
1770	0.027878
1782	0.0281738
1794	0.0297267
1806	0.0329064
1818	0.0346811
1830	0.0329064
1842	0.0258075
1854	0.0280999
1866	0.0273604
1878	0.0260293
1890	0.0290612
1902	0.0339417
1914	0.0368996
1926	0.0342375
1938	0.0280259
1950	0.0245504
1962	0.0241067
1974	0.0244025
1986	0.0252159
1998	0.0255857
2010	0.0253638
2022	0.0249941
2034	0.0256596
2046	0.0249201
2058	0.025068
2070	0.0246244
2082	0.0252159
2094	0.0243286
2106	0.0248462
2118	0.023737
2130	0.0249201
2142	0.0235891
2154	0.0244025
2166	0.0241067
2178	0.0249201
2190	0.0240328
2202	0.0240328
2214	0.0244025
2226	0.0235891
2238	0.0238109
2250	0.0232933
2262	0.0235891
2274	0.0244765
2286	0.0242546
2298	0.023663
2310	0.022332
2322	0.0215925
2334	0.0212228
2346	0.026473
2358	0.0228496
2370	0.0232194
2382	0.025068
2394	0.027878
2406	0.0282478
2418	0.0274343
2430	0.0275083
2442	0.0266949
2454	0.026473
2466	0.0271385
2478	0.0283217
2490	0.0281738
2502	0.0289133
2514	0.029357
2526	0.0300225
2538	0.0312796
2550	0.0340156
2562	0.0358643
2574	0.0368256
2586	0.0361601
2598	0.0354946
2610	0.0346811
2622	0.0340156
2634	0.0337198
2646	0.0346072
2658	0.0356425
2670	0.0371953
2682	0.0381567
2694	0.039044
2706	0.0398574
2718	0.0414843
2730	0.0425935
2742	0.0456992
2754	0.0453295
2766	0.0459211
2778	0.0481395
2790	0.0551645
2802	0.0631507
2814	0.0749823
2826	0.0942824
2838	0.125488
2850	0.179839
2862	0.309838
2874	0.408187
2886	0.404416
2898	0.323074
2910	0.376538
2922	0.562441
2934	0.73947
2946	0.589432
2958	0.45507
2970	0.696655
2982	0.324849
2994	0.14575
3006	0.118019
3018	0.139686
3030	0.151517
3042	0.1229
3054	0.169782
3066	0.177177
3078	0.123565
3090	0.119277
3102	0.086518
3114	0.0624113
3126	0.0448119
3138	0.0361601
3150	0.0346072
3162	0.0324627
3174	0.0323148
3186	0.0322409
3198	0.0315014
3210	0.030762
3222	0.0301704
3234	0.0287654
3246	0.0281738
3258	0.0282478
3270	0.0291351
3282	0.029283
3294	0.0298746
3306	0.029357
3318	0.029357
3330	0.0288393
3342	0.0294309
3354	0.0288393
3366	0.0306141
3378	0.0323888
3390	0.0341635
3402	0.0374911
3414	0.0420019
3426	0.0505797
3438	0.0564955
3450	0.0530939
3462	0.0465866
3474	0.0402272
3486	0.0363819
3498	0.0341635
3510	0.0318712
3522	0.0322409
3534	0.0295049
3546	0.0303922
3558	0.0285435
3570	0.0327585
3582	0.027952
3594	0.0351988
3606	0.0273604
3618	0.0299485
3630	0.0363819
3642	0.0280999
3654	0.0436287
3666	0.0240328
3678	0.0367517
3690	0.0422977
3702	0.0283956
3714	0.0350509
3726	0.027952
3738	0.0321669
3750	0.0465866
3762	0.0283217
3774	0.0327585
3786	0.0335719
3798	0.0388961
3810	0.0225538
3822	0.0429632
3834	0.0315754
3846	0.0274343
3858	0.0403751
3870	0.0364559
3882	0.0330543
3894	0.0327585
3906	0.039118
3918	0.0343854
3930	0.0296527
3942	0.0313535
3954	0.0366038
3966	0.0331283
