Infrared Spectrum: Bicyclo[2.2.1]hept-5-ene-2-carboxylic acid, ethyl ester
Formula: C 10 H 14 O 2
CAS: 10138-32-6
Origin: Sadtler Research Labs Under US-EPA Contract
1/CM	ABSORBANCE
450	0.00376668
462	0.0132218
474	0.00876329
486	0.0106082
498	0.00722587
510	0.00707213
522	0.00330545
534	0.00153742
546	0.00261361
558	0.00345919
570	0.00192178
582	0.0029211
594	0.00230613
606	0.00484287
618	0.00491974
630	0.00384355
642	0.00315171
654	0.00484287
666	0.00445852
678	0.013683
690	0.0233688
702	0.0960119
714	0.217468
726	0.0760254
738	0.0233688
750	0.0193715
762	0.0163735
774	0.0241375
786	0.0169885
798	0.0124531
810	0.0182953
822	0.0192946
834	0.0331314
846	0.0462763
858	0.0505042
870	0.0379743
882	0.014913
894	0.0121456
906	0.0289804
918	0.0298259
930	0.0129143
942	0.00884017
954	0.0155279
966	0.014298
978	0.0157586
990	0.0171422
1002	0.0205246
1014	0.0323627
1026	0.0668009
1038	0.197482
1050	0.234533
1062	0.137368
1074	0.100317
1086	0.0691839
1098	0.122686
1110	0.219928
1122	0.117459
1134	0.132756
1146	0.20832
1158	0.391273
1170	0.574303
1182	0.76871
1194	0.562696
1206	0.276659
1218	0.193023
1230	0.205092
1242	0.198097
1254	0.156663
1266	0.18057
1278	0.163428
1290	0.07149
1302	0.0674159
1314	0.0629573
1326	0.125377
1338	0.232458
1350	0.119227
1362	0.0659553
1374	0.131526
1386	0.0629573
1398	0.0395886
1410	0.0285191
1422	0.0229076
1434	0.0264436
1446	0.0505811
1458	0.064341
1470	0.0626499
1482	0.03636
1494	0.014913
1506	0.00614968
1518	0.00207552
1530	7.6871e-05
1542	7.6871e-05
1554	0.00161429
1566	0.00630342
1578	0.0102238
1590	0.00491974
1602	0.0053041
1614	0.00968575
1626	0.00983949
1638	0.00614968
1650	0.00461226
1662	0.00807145
1674	0.00899391
1686	0.01253
1698	0.0193715
1710	0.0395117
1722	0.0878636
1734	0.242528
1746	0.599286
1758	0.536713
1770	0.144902
1782	0.0438165
1794	0.0192178
1806	0.0111463
1818	0.0103007
1830	0.00484287
1842	0.00199865
1854	0.00222926
1866	0.00138368
1878	0.00169116
1890	0.00222926
1902	0.00384355
1914	0.0029211
1926	0.00207552
1938	0.00153742
1950	0.000999323
1962	0.000999323
1974	0.00115306
1986	0.000691839
1998	0.000922452
2010	0.00192178
2022	0.00276736
2034	0.00361294
2046	0.00407416
2058	0.00376668
2070	0.00269049
2082	0.00245987
2094	0.00261361
2106	0.00230613
2118	0.00169116
2130	0.00130681
2142	0.00176803
2154	0.00222926
2166	0.00215239
2178	0.0018449
2190	0.0018449
2202	0.00199865
2214	0.00199865
2226	0.00153742
2238	0.00130681
2250	0.00122994
2262	0.000922452
2274	0.000538097
2286	0.000999323
2298	0.00115306
2310	0.00107619
2322	0.00146055
2334	0.00169116
2346	0.00199865
2358	0.002383
2370	0.00169116
2382	0.00122994
2394	0.000922452
2406	0.000614968
2418	0.00076871
2430	0.000538097
2442	0.000153742
2454	0.000384355
2466	0.000384355
2478	0.000691839
2490	0.000461226
2502	0.000461226
2514	0.000691839
2526	0.000538097
2538	0.000153742
2550	0.000538097
2562	0.000384355
2574	0.000538097
2586	0.000384355
2598	0.000614968
2610	0.00076871
2622	0.000691839
2634	0.000614968
2646	0.000384355
2658	0.000384355
2670	0.000538097
2682	0.00115306
2694	0.00161429
2706	0.0018449
2718	0.00261361
2730	0.00345919
2742	0.00384355
2754	0.00422791
2766	0.00499662
2778	0.00622655
2790	0.00707213
2802	0.0082252
2814	0.0100701
2826	0.0116844
2838	0.0130681
2850	0.0169116
2862	0.0325933
2874	0.0860955
2886	0.120841
2898	0.0944745
2910	0.0962425
2922	0.113154
2934	0.132679
2946	0.226846
2958	0.257979
2970	0.327394
2982	0.582913
2994	0.475985
3006	0.17811
3018	0.0657247
3030	0.0295185
3042	0.0245218
3054	0.0282117
3066	0.0707982
3078	0.0776397
3090	0.0259055
3102	0.0104545
3114	0.0076871
3126	0.00830207
3138	0.011915
3150	0.01253
3162	0.00676465
3174	0.00461226
3186	0.00438165
3198	0.00422791
3210	0.00368981
3222	0.00322858
3234	0.00299797
3246	0.00284423
3258	0.00245987
3270	0.002383
3282	0.00261361
3294	0.00222926
3306	0.00261361
3318	0.00245987
3330	0.00276736
3342	0.00253674
3354	0.00245987
3366	0.00199865
3378	0.002383
3390	0.00192178
3402	0.00207552
3414	0.00169116
3426	0.00276736
3438	0.00269049
3450	0.00338232
3462	0.00415103
3474	0.0053041
3486	0.004766
3498	0.00192178
3510	0
3522	7.6871e-05
3534	0.00115306
3546	0.000999323
3558	0.00130681
3570	0.00161429
3582	0.00215239
3594	0.00169116
3606	0.000614968
3618	0.00153742
3630	0.00261361
3642	0.00230613
3654	0.00222926
3666	0.00276736
3678	0.00261361
3690	0.00269049
3702	0.00269049
3714	0.00261361
3726	0.00345919
3738	0.00415103
3750	0.00399729
3762	0.00445852
3774	0.00399729
3786	0.00345919
3798	0.00322858
3810	0.00353607
3822	0.00399729
3834	0.00322858
3846	0.00422791
3858	0.00338232
3870	0.00338232
3882	0.00368981
3894	0.00399729
3906	0.00353607
3918	0.00284423
3930	0.00315171
3942	0.00407416
3954	0.00392042
3966	0.00461226
