Infrared Spectrum: 1,2-Cyclohexanedicarboxylic acid, diethyl ester
Formula: C 12 H 20 O 4
CAS: 10138-59-7
Origin: Sadtler Research Labs Under US-EPA Contract
1/CM	ABSORBANCE
450	0.0615458
462	0.0252886
474	0
486	0.0155388
498	0.0146247
510	0.0210231
522	0.0251363
534	0.0150818
546	0.0310776
558	0.0170622
570	0.00959748
582	0.0163005
594	0.0127966
606	0.0193473
618	0.0123396
630	0.0144724
642	0.0237652
654	0.0194996
666	0.0208707
678	0.0175192
690	0.0202614
702	0.0210231
714	0.0211754
726	0.0188903
738	0.0262027
750	0.033058
762	0.0426555
774	0.0324486
786	0.0303159
798	0.0249839
810	0.0217848
822	0.0208707
834	0.0312299
846	0.0396087
858	0.0623075
870	0.0578896
882	0.0394563
894	0.0405227
906	0.0322963
918	0.0278784
930	0.0347337
942	0.0365618
954	0.0329057
966	0.0257456
978	0.0254409
990	0.0338197
1002	0.0571279
1014	0.106486
1026	0.230035
1038	0.414063
1050	0.392583
1062	0.178239
1074	0.15097
1086	0.148532
1098	0.212516
1110	0.230644
1122	0.272386
1134	0.313822
1146	0.354802
1158	0.636024
1170	1.02297
1182	1.01566
1194	0.77115
1206	0.576001
1218	0.493128
1230	0.482312
1242	0.530756
1254	0.528623
1266	0.285944
1278	0.181743
1290	0.188598
1302	0.257304
1314	0.269491
1326	0.186922
1338	0.130252
1350	0.113037
1362	0.110143
1374	0.209469
1386	0.163614
1398	0.0970412
1410	0.0734284
1422	0.0583466
1434	0.0644402
1446	0.120045
1458	0.176259
1470	0.124463
1482	0.0769322
1494	0.0371712
1506	0.0176716
1518	0.0114256
1530	0.0111209
1542	0.00457023
1554	0.012949
1566	0.0144724
1578	0.0131013
1590	0.0153864
1602	0.0169099
1614	0.0147771
1626	0.012949
1638	0.0120349
1650	0.00914046
1662	0.020109
1674	0.0179762
1686	0.0257456
1698	0.0449406
1710	0.0897288
1722	0.162243
1734	0.409645
1746	1.18628
1758	1.07111
1770	0.326314
1782	0.106334
1794	0.0516436
1806	0.0415891
1818	0.0319916
1830	0.0184333
1842	0.0144724
1854	0.0149294
1866	0.0115779
1878	0.0143201
1890	0.012949
1902	0.0135583
1914	0.0106639
1926	0.00944514
1938	0.00914046
1950	0.00898812
1962	0.00883578
1974	0.0085311
1986	0.00807407
1998	0.00837875
2010	0.00898812
2022	0.0092928
2034	0.0102068
2046	0.0100545
2058	0.0092928
2070	0.00868344
2082	0.0085311
2094	0.00746471
2106	0.006703
2118	0.00609364
2130	0.00517959
2142	0.00487491
2154	0.00411321
2166	0.00441789
2178	0.00411321
2190	0.00396087
2202	0.00396087
2214	0.00380853
2226	0.00365618
2238	0.00365618
2250	0.00365618
2262	0.00365618
2274	0.0033515
2286	0.00365618
2298	0.00350384
2310	0.00380853
2322	0.0033515
2334	0.00182809
2346	0.00304682
2358	0.00182809
2370	0.00274214
2382	0.00365618
2394	0.00289448
2406	0.0025898
2418	0.0025898
2430	0.00152341
2442	0.000914046
2454	0.000457023
2466	0.000914046
2478	0.000609364
2490	0.00121873
2502	0.000761705
2514	0.000609364
2526	0.000457023
2538	0.000609364
2550	0.000914046
2562	0.000914046
2574	0.00167575
2586	0.00167575
2598	0.00213277
2610	0.00198043
2622	0.00228512
2634	0.00243746
2646	0.00304682
2658	0.00563662
2670	0.00776939
2682	0.00685535
2694	0.00517959
2706	0.00411321
2718	0.00426555
2730	0.00517959
2742	0.00502725
2754	0.00578896
2766	0.00685535
2778	0.0092928
2790	0.0117303
2802	0.0135583
2814	0.0159958
2826	0.0194996
2838	0.0251363
2850	0.0496632
2862	0.19652
2874	0.244507
2886	0.147923
2898	0.122177
2910	0.166204
2922	0.224703
2934	0.453367
2946	0.779986
2958	0.457785
2970	0.308795
2982	0.322049
2994	0.274518
3006	0.143201
3018	0.0726667
3030	0.038847
3042	0.0240699
3054	0.0175192
3066	0.0135583
3078	0.0118826
3090	0.0102068
3102	0.00959748
3114	0.00898812
3126	0.00776939
3138	0.00746471
3150	0.00578896
3162	0.00517959
3174	0.00563662
3186	0.00502725
3198	0.00472257
3210	0.00411321
3222	0.00396087
3234	0.00380853
3246	0.00350384
3258	0.00319916
3270	0.00289448
3282	0.00243746
3294	0.00289448
3306	0.00228512
3318	0.0033515
3330	0.00274214
3342	0.00228512
3354	0.00365618
3366	0.00365618
3378	0.00274214
3390	0.00441789
3402	0.00380853
3414	0.00304682
3426	0.00350384
3438	0.00548428
3450	0.00624598
3462	0.00868344
3474	0.0135583
3486	0.0111209
3498	0.00868344
3510	0.00350384
3522	0.00289448
3534	0.0033515
3546	0.00426555
3558	0.00380853
3570	0.00426555
3582	0.00411321
3594	0.00167575
3606	0.00396087
3618	0.00304682
3630	0.00213277
3642	0.00350384
3654	0.00137107
3666	0.00380853
3678	0.00228512
3690	0.000914046
3702	0.00578896
3714	0.00365618
3726	0.00319916
3738	0.0033515
3750	0.000914046
3762	0.00319916
3774	0.00365618
3786	0.00396087
3798	0.00517959
3810	0.00639832
3822	0.00213277
3834	0.00441789
3846	0.00472257
3858	0.00411321
3870	0.00350384
3882	0.00411321
3894	0.00380853
3906	0.00213277
3918	0.00502725
3930	0.00487491
3942	0.00563662
3954	0.00655066
3966	0.00319916
