Infrared Spectrum: Benzo[b]thiophene, 4-nitro-
Formula: C 8 H 5 N O 2 S
CAS: 10133-34-3
Origin: Sadtler Research Labs Under US-EPA Contract
1/CM	ABSORBANCE
450	0.0241912
462	0.00752099
474	0.00597027
486	0.0198492
498	0.013026
510	0.00434202
522	0.00721085
534	0.00534998
546	0.0170579
558	0.0214775
570	0.0058152
582	0.00783114
594	0.0141891
606	0.00899418
618	0.00217101
630	0.00403187
642	0.00558259
654	0.00620288
666	0.00224854
678	0.0262072
690	0.112582
702	0.0575317
714	0.0167478
726	0.0315572
738	0.104984
750	0.389308
762	0.321774
774	0.0614085
786	0.0356666
798	0.183528
810	0.207331
822	0.0124833
834	0.0077536
846	0.0110101
858	0.0742795
870	0.108085
882	0.0216325
894	0.0638121
906	0.0564462
918	0.0131036
930	0.00441955
942	0.0038768
954	0.00566013
966	0.00736592
978	0.00542752
990	0.00488477
1002	0.00597027
1014	0.00767606
1026	0.00651302
1038	0.0049623
1050	0.00976954
1062	0.0320224
1074	0.0286108
1086	0.0262072
1098	0.0220978
1110	0.0288434
1122	0.0596252
1134	0.0412492
1146	0.0125608
1158	0.0195391
1170	0.0189963
1182	0.0146543
1194	0.0448933
1206	0.115529
1218	0.0657505
1230	0.0220978
1242	0.0151195
1254	0.0236485
1266	0.0245014
1278	0.0241912
1290	0.0296188
1302	0.0858324
1314	0.328055
1326	0.213534
1338	0.285875
1350	0.762179
1362	0.389386
1374	0.0600904
1386	0.0251217
1398	0.0232608
1410	0.0396209
1422	0.0366745
1434	0.0308593
1446	0.0486926
1458	0.0366745
1470	0.0298514
1482	0.0815679
1494	0.152048
1506	0.122507
1518	0.141736
1530	0.369537
1542	0.720697
1554	0.43048
1566	0.215085
1578	0.139022
1590	0.100177
1602	0.0841266
1614	0.0521042
1626	0.0209347
1638	0.0243463
1650	0.0255869
1662	0.0127159
1674	0.0088391
1686	0.00798621
1698	0.00953693
1710	0.0137239
1722	0.0110101
1734	0.00697824
1746	0.00713331
1758	0.00697824
1770	0.00806374
1782	0.00914925
1794	0.009692
1806	0.00721085
1818	0.00604781
1830	0.00395434
1842	0.00209347
1854	0.00333405
1866	0.00845142
1878	0.00736592
1890	0.00271376
1902	0.00325651
1914	0.00674563
1926	0.0105449
1938	0.00589274
1950	0.00124058
1962	0.000697824
1974	0.00038768
1986	0.000620288
1998	0.000930432
2010	0.00147318
2022	0.000930432
2034	0.000232608
2046	0.000232608
2058	0.00038768
2070	0.000930432
2082	0.00077536
2094	0.00077536
2106	0.000852896
2118	0.000465216
2130	0.000155072
2142	0
2154	0.000232608
2166	0.000930432
2178	0.00240362
2190	0.00186086
2202	0.000697824
2214	0.00147318
2226	0.00116304
2238	0.00147318
2250	0.00178333
2262	0.00155072
2274	0.0019384
2286	0.00232608
2298	0.00356666
2310	0.00372173
2322	0.00379926
2334	0.00325651
2346	0.00341158
2358	0.00232608
2370	0.00162826
2382	0.00209347
2394	0.00131811
2406	0.00255869
2418	0.00271376
2430	0.00271376
2442	0.00333405
2454	0.00310144
2466	0.00333405
2478	0.00356666
2490	0.00232608
2502	0.00178333
2514	0.00224854
2526	0.00232608
2538	0.00232608
2550	0.00209347
2562	0.00186086
2574	0.00147318
2586	0.00139565
2598	0.00147318
2610	0.00178333
2622	0.00217101
2634	0.00271376
2646	0.00255869
2658	0.00255869
2670	0.0027913
2682	0.00434202
2694	0.00488477
2706	0.00341158
2718	0.00232608
2730	0.00286883
2742	0.00317898
2754	0.00325651
2766	0.00348912
2778	0.0030239
2790	0.00317898
2802	0.00410941
2814	0.00426448
2826	0.00441955
2838	0.0066681
2850	0.00945939
2862	0.0138789
2874	0.0172905
2886	0.0172905
2898	0.0144217
2910	0.0123282
2922	0.009692
2934	0.0100021
2946	0.0077536
2958	0.00597027
2970	0.00604781
2982	0.0047297
2994	0.00488477
3006	0.00441955
3018	0.00480723
3030	0.00728838
3042	0.00752099
3054	0.00628042
3066	0.0153521
3078	0.0371397
3090	0.0289985
3102	0.0166702
3114	0.0143442
3126	0.00659056
3138	0.0100021
3150	0.0047297
3162	0.00317898
3174	0.00232608
3186	0.00178333
3198	0.00162826
3210	0.00186086
3222	0.00131811
3234	0.00131811
3246	0.00147318
3258	0.00124058
3270	0.0010855
3282	0.00139565
3294	0.0010855
3306	0.000930432
3318	0.00139565
3330	0.00139565
3342	0.00186086
3354	0.00131811
3366	0.00139565
3378	0.0019384
3390	0.00116304
3402	0.00170579
3414	0.000852896
3426	0.00131811
3438	0.00131811
3450	0.00116304
3462	0.00186086
3474	0.00147318
3486	0.00116304
3498	0.00116304
3510	0.00201594
3522	0.00131811
3534	0.00131811
3546	0.00139565
3558	0.00077536
3570	0.0019384
3582	0.00139565
3594	0.00147318
3606	0.00139565
3618	0.00224854
3630	0.00170579
3642	0.00131811
3654	0.00224854
3666	0.00255869
3678	0.0030239
3690	0.00155072
3702	0.000852896
3714	0.0019384
3726	0.00124058
3738	0.00124058
3750	0.00162826
3762	0.00209347
3774	0.00224854
3786	0.0030239
3798	0.00248115
3810	0.00139565
3822	0.00240362
3834	0.00255869
3846	0.00139565
3858	0.00147318
3870	0.0019384
3882	0.00155072
3894	0.00248115
3906	0.00224854
3918	0.00186086
3930	0.0019384
3942	0.00201594
3954	0.00131811
3966	0.00286883
