Infrared Spectrum: Carbamic acid, ethylphenyl-, ethyl ester
Formula: C 11 H 15 N O 2
CAS: 1013-75-8
Origin: Sadtler Research Labs Under US-EPA Contract
1/CM	ABSORBANCE
450	0.00153588
462	0.00143349
474	0.00363492
486	0.000409568
498	0.00199664
510	0.00532438
522	0.00291817
534	0.00209904
546	0.00245741
558	0.000870332
570	0.012799
582	0.0193009
594	0.00721864
606	0.00343013
618	0.0012799
630	0.00327654
642	0.00552917
654	0.0108536
666	0.0111095
678	0.0089081
690	0.0549845
702	0.0424927
714	0.00870332
726	0.00957365
738	0.0113655
750	0.0170483
762	0.0435166
774	0.0369123
786	0.0166899
798	0.0105464
810	0.00921528
822	0.00604113
834	0.00450525
846	0.00368611
858	0.00609232
870	0.00609232
882	0.00409568
894	0.00286698
906	0.00291817
918	0.00327654
930	0.00491482
942	0.0063483
954	0.00435166
966	0.00793538
978	0.0110071
990	0.00982963
1002	0.00936887
1014	0.0196593
1026	0.0537046
1038	0.0787906
1050	0.0623567
1062	0.0418783
1074	0.0429534
1086	0.0434654
1098	0.0400353
1110	0.0300009
1122	0.0476123
1134	0.054063
1146	0.125789
1158	0.179852
1170	0.092204
1182	0.049097
1194	0.0248813
1206	0.0194545
1218	0.0226798
1230	0.0345573
1242	0.0600017
1254	0.10828
1266	0.209392
1278	0.235553
1290	0.237396
1302	0.157428
1314	0.0892858
1326	0.0468955
1338	0.0419295
1350	0.0518615
1362	0.0680395
1374	0.117597
1386	0.159373
1398	0.10659
1410	0.1177
1422	0.0604625
1434	0.0424927
1446	0.0442845
1458	0.0562644
1470	0.0575955
1482	0.0510424
1494	0.086726
1506	0.0805313
1518	0.0168435
1530	0.0142325
1542	0.0150004
1554	0.0121335
1566	0.0102392
1578	0.0137717
1590	0.0385506
1602	0.0545749
1614	0.022475
1626	0.0112119
1638	0.00998322
1650	0.013055
1662	0.0107512
1674	0.0161779
1686	0.0238573
1698	0.0356836
1710	0.0837055
1722	0.368816
1734	0.465935
1746	0.116624
1758	0.0321511
1770	0.0170483
1782	0.0137717
1794	0.0116215
1806	0.00916408
1818	0.00629711
1830	0.0051196
1842	0.00445405
1854	0.00312296
1866	0.00496601
1878	0.00363492
1890	0.00368611
1902	0.00317415
1914	0.00399329
1926	0.00373731
1938	0.0050684
1950	0.00399329
1962	0.00286698
1974	0.00194545
1986	0.00189425
1998	0.00199664
2010	0.00184306
2022	0.0025598
2034	0.00189425
2046	0.00189425
2058	0.0012799
2070	0.00138229
2082	0.00138229
2094	0.00138229
2106	0.0012799
2118	0.0013311
2130	0.0012287
2142	0.0012799
2154	0.00102392
2166	0.00076794
2178	0.00076794
2190	0.000716744
2202	0.000716744
2214	0.000716744
2226	0.00117751
2238	0.00117751
2250	0.00112631
2262	0.00102392
2274	0.000972724
2286	0.00107512
2298	0.000358372
2310	0.00076794
2322	0.0012287
2334	0.00153588
2346	0.000921528
2358	0.00107512
2370	0.0012799
2382	0.00076794
2394	0.000563156
2406	0.00051196
2418	0.000819136
2430	0.000972724
2442	0.00051196
2454	0.00051196
2466	0.000409568
2478	0.000460764
2490	0.00051196
2502	0.00051196
2514	0.00051196
2526	0.00051196
2538	0.00107512
2550	0.000972724
2562	0.000563156
2574	0.00051196
2586	0.00051196
2598	0.000614352
2610	0.00051196
2622	0.00107512
2634	0.000614352
2646	0.000665548
2658	0.000614352
2670	0.000614352
2682	0.00112631
2694	0.00117751
2706	0.00107512
2718	0.00117751
2730	0.0012287
2742	0.00168947
2754	0.00174066
2766	0.00168947
2778	0.00174066
2790	0.00179186
2802	0.00220143
2814	0.00296937
2826	0.00368611
2838	0.00430046
2850	0.00527319
2862	0.00742342
2874	0.0139765
2886	0.0249325
2898	0.0230382
2910	0.0237549
2922	0.0259052
2934	0.0370147
2946	0.0578515
2958	0.0416735
2970	0.054063
2982	0.0899514
2994	0.0734663
3006	0.038653
3018	0.0202224
3030	0.018533
3042	0.0260588
3054	0.0238061
3066	0.0231406
3078	0.0302056
3090	0.0172019
3102	0.0135669
3114	0.00793538
3126	0.00404448
3138	0.00225262
3150	0.00225262
3162	0.00209904
3174	0.00163827
3186	0.0012799
3198	0.00143349
3210	0.00107512
3222	0.000716744
3234	0.00076794
3246	0.000716744
3258	0.00025598
3270	0.00076794
3282	0.000819136
3294	0.000819136
3306	0.000614352
3318	0.000409568
3330	0.000819136
3342	0.00025598
3354	0.00051196
3366	0.000921528
3378	0.000409568
3390	0.000972724
3402	0.000819136
3414	0.00117751
3426	0.00230382
3438	0.00337894
3450	0.00184306
3462	0.00117751
3474	0.000563156
3486	0.00051196
3498	0.00051196
3510	0.00076794
3522	0.00107512
3534	0.000563156
3546	0.000614352
3558	0.000972724
3570	0.000153588
3582	0.000563156
3594	0.000665548
3606	0.000665548
3618	0.00025598
3630	0.000307176
3642	0.000614352
3654	0.000358372
3666	0.000614352
3678	0
3690	0.000409568
3702	0.000307176
3714	0.000409568
3726	0.000716744
3738	0.000307176
3750	0.000614352
3762	0.000307176
3774	0.00025598
3786	0.00051196
3798	0.000358372
3810	0.000409568
3822	0.000460764
3834	0.000460764
3846	0.000358372
3858	0.000460764
3870	0.00051196
3882	0.000563156
3894	0.000409568
3906	0.000614352
3918	0.00051196
3930	0.000972724
3942	0.000921528
3954	0.00153588
3966	0.000972724
