Infrared Spectrum: Heptane, 3,3'-[oxybis(methylene)]bis-
Formula: C 16 H 34 O
CAS: 10143-60-9
Origin: Sadtler Research Labs Under US-EPA Contract
1/CM	ABSORBANCE
450	0.00553641
462	0.00101689
474	0.00480199
486	0.00638382
498	0.00350263
510	0.00084741
522	0.00220327
534	0.00440653
546	0.00689227
558	0.00124287
570	0.00333315
582	0.00491498
594	0.00672279
606	0.00649681
618	0.00435004
630	0.0037286
642	0.00423705
654	0.00547992
666	0.00406757
678	0.00389809
690	0.00485848
702	0.00694876
714	0.0094345
726	0.0116943
738	0.0107339
750	0.00909553
762	0.0142365
774	0.0193774
786	0.0145755
798	0.00915203
810	0.0084741
822	0.00994294
834	0.00841761
846	0.00621434
858	0.00644032
870	0.00932151
882	0.00971697
894	0.0112988
906	0.0120897
918	0.0155923
930	0.0181346
942	0.0176826
954	0.0172872
966	0.0177956
978	0.0201684
990	0.0215807
1002	0.0217502
1014	0.0223151
1026	0.0202813
1038	0.0225411
1050	0.0275126
1062	0.0392068
1074	0.0603921
1086	0.0993729
1098	0.184227
1110	0.204565
1122	0.162816
1134	0.104514
1146	0.079713
1158	0.0684707
1170	0.0372295
1182	0.0191515
1194	0.0158748
1206	0.0171742
1218	0.0162703
1230	0.0160443
1242	0.0201119
1254	0.023671
1266	0.023106
1278	0.0216937
1290	0.0203378
1302	0.0226541
1314	0.0225976
1326	0.0216937
1338	0.0231625
1350	0.0307327
1362	0.0419185
1374	0.0479069
1386	0.0536128
1398	0.0204508
1410	0.0156488
1422	0.014406
1434	0.01853
1446	0.0355912
1458	0.070674
1470	0.0958703
1482	0.0441218
1494	0.018869
1506	0.00881306
1518	0.00706175
1530	0.00728773
1542	0.00480199
1554	0.00502797
1566	0.004689
1578	0.00310717
1590	0.00514095
1602	0.00519745
1614	0.00401107
1626	0.00406757
1638	0.00310717
1650	0.00412406
1662	0.00457601
1674	0.00451952
1686	0.00220327
1698	0.00355912
1710	0.00547992
1722	0.00547992
1734	0.00158183
1746	0.00401107
1758	0.00338964
1770	0.00305068
1782	0.00265522
1794	0.00225976
1806	0.00231625
1818	0.00288119
1830	0.00231625
1842	0.00220327
1854	0.00225976
1866	0.00265522
1878	0.0028247
1890	0.00220327
1902	0.00220327
1914	0.00220327
1926	0.00214677
1938	0.00220327
1950	0.00214677
1962	0.00152534
1974	0.00254223
1986	0.00209028
1998	0.00316366
2010	0.00197729
2022	0.00299418
2034	0.00338964
2046	0.00406757
2058	0.00350263
2070	0.00242924
2082	0.00338964
2094	0.00384159
2106	0.00265522
2118	0.00237275
2130	0.0018643
2142	0.00175131
2154	0.00203378
2166	0.00225976
2178	0.00175131
2190	0.00225976
2202	0.00175131
2214	0.00163833
2226	0.00169482
2238	0.00169482
2250	0.00152534
2262	0.00220327
2274	0.00220327
2286	0.00163833
2298	0.00152534
2310	0.00305068
2322	0.00355912
2334	0.00259872
2346	0.00209028
2358	0.00327665
2370	0.00463251
2382	0.00271171
2394	0.00141235
2406	0.000903904
2418	0.00175131
2430	0.00163833
2442	0.00129936
2454	0.00084741
2466	0.00084741
2478	0.00124287
2490	0.000734422
2502	0.000677928
2514	0.000903904
2526	0.00124287
2538	0.00237275
2550	0.0018643
2562	0.00214677
2574	0.0028247
2586	0.0047455
2598	0.00536693
2610	0.0047455
2622	0.00401107
2634	0.00451952
2646	0.00542342
2658	0.00627083
2670	0.00723123
2682	0.00785267
2694	0.00977346
2706	0.0115248
2718	0.0124852
2730	0.0146884
2742	0.0170047
2754	0.0175696
2766	0.0171177
2778	0.0206768
2790	0.0306197
2802	0.0340094
2814	0.0346308
2826	0.0448562
2838	0.0735552
2850	0.140783
2862	0.28247
2874	0.368115
2886	0.326253
2898	0.22349
2910	0.256822
2922	0.381391
2934	0.505734
2946	0.431332
2958	0.321225
2970	0.56494
2982	0.191571
2994	0.0720298
3006	0.0414666
3018	0.0286425
3030	0.0223151
3042	0.0177391
3054	0.0135021
3066	0.0110163
3078	0.0113553
3090	0.0106774
3102	0.00977346
3114	0.00694876
3126	0.00644032
3138	0.00666629
3150	0.00644032
3162	0.00514095
3174	0.00423705
3186	0.00418056
3198	0.00451952
3210	0.00446303
3222	0.00259872
3234	0.00248574
3246	0.00259872
3258	0.00327665
3270	0.00237275
3282	0.000960398
3294	0.000169482
3306	0.00225976
3318	0.00271171
3330	0.00124287
3342	0.000960398
3354	0.00112988
3366	0.00265522
3378	0.00248574
3390	0.00028247
3402	0
3414	0.00163833
3426	0.00293769
3438	0.00135586
3450	0.000395458
3462	0.000621434
3474	0.00237275
3486	0.00214677
3498	0.000790916
3510	0.000225976
3522	0.000960398
3534	0.00141235
3546	0.000960398
3558	0.000169482
3570	0.000677928
3582	0.00214677
3594	0.00163833
3606	0.00197729
3618	0.00084741
3630	0.000112988
3642	0.00209028
3654	0.00220327
3666	0.00158183
3678	0.000451952
3690	0.00220327
3702	0.00395458
3714	0.00220327
3726	0.00158183
3738	0.00124287
3750	0.00276821
3762	0.0047455
3774	0.00338964
3786	0.0037851
3798	0.00497147
3810	0.00553641
3822	0.00514095
3834	0.00446303
3846	0.00446303
3858	0.00480199
3870	0.00536693
3882	0.00440653
3894	0.00338964
3906	0.00638382
3918	0.00717474
3930	0.00638382
3942	0.00508446
3954	0.00146884
3966	0.00197729
