Infrared Spectrum: Morpholine, 4-(2-benzothiazolylthio)-
Formula: C 11 H 12 N 2 O S 2
CAS: 102-77-2
Origin: Sadtler Research Labs Under US-EPA Contract
1/CM	ABSORBANCE
450	0
462	0.0171863
474	0.0154575
486	0.013627
498	0.0166778
510	0.0182032
522	0.0137287
534	0.0145422
546	0.0150507
558	0.0152541
570	0.0170846
582	0.0207456
594	0.0280675
606	0.0177965
618	0.0195252
630	0.0179998
642	0.0251184
654	0.0455589
666	0.0510504
678	0.0306099
690	0.0361014
702	0.0273557
714	0.0426098
726	0.0760671
738	0.0566436
750	0.139626
762	0.0579656
774	0.0179998
786	0.0134236
798	0.0131185
810	0.0135253
822	0.0189151
834	0.0214574
846	0.0257286
858	0.0461691
870	0.0699655
882	0.0215591
894	0.0206439
906	0.0297963
918	0.0308133
930	0.0352878
942	0.0481013
954	0.0329489
966	0.0187117
978	0.015966
990	0.0185083
1002	0.0294913
1014	0.0868467
1026	0.109728
1038	0.0838976
1050	0.0264404
1062	0.0393556
1074	0.060813
1086	0.0405759
1098	0.0463725
1110	0.11044
1122	0.224947
1134	0.132507
1146	0.0489148
1158	0.0384403
1170	0.0509487
1182	0.0927449
1194	0.0890839
1206	0.0994567
1218	0.159049
1230	0.237455
1242	0.146643
1254	0.121626
1266	0.0942703
1278	0.117151
1290	0.218744
1302	0.0914229
1314	0.0526775
1326	0.0514572
1338	0.0698638
1350	0.0808467
1362	0.0810501
1374	0.106372
1386	0.094372
1398	0.0463725
1410	0.0357963
1422	0.0384403
1434	0.0864399
1446	0.363454
1458	0.189253
1470	0.0632537
1482	0.0433216
1494	0.0463725
1506	0.0655926
1518	0.128541
1530	0.503792
1542	1.01694
1554	0.287692
1566	0.146643
1578	0.0936602
1590	0.11288
1602	0.122541
1614	0.0414912
1626	0.0236947
1638	0.0197286
1650	0.0166778
1662	0.0195252
1674	0.0169829
1686	0.0148473
1698	0.0191185
1710	0.0327455
1722	0.0294913
1734	0.0134236
1746	0.0143389
1758	0.0157626
1770	0.0168812
1782	0.0156609
1794	0.0131185
1806	0.0181015
1818	0.0142372
1830	0.00976262
1842	0.0124067
1854	0.0153558
1866	0.0119999
1878	0.0148473
1890	0.0152541
1902	0.0124067
1914	0.012305
1926	0.0171863
1938	0.0125084
1950	0.0118982
1962	0.0114914
1974	0.0118982
1986	0.012305
1998	0.0115931
2010	0.0114914
2022	0.0117965
2034	0.0144405
2046	0.015966
2058	0.0142372
2070	0.0165761
2082	0.0137287
2094	0.0107796
2106	0.0108813
2118	0.0110846
2130	0.0111863
2142	0.0114914
2154	0.0113897
2166	0.0110846
2178	0.0108813
2190	0.0113897
2202	0.0114914
2214	0.0108813
2226	0.0115931
2238	0.012305
2250	0.0115931
2262	0.010983
2274	0.011288
2286	0.012305
2298	0.0128134
2310	0.0137287
2322	0.0125084
2334	0.0105762
2346	0.0118982
2358	0.0116948
2370	0.0107796
2382	0.0128134
2394	0.0113897
2406	0.0116948
2418	0.0113897
2430	0.0113897
2442	0.0116948
2454	0.012305
2466	0.0128134
2478	0.0124067
2490	0.0119999
2502	0.0117965
2514	0.0115931
2526	0.011288
2538	0.0116948
2550	0.0117965
2562	0.0127118
2574	0.0138304
2586	0.0134236
2598	0.0139321
2610	0.0138304
2622	0.0132202
2634	0.0131185
2646	0.0137287
2658	0.0151524
2670	0.0155592
2682	0.0174914
2694	0.0184066
2706	0.0190168
2718	0.0206439
2730	0.0214574
2742	0.021254
2754	0.0219659
2766	0.0229828
2778	0.0214574
2790	0.0201354
2802	0.0233896
2814	0.0290845
2826	0.0382369
2838	0.0575588
2850	0.0965076
2862	0.168304
2874	0.11644
2886	0.0722027
2898	0.0723044
2910	0.0843043
2922	0.091728
2934	0.0764739
2946	0.0574571
2958	0.0697621
2970	0.150507
2982	0.151422
2994	0.0490165
3006	0.0266438
3018	0.0208473
3030	0.021254
3042	0.024915
3054	0.0258303
3066	0.0497284
3078	0.0699655
3090	0.0349827
3102	0.0181015
3114	0.0158643
3126	0.0161693
3138	0.0147456
3150	0.0132202
3162	0.0124067
3174	0.0124067
3186	0.012305
3198	0.0125084
3210	0.0127118
3222	0.0127118
3234	0.012305
3246	0.0129151
3258	0.012305
3270	0.0126101
3282	0.012305
3294	0.0125084
3306	0.0121016
3318	0.0121016
3330	0.0125084
3342	0.012305
3354	0.0122033
3366	0.0121016
3378	0.0122033
3390	0.012305
3402	0.0124067
3414	0.0124067
3426	0.0126101
3438	0.0122033
3450	0.0122033
3462	0.0132202
3474	0.012305
3486	0.0118982
3498	0.0122033
3510	0.0119999
3522	0.0126101
3534	0.0129151
3546	0.0128134
3558	0.0124067
3570	0.0129151
3582	0.0117965
3594	0.0122033
3606	0.0115931
3618	0.0113897
3630	0.0132202
3642	0.0108813
3654	0.0115931
3666	0.0127118
3678	0.0116948
3690	0.0117965
3702	0.0125084
3714	0.012305
3726	0.0128134
3738	0.0121016
3750	0.0124067
3762	0.0113897
3774	0.0126101
3786	0.0122033
3798	0.0113897
3810	0.0119999
3822	0.012305
3834	0.0122033
3846	0.0124067
3858	0.0121016
3870	0.0119999
3882	0.012305
3894	0.0129151
3906	0.0133219
3918	0.0131185
3930	0.0129151
3942	0.0125084
3954	0.0124067
3966	0.0124067
