Infrared Spectrum: 1-Propanamine, N,N-dipropyl-
Formula: C 9 H 21 N
CAS: 102-69-2
Origin: Sadtler Research Labs Under US-EPA Contract
1/CM	ABSORBANCE
450	0.00403418
462	0.00552832
474	0.00276416
486	0.00762011
498	0.0111313
510	0.0123267
522	0.00672363
534	0.00605127
546	0.00702246
558	0.0106084
570	0.0122519
582	0.00522949
594	0.00336182
606	0.00291357
618	0.00814306
630	0.00522949
642	0.00485596
654	0.00343652
666	0.00455713
678	0.00649951
690	0.00687304
702	0.00791894
714	0.00829248
726	0.0108325
738	0.0156885
750	0.0192744
762	0.0157632
774	0.0136714
786	0.00791894
798	0.00649951
810	0.00754541
822	0.0159873
834	0.0230845
846	0.0256245
858	0.0171079
870	0.0195732
882	0.0266704
894	0.0313022
906	0.0194238
918	0.0162114
930	0.0106084
942	0.0106084
954	0.0096372
966	0.0119531
978	0.0111313
990	0.021665
1002	0.0492319
1014	0.0616333
1026	0.0490825
1038	0.0356352
1050	0.0367558
1062	0.0702246
1074	0.15173
1086	0.12491
1098	0.0806089
1110	0.0495307
1122	0.0318999
1134	0.0228603
1146	0.0169585
1158	0.0129243
1170	0.0188262
1182	0.0558061
1194	0.106906
1206	0.0434048
1218	0.017332
1230	0.0159873
1242	0.0192744
1254	0.0280151
1266	0.0380259
1278	0.0448989
1290	0.0482607
1302	0.0474389
1314	0.0345893
1326	0.0323481
1338	0.0471401
1350	0.0542373
1362	0.057375
1374	0.0765
1386	0.0923379
1398	0.0467666
1410	0.0212168
1422	0.0181538
1434	0.0231592
1446	0.0416865
1458	0.0898725
1470	0.124014
1482	0.0596162
1494	0.0195732
1506	0.0124014
1518	0.00986132
1530	0.0095625
1542	0.00463183
1554	0.00605127
1566	0.00485596
1578	0.00493066
1590	0.00485596
1602	0.00485596
1614	0.0042583
1626	0.00515478
1638	0.00470654
1650	0.00500537
1662	0.00388476
1674	0.00388476
1686	0.00276416
1698	0.00448242
1710	0.0063501
1722	0.00515478
1734	0.0032124
1746	0.00433301
1758	0.00433301
1770	0.00455713
1782	0.00478125
1794	0.00343652
1806	0.00418359
1818	0.00254004
1830	0.0020918
1842	0.00171826
1854	0.00351123
1866	0.00254004
1878	0.00268945
1890	0.00179297
1902	0.00239062
1914	0.00283887
1926	0.00358594
1938	0.00298828
1950	0.00164355
1962	0.00186768
1974	0.00179297
1986	0.00268945
1998	0.00201709
2010	0.00231592
2022	0.00201709
2034	0.00254004
2046	0.00254004
2058	0.00231592
2070	0.0010459
2082	0.000971191
2094	0.00134473
2106	0.00186768
2118	0.00201709
2130	0.00171826
2142	0.00127002
2154	0.00134473
2166	0.00179297
2178	0.0020918
2190	0.00254004
2202	0.0021665
2214	0.00261474
2226	0.00171826
2238	0.00201709
2250	0.00141943
2262	0.00254004
2274	0.00186768
2286	0.00179297
2298	0.00127002
2310	0.0021665
2322	0.00171826
2334	0.00164355
2346	0.00261474
2358	0.000971191
2370	0.00171826
2382	0.00276416
2394	0.00261474
2406	0.00201709
2418	0.00156885
2430	0.0011206
2442	0.00171826
2454	0.000896484
2466	0.00127002
2478	0.00119531
2490	0.00186768
2502	0.00141943
2514	0.00179297
2526	0.00186768
2538	0.00381006
2550	0.0053789
2562	0.00605127
2574	0.00545361
2586	0.00627539
2598	0.00836718
2610	0.0100854
2622	0.0112808
2634	0.0127749
2646	0.014792
2658	0.0174067
2670	0.0224121
2682	0.0230845
2694	0.0249521
2706	0.0323481
2718	0.0475884
2730	0.0600644
2742	0.0702246
2754	0.0707475
2766	0.0822524
2778	0.10698
2790	0.155092
2802	0.248102
2814	0.236821
2826	0.149563
2838	0.0988374
2850	0.0853901
2862	0.114078
2874	0.227483
2886	0.319372
2898	0.224868
2910	0.229276
2922	0.272008
2934	0.378466
2946	0.505318
2958	0.514059
2970	0.74707
2982	0.366587
2994	0.110268
3006	0.0546108
3018	0.0410141
3030	0.0324228
3042	0.0246533
3054	0.018602
3066	0.0147173
3078	0.0132231
3090	0.0107578
3102	0.0103843
3114	0.00896484
3126	0.00993603
3138	0.00874072
3150	0.00859131
3162	0.00664892
3174	0.00881543
3186	0.00709716
3198	0.00612597
3210	0.00410889
3222	0.00373535
3234	0.00366064
3246	0.00381006
3258	0.00283887
3270	0.00276416
3282	0.00343652
3294	0.00366064
3306	0.00388476
3318	0.00224121
3330	0.00261474
3342	0.00201709
3354	0.00433301
3366	0.00336182
3378	0.00239062
3390	0.00134473
3402	0.00313769
3414	0.00366064
3426	0.00403418
3438	0.0020918
3450	0.00141943
3462	0.00186768
3474	0.00366064
3486	0.00410889
3498	0.0011206
3510	0.00171826
3522	0.00156885
3534	0.00388476
3546	0.00328711
3558	0.00328711
3570	0.0010459
3582	0.00313769
3594	0.00254004
3606	0.00448242
3618	0.00194238
3630	0.00261474
3642	0.0032124
3654	0.00440771
3666	0.00403418
3678	0.00381006
3690	0.00440771
3702	0.00395947
3714	0.00373535
3726	0.00418359
3738	0.00455713
3750	0.00388476
3762	0.00590185
3774	0.00440771
3786	0.00597656
3798	0.00575244
3810	0.00664892
3822	0.00575244
3834	0.00590185
3846	0.00515478
3858	0.00567773
3870	0.0064248
3882	0.00657422
3894	0.00605127
3906	0.00515478
3918	0.00717187
3930	0.00575244
3942	0.00724658
3954	0.00194238
3966	0.00254004
