Infrared Spectrum: (Hydroxymethyl)ethylene acetate
Formula: C 7 H 12 O 5
CAS: 102-62-5
Origin: Sadtler Research Labs Under US-EPA Contract
1/CM	ABSORBANCE
450	0.0206043
462	0.0069258
474	0.0211237
486	0.0225089
498	0.0308198
510	0.0174876
522	0.00536749
534	0.0219894
546	0.0167951
558	0.0410354
570	0.0166219
582	0.0174876
594	0.0332438
606	0.0567916
618	0.0462297
630	0.0290884
642	0.0384382
654	0.0306467
666	0.0261449
678	0.0200848
690	0.0193922
702	0.00969612
714	0.0100424
726	0.0069258
738	0.00969612
750	0.00225089
762	0.0105618
774	0.00917669
786	0.0178339
798	0.00986927
810	0.0275301
822	0.030993
834	0.0408622
846	0.0481343
858	0.0574841
870	0.0541944
882	0.0493463
894	0.0493463
906	0.0479612
918	0.0496926
930	0.0550601
942	0.0652757
954	0.0805124
966	0.0815513
978	0.0791273
990	0.0876114
1002	0.111852
1014	0.174357
1026	0.251926
1038	0.34906
1050	0.455718
1062	0.399965
1074	0.290537
1086	0.220587
1098	0.191325
1110	0.161371
1122	0.112717
1134	0.0794736
1146	0.0631979
1158	0.0623322
1170	0.0848411
1182	0.144057
1194	0.290191
1206	0.695697
1218	1.64228
1230	1.34759
1242	0.789714
1254	0.461778
1266	0.282226
1278	0.189074
1290	0.124838
1302	0.0841485
1314	0.0697774
1326	0.0621591
1338	0.0633711
1350	0.0820707
1362	0.178166
1374	0.371915
1386	0.263873
1398	0.144403
1410	0.0905548
1422	0.0671803
1434	0.0649294
1446	0.0722015
1458	0.0739329
1470	0.0614665
1482	0.0403428
1494	0.0271838
1506	0.0223357
1518	0.0195654
1530	0.0181802
1542	0.0148905
1554	0.0138516
1566	0.0126396
1578	0.0114276
1590	0.0103887
1602	0.0103887
1614	0.00969612
1626	0.0103887
1638	0.0126396
1650	0.0124664
1662	0.0145442
1674	0.0140247
1686	0.0166219
1698	0.0244134
1710	0.0436325
1722	0.0786078
1734	0.141633
1746	0.278071
1758	0.621764
1770	1.18362
1782	0.529997
1794	0.187343
1806	0.0915937
1818	0.0515972
1830	0.0313392
1842	0.0200848
1854	0.0136785
1866	0.0110813
1878	0.0103887
1890	0.00934983
1902	0.00813781
1914	0.0069258
1926	0.00588693
1938	0.00536749
1950	0.0050212
1962	0.00484806
1974	0.00398234
1986	0.00380919
1998	0.00398234
2010	0.00536749
2022	0.00657951
2034	0.00744524
2046	0.00761838
2058	0.00779153
2070	0.00761838
2082	0.00779153
2094	0.00779153
2106	0.00675266
2118	0.00588693
2130	0.00484806
2142	0.00398234
2154	0.00311661
2166	0.00242403
2178	0.00225089
2190	0.0019046
2202	0.0019046
2214	0.0019046
2226	0.00121202
2238	0.0019046
2250	0.00121202
2262	0.00155831
2274	0.00138516
2286	0.00103887
2298	0.000865725
2310	0.00069258
2322	0.00121202
2334	0.00207774
2346	0.00207774
2358	0.00173145
2370	0.00259718
2382	0.00155831
2394	0.00121202
2406	0.00138516
2418	0.0019046
2430	0.00207774
2442	0.00242403
2454	0.00294347
2466	0.00259718
2478	0.00155831
2490	0.00155831
2502	0.00103887
2514	0.000519435
2526	0
2538	0.000173145
2550	0
2562	0.000173145
2574	0.000865725
2586	0.00173145
2598	0.00121202
2610	0.00155831
2622	0.00069258
2634	0.00103887
2646	0.00121202
2658	0.00121202
2670	0.00155831
2682	0.00138516
2694	0.00242403
2706	0.00242403
2718	0.00311661
2730	0.00415548
2742	0.00415548
2754	0.00450177
2766	0.0050212
2778	0.00519435
2790	0.00519435
2802	0.00571379
2814	0.00709895
2826	0.00796467
2838	0.0100424
2850	0.0138516
2862	0.0200848
2874	0.0311661
2886	0.0464029
2898	0.0543675
2910	0.0510778
2922	0.0493463
2934	0.0600813
2946	0.0881308
2958	0.120336
2970	0.105792
2982	0.068046
2994	0.0491732
3006	0.0337633
3018	0.0206043
3030	0.0181802
3042	0.0150636
3054	0.0128127
3066	0.0110813
3078	0.0100424
3090	0.00813781
3102	0.00571379
3114	0.00380919
3126	0.00311661
3138	0.00294347
3150	0.00242403
3162	0.000865725
3174	0.00034629
3186	0.000865725
3198	0.000865725
3210	0.000519435
3222	0.00069258
3234	0.000865725
3246	0.00069258
3258	0.000865725
3270	0.000173145
3282	0.00069258
3294	0
3306	0.000173145
3318	0.000519435
3330	0.00069258
3342	0.00103887
3354	0.000173145
3366	0.00155831
3378	0.00138516
3390	0.00155831
3402	0.00155831
3414	0.00069258
3426	0.00155831
3438	0.00225089
3450	0.0019046
3462	0.00380919
3474	0.00398234
3486	0.00675266
3498	0.0102156
3510	0.0162756
3522	0.0206043
3534	0.0195654
3546	0.0199117
3558	0.0204311
3570	0.0228551
3582	0.0228551
3594	0.0232014
3606	0.0247597
3618	0.0282226
3630	0.0316855
3642	0.0328976
3654	0.0339364
3666	0.0244134
3678	0.0192191
3690	0.0117739
3702	0.00727209
3714	0.0034629
3726	0.00138516
3738	0.0019046
3750	0.00121202
3762	0.00069258
3774	0.00277032
3786	0.000865725
3798	0.000519435
3810	0.00294347
3822	0.00225089
3834	0.0019046
3846	0.00138516
3858	0.00155831
3870	0.00311661
3882	0.00415548
3894	0.00554064
3906	0.00363605
3918	0.0019046
3930	0.00363605
3942	0.0050212
3954	0.00623322
3966	0.00155831
