Infrared Spectrum: 1,2-Ethanediamine, N,N'-dimethyl-N,N'-bis(phenylmethyl)-
Formula: C 18 H 24 N 2
CAS: 102-18-1
Origin: Sadtler Research Labs Under US-EPA Contract
1/CM	ABSORBANCE
450	0.113064
462	0.0751217
474	0.0699611
486	0.073421
498	0.0411674
510	0.0250992
522	0.0382939
534	0.0125496
546	0.0258029
558	0.0318431
570	0.0104385
582	0.0299666
594	0.0274449
606	0.0453897
618	0.0411674
630	0.0075063
642	0.00733038
654	0.0227535
666	0.0564732
678	0.0673808
690	0.246652
702	0.314385
714	0.14995
726	0.288699
738	0.3803
750	0.150419
762	0.0523096
774	0.0361827
786	0.0484978
798	0.0333092
810	0.0362414
822	0.0409328
834	0.0355377
846	0.03976
858	0.0398186
870	0.0289696
882	0.0289696
894	0.0390562
906	0.0686123
918	0.0473249
930	0.0449792
942	0.043044
954	0.0495533
966	0.0687882
978	0.0752976
990	0.0596399
1002	0.0780538
1014	0.200442
1026	0.37555
1038	0.215865
1050	0.125203
1062	0.0942979
1074	0.0989307
1086	0.0554763
1098	0.0601091
1110	0.102977
1122	0.146783
1134	0.113826
1146	0.0806928
1158	0.0803996
1170	0.0743593
1182	0.0774088
1194	0.0762945
1206	0.068671
1218	0.0560041
1230	0.044686
1242	0.0653283
1254	0.074418
1266	0.0743007
1278	0.0867916
1290	0.0981684
1302	0.0933597
1314	0.0945912
1326	0.104854
1338	0.112125
1350	0.156929
1362	0.198448
1374	0.135172
1386	0.0600504
1398	0.0365346
1410	0.0374142
1422	0.0542448
1434	0.0780538
1446	0.163379
1458	0.231464
1470	0.132709
1482	0.0767637
1494	0.151651
1506	0.0504916
1518	0.0184139
1530	0.0154818
1542	0.0127255
1554	0.0126669
1566	0.017417
1578	0.0221084
1590	0.0376488
1602	0.0588776
1614	0.030553
1626	0.013136
1638	0.0102625
1650	0.0284419
1662	0.0170065
1674	0.01642
1686	0.00832731
1698	0.0167719
1710	0.031374
1722	0.0178861
1734	0.018883
1746	0.0123737
1758	0.0129601
1770	0.0104971
1782	0.0117872
1794	0.0194108
1806	0.0226362
1818	0.0112595
1830	0.00275622
1842	0.0117872
1854	0.0096761
1866	0.0164787
1878	0.0194695
1890	0.0104971
1902	0.00873781
1914	0.00615751
1926	0.00979338
1938	0.0228121
1950	0.0242196
1962	0.0109076
1974	0.00791681
1986	0.00703716
1998	0.00281486
2010	0.00592294
2022	0.00375315
2034	0.00609887
2046	0.0042223
2058	0.0046328
2070	0.00492601
2082	0.00516058
2094	0.00269758
2106	0.00398772
2118	0.00533651
2130	0.00234572
2142	0.00574701
2154	0.00351858
2166	0.00457415
2178	0.00392908
2190	0.00263894
2202	0.00510194
2214	0.00410501
2226	0.00410501
2238	0.00287351
2250	0.00615751
2262	0.00363587
2274	0.00568837
2286	0.00557108
2298	0.00275622
2310	0.0096761
2322	0.00252165
2334	0.00410501
2346	0.000938288
2358	0.000175929
2370	0.000175929
2382	0.00205251
2394	0.00645073
2406	0.00369451
2418	0.00686123
2430	0
2442	0.00533651
2454	0.00281486
2466	0.00498466
2478	0.00826866
2490	0.00416365
2502	0.00674395
2514	0.00451551
2526	0.00856188
2538	0.00785816
2550	0.0075063
2562	0.00774088
2574	0.0113181
2586	0.0135465
2598	0.0129601
2610	0.0167133
2622	0.0153058
2634	0.0194108
2646	0.0233399
2658	0.0255683
2670	0.033837
2682	0.0411087
2694	0.0547726
2706	0.0701957
2718	0.071955
2730	0.0720722
2742	0.0913658
2754	0.129015
2766	0.239967
2778	0.39801
2790	0.566609
2802	0.502864
2814	0.364584
2826	0.287527
2838	0.269641
2850	0.273276
2862	0.172352
2874	0.151768
2886	0.177512
2898	0.17417
2910	0.186074
2922	0.216569
2934	0.269699
2946	0.309987
2958	0.279199
2970	0.192818
2982	0.203315
2994	0.117169
3006	0.0708407
3018	0.105381
3030	0.247473
3042	0.225424
3054	0.138222
3066	0.269054
3078	0.259964
3090	0.157222
3102	0.0860293
3114	0.0473249
3126	0.0224603
3138	0.0181793
3150	0.01167
3162	0.0137225
3174	0.0126669
3186	0.00615751
3198	0.00844459
3210	0.00885509
3222	0.00645073
3234	0.00592294
3246	0.00574701
3258	0.00762359
3270	0.0118459
3282	0.0075063
3294	0.00357722
3306	0.00867916
3318	0.00645073
3330	0.00703716
3342	0.00844459
3354	0.0046328
3366	0.00779952
3378	0.00674395
3390	0.00416365
3402	0.00838595
3414	0.00234572
3426	0.00299079
3438	0.00604023
3450	0.00785816
3462	0.00363587
3474	0.00533651
3486	0.0042223
3498	0.00469144
3510	0.0107903
3522	0.00392908
3534	0.00768223
3546	0.00850323
3558	0.00416365
3570	0.00727173
3582	0.00615751
3594	0.00521923
3606	0.00445687
3618	0.00486737
3630	0.00439823
3642	0.00955881
3654	0.00604023
3666	0.00691987
3678	0.00733038
3690	0.00539516
3702	0.00680259
3714	0.00398772
3726	0.00129015
3738	0.00621616
3750	0.00328401
3762	0.00557108
3774	0.00680259
3786	0.00216979
3798	0.00428094
3810	0.00568837
3822	0.00170065
3834	0.00263894
3846	0.00111422
3858	0.000469144
3870	0.00498466
3882	0.00457415
3894	0.00117286
3906	0.0062748
3918	0.00293215
3930	0.00275622
3942	0.00691987
3954	0.000175929
3966	0.000175929
