Infrared Spectrum: Acetic acid, phenyl-, isopentyl ester
Formula: C 13 H 18 O 2
CAS: 102-19-2
Origin: Sadtler Research Labs Under US-EPA Contract
1/CM	ABSORBANCE
450	0.0291889
462	0.00376024
474	0.0113747
486	0.00493532
498	0.00324321
510	0.00258516
522	0.0063454
534	0.0128788
546	0.00390125
558	0.00831953
570	0.00498232
582	0.00540534
594	0.0062984
606	0.00568736
618	0.00709745
630	0.0131138
642	0.0121268
654	0.00803751
666	0.00686244
678	0.015605
690	0.0546175
702	0.0825373
714	0.0953691
726	0.0610099
738	0.0271207
750	0.0179551
762	0.0128318
774	0.00559336
786	0.0031962
798	0.00286718
810	0.0047473
822	0.00568736
834	0.00361923
846	0.00338422
858	0.0046533
870	0.00423027
882	0.00592238
894	0.00737947
906	0.00878956
918	0.0119858
930	0.0113747
942	0.0133018
954	0.0180021
966	0.031915
978	0.0561686
990	0.0574847
1002	0.0711155
1014	0.046439
1026	0.0402816
1038	0.0445118
1050	0.0599288
1062	0.0453109
1074	0.0343592
1086	0.0252406
1098	0.0340772
1110	0.0564506
1122	0.108107
1134	0.233934
1146	0.305472
1158	0.236049
1170	0.141479
1182	0.0906218
1194	0.0729957
1206	0.0773669
1218	0.111726
1230	0.175368
1242	0.264768
1254	0.269421
1266	0.174334
1278	0.119341
1290	0.103642
1302	0.0858275
1314	0.077649
1326	0.0733717
1338	0.0735127
1350	0.0608689
1362	0.0413156
1374	0.0455929
1386	0.047426
1398	0.0329491
1410	0.0146649
1422	0.0196003
1434	0.0342652
1446	0.0361453
1458	0.0561686
1470	0.0598818
1482	0.0358633
1494	0.0439478
1506	0.0350172
1518	0.0062984
1530	0.00427727
1542	0.0047003
1554	0.00413626
1566	0.00305519
1578	0.00521733
1590	0.00864855
1602	0.0174851
1614	0.015323
1626	0.00549935
1638	0.00385425
1650	0.00690944
1662	0.00423027
1674	0.00653342
1686	0.00911858
1698	0.0121738
1710	0.0254756
1722	0.0414566
1734	0.077931
1746	0.292829
1758	0.453767
1770	0.182278
1782	0.0668853
1794	0.0370384
1806	0.0206343
1818	0.00878956
1830	0.00676843
1842	0.00498232
1854	0.00371324
1866	0.00564036
1878	0.00446528
1890	0.00324321
1902	0.00258516
1914	0.00192712
1926	0.00329021
1938	0.00606339
1950	0.00582837
1962	0.00526434
1974	0.00225614
1986	0.00122208
1998	0.0015511
2010	0.00178611
2022	0.00169211
2034	0.00216214
2046	0.00197413
2058	0.00183312
2070	0.00202113
2082	0.00126908
2094	0.00108107
2106	0.00117507
2118	0.000799051
2130	0.000564036
2142	0.00047003
2154	0.000376024
2166	0.000658042
2178	9.4006e-05
2190	4.7003e-05
2202	0.000658042
2214	0.000517033
2226	0.000517033
2238	0.000611039
2250	0.000517033
2262	0.00103407
2274	0.00094006
2286	0.000846054
2298	0.000752048
2310	0.00047003
2322	0.000235015
2334	0.00047003
2346	0.000282018
2358	0.000141009
2370	0.00112807
2382	0.00112807
2394	0.00183312
2406	0.00136309
2418	0.00169211
2430	0.00136309
2442	0.00126908
2454	0.00094006
2466	0.00108107
2478	0.00131608
2490	0.0015041
2502	0.00178611
2514	0.0015981
2526	0.00169211
2538	0.00145709
2550	0.00169211
2562	0.00136309
2574	0.00136309
2586	0.00169211
2598	0.00225614
2610	0.00244416
2622	0.00225614
2634	0.00277318
2646	0.00216214
2658	0.00272617
2670	0.00258516
2682	0.00267917
2694	0.00324321
2706	0.00390125
2718	0.00432428
2730	0.0062514
2742	0.00592238
2754	0.00526434
2766	0.00512333
2778	0.00545235
2790	0.00564036
2802	0.00681543
2814	0.00799051
2826	0.0107167
2838	0.0149
2850	0.0242535
2862	0.031022
2874	0.063407
2886	0.0966382
2898	0.0835713
2910	0.102843
2922	0.124605
2934	0.14867
2946	0.160186
2958	0.204369
2970	0.331559
2982	0.148811
2994	0.062655
3006	0.0299879
3018	0.0232195
3030	0.0400466
3042	0.0686244
3054	0.0341712
3066	0.0402816
3078	0.0610099
3090	0.0340302
3102	0.0242065
3114	0.0145709
3126	0.0078965
3138	0.00437128
3150	0.00371324
3162	0.00437128
3174	0.0046533
3186	0.00399525
3198	0.00324321
3210	0.00263217
3222	0.00178611
3234	0.00173911
3246	0.0015511
3258	0.00131608
3270	0.00112807
3282	0.000893057
3294	0.00136309
3306	0.00112807
3318	0.00112807
3330	0.000846054
3342	0.00197413
3354	0.00192712
3366	0.0015041
3378	0.00173911
3390	0.00164511
3402	0.0015511
3414	0.00126908
3426	0.00108107
3438	0.00112807
3450	0.00117507
3462	0.00141009
3474	0.00253816
3486	0.00371324
3498	0.0031492
3510	0.000846054
3522	0.000611039
3534	0.00103407
3546	0.000846054
3558	0.0015981
3570	0.00390125
3582	0.00648641
3594	0.00408926
3606	0.00103407
3618	0.00117507
3630	0.000658042
3642	0.00136309
3654	0.00357223
3666	0.00258516
3678	0.00352522
3690	0.00225614
3702	0.00249116
3714	0.00235015
3726	0.0015041
3738	0.00239715
3750	0.00173911
3762	0.00300819
3774	0.00244416
3786	0.00216214
3798	0.00324321
3810	0.00296119
3822	0.00235015
3834	0.00291419
3846	0.00225614
3858	0.00169211
3870	0.00230315
3882	0.00117507
3894	0.00258516
3906	0.00136309
3918	0.00173911
3930	0.00282018
3942	0.00164511
3954	0.00220914
3966	0.00253816
