Infrared Spectrum: Benzenamine, N-ethyl-3-methyl-
Formula: C 9 H 13 N
CAS: 102-27-2
Origin: Sadtler Research Labs Under US-EPA Contract
1/CM	ABSORBANCE
450	0.0354315
462	0.0290777
474	0.0334132
486	0.0316193
498	0.0428318
510	0.0419347
522	0.0452238
534	0.050232
546	0.0426822
558	0.0390942
570	0.0393932
582	0.0302738
594	0.0287787
606	0.0293768
618	0.028704
630	0.029601
642	0.033189
654	0.0322173
666	0.0316193
678	0.0740025
690	0.149649
702	0.085215
714	0.0362538
726	0.0281808
738	0.024518
750	0.0633133
762	0.19719
774	0.182091
786	0.0512037
798	0.0187623
810	0.018837
822	0.0168935
834	0.0352073
846	0.055913
858	0.0362538
870	0.0165197
882	0.00590525
894	0.002093
906	0.002691
918	0.00276575
930	0.0079235
942	0.0127823
954	0.0097175
966	0
978	0.00351325
990	0.030498
1002	0.0370012
1014	0.00874575
1026	0.00276575
1038	0.0097175
1050	0.027209
1062	0.0381225
1074	0.0238453
1086	0.0252655
1098	0.0383467
1110	0.0357305
1122	0.027209
1134	0.051428
1146	0.096876
1158	0.0900738
1170	0.168487
1182	0.231276
1194	0.0740772
1206	0.031993
1218	0.0192107
1230	0.019136
1242	0.0417105
1254	0.116909
1266	0.141876
1278	0.172074
1290	0.216775
1302	0.219915
1314	0.249366
1326	0.252655
1338	0.110854
1350	0.06578
1362	0.0554645
1374	0.0704893
1386	0.108089
1398	0.0748995
1410	0.081328
1422	0.121618
1434	0.141352
1446	0.101286
1458	0.10323
1470	0.151743
1482	0.323518
1494	0.378459
1506	0.384514
1518	0.34385
1530	0.181568
1542	0.0985952
1554	0.0626405
1566	0.0676488
1578	0.14651
1590	0.375993
1602	0.636123
1614	0.670956
1626	0.284573
1638	0.101211
1650	0.0319183
1662	0.0213785
1674	0.0115115
1686	0.012259
1698	0.01495
1710	0.0168935
1722	0.0124832
1734	0.0067275
1746	0.005681
1758	0.00411125
1770	0.003289
1782	0.002691
1794	0.003887
1806	0.00859625
1818	0.00859625
1830	0.0034385
1842	0.001794
1854	0.0022425
1866	0.001495
1878	0.002691
1890	0.004784
1902	0.0133802
1914	0.0127823
1926	0.0049335
1938	0.00336375
1950	0.00261625
1962	0.0016445
1974	0.001196
1986	0.001196
1998	0.00112125
2010	0.00112125
2022	0.0004485
2034	0.000598
2046	0.00082225
2058	0.00067275
2070	0.00067275
2082	0.00037375
2094	0.00022425
2106	0.0004485
2118	0.000299
2130	0.0004485
2142	0.0004485
2154	0.0004485
2166	0.0004485
2178	0.00097175
2190	0.0007475
2202	0.0013455
2214	0.001196
2226	0.000598
2238	0.00082225
2250	0.0007475
2262	0.00097175
2274	0.000598
2286	0.00052325
2298	0.00022425
2310	0.00052325
2322	0.001495
2334	0.0025415
2346	0.00276575
2358	0.00112125
2370	0.00336375
2382	0.002093
2394	0.00216775
2406	0.00291525
2418	0.00351325
2430	0.003289
2442	0.00299
2454	0.00276575
2466	0.0028405
2478	0.00291525
2490	0.00299
2502	0.003588
2514	0.00396175
2526	0.00321425
2538	0.00276575
2550	0.003887
2562	0.00598
2574	0.00695175
2586	0.0076245
2598	0.0070265
2610	0.00560625
2622	0.004186
2634	0.00441025
2646	0.0046345
2658	0.004784
2670	0.00545675
2682	0.007475
2694	0.00979225
2706	0.00994175
2718	0.009269
2730	0.0121095
2742	0.0159218
2754	0.014651
2766	0.0136045
2778	0.0156227
2790	0.0204815
2802	0.0271342
2814	0.0371508
2826	0.047541
2838	0.0633133
2850	0.088205
2862	0.130065
2874	0.194649
2886	0.241741
2898	0.203245
2910	0.169383
2922	0.201526
2934	0.26925
2946	0.25131
2958	0.199358
2970	0.257364
2982	0.341159
2994	0.195172
3006	0.126477
3018	0.14793
3030	0.150621
3042	0.177232
3054	0.209524
3066	0.123711
3078	0.0835705
3090	0.0614445
3102	0.0387205
3114	0.0246675
3126	0.0162207
3138	0.0100912
3150	0.0064285
3162	0.00455975
3174	0.00366275
3186	0.00321425
3198	0.002691
3210	0.003289
3222	0.00246675
3234	0.002691
3246	0.00231725
3258	0.0016445
3270	0.00216775
3282	0.00186875
3294	0.0016445
3306	0.001794
3318	0.002093
3330	0.001794
3342	0.00127075
3354	0.00142025
3366	0.0016445
3378	0.00261625
3390	0.00276575
3402	0.00650325
3414	0.0132307
3426	0.0284798
3438	0.0321425
3450	0.0219018
3462	0.0145763
3474	0.0094185
3486	0.0058305
3498	0.00381225
3510	0.0034385
3522	0.00231725
3534	0.001794
3546	0.002093
3558	0.00216775
3570	0.002093
3582	0.001196
3594	0.00156975
3606	0.00067275
3618	0.001196
3630	0.00142025
3642	0.001196
3654	0.00246675
3666	0.00097175
3678	0.002392
3690	0.002093
3702	0.00142025
3714	0.00156975
3726	0.0013455
3738	0.00097175
3750	0.00186875
3762	0.00261625
3774	0.003289
3786	0.000897
3798	0.000897
3810	0.001794
3822	0.00351325
3834	0.000598
3846	0.00186875
3858	0.00231725
3870	0.00216775
3882	0.00127075
3894	0.00171925
3906	0.00246675
3918	0.00097175
3930	0.00097175
3942	0.001794
3954	0.000897
3966	0.0004485
