Infrared Spectrum: Benzene, 1,2-dichloro-4-(chloromethyl)-
Formula: C 7 H 5 Cl 3
CAS: 102-47-6
Origin: Sadtler Research Labs Under US-EPA Contract
1/CM	ABSORBANCE
450	0.0981403
462	0.106992
474	0.0477231
486	0.0160681
498	0.00625404
510	0.00817836
522	0.00567674
534	0.0110648
546	0.038294
558	0.0846701
570	0.0490702
582	0.0117384
594	0.0053881
606	0.00346378
618	0.000577296
630	0.0096216
642	0.0319437
654	0.11594
666	0.0559015
678	0.136049
690	0.219854
702	0.238135
714	0.184254
726	0.422581
738	0.469342
750	0.242657
762	0.1195
774	0.0845739
786	0.0674474
798	0.0804366
810	0.202823
822	0.19224
834	0.050321
846	0.0316551
858	0.0518604
870	0.163856
882	0.286146
894	0.153272
906	0.0996798
918	0.111322
930	0.0746636
942	0.0329059
954	0.0156832
966	0.0072162
978	0.00644647
990	0.00625404
1002	0.0090443
1014	0.0305005
1026	0.200322
1038	0.505423
1050	0.0991025
1062	0.0235729
1074	0.0128929
1086	0.016934
1098	0.033387
1110	0.0583069
1122	0.148269
1134	0.553434
1146	0.326461
1158	0.126813
1170	0.0547469
1182	0.0642723
1194	0.106415
1206	0.202823
1218	0.160488
1230	0.0627328
1242	0.0971782
1254	0.195511
1266	0.317513
1278	0.447693
1290	0.158949
1302	0.0610972
1314	0.0248237
1326	0.0161643
1338	0.0149135
1350	0.0260745
1362	0.0410842
1374	0.107954
1386	0.259206
1398	0.323959
1410	0.110745
1422	0.0540734
1434	0.074856
1446	0.125466
1458	0.189161
1470	0.751255
1482	0.557379
1494	0.0563826
1506	0.0421426
1518	0.019147
1530	0.00971782
1542	0.0162605
1554	0.0685058
1566	0.112573
1578	0.0582107
1590	0.0632139
1602	0.0654269
1614	0.0232843
1626	0.0141438
1638	0.0145286
1650	0.00711998
1662	0.00529188
1674	0.00317513
1686	0.00279026
1698	0.00317513
1710	0.0127967
1722	0.0466648
1734	0.0231881
1746	0.0152983
1758	0.0287686
1770	0.025401
1782	0.0170302
1794	0.0123156
1806	0.0101027
1818	0.00952538
1830	0.00519566
1842	0.00211675
1854	0.00153946
1866	0.00202054
1878	0.00875566
1890	0.024054
1902	0.0214562
1914	0.00702377
1926	0.00336756
1938	0.0024054
1950	0.000865944
1962	0.000769728
1974	0.000769728
1986	0.0018281
1998	0.00125081
2010	0.00144324
2022	0.00153946
2034	0.00211675
2046	0.00115459
2058	0.0018281
2070	0.00355999
2082	0.00384864
2094	0.00413729
2106	0.0029827
2118	0.00269405
2130	0.00317513
2142	0.00163567
2154	0.00269405
2166	0.00173189
2178	0.00105838
2190	0.00153946
2202	0.00096216
2214	0.000577296
2226	0.000577296
2238	0.00048108
2250	0.00105838
2262	0.0024054
2274	0.00365621
2286	0.00615782
2298	0.00740863
2310	0.00769728
2322	0.00740863
2334	0.00625404
2346	0.00731242
2358	0.00740863
2370	0.00442594
2382	0.00654269
2394	0.00548431
2406	0.00355999
2418	0.00221297
2430	0.0024054
2442	0.00173189
2454	0.00221297
2466	0.00307891
2478	0.00365621
2490	0.00307891
2502	0.00317513
2514	0.00327134
2526	0.00519566
2538	0.00711998
2550	0.0077935
2562	0.00471458
2574	0.00317513
2586	0.00317513
2598	0.00317513
2610	0.00336756
2622	0.00375242
2634	0.00404107
2646	0.00471458
2658	0.00461837
2670	0.00375242
2682	0.00346378
2694	0.00375242
2706	0.0077935
2718	0.0122194
2730	0.0105838
2742	0.00750485
2754	0.00606161
2766	0.00452215
2778	0.00529188
2790	0.00731242
2802	0.00644647
2814	0.00788971
2826	0.0114497
2838	0.00875566
2850	0.0105838
2862	0.0128929
2874	0.0167416
2886	0.0211675
2898	0.0130854
2910	0.00750485
2922	0.0077935
2934	0.0164529
2946	0.0371394
2958	0.0562864
2970	0.107377
2982	0.0714885
2994	0.0384864
3006	0.0406032
3018	0.033868
3030	0.027614
3042	0.0337718
3054	0.0328097
3066	0.0493588
3078	0.0349264
3090	0.0233805
3102	0.0165492
3114	0.00615782
3126	0.00471458
3138	0.00288648
3150	0.0029827
3162	0.00288648
3174	0.00134702
3186	0.00096216
3198	0.00279026
3210	0.00394486
3222	0.00394486
3234	0.00288648
3246	0.00259783
3258	0.00221297
3270	0
3282	0.00125081
3294	0.00336756
3306	0.00288648
3318	0.0048108
3330	0.00202054
3342	0.00144324
3354	0.000288648
3366	0.00048108
3378	0.00153946
3390	0.00404107
3402	0.00471458
3414	0.00586918
3426	0.00269405
3438	0.00230918
3450	0.000577296
3462	0.000865944
3474	0.000673512
3486	0.00471458
3498	0.0053881
3510	0.00490702
3522	0.00230918
3534	0.00288648
3546	0.00048108
3558	0.00259783
3570	0.00413729
3582	0.0053881
3594	0.00654269
3606	0.00394486
3618	0.00461837
3630	0.00413729
3642	0.00307891
3654	0.00307891
3666	0.00317513
3678	0.0042335
3690	0.00731242
3702	0.00615782
3714	0.00596539
3726	0.00788971
3738	0.00673512
3750	0.0101989
3762	0.0103913
3774	0.0103913
3786	0.01068
3798	0.00875566
3810	0.0077935
3822	0.00586918
3834	0.00509945
3846	0.00654269
3858	0.00875566
3870	0.00991025
3882	0.0100065
3894	0.0101027
3906	0.0077935
3918	0.00942917
3930	0.00885187
3942	0.00798593
3954	0.00798593
3966	0.00740863
