Infrared Spectrum: Benzenemethanamine, N-(1-methylethyl)-
Formula: C 10 H 15 N
CAS: 102-97-6
Origin: Sadtler Research Labs Under US-EPA Contract
1/CM	ABSORBANCE
450	0.0721188
462	0.0479867
474	0.039388
486	0.0215663
498	0.0249642
510	0.0252416
522	0.0147705
534	0.0137997
546	0.0157413
558	0.023716
570	0.0431326
582	0.0498591
594	0.0422311
606	0.0411216
618	0.025935
630	0.0192779
642	0.0420924
654	0.0508992
666	0.0835607
678	0.137511
690	0.262748
702	0.340623
714	0.252277
726	0.207342
738	0.235149
750	0.172253
762	0.0775971
774	0.0405668
786	0.0306505
798	0.0273913
810	0.0287782
822	0.0235773
834	0.0209422
846	0.0226065
858	0.0173362
870	0.0162961
882	0.018099
894	0.0194859
906	0.0303038
918	0.027738
930	0.0246175
942	0.0262818
954	0.0293329
966	0.0212196
978	0.0235773
990	0.023716
1002	0.0240627
1014	0.0361981
1026	0.0883455
1038	0.0526329
1050	0.0345338
1062	0.0685129
1074	0.104364
1086	0.089455
1098	0.0624105
1110	0.0626185
1122	0.0901485
1134	0.0969443
1146	0.0963895
1158	0.138898
1170	0.235565
1182	0.194859
1194	0.0904952
1206	0.0678888
1218	0.051454
1230	0.0365448
1242	0.0321067
1254	0.029541
1266	0.0254496
1278	0.0303731
1290	0.0452129
1302	0.0739218
1314	0.0956268
1326	0.133767
1338	0.162267
1350	0.110605
1362	0.124197
1374	0.178702
1386	0.206856
1398	0.0658777
1410	0.0352273
1422	0.0419537
1434	0.080995
1446	0.173432
1458	0.20006
1470	0.210739
1482	0.126901
1494	0.107346
1506	0.0595674
1518	0.0174056
1530	0.0137303
1542	0.013869
1554	0.0122047
1566	0.0113726
1578	0.0163654
1590	0.0278767
1602	0.0413296
1614	0.0340484
1626	0.0148398
1638	0.0163654
1650	0.0383478
1662	0.0283621
1674	0.0104711
1686	0.0104711
1698	0.0121354
1710	0.0114419
1722	0.0131062
1734	0.0153946
1746	0.0135916
1758	0.0132449
1770	0.0126901
1782	0.0119273
1794	0.02011
1806	0.0223291
1818	0.01165
1830	0.00929223
1842	0.00873747
1854	0.0105404
1866	0.0156026
1878	0.0158107
1890	0.0124128
1902	0.0083214
1914	0.00707319
1926	0.00998568
1938	0.0167815
1950	0.0194859
1962	0.0143544
1974	0.00575563
1986	0.00513153
1998	0.00443808
2010	0.00367528
2022	0.00305118
2034	0.00291249
2046	0.00270445
2058	0.00270445
2070	0.0033979
2082	0.0027738
2094	0.00346725
2106	0.00395266
2118	0.00298183
2130	0.00402201
2142	0.00450742
2154	0.00443808
2166	0.00464611
2178	0.0047848
2190	0.00492349
2202	0.00374463
2214	0.00423004
2226	0.00388332
2238	0.00492349
2250	0.00471546
2262	0.00471546
2274	0.00450742
2286	0.00644908
2298	0.00846009
2310	0.0151866
2322	0.01588
2334	0.0108178
2346	0.00547825
2358	0.013869
2370	0.00131755
2382	0.00131755
2394	0.00228838
2406	0.00325921
2418	0.00312052
2430	0.002011
2442	0.00249642
2454	0.00166428
2466	0.0013869
2478	0.0027738
2490	0.00332856
2502	0.00208035
2514	0.00395266
2526	0.00388332
2538	0.00402201
2550	0.00485415
2562	0.00492349
2574	0.00714253
2586	0.0106791
2598	0.0150479
2610	0.0207342
2622	0.0195553
2634	0.0171976
2646	0.0161574
2658	0.0166428
2670	0.0151172
2682	0.0155333
2694	0.0153946
2706	0.0185151
2718	0.0221211
2730	0.0244788
2742	0.0252416
2754	0.0300957
2766	0.0392493
2778	0.0583885
2790	0.0867506
2802	0.121978
2814	0.15242
2826	0.184319
2838	0.190837
2850	0.166081
2862	0.150964
2874	0.187301
2886	0.208104
2898	0.200546
2910	0.20755
2922	0.224955
2934	0.256993
2946	0.26677
2958	0.339582
2970	0.658015
2982	0.498452
2994	0.130854
3006	0.0670566
3018	0.0889003
3030	0.188965
3042	0.184458
3054	0.10693
3066	0.170935
3078	0.204845
3090	0.110605
3102	0.0720495
3114	0.041399
3126	0.0193473
3138	0.0107485
3150	0.00915354
3162	0.0101244
3174	0.0119967
3186	0.00991633
3198	0.00818271
3210	0.00762795
3222	0.00520087
3234	0.00353659
3246	0.0027738
3258	0.00256576
3270	0.00256576
3282	0.00298183
3294	0.00249642
3306	0.0047848
3318	0.00221904
3330	0.00159493
3342	0.00346725
3354	0.00527022
3366	0.00547825
3378	0.00464611
3390	0.00610236
3402	0.00423004
3414	0.00450742
3426	0.00381397
3438	0.00464611
3450	0.00346725
3462	0.00423004
3474	0.0041607
3486	0.0033979
3498	0.00291249
3510	0.00506218
3522	0.00353659
3534	0.00270445
3546	0.00346725
3558	0.00298183
3570	0.0061717
3582	0.00423004
3594	0.0033979
3606	0.00395266
3618	0.00409135
3630	0.00506218
3642	0.00818271
3654	0.00922288
3666	0.0102631
3678	0.00901485
3690	0.00582498
3702	0.00256576
3714	0.00603301
3726	0.00707319
3738	0.0027738
3750	0.00450742
3762	0.00346725
3774	0.00492349
3786	0.00624105
3798	0.00450742
3810	0.00485415
3822	0.00506218
3834	0.00485415
3846	0.00312052
3858	0.00436873
3870	0.0055476
3882	0.0061717
3894	0.00527022
3906	0.00367528
3918	0.00360594
3930	0.00866812
3942	0.00714253
3954	0.00499284
3966	0.00610236
