Infrared Spectrum: Benzeneacetic acid, phenylmethyl ester
Formula: C 15 H 14 O 2
CAS: 102-16-9
Origin: Sadtler Research Labs Under US-EPA Contract
1/CM	ABSORBANCE
450	0.0179174
462	0.0159946
474	0.0392435
486	0.0533152
498	0.0417782
510	0.0324261
522	0.016082
534	0.00506932
546	0.00043701
558	0.0427396
570	0.0423026
582	0.0821579
594	0.0762145
606	0.0718444
618	0.0546263
630	0.04239
642	0.0442254
654	0.045449
666	0.0679114
678	0.127345
690	0.304421
702	0.33239
714	0.293496
726	0.243677
738	0.23616
750	0.203035
762	0.077613
774	0.0377577
786	0.0235111
798	0.0215883
810	0.0296293
822	0.0390687
834	0.0374081
846	0.0284057
858	0.0348734
870	0.0349608
882	0.0414285
894	0.043701
906	0.0588215
918	0.0608318
930	0.0484207
942	0.0461483
954	0.0571609
966	0.0834689
978	0.15575
990	0.248309
1002	0.27855
1014	0.188701
1026	0.119916
1038	0.0749909
1050	0.0455364
1062	0.0586467
1074	0.0841681
1086	0.0961422
1098	0.143077
1110	0.233975
1122	0.402661
1134	0.751832
1146	0.704985
1158	0.389376
1170	0.223137
1182	0.178387
1194	0.167462
1206	0.236685
1218	0.324786
1230	0.493384
1242	0.58437
1254	0.480449
1266	0.349783
1278	0.227595
1290	0.190886
1302	0.167287
1314	0.15645
1326	0.158285
1338	0.146573
1350	0.110826
1362	0.0926461
1374	0.117206
1386	0.0766516
1398	0.0395931
1410	0.0421278
1422	0.0489451
1434	0.080672
1446	0.0984147
1458	0.110127
1470	0.0770886
1482	0.0527034
1494	0.128568
1506	0.0932579
1518	0.0187914
1530	0.0219379
1542	0.00262206
1554	0.018267
1566	0.0250844
1578	0.0239481
1590	0.0447498
1602	0.0666003
1614	0.053053
1626	0.02456
1638	0.0128481
1650	0.0166938
1662	0.0230741
1674	0.0208891
1686	0.0130229
1698	0.0278812
1710	0.0621428
1722	0.098065
1734	0.164228
1746	0.454053
1758	0.87402
1770	0.513487
1782	0.251718
1794	0.157761
1806	0.100862
1818	0.0536648
1830	0.0292797
1842	0.0282308
1854	0.0277064
1866	0.0284931
1878	0.0286679
1890	0.02456
1902	0.0208017
1914	0.0184418
1926	0.0237733
1938	0.0312899
1950	0.0350482
1962	0.0316395
1974	0.0198403
1986	0.0171308
1998	0.0164316
2010	0.0152079
2022	0.0153828
2034	0.0144213
2046	0.0123237
2058	0.0129355
2070	0.0111001
2082	0.0114497
2094	0.0104008
2106	0.0109253
2118	0.00987643
2130	0.0104008
2142	0.0108378
2154	0.00935201
2166	0.00961422
2178	0.00935201
2190	0.00943942
2202	0.00795358
2214	0.00952682
2226	0.00970162
2238	0.0085654
2250	0.0088276
2262	0.0085654
2274	0.00952682
2286	0.0085654
2298	0.00786618
2310	0.00786618
2322	0.00218505
2334	0.00323387
2346	0.000524412
2358	0.00323387
2370	0.00043701
2382	0.00471971
2394	0.00541892
2406	0.00585593
2418	0.00524412
2430	0.00585593
2442	0.00620554
2454	0.00384569
2466	0.00506932
2478	0.00498191
2490	0.0043701
2502	0.0043701
2514	0.00323387
2526	0.00471971
2538	0.00235985
2550	0.00349608
2562	0.00288427
2574	0.0045449
2586	0.00340868
2598	0.00402049
2610	0.00384569
2622	0.00367088
2634	0.00410789
2646	0.00209765
2658	0.00270946
2670	0.00183544
2682	0.00305907
2694	0.00288427
2706	0.00393309
2718	0.00463231
2730	0.00533152
2742	0.00498191
2754	0.00524412
2766	0.00471971
2778	0.0041953
2790	0.00638035
2802	0.00769138
2814	0.00830319
2826	0.0121489
2838	0.0134599
2850	0.0168686
2862	0.019141
2874	0.0215009
2886	0.0286679
2898	0.0402049
2910	0.0392435
2922	0.042827
2934	0.0596082
2946	0.077176
2958	0.101561
2970	0.0895871
2982	0.0604822
2994	0.045012
3006	0.0393309
3018	0.0616184
3030	0.141766
3042	0.239307
3054	0.13827
3066	0.167113
3078	0.235636
3090	0.124897
3102	0.0873146
3114	0.0555003
3126	0.0259584
3138	0.0117993
3150	0.0113623
3162	0.00900241
3174	0.0111875
3186	0.00943942
3198	0.00900241
3210	0.0086528
3222	0.00847799
3234	0.00952682
3246	0.00839059
3258	0.0107504
3270	0.00926461
3282	0.0104882
3294	0.00961422
3306	0.00970162
3318	0.00900241
3330	0.010226
3342	0.0118867
3354	0.00839059
3366	0.0108378
3378	0.0111875
3390	0.0107504
3402	0.0108378
3414	0.0118867
3426	0.0115371
3438	0.00970162
3450	0.0123237
3462	0.0119741
3474	0.0135473
3486	0.0144213
3498	0.0171308
3510	0.0145087
3522	0.0138095
3534	0.0136347
3546	0.0128481
3558	0.0214135
3570	0.0392435
3582	0.0520916
3594	0.0180048
3606	0.0145961
3618	0.010663
3630	0.00270946
3642	0.0166938
3654	0.00987643
3666	0.016082
3678	0.00235985
3690	0.00821579
3702	0.0126733
3714	0.00908981
3726	0.0108378
3738	0.00480711
3750	0.00620554
3762	0.0124985
3774	0.0179174
3786	0.0174804
3798	0.0158198
3810	0.0145087
3822	0.0126733
3834	0.0142465
3846	0.0151205
3858	0.0147709
3870	0.0147709
3882	0.016519
3894	0.0172182
3906	0.0189662
3918	0.0201025
3930	0.0192284
3942	0.0203647
3954	0.00384569
3966	0.00559373
