Infrared Spectrum: Tributylamine
Formula: C 12 H 27 N
CAS: 102-82-9
Origin: Sadtler Research Labs Under US-EPA Contract
1/CM	ABSORBANCE
450	0.0122038
462	0.00961126
474	0.00853632
486	0.0160609
498	0.0125832
510	0.00828339
522	0.00796723
534	0.0116347
546	0.00973773
558	0.00499533
570	0.00733491
582	0.00689229
594	0.00480563
606	0.00537472
618	0.00398362
630	0.00322483
642	0.0065129
654	0.00537472
666	0.00543795
678	0.00625997
690	0.0063232
702	0.00461594
714	0.00986419
726	0.014164
738	0.0144169
750	0.0176417
762	0.0110024
774	0.0116347
786	0.014164
798	0.0122038
810	0.00986419
822	0.00992742
834	0.00840986
846	0.0049321
858	0.00840986
870	0.00935834
882	0.0125832
894	0.0172623
906	0.017452
918	0.0101171
930	0.0165668
942	0.0240914
954	0.0194755
966	0.0151757
978	0.0127729
990	0.0111921
1002	0.0107494
1014	0.0104333
1026	0.0108759
1038	0.0209298
1050	0.0263045
1062	0.0295293
1074	0.0612086
1086	0.104396
1098	0.0677215
1110	0.0423654
1122	0.0271898
1134	0.0225106
1146	0.0153654
1158	0.025609
1170	0.0529884
1182	0.0643702
1194	0.0281382
1206	0.0137846
1218	0.0140375
1230	0.0194755
1242	0.029719
1254	0.0305411
1266	0.0330071
1278	0.0285176
1290	0.0231429
1302	0.0361055
1314	0.0362319
1326	0.0279485
1338	0.03326
1350	0.0365481
1362	0.0529884
1374	0.0654451
1386	0.0585528
1398	0.0240914
1410	0.0165036
1422	0.0149228
1434	0.0224474
1446	0.0373069
1458	0.0760049
1470	0.0968714
1482	0.0375598
1494	0.0159345
1506	0.0157448
1518	0.0113185
1530	0.00682906
1542	0.00916864
1554	0.00689229
1566	0.00581734
1578	0.00619674
1590	0.00537472
1602	0.00480563
1614	0.00436301
1626	0.00524826
1638	0.00411008
1650	0.00562765
1662	0.00423654
1674	0.00537472
1686	0.00531149
1698	0.00739814
1710	0.00588058
1722	0.00360422
1734	0.00676582
1746	0.00196019
1758	0.00411008
1770	0.00404685
1782	0.00290867
1794	0.0033513
1806	0.00196019
1818	0.00233958
1830	0.00183373
1842	0.00328806
1854	0.000885248
1866	0.00202342
1878	0.00196019
1890	0.00189696
1902	0.00214989
1914	0.00196019
1926	0.00202342
1938	0.00145434
1950	0.00246605
1962	0.000252928
1974	0.00202342
1986	0.00233958
1998	0.00189696
2010	0.00221312
2022	0.00189696
2034	0.00278221
2046	0.00170726
2058	0.00309837
2070	0.00196019
2082	0.00196019
2094	0.00183373
2106	0.00120141
2118	0.00233958
2130	0.00189696
2142	0.00227635
2154	0.00170726
2166	0.00208666
2178	0.00189696
2190	0.00183373
2202	0.00265574
2214	0.00120141
2226	0.00170726
2238	0.0017705
2250	0.00189696
2262	0.0015808
2274	0.0017705
2286	0.00170726
2298	0.00170726
2310	0.00714522
2322	0.00980096
2334	0.0109391
2346	0.00878925
2358	0.0177682
2370	0.00733491
2382	0.00284544
2394	0.00322483
2406	0.0015808
2418	0.00328806
2430	0.000252928
2442	0.00145434
2454	0.000569088
2466	0.0015808
2478	0.0013911
2490	0.00101171
2502	0.0015808
2514	0
2526	0.00196019
2538	0.00227635
2550	0.00322483
2562	0.00442624
2574	0.0049321
2586	0.00607027
2598	0.00739814
2610	0.00872602
2622	0.00784077
2634	0.00973773
2646	0.0111288
2658	0.0126464
2670	0.0173256
2682	0.0205504
2694	0.0227635
2706	0.0255457
2718	0.0326909
2730	0.0384451
2742	0.0472343
2754	0.050143
2766	0.0568456
2778	0.0705037
2790	0.105218
2802	0.185396
2814	0.161368
2826	0.107811
2838	0.0802414
2850	0.0895997
2862	0.162317
2874	0.258303
2886	0.254256
2898	0.181855
2910	0.222766
2922	0.286567
2934	0.462921
2946	0.528303
2958	0.461404
2970	0.618662
2982	0.177808
2994	0.0741711
3006	0.04578
3018	0.0318689
3030	0.0227003
3042	0.0179579
3054	0.0127096
3066	0.0102436
3078	0.0103068
3090	0.00746138
3102	0.00859955
3114	0.00594381
3126	0.00607027
3138	0.00619674
3150	0.00644966
3162	0.0065129
3174	0.0061335
3186	0.0063232
3198	0.00575411
3210	0.00524826
3222	0.00423654
3234	0.0033513
3246	0.00246605
3258	0.00360422
3270	0.00373069
3282	0.00284544
3294	0.00265574
3306	0.00233958
3318	0.00196019
3330	0.00373069
3342	0.00278221
3354	0.00259251
3366	0.00341453
3378	0.00252928
3390	0.00170726
3402	0.00392038
3414	0.00202342
3426	0.00271898
3438	0.00303514
3450	0.00246605
3462	0.00214989
3474	0.0017705
3486	0.00189696
3498	6.3232e-05
3510	0.00233958
3522	0.00183373
3534	0.00164403
3546	0.00392038
3558	0.00221312
3570	0.00183373
3582	0.00322483
3594	0.00480563
3606	0.00278221
3618	0.00461594
3630	0.00486886
3642	0.00417331
3654	0.00366746
3666	0.00429978
3678	0.0033513
3690	0.00531149
3702	0.00505856
3714	0.00448947
3726	0.00524826
3738	0.00644966
3750	0.0065129
3762	0.00543795
3774	0.0049321
3786	0.0047424
3798	0.00588058
3810	0.00644966
3822	0.00480563
3834	0.00512179
3846	0.00524826
3858	0.00467917
3870	0.00480563
3882	0.00436301
3894	0.00214989
3906	0.00240282
3918	0.00360422
3930	0.0031616
3942	0.00240282
3954	0.00189696
3966	0.00202342
