Infrared Spectrum: Resorcinol Monoacetate
Formula: C 8 H 8 O 3
CAS: 102-29-4
Origin: Sadtler Research Labs Under US-EPA Contract
1/CM	ABSORBANCE
450	0.0141207
462	0.0367412
474	0.0301607
486	0.0190561
498	0.0289268
510	0.0377009
522	0.0372896
534	0.0562085
546	0.0430475
558	0.094732
570	0.114885
582	0.0386605
594	0.033588
606	0.0499022
618	0.0766355
630	0.0198786
642	0.0293381
654	0.0360557
666	0.0459265
678	0.0618294
690	0.14765
702	0.0457894
714	0.0197415
726	0.0562085
738	0.0242656
750	0.0812967
762	0.0371525
774	0.0345477
786	0.0227576
798	0.000959658
810	0.0159029
822	0.0104191
834	0.0190561
846	0.0211125
858	0.0208383
870	0.0319429
882	0.0386605
894	0.0652567
906	0.0571682
918	0.0398944
930	0.0231689
942	0.026185
954	0.0637487
966	0.105837
978	0.0575795
990	0.0695067
1002	0.110498
1014	0.169859
1026	0.0704663
1038	0.0562085
1050	0.0341364
1062	0.0407169
1074	0.0523699
1086	0.0412653
1098	0.0434588
1110	0.0919901
1122	0.30051
1134	0.384686
1146	0.186448
1158	0.197552
1170	0.286664
1182	0.568803
1194	1.21753
1206	1.32008
1218	0.791307
1230	0.350824
1242	0.212907
1254	0.143812
1266	0.101724
1278	0.0996673
1290	0.0777323
1302	0.0747162
1314	0.0507248
1326	0.0319429
1338	0.0265962
1350	0.0270075
1362	0.0754017
1374	0.180279
1386	0.0832161
1398	0.0392089
1410	0.0329026
1422	0.0345477
1434	0.0479829
1446	0.10049
1458	0.061281
1470	0.0611439
1482	0.136683
1494	0.127086
1506	0.0551118
1518	0.027693
1530	0.0272817
1542	0.0239915
1554	0.020427
1566	0.0253624
1578	0.045241
1590	0.110909
1602	0.192206
1614	0.137094
1626	0.0588133
1638	0.0279672
1650	0.0193303
1662	0.0217979
1674	0.0176851
1686	0.0146691
1698	0.0187819
1710	0.0244027
1722	0.0330397
1734	0.0501764
1746	0.0719744
1758	0.116804
1770	0.191932
1782	0.287349
1794	0.367275
1806	0.213867
1818	0.0763614
1830	0.0286526
1842	0.0167255
1854	0.0109675
1866	0.0109675
1878	0.0111046
1890	0.0115159
1902	0.0117901
1914	0.0115159
1926	0.00945949
1938	0.00767726
1950	0.00808855
1962	0.00836273
1974	0.00726598
1986	0.00616923
1998	0.00589504
2010	0.00616923
2022	0.00781436
2034	0.00891111
2046	0.00863692
2058	0.00795145
2070	0.0068547
2082	0.0068547
2094	0.00726598
2106	0.00726598
2118	0.00575795
2130	0.00548376
2142	0.00534667
2154	0.00479829
2166	0.00493538
2178	0.0046612
2190	0.00507248
2202	0.00548376
2214	0.00644342
2226	0.00767726
2238	0.00808855
2250	0.00699179
2262	0.00630632
2274	0.00548376
2286	0.00616923
2298	0.00712889
2310	0.00781436
2322	0.00644342
2334	0.00548376
2346	0.0102821
2358	0.0100079
2370	0.0182335
2382	0.0127497
2394	0.00767726
2406	0.00795145
2418	0.0068547
2430	0.00534667
2442	0.00479829
2454	0.00370154
2466	0.00370154
2478	0.00315316
2490	0.00356444
2502	0.00315316
2514	0.00287897
2526	0.00274188
2538	0.00315316
2550	0.00370154
2562	0.00397573
2574	0.00493538
2586	0.00411282
2598	0.00438701
2610	0.00383863
2622	0.00397573
2634	0.00370154
2646	0.00342735
2658	0.00301607
2670	0.00356444
2682	0.00315316
2694	0.00424991
2706	0.00424991
2718	0.00493538
2730	0.00479829
2742	0.00438701
2754	0.00479829
2766	0.00493538
2778	0.00507248
2790	0.00479829
2802	0.00507248
2814	0.00424991
2826	0.00424991
2838	0.00616923
2850	0.0120643
2862	0.0109675
2874	0.0068547
2886	0.00671761
2898	0.00932239
2910	0.0141207
2922	0.0246769
2934	0.0265962
2946	0.0205641
2958	0.0180964
2970	0.0117901
2982	0.0132981
2994	0.0149432
3006	0.01604
3018	0.0198786
3030	0.0270075
3042	0.0315316
3054	0.0372896
3066	0.0309832
3078	0.0289268
3090	0.0249511
3102	0.0196044
3114	0.0149432
3126	0.0120643
3138	0.0115159
3150	0.0112417
3162	0.010145
3174	0.00987077
3186	0.00987077
3198	0.00863692
3210	0.00836273
3222	0.00932239
3234	0.00754017
3246	0.00891111
3258	0.00863692
3270	0.00699179
3282	0.00754017
3294	0.00781436
3306	0.00603214
3318	0.00671761
3330	0.00520957
3342	0.00699179
3354	0.00658051
3366	0.00589504
3378	0.00644342
3390	0.00658051
3402	0.00493538
3414	0.00493538
3426	0.00548376
3438	0.00520957
3450	0.00479829
3462	0.00562085
3474	0.00397573
3486	0.00493538
3498	0.00589504
3510	0.00507248
3522	0.00699179
3534	0.00767726
3546	0.0091853
3558	0.0149432
3570	0.0152174
3582	0.0187819
3594	0.0126126
3606	0.0109675
3618	0.00863692
3630	0.00671761
3642	0.029201
3654	0.0530554
3666	0.0300236
3678	0.00808855
3690	0.00287897
3702	0.00520957
3714	0.00548376
3726	0.00795145
3738	0.00726598
3750	0
3762	0.00877402
3774	0.00795145
3786	0.00754017
3798	0.00520957
3810	0.0117901
3822	0.00479829
3834	0.00712889
3846	0.00712889
3858	0.00370154
3870	0.00849983
3882	0.00877402
3894	0.00891111
3906	0.00548376
3918	0.0100079
3930	0.00836273
3942	0.00822564
3954	0.00849983
3966	0.00863692
