Infrared Spectrum: Triacetin
Formula: C 9 H 14 O 6
CAS: 102-76-1
Origin: Sadtler Research Labs Under US-EPA Contract
1/CM	ABSORBANCE
450	0.0106891
462	0.00811081
474	0.00553254
486	0.00510283
498	0.00472683
510	0.00440455
522	0.0046194
534	0.00386741
546	0.00257827
558	0.00290056
570	0.00327655
582	0.00547883
594	0.0084331
606	0.0138582
618	0.00762739
630	0.00773482
642	0.00811081
654	0.00472683
666	0.0023097
678	0.00295427
690	0.00241713
702	0.00128914
714	0.000913138
726	0.000429712
738	0.00145028
750	0.00080571
762	0.000698282
774	0.00053714
786	0.00408226
798	0.00236342
810	0.00478055
822	0.00418969
834	0.0088091
846	0.0101519
858	0.0126765
870	0.0103131
882	0.0102594
894	0.00929252
906	0.00709025
918	0.00585483
930	0.00725139
942	0.0123005
954	0.0173496
966	0.0164365
978	0.0133211
990	0.0151473
1002	0.0242787
1014	0.0354512
1026	0.0436695
1038	0.0628454
1050	0.0848681
1062	0.079067
1074	0.0621471
1086	0.045442
1098	0.0388352
1110	0.0305096
1122	0.0170811
1134	0.0122468
1146	0.0117097
1158	0.0122468
1170	0.0154696
1182	0.0254604
1194	0.0594077
1206	0.206262
1218	0.53714
1230	0.304182
1242	0.140032
1254	0.0886281
1266	0.0569368
1278	0.0396946
1290	0.0270719
1302	0.0165439
1314	0.0131062
1326	0.0101519
1338	0.0100445
1350	0.0147176
1362	0.0410375
1374	0.0914749
1386	0.0546271
1398	0.0236342
1410	0.0149325
1422	0.0105817
1434	0.0125154
1446	0.0158456
1458	0.0152011
1470	0.0127302
1482	0.00816453
1494	0.00606968
1506	0.00478055
1518	0.00456569
1530	0.00451198
1542	0.00370627
1554	0.00311541
1566	0.00333027
1578	0.00322284
1590	0.00273941
1602	0.00295427
1614	0.00263199
1626	0.00263199
1638	0.00311541
1650	0.0034377
1662	0.00354512
1674	0.00295427
1686	0.00413598
1698	0.00590854
1710	0.00977595
1722	0.0175645
1734	0.0266959
1746	0.0496854
1758	0.146102
1770	0.339472
1782	0.138099
1794	0.0490946
1806	0.0250307
1818	0.0144491
1830	0.0084331
1842	0.00542511
1854	0.00338398
1866	0.00273941
1878	0.0026857
1890	0.00225599
1902	0.00187999
1914	0.00177256
1926	0.00134285
1938	0.00112799
1950	0.00139656
1962	0.00134285
1974	0.000859424
1986	0.000859424
1998	0.000859424
2010	0.000859424
2022	0.00187999
2034	0.00182628
2046	0.00182628
2058	0.00187999
2070	0.00145028
2082	0.00134285
2094	0.00182628
2106	0.00161142
2118	0.00128914
2130	0.00139656
2142	0.000913138
2154	0.000966852
2166	0.000375998
2178	0
2190	0.000375998
2202	0.000913138
2214	0.000429712
2226	0.000966852
2238	0.000375998
2250	0.000429712
2262	0.000375998
2274	0.000375998
2286	0.000483426
2298	0.000966852
2310	0.00053714
2322	5.3714e-05
2334	0
2346	0.000590854
2358	0
2370	0.00026857
2382	0.000913138
2394	0.000483426
2406	0.000913138
2418	0.000859424
2430	0.00102057
2442	0.00102057
2454	0.000966852
2466	0.000483426
2478	0.00053714
2490	0.00107428
2502	0.000966852
2514	0.000590854
2526	0.000698282
2538	0.000590854
2550	0.00053714
2562	0.000590854
2574	0.000161142
2586	5.3714e-05
2598	0.000644568
2610	0.000590854
2622	0.000644568
2634	0.000751996
2646	0.000644568
2658	0.000644568
2670	0.000161142
2682	0.000644568
2694	0.000644568
2706	0.000644568
2718	0.000698282
2730	0.00118171
2742	0.00107428
2754	0.00123542
2766	0.00118171
2778	0.00118171
2790	0.00123542
2802	0.00123542
2814	0.00161142
2826	0.00123542
2838	0.00123542
2850	0.0023097
2862	0.00220227
2874	0.00241713
2886	0.00333027
2898	0.00429712
2910	0.00494169
2922	0.0049954
2934	0.00580111
2946	0.0111725
2958	0.0198205
2970	0.018961
2982	0.0133211
2994	0.0103131
3006	0.0076811
3018	0.00521026
3030	0.00526397
3042	0.00440455
3054	0.0034377
3066	0.00354512
3078	0.00327655
3090	0.0026857
3102	0.00241713
3114	0.00102057
3126	0.00128914
3138	0.00134285
3150	0.00118171
3162	0.000483426
3174	0.000590854
3186	0.000429712
3198	0.000590854
3210	0.00107428
3222	0.000590854
3234	0.000590854
3246	0.000590854
3258	0.000214856
3270	0.000644568
3282	0.000644568
3294	0.000590854
3306	0.000590854
3318	0.000644568
3330	0.000644568
3342	0.00107428
3354	0.00102057
3366	0.00123542
3378	0.000698282
3390	0.000644568
3402	0.000483426
3414	0.000698282
3426	0.000751996
3438	0.000698282
3450	0.000698282
3462	0.000751996
3474	0.000966852
3486	0.00123542
3498	0.00145028
3510	0.00220227
3522	0.0023097
3534	0.00139656
3546	0.00171885
3558	0.00080571
3570	0.00128914
3582	0.000751996
3594	0.000859424
3606	0.000751996
3618	0.000859424
3630	0.000966852
3642	0.000859424
3654	0.00139656
3666	0.000322284
3678	0.000644568
3690	0.000429712
3702	0.000913138
3714	5.3714e-05
3726	0.000751996
3738	0.00053714
3750	0.00053714
3762	0.00102057
3774	0.00102057
3786	0.00053714
3798	0.000751996
3810	0.00112799
3822	0.000590854
3834	0.00128914
3846	0.00102057
3858	0.000322284
3870	0.00112799
3882	0.000214856
3894	0.000161142
3906	0.00102057
3918	0.00128914
3930	0.000751996
3942	0.00128914
3954	0.000859424
3966	0.000322284
