Infrared Spectrum: Phosphorous acid, tributyl ester
Formula: C 12 H 27 O 3 P
CAS: 102-85-2
Origin: Sadtler Research Labs Under US-EPA Contract
1/CM	ABSORBANCE
450	0.00736404
462	0.00784693
474	0.0133398
486	0.0118308
498	0.0165389
510	0.0111668
522	0.0182894
534	0.0177461
546	0.0218507
558	0.0176254
570	0.0109253
582	0.00615682
594	0.0113479
606	0.00452708
618	0.00555321
630	0.00500996
642	0.0103821
654	0.0120118
666	0.0111064
678	0.021911
690	0.0423131
702	0.0928956
714	0.161526
726	0.158267
738	0.129957
750	0.134665
762	0.167381
774	0.198588
786	0.151566
798	0.110642
810	0.0925334
822	0.0656124
834	0.045814
846	0.0442446
858	0.0745458
870	0.156758
882	0.175832
894	0.105632
906	0.0810045
918	0.062534
930	0.0664575
942	0.130561
954	0.28418
966	0.426511
978	0.335849
990	0.293536
1002	0.367598
1014	0.538118
1026	0.570532
1038	0.356251
1050	0.281101
1062	0.316533
1074	0.259673
1086	0.147583
1098	0.0889721
1110	0.0651899
1122	0.0611457
1134	0.0493149
1146	0.0427959
1158	0.0316292
1170	0.0214282
1182	0.0178669
1194	0.0158749
1206	0.0167804
1218	0.0197984
1230	0.0277057
1242	0.031931
1254	0.0350094
1266	0.0472023
1278	0.0517897
1290	0.0437014
1302	0.0398986
1314	0.0295165
1326	0.018229
1338	0.018229
1350	0.0159353
1362	0.0203417
1374	0.0428563
1386	0.0845054
1398	0.0389328
1410	0.0184705
1422	0.0178065
1434	0.0280679
1446	0.0357941
1458	0.0525744
1470	0.0695962
1482	0.0459347
1494	0.0219714
1506	0.0138227
1518	0.010201
1530	0.00905415
1542	0.00555321
1554	0.00591538
1566	0.00543249
1578	0.00482888
1590	0.00531177
1602	0.00488924
1614	0.0046478
1626	0.00404419
1638	0.00344058
1650	0.00422527
1662	0.00446671
1674	0.00470816
1686	0.00416491
1698	0.00428563
1710	0.00561357
1722	0.00597574
1734	0.0060361
1746	0.00633791
1758	0.00609646
1770	0.00500996
1782	0.00585502
1794	0.00543249
1806	0.0057343
1818	0.00500996
1830	0.00410455
1842	0.00319913
1854	0.00301805
1866	0.002173
1878	0.00187119
1890	0.00235408
1902	0.00205227
1914	0.00187119
1926	0.0013883
1938	0.00150902
1950	0.00181083
1962	0.00162975
1974	0.00223336
1986	0.00223336
1998	0.00205227
2010	0.00205227
2022	0.00253516
2034	0.00295769
2046	0.00223336
2058	0.00144866
2070	0.00132794
2082	0.000905415
2094	0.00114686
2106	0.0010865
2118	0.00120722
2130	0.000663971
2142	0.000241444
2154	0.000422527
2166	0.000724332
2178	0.000181083
2190	0.000543249
2202	0.000543249
2214	0.000543249
2226	0.000120722
2238	0.00060361
2250	0.000543249
2262	0.000482888
2274	0.00102614
2286	0.00156939
2298	0.00319913
2310	0.0046478
2322	0.00307841
2334	0.00319913
2346	0.00567393
2358	0.00338022
2370	0.00410455
2382	0.00663971
2394	0.0035613
2406	0.00362166
2418	0.00410455
2430	0.00513069
2442	0.00434599
2454	0.00271624
2466	0.00120722
2478	0.00175047
2490	0.00060361
2502	0.000784693
2514	0.000784693
2526	0.000845054
2538	0.000845054
2550	0.000845054
2562	0.0013883
2574	0.0013883
2586	0.00193155
2598	0.00187119
2610	0.0024748
2622	0.0024748
2634	0.00235408
2646	0.00277661
2658	0.00325949
2670	0.00392347
2682	0.0049496
2694	0.00591538
2706	0.00682079
2718	0.00796765
2730	0.00995957
2742	0.0129173
2754	0.0129776
2766	0.0109857
2778	0.0095974
2790	0.0106235
2802	0.0136416
2814	0.0176254
2826	0.0236615
2838	0.0361562
2850	0.0656728
2862	0.0983884
2874	0.192491
2886	0.262993
2898	0.194242
2910	0.218507
2922	0.262812
2934	0.329028
2946	0.435686
2958	0.423432
2970	0.516509
2982	0.25249
2994	0.0991731
3006	0.0492546
3018	0.0312066
3030	0.0216092
3042	0.0175047
3054	0.0132794
3066	0.010201
3078	0.00845054
3090	0.00802801
3102	0.00651899
3114	0.00488924
3126	0.00591538
3138	0.0049496
3150	0.00555321
3162	0.00398383
3174	0.00482888
3186	0.00446671
3198	0.00344058
3210	0.00374238
3222	0.00313877
3234	0.00259552
3246	0.00199191
3258	0.00175047
3270	0.000543249
3282	0.00187119
3294	0.0013883
3306	0.00169011
3318	0.00211263
3330	0.000663971
3342	0.00235408
3354	0.00132794
3366	0.00126758
3378	0.00223336
3390	0.00235408
3402	0.00175047
3414	0.00205227
3426	0.0013883
3438	0.000845054
3450	0.00144866
3462	0.00235408
3474	0.00120722
3486	0.00199191
3498	0.00205227
3510	0.00223336
3522	0.00199191
3534	0.002173
3546	0.00241444
3558	0.00223336
3570	0.00193155
3582	0.00289733
3594	0.00235408
3606	0.00313877
3618	0.00362166
3630	0.00338022
3642	0.00350094
3654	0.00579466
3666	0.00507032
3678	0.00470816
3690	0.00507032
3702	0.0038631
3714	0.00362166
3726	0.00350094
3738	0.00271624
3750	0.00283697
3762	0.00319913
3774	0.00253516
3786	0.00301805
3798	0.00313877
3810	0.00271624
3822	0.0013883
3834	0.00277661
3846	0.00283697
3858	0.00295769
3870	0.00259552
3882	0.00301805
3894	0.00307841
3906	0.00313877
3918	0.00259552
3930	0.00187119
3942	0.00241444
3954	0.00338022
3966	0.00307841
