Infrared Spectrum: Ethanol, 2,2'-(butylimino)bis-
Formula: C 8 H 19 N O 2
CAS: 102-79-4
Origin: Sadtler Research Labs Under US-EPA Contract
1/CM	ABSORBANCE
450	0
462	0.026714
474	0.0389111
486	0.0395845
498	0.0357683
510	0.0469178
522	0.0503599
534	0.0557476
546	0.0523055
558	0.0508089
570	0.0514824
582	0.0509585
594	0.0436253
606	0.0404077
618	0.0388363
630	0.0386118
642	0.0401832
654	0.0374145
666	0.0392104
678	0.0389859
690	0.0387614
702	0.0430267
714	0.0507341
726	0.0532782
738	0.0575435
750	0.0604618
762	0.0638291
774	0.062557
786	0.0667475
798	0.0598632
810	0.0539517
822	0.0477409
834	0.0470674
846	0.0546252
858	0.0722848
870	0.108876
882	0.104686
894	0.0912914
906	0.0932369
918	0.0868016
930	0.080067
942	0.0829105
954	0.0891962
966	0.0936111
978	0.0957063
990	0.108502
1002	0.135366
1014	0.19695
1026	0.329023
1038	0.48564
1050	0.445083
1062	0.436927
1074	0.48362
1086	0.311887
1098	0.199419
1110	0.161182
1122	0.162229
1134	0.161107
1146	0.148985
1158	0.154597
1170	0.153325
1182	0.132447
1194	0.127583
1206	0.13544
1218	0.124964
1230	0.115311
1242	0.113141
1254	0.116135
1266	0.126237
1278	0.134468
1290	0.125862
1302	0.128182
1314	0.128781
1326	0.128407
1338	0.138209
1350	0.159535
1362	0.190215
1374	0.174052
1386	0.16829
1398	0.185351
1410	0.156168
1422	0.0998219
1434	0.0893458
1446	0.112019
1458	0.154672
1470	0.15976
1482	0.102067
1494	0.0575435
1506	0.0450471
1518	0.0386866
1530	0.0356934
1542	0.0339724
1554	0.0332241
1566	0.0311289
1578	0.031054
1590	0.0300064
1602	0.0298568
1614	0.0294078
1626	0.0287343
1638	0.0288092
1650	0.0280609
1662	0.0270133
1674	0.0278364
1686	0.0301561
1698	0.0305302
1710	0.0308295
1722	0.0295575
1734	0.0299316
1746	0.0294078
1758	0.0290337
1770	0.0292581
1782	0.0308295
1794	0.0289588
1806	0.0285098
1818	0.027986
1830	0.0273126
1842	0.0281357
1854	0.0279112
1866	0.0282105
1878	0.0290337
1890	0.0292581
1902	0.0296323
1914	0.0303806
1926	0.0309792
1938	0.0304554
1950	0.0300064
1962	0.0287343
1974	0.0281357
1986	0.0281357
1998	0.0267888
2010	0.0267888
2022	0.0264146
2034	0.0267888
2046	0.0276867
2058	0.0289588
2070	0.0300064
2082	0.0311289
2094	0.0306051
2106	0.0298568
2118	0.0304554
2130	0.0299316
2142	0.0295575
2154	0.028884
2166	0.0285098
2178	0.027986
2190	0.0279112
2202	0.0276867
2214	0.0275371
2226	0.0275371
2238	0.0276119
2250	0.0280609
2262	0.0274622
2274	0.0274622
2286	0.0286595
2298	0.0304554
2310	0.0335234
2322	0.0340472
2334	0.0295575
2346	0.026265
2358	0.0347955
2370	0.0258908
2382	0.0258908
2394	0.0266391
2406	0.0279112
2418	0.0280609
2430	0.0269384
2442	0.0269384
2454	0.0268636
2466	0.0269384
2478	0.026714
2490	0.0264146
2502	0.0261901
2514	0.0267888
2526	0.0276867
2538	0.028435
2550	0.0282105
2562	0.0289588
2574	0.0294826
2586	0.0299316
2598	0.0312785
2610	0.0329996
2622	0.0349451
2634	0.0379383
2646	0.0413056
2658	0.0466933
2670	0.0523803
2682	0.0570945
2694	0.062557
2706	0.0674209
2718	0.0734821
2730	0.080067
2742	0.0877744
2754	0.0946587
2766	0.106856
2778	0.126311
2790	0.161032
2802	0.242296
2814	0.363444
2826	0.386716
2838	0.301935
2850	0.249929
2862	0.302833
2874	0.455185
2886	0.510259
2898	0.410362
2910	0.391281
2922	0.488633
2934	0.670468
2946	0.74163
2958	0.692842
2970	0.6891
2982	0.307472
2994	0.12676
3006	0.0829105
3018	0.0619584
3030	0.0515572
3042	0.0440743
3054	0.0374893
3066	0.0348703
3078	0.0322513
3090	0.0316527
3102	0.0300064
3114	0.0306799
3126	0.0301561
3138	0.0300813
3150	0.0270133
3162	0.0264146
3174	0.0291833
3186	0.0273126
3198	0.0291085
3210	0.0270881
3222	0.0261901
3234	0.0261153
3246	0.0267888
3258	0.0282105
3270	0.028435
3282	0.0270133
3294	0.0274622
3306	0.0281357
3318	0.0268636
3330	0.0297819
3342	0.0288092
3354	0.0306799
3366	0.0311289
3378	0.0325506
3390	0.0335982
3402	0.0355438
3414	0.0351696
3426	0.0383873
3438	0.0411559
3450	0.0420539
3462	0.0429518
3474	0.0448974
3486	0.0478906
3498	0.0502851
3510	0.0554483
3522	0.0667475
3534	0.0838085
3546	0.0964546
3558	0.0963049
3570	0.0885227
3582	0.0808153
3594	0.0707134
3606	0.0585163
3618	0.0532782
3630	0.0491627
3642	0.0496865
3654	0.0645774
3666	0.0932369
3678	0.0839581
3690	0.0529789
3702	0.0353941
3714	0.034122
3726	0.0306799
3738	0.0281357
3750	0.0286595
3762	0.0264895
3774	0.026714
3786	0.0273874
3798	0.0259657
3810	0.0261901
3822	0.0258908
3834	0.0267888
3846	0.026714
3858	0.0272378
3870	0.0276867
3882	0.0276119
3894	0.0261901
3906	0.0271629
3918	0.0294078
3930	0.0300813
3942	0.0290337
3954	0.0263398
3966	0.0292581
