Infrared Spectrum: Benzene, 4-(chloromethyl)-1,2-dimethyl-
Formula: C 9 H 11 Cl
CAS: 102-46-5
Origin: Sadtler Research Labs Under US-EPA Contract
1/CM	ABSORBANCE
450	0
462	0.016269
474	0.0312069
486	0.0386758
498	0.0230724
510	0.0228505
522	0.0298758
534	0.0313548
546	0.0432607
558	0.0691432
570	0.126676
582	0.0811971
594	0.026622
606	0.0178959
618	0.0183396
630	0.0171564
642	0.0178219
654	0.0258825
666	0.0436305
678	0.134959
690	0.320943
702	0.225917
714	0.258899
726	0.68596
738	0.552037
750	0.324936
762	0.172303
774	0.122239
786	0.12187
798	0.100424
810	0.172156
822	0.149083
834	0.042817
846	0.0182656
858	0.0180438
870	0.0411162
882	0.0647802
894	0.0468843
906	0.0377145
918	0.0343868
930	0.0272875
942	0.0397851
954	0.0306153
966	0.0173043
978	0.0198186
990	0.0415599
1002	0.0726189
1014	0.0514692
1026	0.0485112
1038	0.028101
1050	0.0178219
1062	0.016269
1074	0.0212237
1086	0.0273615
1098	0.0350523
1110	0.0410422
1122	0.073876
1134	0.0869652
1146	0.0616743
1158	0.0638928
1170	0.050286
1182	0.0383061
1194	0.0315766
1206	0.0334993
1218	0.0346825
1230	0.0491028
1242	0.102938
1254	0.238711
1266	0.46803
1278	0.404063
1290	0.167053
1302	0.103086
1314	0.0440742
1326	0.0343868
1338	0.0292102
1350	0.0315766
1362	0.0323901
1374	0.0488809
1386	0.0851904
1398	0.0819366
1410	0.0810492
1422	0.0988711
1434	0.12712
1446	0.231759
1458	0.323235
1470	0.266812
1482	0.177036
1494	0.144868
1506	0.274576
1518	0.137325
1530	0.0573852
1542	0.0462927
1554	0.0440742
1566	0.0460708
1578	0.0571633
1590	0.0624138
1602	0.0582726
1614	0.0659634
1626	0.054723
1638	0.0288405
1650	0.0190791
1662	0.0166387
1674	0.0181177
1686	0.020632
1698	0.0169345
1710	0.0231463
1722	0.0322422
1734	0.0261043
1746	0.0316506
1758	0.0370489
1770	0.0255127
1782	0.0204102
1794	0.0183396
1806	0.016269
1818	0.0148639
1830	0.0141244
1842	0.0153816
1854	0.020632
1866	0.0230724
1878	0.0281749
1890	0.0312808
1902	0.0220371
1914	0.0208539
1926	0.0218152
1938	0.0158993
1950	0.013311
1962	0.0133849
1974	0.013311
1986	0.0129412
1998	0.0124236
2010	0.0127194
2022	0.0125715
2034	0.0128673
2046	0.0146421
2058	0.0157513
2070	0.0136068
2082	0.0124236
2094	0.0145681
2106	0.0141244
2118	0.0145681
2130	0.0150858
2142	0.0145681
2154	0.0140505
2166	0.0134589
2178	0.0129412
2190	0.0137547
2202	0.0136068
2214	0.0130152
2226	0.0137547
2238	0.0137547
2250	0.0141244
2262	0.0138286
2274	0.014716
2286	0.0158253
2298	0.0166387
2310	0.0182656
2322	0.0202623
2334	0.0210757
2346	0.0200404
2358	0.0205581
2370	0.0139765
2382	0.013237
2394	0.0158993
2406	0.0178959
2418	0.0173782
2430	0.0159732
2442	0.0158993
2454	0.0157513
2466	0.0158993
2478	0.0161211
2490	0.0154555
2502	0.0150858
2514	0.0156774
2526	0.0156774
2538	0.0156034
2550	0.0145681
2562	0.0152337
2574	0.0157513
2586	0.0155295
2598	0.0150858
2610	0.0145681
2622	0.014716
2634	0.0141244
2646	0.0136807
2658	0.0150118
2670	0.013311
2682	0.0145681
2694	0.0190791
2706	0.0241077
2718	0.0261783
2730	0.0291363
2742	0.0417817
2754	0.0332035
2766	0.0264741
2778	0.0278052
2790	0.026548
2802	0.0286926
2814	0.0346825
2826	0.0442221
2838	0.0572373
2850	0.0841551
2862	0.159806
2874	0.271101
2886	0.288849
2898	0.267181
2910	0.264593
2922	0.332701
2934	0.558322
2946	0.525858
2958	0.474389
2970	0.485999
2982	0.47646
2994	0.311329
3006	0.295504
3018	0.38735
3030	0.358731
3042	0.270805
3054	0.262079
3066	0.231981
3078	0.17992
3090	0.115288
3102	0.0656676
3114	0.0509515
3126	0.0486591
3138	0.0375666
3150	0.0272136
3162	0.0224808
3174	0.020632
3186	0.0208539
3198	0.0180438
3210	0.0167127
3222	0.0178219
3234	0.019153
3246	0.0158253
3258	0.0156034
3270	0.0165648
3282	0.0181917
3294	0.0157513
3306	0.0149379
3318	0.0164908
3330	0.0150858
3342	0.016195
3354	0.0170824
3366	0.0152337
3378	0.0160471
3390	0.0144942
3402	0.0173782
3414	0.0164169
3426	0.0172303
3438	0.0170085
3450	0.0144942
3462	0.0158253
3474	0.0160471
3486	0.0170824
3498	0.0169345
3510	0.0161211
3522	0.0167867
3534	0.0179698
3546	0.0167127
3558	0.0159732
3570	0.0173043
3582	0.0189312
3594	0.017748
3606	0.0195967
3618	0.0182656
3630	0.0184875
3642	0.0199665
3654	0.0188572
3666	0.0203363
3678	0.0155295
3690	0.0225547
3702	0.0203363
3714	0.0214455
3726	0.0203363
3738	0.0161211
3750	0.0203363
3762	0.0210757
3774	0.0221111
3786	0.0201144
3798	0.0215194
3810	0.020706
3822	0.0218892
3834	0.0176741
3846	0.0181917
3858	0.0218892
3870	0.0207799
3882	0.0235161
3894	0.0226287
3906	0.0255867
3918	0.0222589
3930	0.0173782
3942	0.0227766
3954	0.0197446
3966	0.0201144
