Infrared Spectrum: Geranyl phenylacetate
Formula: C 18 H 24 O 2
CAS: 102-22-7
Origin: Sadtler Research Labs Under US-EPA Contract
1/CM	ABSORBANCE
450	0.0395125
462	0.0293413
474	0.0214766
486	0.0112299
498	0.0243881
510	0.00775126
522	0.0185652
534	0.0179602
546	0.0149732
558	0.0167881
570	0.018414
582	0.0161831
594	0.0138766
606	0.0133473
618	0.00812936
630	0.0262786
642	0.0150866
654	0.0147841
666	0.0171662
678	0.023216
690	0.0551662
702	0.0785334
714	0.0842051
726	0.0605354
738	0.0357314
750	0.0278289
762	0.0246906
774	0.0173174
786	0.0138766
798	0.0159941
810	0.0199642
822	0.0304757
834	0.0255224
846	0.0228
858	0.0201911
870	0.0208339
882	0.0204179
894	0.0228
906	0.0269214
918	0.0262786
930	0.0275264
942	0.0349752
954	0.0465832
966	0.0808399
978	0.124134
990	0.110181
1002	0.0750926
1014	0.0461672
1026	0.0362986
1038	0.0358448
1050	0.0325931
1062	0.0293791
1074	0.0348617
1086	0.0364876
1098	0.0540697
1110	0.0867762
1122	0.127915
1134	0.23957
1146	0.275718
1158	0.183043
1170	0.10485
1182	0.0794031
1194	0.0743364
1206	0.0869275
1218	0.114265
1230	0.175443
1242	0.243957
1254	0.190567
1266	0.125759
1278	0.108404
1290	0.0863981
1302	0.0683623
1314	0.0663583
1326	0.0663583
1338	0.0642409
1350	0.0581155
1362	0.0462429
1374	0.0533513
1386	0.0653752
1398	0.0366767
1410	0.025598
1422	0.0317991
1434	0.0488518
1446	0.0614807
1458	0.0649215
1470	0.0420458
1482	0.0262786
1494	0.0421593
1506	0.0300597
1518	0.0126289
1530	0.0112677
1542	0.00979305
1554	0.0100955
1566	0.00956618
1578	0.00865872
1590	0.0133473
1602	0.0215523
1614	0.0173174
1626	0.0101333
1638	0.0099821
1650	0.0126667
1662	0.0213632
1674	0.0235184
1686	0.0141791
1698	0.0183761
1710	0.0312697
1722	0.047415
1734	0.0941872
1746	0.264828
1758	0.329107
1770	0.120428
1782	0.0556578
1794	0.0347105
1806	0.0211742
1818	0.0113433
1830	0.00748658
1842	0.00555822
1854	0.00465075
1866	0.00518011
1878	0.00468856
1890	0.00389453
1902	0.00317612
1914	0.00268458
1926	0.00302488
1938	0.00472638
1950	0.0051423
1962	0.00476419
1974	0.00268458
1986	0.00223085
1998	0.00249553
2010	0.00219304
2022	0.00177712
2034	0.00253334
2046	0.00294926
2058	0.00204179
2070	0.00253334
2082	0.0037811
2094	0.00245772
2106	0.00132339
2118	0.000831842
2130	0.00075622
2142	0.0017015
2154	0.000794031
2166	0.000831842
2178	0.0010209
2190	0.000831842
2202	0.000680598
2214	0.000642787
2226	0.000264677
2238	0.000340299
2250	0.00117214
2262	0.000869653
2274	0.00117214
2286	0.00204179
2298	0.00230647
2310	0.00279801
2322	0.00151244
2334	0.000529354
2346	0.00529354
2358	0.000264677
2370	0.00669255
2382	0.00627663
2394	0.00192836
2406	0.00162587
2418	0.00215523
2430	0.00166368
2442	0.0020796
2454	0.00204179
2466	0.00192836
2478	0.00211742
2490	0.00238209
2502	0.0020796
2514	0.00173931
2526	0.00234428
2538	0.00238209
2550	0.00226866
2562	0.00268458
2574	0.00238209
2586	0.0027602
2598	0.00249553
2610	0.00185274
2622	0.00223085
2634	0.00351642
2646	0.0013612
2658	0.00397016
2670	0.00601195
2682	0.00468856
2694	0.00483981
2706	0.00525573
2718	0.00661693
2730	0.00941494
2742	0.0110408
2754	0.00967962
2766	0.00949056
2778	0.00865872
2790	0.0104358
2802	0.0119483
2814	0.013801
2826	0.0183005
2838	0.0283204
2850	0.0485115
2862	0.0814071
2874	0.0905195
2886	0.0896877
2898	0.102808
2910	0.128822
2922	0.174082
2934	0.183043
2946	0.152454
2958	0.127839
2970	0.140128
2982	0.119256
2994	0.0894608
3006	0.0616697
3018	0.0522548
3030	0.0639384
3042	0.0757354
3054	0.0464319
3066	0.0510449
3078	0.059023
3090	0.036412
3102	0.0249174
3114	0.0164856
3126	0.00877215
3138	0.00567165
3150	0.00487762
3162	0.00427264
3174	0.00328956
3186	0.00347861
3198	0.00245772
3210	0.00219304
3222	0.00230647
3234	0.00177712
3246	0.00245772
3258	0.00151244
3270	0.0017015
3282	0.00268458
3294	0.00234428
3306	0.0017015
3318	0.0024199
3330	0.00283583
3342	0.00313831
3354	0.00291145
3366	0.00249553
3378	0.00192836
3390	0.00283583
3402	0.00272239
3414	0.00317612
3426	0.00215523
3438	0.0020796
3450	0.00234428
3462	0.00408359
3474	0.00366767
3486	0.00415921
3498	0.00306269
3510	0.00189055
3522	0.00238209
3534	0.0020796
3546	0.00355423
3558	0.00226866
3570	0.00483981
3582	0.00616319
3594	0.00272239
3606	0.00139901
3618	0.000264677
3630	0.00158806
3642	0.00181493
3654	0.00332737
3666	0.00158806
3678	0.00200398
3690	0.00298707
3702	0.00325175
3714	0.00317612
3726	0.00362986
3738	0.00283583
3750	0.00449951
3762	0.00453732
3774	0.00253334
3786	0.0034408
3798	0.00219304
3810	0.00529354
3822	0.00298707
3834	0.000907464
3846	0.00215523
3858	0.00491543
3870	0.000189055
3882	0.0044617
3894	0.00313831
3906	0.0037811
3918	0.00215523
3930	0.00400797
3942	0.00328956
3954	0.0027602
3966	0.0034408
