Infrared Spectrum: Benzene, 1,3,5-triethyl-
Formula: C 12 H 18
CAS: 102-25-0
Origin: Sadtler Research Labs Under US-EPA Contract
1/CM	ABSORBANCE
450	0
462	0.0270954
474	0.00304688
486	0.0228516
498	0.0133845
510	0.00881418
522	0.0152344
534	0.0145815
546	0.0152344
558	0.0237221
570	0.014255
582	0.0115346
594	0.0108817
606	0.0138198
618	0.011317
630	0.01012
642	0.0106641
654	0.0132757
666	0.0115346
678	0.013058
690	0.0257896
702	0.0788923
714	0.0606111
726	0.0161049
738	0.0210017
750	0.0124051
762	0.0175195
774	0.0138198
786	0.02024
798	0.0134933
810	0.0143638
822	0.0182813
834	0.0183901
846	0.0224163
858	0.070187
870	0.158655
882	0.0917327
894	0.0424386
906	0.0182813
918	0.00924945
930	0.0103376
942	0.0140374
954	0.0159961
966	0.0273131
978	0.0201311
990	0.0155608
1002	0.0165402
1014	0.0183901
1026	0.0206752
1038	0.027966
1050	0.0425474
1062	0.0674665
1074	0.0692076
1086	0.0358008
1098	0.0216546
1110	0.017846
1122	0.0195871
1134	0.016649
1146	0.0159961
1158	0.0186077
1170	0.0203488
1182	0.0162137
1194	0.016649
1206	0.0187165
1218	0.0201311
1230	0.0216546
1242	0.021981
1254	0.0233957
1266	0.024375
1278	0.0260073
1290	0.0280748
1302	0.0359096
1314	0.0643108
1326	0.0714928
1338	0.0366713
1350	0.0275307
1362	0.0277483
1374	0.0461384
1386	0.0553879
1398	0.0329716
1410	0.0347126
1422	0.0366713
1434	0.0539732
1446	0.0926033
1458	0.170734
1470	0.16834
1482	0.0734515
1494	0.0464649
1506	0.0408064
1518	0.0228516
1530	0.0163225
1542	0.0128404
1554	0.0138198
1566	0.0186077
1578	0.0317746
1590	0.0693164
1602	0.201638
1614	0.122637
1626	0.029707
1638	0.0157785
1650	0.0112082
1662	0.0121875
1674	0.0102288
1686	0.00892299
1698	0.0107729
1710	0.0128404
1722	0.00859654
1734	0.011317
1746	0.024375
1758	0.0237221
1770	0.0228516
1782	0.0117522
1794	0.00685547
1806	0.0057673
1818	0.00554967
1830	0.0057673
1842	0.00652902
1854	0.00609375
1866	0.0057673
1878	0.00620257
1890	0.00587612
1902	0.0057673
1914	0.00609375
1926	0.00609375
1938	0.0057673
1950	0.00598494
1962	0.00533203
1974	0.00467913
1986	0.00500558
1998	0.00489676
2010	0.00544085
2022	0.00609375
2034	0.00620257
2046	0.00598494
2058	0.0057673
2070	0.0051144
2082	0.00478795
2094	0.00489676
2106	0.00457031
2118	0.00424386
2130	0.00457031
2142	0.00457031
2154	0.00467913
2166	0.00489676
2178	0.00457031
2190	0.00424386
2202	0.00457031
2214	0.00435268
2226	0.00457031
2238	0.00489676
2250	0.00500558
2262	0.00500558
2274	0.00413505
2286	0.00424386
2298	0.00359096
2310	0.00391741
2322	0.00489676
2334	0.0051144
2346	0.00359096
2358	0.00435268
2370	0.00359096
2382	0.00413505
2394	0.00435268
2406	0.00435268
2418	0.00435268
2430	0.00533203
2442	0.00554967
2454	0.00500558
2466	0.00457031
2478	0.00391741
2490	0.00402623
2502	0.0044615
2514	0.00500558
2526	0.00478795
2538	0.00522322
2550	0.00467913
2562	0.00424386
2574	0.00424386
2586	0.00435268
2598	0.00544085
2610	0.00609375
2622	0.00631139
2634	0.0070731
2646	0.00816127
2658	0.00761719
2670	0.00718192
2682	0.00718192
2694	0.00750837
2706	0.00881418
2718	0.0100112
2730	0.0129492
2742	0.0156696
2754	0.0129492
2766	0.0152344
2778	0.0177372
2790	0.020784
2802	0.0224163
2814	0.0241574
2826	0.0317746
2838	0.0496206
2850	0.0817216
2862	0.166599
2874	0.278027
2886	0.356593
2898	0.280421
2910	0.279333
2922	0.287059
2934	0.503387
2946	0.628309
2958	0.3937
2970	0.966621
2982	0.642129
2994	0.183792
3006	0.163661
3018	0.206535
3030	0.139177
3042	0.0616992
3054	0.0504911
3066	0.0377595
3078	0.0232868
3090	0.0167578
3102	0.0149079
3114	0.0136021
3126	0.0141462
3138	0.0138198
3150	0.0155608
3162	0.0152344
3174	0.0103376
3186	0.00750837
3198	0.0064202
3210	0.00554967
3222	0.00544085
3234	0.00413505
3246	0.00533203
3258	0.00500558
3270	0.00500558
3282	0.00402623
3294	0.00489676
3306	0.00467913
3318	0.00478795
3330	0.0051144
3342	0.0051144
3354	0.00467913
3366	0.00489676
3378	0.00489676
3390	0.00554967
3402	0.00478795
3414	0.0051144
3426	0.00554967
3438	0.00478795
3450	0.00489676
3462	0.00544085
3474	0.0051144
3486	0.00598494
3498	0.00522322
3510	0.00522322
3522	0.00544085
3534	0.0051144
3546	0.00533203
3558	0.00489676
3570	0.00478795
3582	0.00489676
3594	0.00467913
3606	0.00544085
3618	0.00500558
3630	0.00413505
3642	0.00761719
3654	0.00729074
3666	0.00533203
3678	0.00554967
3690	0.00402623
3702	0.00533203
3714	0.00489676
3726	0.00674665
3738	0.00652902
3750	0.00413505
3762	0.0064202
3774	0.0044615
3786	0.00457031
3798	0.00478795
3810	0.00631139
3822	0.00413505
3834	0.00413505
3846	0.00587612
3858	0.0038086
3870	0.00359096
3882	0.00489676
3894	0.00522322
3906	0.00620257
3918	0.00478795
3930	0.0070731
3942	0.00761719
3954	0.0064202
3966	0.00565848
