Infrared Spectrum: 2-Propanone, 1,3-diphenyl-
Formula: C 15 H 14 O
CAS: 102-04-5
Origin: Sadtler Research Labs Under US-EPA Contract
1/CM	ABSORBANCE
450	0.048351
462	0.0489957
474	0.126518
486	0.0466587
498	0.0182928
510	0.036505
522	0.1075
534	0.218869
546	0.134658
558	0.0510103
570	0.0251425
582	0.00564095
594	0.0208715
606	0.0211133
618	0.0258678
630	0.0285271
642	0.0515744
654	0.0572959
666	0.0883212
678	0.135463
690	0.389064
702	0.716562
714	0.279066
726	0.313959
738	0.246026
750	0.351592
762	0.0917057
774	0.0228056
786	0.0228861
798	0.0167617
810	0.0122489
822	0.0149082
834	0.016117
846	0.0109596
858	0.00112819
870	0.00136995
882	0.00612446
894	0.0120877
906	0.021355
918	0.0149888
930	0.0159558
942	0.017084
954	0.0173258
966	0.0113625
978	0.0086226
990	0.0123295
1002	0.0405343
1014	0.023692
1026	0.0962185
1038	0.0944456
1050	0.175836
1062	0.196063
1074	0.194532
1086	0.217821
1098	0.192356
1110	0.135947
1122	0.0776839
1134	0.0593106
1146	0.0696254
1158	0.0873541
1170	0.0960573
1182	0.133126
1194	0.129178
1206	0.133288
1218	0.146906
1230	0.144892
1242	0.11016
1254	0.0862259
1266	0.0954126
1278	0.112255
1290	0.146342
1302	0.160525
1314	0.176239
1326	0.207748
1338	0.18325
1350	0.104599
1362	0.0556842
1374	0.0431936
1386	0.0467393
1398	0.0655156
1410	0.114592
1422	0.135463
1434	0.12813
1446	0.118621
1458	0.176159
1470	0.0480287
1482	0.0629369
1494	0.411145
1506	0.117896
1518	0.0327981
1530	0.0200657
1542	0.0335234
1554	0.0258678
1566	0.0282853
1578	0.0547978
1590	0.0961379
1602	0.176078
1614	0.0789733
1626	0.0361827
1638	0.0381973
1650	0.051655
1662	0.0476257
1674	0.0757499
1686	0.119185
1698	0.238612
1710	0.539033
1722	0.73147
1734	0.49592
1746	0.220078
1758	0.100006
1770	0.0614058
1782	0.0433547
1794	0.0454499
1806	0.0427906
1818	0.0222415
1830	0.0145053
1842	0.00926728
1854	0.0134577
1866	0.0266736
1878	0.025626
1890	0.0216774
1902	0.0128936
1914	0.0102343
1926	0.0157947
1938	0.0329593
1950	0.037472
1962	0.0264319
1974	0.0107178
1986	0.00717207
1998	0.00233696
2010	0.00217579
2022	0.00136995
2034	0.00145053
2046	0.00120878
2058	0.00104761
2070	0.00112819
2082	0.0016117
2094	0.00177287
2106	0.00201462
2118	0.00209521
2130	0.00177287
2142	0.00217579
2154	0.00233696
2166	0.00257872
2178	0.00257872
2190	0.00282048
2202	0.00217579
2214	0.00233696
2226	0.00145053
2238	0.00153111
2250	0.00201462
2262	0.00273989
2274	0.00185345
2286	0.00177287
2298	0.00128936
2310	0.00145053
2322	0.00362633
2334	0.0070109
2346	0.00064468
2358	0.00048351
2370	0.0107178
2382	0.00531861
2394	0.00249813
2406	0.00241755
2418	0.00290106
2430	0.00282048
2442	0.00193404
2454	0.0016117
2466	0.00169228
2478	0.00217579
2490	0.00201462
2502	0.00209521
2514	0.00273989
2526	0.0032234
2538	0.00241755
2550	0.00241755
2562	0.00282048
2574	0.00362633
2586	0.00467393
2598	0.00531861
2610	0.00604387
2622	0.00547978
2634	0.00539919
2646	0.00338457
2658	0.00217579
2670	0.00346516
2682	0.00354574
2694	0.00410984
2706	0.00491569
2718	0.00507685
2730	0.00499627
2742	0.00499627
2754	0.00499627
2766	0.00620505
2778	0.00902552
2790	0.0112013
2802	0.0132159
2814	0.0153112
2826	0.0197433
2838	0.0252231
2850	0.029897
2862	0.0359409
2874	0.0471422
2886	0.0705119
2898	0.0962185
2910	0.110966
2922	0.124343
2934	0.115881
2946	0.0923504
2958	0.095735
2970	0.0846143
2982	0.0570542
2994	0.0610834
3006	0.0926727
3018	0.157221
3030	0.323468
3042	0.262143
3054	0.179382
3066	0.25481
3078	0.24933
3090	0.171807
3102	0.094768
3114	0.0562483
3126	0.0253037
3138	0.0147471
3150	0.0120877
3162	0.0120072
3174	0.0086226
3186	0.00556037
3198	0.00427101
3210	0.00298165
3222	0.00282048
3234	0.00346516
3246	0.00298165
3258	0.00306223
3270	0.00402925
3282	0.00419042
3294	0.00402925
3306	0.00354574
3318	0.00306223
3330	0.00370691
3342	0.00435159
3354	0.00386808
3366	0.00523803
3378	0.00620505
3390	0.00894493
3402	0.0123295
3414	0.0139412
3426	0.0152306
3438	0.0127324
3450	0.00878377
3462	0.00620505
3474	0.00346516
3486	0.00330399
3498	0.00330399
3510	0.0032234
3522	0.00370691
3534	0.00290106
3546	0.0037875
3558	0.00128936
3570	0.00507685
3582	0.00443218
3594	0.00604387
3606	0.00282048
3618	0.00354574
3630	0.00918669
3642	0.00370691
3654	0.0128936
3666	0.00249813
3678	0.00491569
3690	0.00813909
3702	0.00402925
3714	0.00459335
3726	0
3738	0.00064468
3750	0.0120877
3762	0.00048351
3774	0.00048351
3786	0.00048351
3798	0.00306223
3810	0.00048351
3822	0.00813909
3834	0.00443218
3846	0.00564095
3858	0.00636621
3870	0.00813909
3882	0.00491569
3894	0.00314282
3906	0.00507685
3918	0.00217579
3930	0.00080585
3942	0.000725265
3954	0.00096702
3966	0.00854201
