Infrared Spectrum: Diethyl isobutylmalonate
Formula: C 11 H 20 O 4
CAS: 10203-58-4
Origin: Sadtler Research Labs Under US-EPA Contract
1/CM	ABSORBANCE
450	0
462	0.0116602
474	0.00563574
486	0.0048584
498	0.00369238
510	0.00505274
522	0.00961963
534	0.00835645
546	0.00553858
558	0.00446973
570	0.00660742
582	0.00767627
594	0.0112715
606	0.0125347
618	0.011563
630	0.00816211
642	0.00563574
654	0.00651026
666	0.00670459
678	0.0110772
690	0.0136035
702	0.0119517
714	0.00680176
726	0.00651026
738	0.00534424
750	0.0051499
762	0.00641309
774	0.00864795
786	0.0130205
798	0.0124375
810	0.0111743
822	0.0108828
834	0.0137979
846	0.0232232
858	0.0452803
870	0.0401304
882	0.0190449
894	0.0075791
906	0.0069961
918	0.0114658
930	0.0267212
942	0.0312881
954	0.0245835
966	0.0239033
978	0.0185591
990	0.0177817
1002	0.0312881
1014	0.0828843
1026	0.16159
1038	0.243795
1050	0.193073
1062	0.159744
1074	0.11048
1086	0.0992085
1098	0.172473
1110	0.237576
1122	0.355343
1134	0.377984
1146	0.488561
1158	0.485743
1170	0.472722
1182	0.477289
1194	0.431523
1206	0.35991
1218	0.355246
1230	0.384785
1242	0.474471
1254	0.415782
1266	0.384105
1278	0.343295
1290	0.242337
1302	0.189963
1314	0.211049
1326	0.257301
1338	0.151193
1350	0.106399
1362	0.0858965
1374	0.208911
1386	0.102318
1398	0.0775401
1410	0.0469321
1422	0.0373125
1434	0.0418794
1446	0.0751109
1458	0.0868682
1470	0.127193
1482	0.0812324
1494	0.0288589
1506	0.0123403
1518	0.00796778
1530	0.00670459
1542	0.00330371
1554	0.00612158
1566	0.00651026
1578	0.00651026
1590	0.00660742
1602	0.0069961
1614	0.00689893
1626	0.00544141
1638	0.00660742
1650	0.00592725
1662	0.0113687
1674	0.011563
1686	0.0157412
1698	0.0244863
1710	0.0515962
1722	0.0862852
1734	0.204636
1746	0.730898
1758	0.837685
1770	0.6279
1782	0.194142
1794	0.0747222
1806	0.0432398
1818	0.0281787
1830	0.0169072
1842	0.0119517
1854	0.010397
1866	0.00796778
1878	0.00923096
1890	0.00913379
1902	0.00952246
1914	0.00787061
1926	0.00680176
1938	0.00602442
1950	0.00592725
1962	0.00602442
1974	0.00651026
1986	0.00660742
1998	0.00651026
2010	0.00660742
2022	0.00602442
2034	0.00660742
2046	0.00602442
2058	0.00602442
2070	0.00602442
2082	0.00612158
2094	0.00583008
2106	0.00524707
2118	0.00476123
2130	0.0045669
2142	0.00427539
2154	0.00417822
2166	0.00369238
2178	0.00340088
2190	0.00281787
2202	0.00281787
2214	0.00301221
2226	0.00320654
2238	0.00310938
2250	0.00359522
2262	0.00359522
2274	0.00388672
2286	0.00408106
2298	0.00505274
2310	0.00534424
2322	0.00631592
2334	0.00612158
2346	0.00748194
2358	0.00602442
2370	0.00602442
2382	0.00602442
2394	0.00466406
2406	0.00476123
2418	0.0048584
2430	0.0048584
2442	0.00427539
2454	0.00408106
2466	0.00427539
2478	0.00427539
2490	0.00427539
2502	0.00398389
2514	0.00369238
2526	0.00369238
2538	0.00398389
2550	0.00388672
2562	0.00388672
2574	0.00398389
2586	0.0045669
2598	0.0048584
2610	0.00505274
2622	0.00573291
2634	0.00534424
2646	0.0048584
2658	0.00524707
2670	0.0051499
2682	0.00553858
2694	0.00534424
2706	0.00621875
2718	0.00709326
2730	0.0101055
2742	0.0102026
2754	0.00932813
2766	0.0102026
2778	0.0118545
2790	0.0114658
2802	0.012146
2814	0.015061
2826	0.0191421
2838	0.0211826
2850	0.0265269
2862	0.0417822
2874	0.0930869
2886	0.154594
2898	0.113201
2910	0.140213
2922	0.155372
2934	0.197154
2946	0.27207
2958	0.290629
2970	0.560465
2982	0.327165
2994	0.274402
3006	0.145266
3018	0.072293
3030	0.0378955
3042	0.0247778
3054	0.0181704
3066	0.0151582
3078	0.0131177
3090	0.011563
3102	0.01098
3114	0.0102026
3126	0.0104941
3138	0.0100083
3150	0.0102026
3162	0.0104941
3174	0.0104941
3186	0.0100083
3198	0.00952246
3210	0.00855078
3222	0.00709326
3234	0.00602442
3246	0.00621875
3258	0.0048584
3270	0.00505274
3282	0.00544141
3294	0.0048584
3306	0.0051499
3318	0.00524707
3330	0.00573291
3342	0.00592725
3354	0.00592725
3366	0.00563574
3378	0.00631592
3390	0.00651026
3402	0.00573291
3414	0.00553858
3426	0.0051499
3438	0.00476123
3450	0.00495557
3462	0.00544141
3474	0.00612158
3486	0.00825928
3498	0.00855078
3510	0.00592725
3522	0.00437256
3534	0.00378955
3546	0.00330371
3558	0.00378955
3570	0.00670459
3582	0.00680176
3594	0.00427539
3606	0.00398389
3618	0.00437256
3630	0.00573291
3642	0.0051499
3654	0.00524707
3666	0.0048584
3678	0.0048584
3690	0.00621875
3702	0.00534424
3714	0.00592725
3726	0.0051499
3738	0.00534424
3750	0.00505274
3762	0.00573291
3774	0.00563574
3786	0.00495557
3798	0.00408106
3810	0.00534424
3822	0.00534424
3834	0.00602442
3846	0.00612158
3858	0.0051499
3870	0.00544141
3882	0.00583008
3894	0.00505274
3906	0.00495557
3918	0.00573291
3930	0.00563574
3942	0.00378955
3954	0.00505274
3966	0.00602442
