Infrared Spectrum: 2-Butenedioic acid (Z)-, bis(2-methoxyethyl) ester
Formula: C 10 H 16 O 6
CAS: 10232-93-6
Origin: Sadtler Research Labs Under US-EPA Contract
1/CM	ABSORBANCE
450	0.0162509
462	0.013091
474	0.00993113
486	0.00686151
498	0.00857689
510	0.0175149
522	0.0209457
534	0.0215776
546	0.0147161
558	0.00839632
570	0.00550726
582	0.00650038
594	0.0090283
606	0.0218485
618	0.0224805
630	0.0148967
642	0.00704207
654	0.00613924
666	0.00993113
678	0.0187789
690	0.0256404
702	0.0180566
714	0.0142647
726	0.0111951
738	0.0167926
750	0.01914
762	0.01914
774	0.0176955
786	0.0231124
798	0.043065
810	0.0650038
822	0.070511
834	0.0789976
846	0.0858591
858	0.0933526
870	0.0960611
882	0.0840535
894	0.0755669
906	0.062205
918	0.0538087
930	0.0578714
942	0.0641912
954	0.081977
966	0.0956097
978	0.0772822
990	0.0780948
1002	0.10193
1014	0.134612
1026	0.164496
1038	0.241236
1050	0.23284
1062	0.152037
1074	0.133619
1086	0.144453
1098	0.1914
1110	0.238257
1122	0.379821
1134	0.675407
1146	0.649406
1158	0.704388
1170	0.689491
1182	0.476875
1194	0.552803
1206	0.655093
1218	0.509828
1230	0.375216
1242	0.329172
1254	0.314636
1266	0.294864
1278	0.328359
1290	0.352013
1302	0.217311
1314	0.101117
1326	0.0665386
1338	0.0631078
1350	0.0648232
1362	0.0986793
1374	0.0850466
1386	0.127118
1398	0.183997
1410	0.182191
1422	0.0808033
1434	0.0658163
1446	0.0845049
1458	0.103735
1470	0.0852272
1482	0.0529058
1494	0.0352104
1506	0.0264529
1518	0.0199525
1530	0.015619
1542	0.0135425
1554	0.0160704
1566	0.0165218
1578	0.014987
1590	0.0163412
1602	0.018508
1614	0.0261821
1626	0.0436067
1638	0.0783656
1650	0.0745738
1662	0.0412593
1674	0.0310574
1686	0.0340367
1698	0.0455929
1710	0.0712333
1722	0.112402
1734	0.26155
1746	0.746189
1758	0.810832
1770	0.313733
1782	0.136508
1794	0.134793
1806	0.113486
1818	0.06699
1830	0.0240153
1842	0.0224805
1854	0.0169732
1866	0.0157092
1878	0.013091
1890	0.0121882
1902	0.0129105
1914	0.0145356
1926	0.0128202
1938	0.0103825
1950	0.00966028
1962	0.0118271
1974	0.0148967
1986	0.0136327
1998	0.0126396
2010	0.0105631
2022	0.0136327
2034	0.013723
2046	0.0140841
2058	0.0125493
2070	0.0110145
2082	0.00957
2094	0.0121882
2106	0.0109242
2118	0.0110145
2130	0.0084866
2142	0.00650038
2154	0.00595868
2166	0.00722264
2178	0.00677123
2190	0.00758377
2202	0.00379189
2214	0.004785
2226	0.0037016
2238	0.00641009
2250	0.00487528
2262	0.00604896
2274	0.00505585
2286	0.00469472
2298	0.00577811
2310	0.00821575
2322	0.00938943
2334	0.00839632
2346	0.00785462
2358	0.00893802
2370	0.00288906
2382	0.00415302
2394	0.00650038
2406	0.0037016
2418	0.0053267
2430	0.00279877
2442	0.00261821
2454	0.00315991
2466	0.00288906
2478	0.00288906
2490	0.000361132
2502	0.00153481
2514	0.00243764
2526	0.00306962
2538	0.00379189
2550	0.00261821
2562	0.00225707
2574	0.00343075
2586	0.00379189
2598	0.00541698
2610	0.00523641
2622	0.00487528
2634	0.00523641
2646	0.00541698
2658	0.00550726
2670	0.00523641
2682	0.0053267
2694	0.00695179
2706	0.00866717
2718	0.0131813
2730	0.015619
2742	0.0168829
2754	0.0165218
2766	0.0186886
2778	0.023293
2790	0.0302448
2802	0.0480306
2814	0.0838729
2826	0.149238
2838	0.151134
2850	0.141925
2862	0.15321
2874	0.167294
2886	0.21704
2898	0.220381
2910	0.200067
2922	0.186796
2934	0.210089
2946	0.197629
2958	0.20422
2970	0.174246
2982	0.14987
2994	0.172079
3006	0.117097
3018	0.0514613
3030	0.0306059
3042	0.0241056
3054	0.0209457
3066	0.0216679
3078	0.0160704
3090	0.0134522
3102	0.0127299
3114	0.0120076
3126	0.00857689
3138	0.00776434
3150	0.00677123
3162	0.00641009
3174	0.00722264
3186	0.00839632
3198	0.00451415
3210	0.00397245
3222	0.00433358
3234	0.00695179
3246	0.00767405
3258	0.00595868
3270	0.00343075
3282	0.00207651
3294	0.00315991
3306	0.00713236
3318	0.00758377
3330	0.00631981
3342	0.00252792
3354	0.00315991
3366	0.00487528
3378	0.00722264
3390	0.00722264
3402	0.00397245
3414	0.00361132
3426	0.00677123
3438	0.00984085
3450	0.010202
3462	0.00947971
3474	0.00839632
3486	0.00966028
3498	0.00957
3510	0.0105631
3522	0.0103825
3534	0.00713236
3546	0.00505585
3558	0.004785
3570	0.00704207
3582	0.00803519
3594	0.0084866
3606	0.0114659
3618	0.00938943
3630	0.0103825
3642	0.0136327
3654	0.0160704
3666	0.0134522
3678	0.00984085
3690	0.00713236
3702	0.00505585
3714	0.0113757
3726	0.0118271
3738	0.0103825
3750	0.00866717
3762	0.00650038
3774	0.00875745
3786	0.0112854
3798	0.014355
3810	0.0130008
3822	0.00866717
3834	0.00695179
3846	0.0105631
3858	0.0132716
3870	0.0133619
3882	0.0104728
3894	0.00541698
3906	0.0090283
3918	0.0135425
3930	0.017876
3942	0.0158898
3954	0.00180566
3966	0.00270849
