Infrared Spectrum: 1,4-Benzenedicarboxylic acid, di-2-propenyl ester
Formula: C 14 H 14 O 4
CAS: 1026-92-2
Origin: Sadtler Research Labs Under US-EPA Contract
1/CM	ABSORBANCE
450	0.0225805
462	0.0120429
474	0.0127956
486	0.0182526
498	0.0427148
510	0.0135483
522	0.0141128
534	0.0137365
546	0.0122311
558	0.00319891
570	0.0071505
582	0.00752684
594	0.0045161
606	0.0013172
618	0.00470427
630	0.0126075
642	0.013172
654	0.0118548
666	0.00884404
678	0.0084677
690	0.0116666
702	0.0126075
714	0.0261558
726	0.12344
738	0.179515
750	0.0442202
762	0.020887
774	0.016559
786	0.0171236
798	0.0306719
810	0.0461019
822	0.0302955
834	0.0242741
846	0.023145
858	0.0299192
870	0.0596502
882	0.0434675
894	0.0353761
906	0.0543814
918	0.101801
930	0.174246
942	0.13172
954	0.0940855
966	0.16465
978	0.208305
990	0.130967
1002	0.0987898
1014	0.167472
1026	0.184031
1038	0.0445965
1050	0.0498653
1062	0.0745157
1074	0.163332
1086	0.392525
1098	1.06354
1110	0.795399
1122	0.512201
1134	0.174623
1146	0.0854296
1158	0.0656717
1170	0.0602147
1182	0.0543814
1194	0.0538169
1206	0.0679297
1218	0.114408
1230	0.373331
1242	0.86314
1254	1.01725
1266	1.85574
1278	0.660668
1290	0.270402
1302	0.185348
1314	0.0982253
1326	0.0681179
1338	0.057204
1350	0.0668007
1362	0.141693
1374	0.0952145
1386	0.0553223
1398	0.0598384
1410	0.143574
1422	0.0609674
1434	0.0526879
1446	0.0664244
1458	0.0758329
1470	0.0444084
1482	0.0280375
1494	0.0248386
1506	0.0462901
1518	0.0301074
1530	0.0201343
1542	0.0148655
1554	0.0152419
1566	0.0216397
1578	0.037446
1590	0.0159945
1602	0.0150537
1614	0.0159945
1626	0.0171236
1638	0.0244622
1650	0.0381987
1662	0.0291665
1674	0.0265321
1686	0.0316127
1698	0.0526879
1710	0.0733867
1722	0.138494
1734	0.570534
1746	1.25905
1758	0.322337
1770	0.0895694
1782	0.050618
1794	0.0355643
1806	0.0306719
1818	0.0278493
1830	0.0190053
1842	0.0159945
1854	0.0161827
1866	0.0184408
1878	0.0161827
1890	0.0126075
1902	0.0105376
1914	0.00978489
1926	0.0109139
1938	0.0141128
1950	0.0139247
1962	0.00959672
1974	0.0071505
1986	0.00564513
1998	0.00470427
2010	0.00564513
2022	0.00733867
2034	0.00865587
2046	0.00865587
2058	0.0127956
2070	0.0146773
2082	0.0103494
2094	0.00733867
2106	0.00545696
2118	0.00395159
2130	0.00301074
2142	0.00244622
2154	0.00319891
2166	0.00357525
2178	0.00395159
2190	0.00395159
2202	0.00395159
2214	0.00432793
2226	0.00357525
2238	0.00338708
2250	0.00432793
2262	0.00432793
2274	0.00489245
2286	0.00376342
2298	0.00319891
2310	0.00112903
2322	0
2334	0.00301074
2346	0.00809135
2358	0.000188171
2370	0.0101612
2382	0.00884404
2394	0.00489245
2406	0.0045161
2418	0.00395159
2430	0.00508062
2442	0.00564513
2454	0.00639781
2466	0.00620964
2478	0.00508062
2490	0.00508062
2502	0.00489245
2514	0.00508062
2526	0.00677416
2538	0.0071505
2550	0.00733867
2562	0.00752684
2574	0.00752684
2586	0.00696233
2598	0.00564513
2610	0.0045161
2622	0.00244622
2634	0.00188171
2646	0.00319891
2658	0.00112903
2670	0.00169354
2682	0.00620964
2694	0.00752684
2706	0.00658598
2718	0.00733867
2730	0.00733867
2742	0.00865587
2754	0.00922038
2766	0.00940855
2778	0.00978489
2790	0.00959672
2802	0.00940855
2814	0.00997306
2826	0.0116666
2838	0.0126075
2850	0.0156182
2862	0.019758
2874	0.0246504
2886	0.0304837
2898	0.0365052
2910	0.0291665
2922	0.0310482
2934	0.0438438
2946	0.0758329
2958	0.108198
2970	0.0683061
2982	0.0487363
2994	0.0493008
3006	0.0436557
3018	0.0385751
3030	0.0415858
3042	0.0263439
3054	0.0229569
3066	0.0263439
3078	0.0331181
3090	0.0468546
3102	0.0609674
3114	0.0278493
3126	0.014301
3138	0.0120429
3150	0.00978489
3162	0.00790318
3174	0.00771501
3186	0.0058333
3198	0.00526879
3210	0.00526879
3222	0.00564513
3234	0.00620964
3246	0.00470427
3258	0.00677416
3270	0.00470427
3282	0.00508062
3294	0.00282256
3306	0.00244622
3318	0.00432793
3330	0.00470427
3342	0.00526879
3354	0.00526879
3366	0.00508062
3378	0.00470427
3390	0.00357525
3402	0.00112903
3414	0.00301074
3426	0.00338708
3438	0.00526879
3450	0.00790318
3462	0.0120429
3474	0.0114784
3486	0.00545696
3498	0.000752684
3510	0.00169354
3522	0.000752684
3534	0.00470427
3546	0.00319891
3558	0.00357525
3570	0.00564513
3582	0.00263439
3594	0.0013172
3606	0.00206988
3618	0.00150537
3630	0.00301074
3642	0.00432793
3654	0.00602147
3666	0.00677416
3678	0.00432793
3690	0.00470427
3702	0.00602147
3714	0.0058333
3726	0.00658598
3738	0.00827952
3750	0.00809135
3762	0.00809135
3774	0.00865587
3786	0.00809135
3798	0.00790318
3810	0.0107257
3822	0.00959672
3834	0.0114784
3846	0.00677416
3858	0.0109139
3870	0.0135483
3882	0.00827952
3894	0.0045161
3906	0.00696233
3918	0.00244622
3930	0.00639781
3942	0.00809135
3954	0.00940855
3966	0.0141128
