Infrared Spectrum: Acetic acid, (6-acetyl-4-chloro-m-tolyloxy)-,  ethyl ester
Formula: C 13 H 15 Cl O 4
CAS: 1026-32-0
Origin: Sadtler Research Labs Under US-EPA Contract
1/CM	ABSORBANCE
450	0.0117039
462	0.00168402
474	0.00261023
486	0.00429425
498	0.00159982
510	0.00143142
522	0.00185242
534	0.00690448
546	0.019282
558	0.0437003
570	0.0279547
582	0.0176822
594	0.0259339
606	0.068287
618	0.0887479
630	0.0457211
642	0.0279547
654	0.0182716
666	0.0123775
678	0.0109461
690	0.0122091
702	0.0155772
714	0.0385641
726	0.0587723
738	0.0317438
750	0.0277021
762	0.0266075
774	0.0287125
786	0.0282073
798	0.0213029
810	0.0177664
822	0.0160824
834	0.0284599
846	0.0501838
858	0.0526256
870	0.0291335
882	0.0317438
894	0.0454685
906	0.0512784
918	0.0378904
930	0.0396587
942	0.0395745
954	0.0367958
966	0.0308176
978	0.0479946
990	0.0556569
1002	0.0639928
1014	0.103904
1026	0.178759
1038	0.224817
1050	0.191726
1062	0.205619
1074	0.283842
1086	0.316259
1098	0.183642
1110	0.0986836
1122	0.0644138
1134	0.0735075
1146	0.134216
1158	0.410227
1170	0.84201
1182	0.450812
1194	0.533329
1206	0.566841
1218	0.681775
1230	0.378736
1242	0.329563
1254	0.348171
1266	0.366695
1278	0.381515
1290	0.31567
1302	0.197199
1314	0.128659
1326	0.0821802
1338	0.087148
1350	0.143142
1362	0.236184
1374	0.397766
1386	0.415785
1398	0.2782
1410	0.125038
1422	0.105504
1434	0.115524
1446	0.150299
1458	0.143563
1470	0.196104
1482	0.321311
1494	0.169833
1506	0.0613825
1518	0.0406691
1530	0.0398271
1542	0.0453843
1554	0.052373
1566	0.0490892
1578	0.0441213
1590	0.086727
1602	0.187516
1614	0.0985152
1626	0.0439529
1638	0.0319122
1650	0.0474052
1662	0.0748547
1674	0.0735917
1686	0.120576
1698	0.337983
1710	0.368885
1722	0.18339
1734	0.159392
1746	0.236268
1758	0.511184
1770	0.322742
1782	0.323669
1794	0.110051
1806	0.0472368
1818	0.0268601
1830	0.0165876
1842	0.0104409
1854	0.00682028
1866	0.00648348
1878	0.00639928
1890	0.00631507
1902	0.00479946
1914	0.00277863
1926	0.00151562
1938	0.00176822
1950	0.00117881
1962	0.000926211
1974	0.000673608
1986	0.000926211
1998	0.000926211
2010	0.000926211
2022	0.000926211
2034	0.000926211
2046	0.00109461
2058	0.00159982
2070	0.00185242
2082	0.00168402
2094	0.00185242
2106	0.00235763
2118	0.00252603
2130	0.00210502
2142	0.00117881
2154	0.00126302
2166	0.00084201
2178	0.000589407
2190	0.000505206
2202	0.000926211
2214	0.000505206
2226	0.000505206
2238	0.000673608
2250	0.000336804
2262	0.000168402
2274	0.000589407
2286	0.000505206
2298	0.00109461
2310	0.000505206
2322	0.00117881
2334	0.000252603
2346	0.00185242
2358	0.000168402
2370	0.000168402
2382	0.00168402
2394	0.00101041
2406	0.00134722
2418	0.00151562
2430	0.00126302
2442	0.00168402
2454	0.00126302
2466	0.00117881
2478	0.00084201
2490	0.000589407
2502	0.000589407
2514	0.00084201
2526	0.000926211
2538	0.00159982
2550	0.00210502
2562	0.00202082
2574	0.00109461
2586	0.000589407
2598	0.000673608
2610	0.000589407
2622	0.000926211
2634	0.00134722
2646	0.00143142
2658	0.00159982
2670	0.00168402
2682	0.00202082
2694	0.00159982
2706	0.00202082
2718	0.00286283
2730	0.00319964
2742	0.00387325
2754	0.00496786
2766	0.00471526
2778	0.00538886
2790	0.00547307
2802	0.00656768
2814	0.00783069
2826	0.0102725
2838	0.0122091
2850	0.017177
2862	0.0265233
2874	0.0392377
2886	0.0421847
2898	0.0421005
2910	0.0534676
2922	0.0730023
2934	0.117545
2946	0.14011
2958	0.0981784
2970	0.107861
2982	0.145247
2994	0.161077
3006	0.0980942
3018	0.0665188
3030	0.0404165
3042	0.0309018
3054	0.0254287
3066	0.0261023
3078	0.0255129
3090	0.0156614
3102	0.0144826
3114	0.0119565
3126	0.00892531
3138	0.00774649
3150	0.00673608
3162	0.00580987
3174	0.00488366
3186	0.00378904
3198	0.00387325
3210	0.00345224
3222	0.00353644
3234	0.00319964
3246	0.00286283
3258	0.00252603
3270	0.00261023
3282	0.00277863
3294	0.00235763
3306	0.00227343
3318	0.00244183
3330	0.00286283
3342	0.00235763
3354	0.00277863
3366	0.00378904
3378	0.00538886
3390	0.00656768
3402	0.00437845
3414	0.00294704
3426	0.00210502
3438	0.00193662
3450	0.00117881
3462	0.00168402
3474	0.00202082
3486	0.00294704
3498	0.00353644
3510	0.00193662
3522	0.00168402
3534	0.00336804
3546	0.00202082
3558	0.00101041
3570	0.00151562
3582	0.00117881
3594	0.00210502
3606	0.00210502
3618	0.00168402
3630	0.00185242
3642	0.00134722
3654	0.00143142
3666	0.00134722
3678	0.00159982
3690	0.00143142
3702	0.00101041
3714	0.00202082
3726	0.00117881
3738	0.00218923
3750	0.000926211
3762	0.000926211
3774	0.00126302
3786	0.00151562
3798	0.000505206
3810	0.00117881
3822	0.000252603
3834	0.000673608
3846	0.000168402
3858	0.000505206
3870	0.000421005
3882	0.000589407
3894	0.00126302
3906	0.00109461
3918	0.00134722
3930	0.00143142
3942	0.00185242
3954	0.00277863
3966	0.00210502
