Infrared Spectrum: Acetic acid, 2-ethylhexyl ester
Formula: C 10 H 20 O 2
CAS: 103-09-3
Origin: Sadtler Research Labs Under US-EPA Contract
1/CM	ABSORBANCE
450	0.0707202
462	0.0359041
474	0.0466287
486	0.0267338
498	0.0236252
510	0.0338835
522	0.0251795
534	0.0349715
546	0.0214492
558	0.0208275
570	0.0206721
582	0.0312412
594	0.0259566
606	0.0391681
618	0.0309304
630	0.0376138
642	0.0402561
654	0.0214492
666	0.0153875
678	0.0153875
690	0.0085486
702	0.00637259
714	0.00792688
726	0.0167863
738	0.0188069
750	0.0139886
762	0.0146103
774	0.0296869
786	0.0194286
798	0.0166309
810	0.0155429
822	0.0211383
834	0.0245578
846	0.0276664
858	0.0254904
870	0.0250241
882	0.0299978
894	0.037303
906	0.0346607
918	0.0281326
930	0.0298424
942	0.0355932
954	0.0486493
966	0.0500481
978	0.050359
990	0.0551773
1002	0.0739842
1014	0.126985
1026	0.235941
1038	0.357642
1050	0.264229
1062	0.143616
1074	0.112997
1086	0.0957443
1098	0.0651248
1110	0.0517579
1122	0.0450744
1134	0.0357487
1146	0.0393235
1158	0.0425875
1170	0.0433647
1182	0.0539339
1194	0.0868848
1206	0.183406
1218	0.508564
1230	1.42622
1242	1.2024
1254	0.495197
1266	0.273244
1278	0.169573
1290	0.103049
1302	0.0711865
1314	0.0540893
1326	0.041655
1338	0.0435201
1350	0.0571979
1362	0.182629
1374	0.262209
1386	0.220087
1398	0.152787
1410	0.0582859
1422	0.046007
1434	0.0498927
1446	0.067767
1458	0.131027
1470	0.166154
1482	0.0875065
1494	0.0404115
1506	0.0343498
1518	0.0315521
1530	0.0282881
1542	0.0256458
1554	0.0194286
1566	0.0184961
1578	0.0175635
1590	0.0149212
1602	0.0139886
1614	0.0155429
1626	0.0172526
1638	0.0181852
1650	0.0192732
1662	0.0184961
1674	0.0233144
1686	0.0270446
1698	0.0318629
1710	0.0456961
1722	0.0798905
1734	0.140352
1746	0.299823
1758	0.898846
1770	0.668811
1782	0.21558
1794	0.105536
1806	0.0615499
1818	0.0346607
1830	0.0236252
1842	0.0191178
1854	0.0147658
1866	0.014144
1878	0.013056
1890	0.0136778
1902	0.0127452
1914	0.0115017
1926	0.0115017
1938	0.0118126
1950	0.0115017
1962	0.00948117
1974	0.0085486
1986	0.0096366
1998	0.00994746
2010	0.00932574
2022	0.00761602
2034	0.00668345
2046	0.00885945
2058	0.00948117
2070	0.00746059
2082	0.00901488
2094	0.0122789
2106	0.0122789
2118	0.0116572
2130	0.0111909
2142	0.0110355
2154	0.0110355
2166	0.00948117
2178	0.00777145
2190	0.00761602
2202	0.00823774
2214	0.00823774
2226	0.00777145
2238	0.00652802
2250	0.00761602
2262	0.00792688
2274	0.00761602
2286	0.00637259
2298	0.00730516
2310	0.0102583
2322	0.0124343
2334	0.00885945
2346	0.00155429
2358	0.0096366
2370	0.000310858
2382	0.000310858
2394	0.0037303
2406	0.00544002
2418	0.00621716
2430	0.00544002
2442	0.00466287
2454	0.00450744
2466	0.00621716
2478	0.0059063
2490	0.00357487
2502	0.00202058
2514	0.00248686
2526	0.00310858
2538	0.00279772
2550	0.000466287
2562	0.000310858
2574	0.00202058
2586	0.00310858
2598	0.00388573
2610	0.00419658
2622	0.00637259
2634	0.00730516
2646	0.00746059
2658	0.00699431
2670	0.0059063
2682	0.00606173
2694	0.00714973
2706	0.00714973
2718	0.00606173
2730	0.00870402
2742	0.0132115
2754	0.0124343
2766	0.00994746
2778	0.00979203
2790	0.0139886
2802	0.0177189
2814	0.0216046
2826	0.0284435
2838	0.042743
2850	0.0774036
2862	0.194597
2874	0.313967
2886	0.31894
2898	0.254593
2910	0.279306
2922	0.421679
2934	0.641455
2946	0.627467
2958	0.484783
2970	0.774347
2982	0.378314
2994	0.126985
3006	0.0673008
3018	0.0464733
3030	0.0377692
3042	0.0298424
3054	0.0259566
3066	0.0237806
3078	0.0175635
3090	0.0146103
3102	0.0149212
3114	0.0118126
3126	0.01088
3138	0.00714973
3150	0.00606173
3162	0.0107246
3174	0.0102583
3186	0.00792688
3198	0.00730516
3210	0.00761602
3222	0.00932574
3234	0.00792688
3246	0.00575087
3258	0.00621716
3270	0.00994746
3282	0.00699431
3294	0.00388573
3306	0.00279772
3318	0.00575087
3330	0.00528459
3342	0.00295315
3354	0.00341944
3366	0.0059063
3378	0.00699431
3390	0.00217601
3402	0.00295315
3414	0.00310858
3426	0.00497373
3438	0.00404115
3450	0.0037303
3462	0.00388573
3474	0.00637259
3486	0.0115017
3498	0.0125897
3510	0.00994746
3522	0.00761602
3534	0.00637259
3546	0.00870402
3558	0.00652802
3570	0.00668345
3582	0.00948117
3594	0.0110355
3606	0.00870402
3618	0.00559544
3630	0.00606173
3642	0.00901488
3654	0.00885945
3666	0.00870402
3678	0.00746059
3690	0.00808231
3702	0.00948117
3714	0.00606173
3726	0.00730516
3738	0.00279772
3750	0.00994746
3762	0.0102583
3774	0.00419658
3786	0.00606173
3798	0.00839317
3810	0.0105692
3822	0.00637259
3834	0.00466287
3846	0.00652802
3858	0.0116572
3870	0.00761602
3882	0.00466287
3894	0.00808231
3906	0.0107246
3918	0.0115017
3930	0.00652802
3942	0.00932574
3954	0.00746059
3966	0.0166309
