Infrared Spectrum: Phenoxy ethyl isobutyrate
Formula: C 12 H 16 O 3
CAS: 103-60-6
Origin: Sadtler Research Labs Under US-EPA Contract
1/CM	ABSORBANCE
450	0.0406523
462	0.0106093
474	0.032621
486	0.0201279
498	0.0385701
510	0.0407515
522	0.0310346
534	0.0256804
546	0.0166575
558	0.0295473
570	0.0151703
582	0.0251846
594	0.0236973
606	0.0249863
618	0.0167567
630	0.0165584
642	0.0183431
654	0.0220117
666	0.0290515
678	0.0770411
690	0.144365
702	0.0746615
714	0.0348024
726	0.0398591
738	0.0920131
750	0.230727
762	0.162114
774	0.0941944
786	0.0636556
798	0.0428337
810	0.0420404
822	0.0516582
834	0.0360913
846	0.0425362
858	0.0405532
870	0.0433294
882	0.0556243
894	0.0701996
906	0.0712903
918	0.0644488
930	0.0955825
942	0.111546
954	0.0764462
966	0.0538395
978	0.0468989
990	0.0589954
1002	0.0784292
1014	0.0680183
1026	0.0874521
1038	0.13445
1050	0.216251
1062	0.280204
1074	0.325913
1086	0.329383
1098	0.275742
1110	0.240146
1122	0.297258
1134	0.41386
1146	0.725594
1158	0.967029
1170	0.546625
1182	0.514301
1194	0.572999
1206	0.377868
1218	0.520151
1230	0.65242
1242	0.826035
1254	0.589359
1266	0.319468
1278	0.244013
1290	0.234395
1302	0.203063
1314	0.117198
1326	0.109266
1338	0.154281
1350	0.138515
1362	0.0955825
1374	0.0914181
1386	0.104903
1398	0.142184
1410	0.0856673
1422	0.0509641
1434	0.0615734
1446	0.0895343
1458	0.186406
1470	0.247285
1482	0.267215
1494	0.5379
1506	0.302612
1518	0.0623666
1530	0.0325219
1542	0.0312329
1554	0.0345049
1566	0.0502701
1578	0.0979622
1590	0.26196
1602	0.381339
1614	0.110951
1626	0.0400574
1638	0.0213177
1650	0.0184423
1662	0.0224084
1674	0.022805
1686	0.0269693
1698	0.0439243
1710	0.0567149
1722	0.0937978
1734	0.199593
1746	0.494273
1758	0.827126
1770	0.372712
1782	0.134946
1794	0.0607802
1806	0.0319269
1818	0.0232016
1830	0.021516
1842	0.0199296
1854	0.0163601
1866	0.0150711
1878	0.0106093
1890	0.0116999
1902	0.0117991
1914	0.0172524
1926	0.0198304
1938	0.0186406
1950	0.015666
1962	0.0130881
1974	0.0133855
1986	0.014972
1998	0.0172524
2010	0.0159635
2022	0.0163601
2034	0.0150711
2046	0.0134847
2058	0.0126915
2070	0.012394
2082	0.0110059
2094	0.00951859
2106	0.00892368
2118	0.00793216
2130	0.00733725
2142	0.00674234
2154	0.00604827
2166	0.00575082
2178	0.00545336
2190	0.0049576
2202	0.00505675
2214	0.00485845
2226	0.00446184
2238	0.00545336
2250	0.00565166
2262	0.00644488
2274	0.0072381
2286	0.00783301
2298	0.00832877
2310	0.00862622
2322	0.00842792
2334	0.00733725
2346	0.00674234
2358	0.00783301
2370	0.00793216
2382	0.00803131
2394	0.00813046
2406	0.00822962
2418	0.00842792
2430	0.00822962
2442	0.00842792
2454	0.00872538
2466	0.00852707
2478	0.00932029
2490	0.0101135
2502	0.00961774
2514	0.00941944
2526	0.0100144
2538	0.0107084
2550	0.0108076
2562	0.0099152
2574	0.00922114
2586	0.00822962
2598	0.00793216
2610	0.00842792
2622	0.00753555
2634	0.00753555
2646	0.00713894
2658	0.00713894
2670	0.00703979
2682	0.00694064
2694	0.00694064
2706	0.00842792
2718	0.0100144
2730	0.0127906
2742	0.0151703
2754	0.0135838
2766	0.0134847
2778	0.0148728
2790	0.0151703
2802	0.015666
2814	0.0168558
2826	0.0208219
2838	0.0235982
2850	0.0337117
2862	0.0533438
2874	0.09588
2886	0.152397
2898	0.140796
2910	0.131575
2922	0.163402
2934	0.200584
2946	0.243815
2958	0.273759
2970	0.285954
2982	0.402161
2994	0.252838
3006	0.118784
3018	0.0646471
3030	0.0615734
3042	0.091319
3054	0.0902283
3066	0.0844775
3078	0.112042
3090	0.0773386
3102	0.063259
3114	0.039165
3126	0.018244
3138	0.0133855
3150	0.0117991
3162	0.0112042
3174	0.0114025
3186	0.0116999
3198	0.011105
3210	0.0100144
3222	0.00892368
3234	0.00932029
3246	0.00783301
3258	0.00862622
3270	0.00813046
3282	0.00813046
3294	0.00862622
3306	0.00892368
3318	0.00922114
3330	0.00872538
3342	0.00872538
3354	0.00932029
3366	0.00872538
3378	0.00872538
3390	0.00892368
3402	0.00981605
3414	0.0097169
3426	0.00892368
3438	0.00932029
3450	0.00932029
3462	0.0117991
3474	0.0121957
3486	0.0150711
3498	0.0157652
3510	0.0127906
3522	0.0115016
3534	0.0106093
3546	0.0119974
3558	0.011105
3570	0.0112042
3582	0.0103118
3594	0.0106093
3606	0.0107084
3618	0.00822962
3630	0.0106093
3642	0.0116008
3654	0.0112042
3666	0.0125923
3678	0.00456099
3690	0.0119974
3702	0.0112042
3714	0.00951859
3726	0.00951859
3738	0.00852707
3750	0.0124932
3762	0.0108076
3774	0.00981605
3786	0.0115016
3798	0.0109067
3810	0.0138813
3822	0.00664318
3834	0.0102127
3846	0.0138813
3858	0.0102127
3870	0.00604827
3882	0.00961774
3894	0.0072381
3906	0.0107084
3918	0.0144762
3930	0.0101135
3942	0.00951859
3954	0.0103118
3966	0.0116999
