Infrared Spectrum: Propanoic acid, 2-methyl-, 4-methylphenyl ester
Formula: C 11 H 14 O 2
CAS: 103-93-5
Origin: Sadtler Research Labs Under US-EPA Contract
1/CM	ABSORBANCE
450	0.0160187
462	0.0101725
474	0.010874
486	0.0287635
498	0.0682842
510	0.059164
522	0.0232681
534	0.0182403
546	0.00549547
558	0.00304005
570	0.0065478
582	0.00526162
594	0.0056124
606	0.0118094
618	0.0037416
630	0.00631395
642	0.0104063
654	0.00619703
666	0.00923707
678	0.00479393
690	0.00689857
702	0.0104063
714	0.00818475
726	0.00958785
738	0.0149664
750	0.0254896
762	0.020345
774	0.0204619
786	0.0426776
798	0.0789244
810	0.0694534
822	0.0473546
834	0.056124
846	0.0668811
858	0.0843029
870	0.0652442
882	0.0275943
894	0.0228004
906	0.04677
918	0.0547209
930	0.040573
942	0.0367144
954	0.020228
966	0.0182403
978	0.0205788
990	0.0188249
1002	0.020345
1014	0.070155
1026	0.087226
1038	0.124174
1050	0.240632
1062	0.147092
1074	0.132827
1086	0.226601
1098	0.52511
1110	0.670565
1122	0.740252
1134	0.75288
1146	0.382696
1158	0.346215
1170	0.694301
1182	0.491202
1194	0.605087
1206	1.16925
1218	0.538557
1230	0.322947
1242	0.247998
1254	0.130254
1266	0.0720258
1278	0.04677
1290	0.0461854
1302	0.0510962
1314	0.0458346
1326	0.0604502
1338	0.100439
1350	0.143467
1362	0.0772874
1374	0.0712073
1386	0.101725
1398	0.104999
1410	0.0470038
1422	0.0433792
1434	0.0503947
1446	0.0551886
1458	0.0611518
1470	0.163227
1482	0.137036
1494	0.0985678
1506	0.494008
1518	0.400234
1530	0.0353113
1542	0.0121602
1554	0.0160187
1566	0.0166033
1578	0.0174218
1590	0.0284128
1602	0.0461854
1614	0.0585794
1626	0.0197603
1638	0.00830167
1650	0.00432622
1662	0.0118094
1674	0.0070155
1686	0.004677
1698	0.00479393
1710	0.0159018
1722	0.0246712
1734	0.0453669
1746	0.101023
1758	0.248349
1770	0.638995
1782	0.545455
1794	0.139258
1806	0.0520316
1818	0.0301666
1830	0.0192926
1842	0.0156679
1854	0.0173049
1866	0.0167203
1878	0.0213973
1890	0.0190588
1902	0.0136802
1914	0.0109909
1926	0.0102894
1938	0.0107571
1950	0.0128617
1962	0.0137971
1974	0.0111079
1986	0.0104063
1998	0.010874
2010	0.0105232
2022	0.00818475
2034	0.0113417
2046	0.0115756
2058	0.00736627
2070	0.0079509
2082	0.00724935
2094	0.00584625
2106	0.0056124
2118	0.00502777
2130	0.00549547
2142	0.00537855
2154	0.00409237
2166	0.00362467
2178	0.00339083
2190	0.00350775
2202	0.00409237
2214	0.0051447
2226	0.0051447
2238	0.00584625
2250	0.00572932
2262	0.0056124
2274	0.00584625
2286	0.00526162
2298	0.00619703
2310	0.00818475
2322	0.0101725
2334	0.00818475
2346	0.004677
2358	0.0123941
2370	0
2382	0
2394	0.00456008
2406	0.00689857
2418	0.004677
2430	0.00315697
2442	0.00292312
2454	0.0023385
2466	0.00198773
2478	0.00210465
2490	0.00198773
2502	0.00163695
2514	0.00175388
2526	0.0009354
2538	0.000584625
2550	0.0009354
2562	0.000818475
2574	0.00128617
2586	0.00222157
2598	0.00105233
2610	0
2622	0.0004677
2634	0.00128617
2646	0.00128617
2658	0.000818475
2670	0.00222157
2682	0.00268928
2694	0.00070155
2706	0
2718	0.000116925
2730	0.00128617
2742	0.0056124
2754	0.00432622
2766	0.0014031
2778	0.00175388
2790	0.00116925
2802	0.00210465
2814	0.00350775
2826	0.00678165
2838	0.00806782
2850	0.0141479
2862	0.0306343
2874	0.0750659
2886	0.131073
2898	0.0964631
2910	0.0875768
2922	0.123239
2934	0.19316
2946	0.196317
2958	0.149898
2970	0.158316
2982	0.367846
2994	0.22929
3006	0.109325
3018	0.0715581
3030	0.0784567
3042	0.128384
3054	0.0596317
3066	0.0434961
3078	0.0346098
3090	0.0194095
3102	0.0170711
3114	0.0170711
3126	0.0126279
3138	0.00678165
3150	0.00432622
3162	0.0037416
3174	0.0032739
3186	0.0032739
3198	0.00409237
3210	0.00268928
3222	0.00222157
3234	0.0014031
3246	0.00105233
3258	0.00023385
3270	0.00245542
3282	0.000818475
3294	0.000818475
3306	0.00152002
3318	0.00175388
3330	0.00257235
3342	0.00152002
3354	0.0023385
3366	0.00210465
3378	0.00339083
3390	0.00198773
3402	0.0037416
3414	0.00292312
3426	0.00245542
3438	0.00315697
3450	0.00175388
3462	0.00175388
3474	0.0042093
3486	0.00339083
3498	0.00491085
3510	0.00643087
3522	0.00958785
3534	0.0088863
3546	0.004677
3558	0.00397545
3570	0.00304005
3582	0.00502777
3594	0.0032739
3606	0.00397545
3618	0.00537855
3630	0.00350775
3642	0.00257235
3654	0.0056124
3666	0.00619703
3678	0.00362467
3690	0.00502777
3702	0.00572932
3714	0.00257235
3726	0.00409237
3738	0.00210465
3750	0.00152002
3762	0.0023385
3774	0.00479393
3786	0.00070155
3798	0.00432622
3810	0.0051447
3822	0.00292312
3834	0.00268928
3846	0.00502777
3858	0.00456008
3870	0.00678165
3882	0.00257235
3894	0.00643087
3906	0.0060801
3918	0.00491085
3930	0.0032739
3942	0.00958785
3954	0.0028062
3966	0.00853553
