Infrared Spectrum: Benzene, (2-bromoethyl)-
Formula: C 8 H 9 Br
CAS: 103-63-9
Origin: Sadtler Research Labs Under US-EPA Contract
1/CM	ABSORBANCE
450	0.00304179
462	0.0342202
474	0.0756938
486	0.0804905
498	0.0318803
510	0.00719501
522	0.029716
534	0.0905518
546	0.226847
558	0.0669779
570	0.0686158
582	0.0388413
594	0.0100613
606	0.0312954
618	0.0101198
630	0.036092
642	0.080666
654	0.236324
666	0.110616
678	0.144134
690	0.443107
702	0.514355
714	0.211288
726	0.147527
738	0.277037
750	0.263758
762	0.121613
774	0.0387828
786	0.0247438
798	0.0198301
810	0.0219945
822	0.0231644
834	0.0143315
846	0.0124012
858	0.0115237
870	0.0334012
882	0.028663
894	0.0195377
906	0.0392508
918	0.0544598
930	0.0457439
942	0.0277856
954	0.0322898
966	0.0276101
978	0.0308859
990	0.02878
1002	0.051769
1014	0.04434
1026	0.0888554
1038	0.0958749
1050	0.0258552
1062	0.0455684
1074	0.0474988
1086	0.0107048
1098	0.0236909
1110	0.0271421
1122	0.0394263
1134	0.0384319
1146	0.0312369
1158	0.0383149
1170	0.0497801
1182	0.0760448
1194	0.123661
1206	0.107282
1218	0.264051
1230	0.0973958
1242	0.0603094
1254	0.0990922
1266	0.219068
1278	0.144836
1290	0.0518275
1302	0.0497801
1314	0.0958749
1326	0.0965184
1338	0.0442815
1350	0.0317633
1362	0.0212925
1374	0.0228134
1386	0.029131
1398	0.0197132
1410	0.0269667
1422	0.0380224
1434	0.0983318
1446	0.161566
1458	0.133897
1470	0.0831228
1482	0.0408302
1494	0.183443
1506	0.136998
1518	0.021702
1530	0.0262062
1542	0.00935936
1554	0.0205906
1566	0.0238079
1578	0.0296575
1590	0.0500141
1602	0.112254
1614	0.073471
1626	0.0190112
1638	0.0140975
1650	0.0156184
1662	0.021585
1674	0.0104123
1686	0.0087159
1698	0.0202981
1710	0.0323483
1722	0.0266742
1734	0.0166129
1746	0.0318218
1758	0.0332257
1770	0.0248023
1782	0.021351
1794	0.0356826
1806	0.0338107
1818	0.0215265
1830	0.0132786
1842	0.0155599
1854	0.0198886
1866	0.0238079
1878	0.0295405
1890	0.0235154
1902	0.0170223
1914	0.0140975
1926	0.0201226
1938	0.0325238
1950	0.0355071
1962	0.0333427
1974	0.0118162
1986	0.0120502
1998	0.0100613
2010	0.0116407
2022	0.0108803
2034	0.0122257
2046	0.00994432
2058	0.00971034
2070	0.00941786
2082	0.00801395
2094	0.00953485
2106	0.00801395
2118	0.00900838
2130	0.00801395
2142	0.0088329
2154	0.00818944
2166	0.00848192
2178	0.00953485
2190	0.0087744
2202	0.0107633
2214	0.00754598
2226	0.0087159
2238	0.00666854
2250	0.00719501
2262	0.00696102
2274	0.00614208
2286	0.00696102
2298	0.00503066
2310	0.0088329
2322	0.00953485
2334	0.0133371
2346	0.0174903
2358	0.0142145
2370	0.0195377
2382	0.00988582
2394	0.0059081
2406	0.00473818
2418	0.00678554
2430	0.00462118
2442	0.00608358
2454	0.00462118
2466	0.00450419
2478	0.00368525
2490	0.00222285
2502	0.00386074
2514	0.0029248
2526	0.00485517
2538	0.00333427
2550	0.00427021
2562	0.00386074
2574	0.00485517
2586	0.00637606
2598	0.00549862
2610	0.00789696
2622	0.00684403
2634	0.0104708
2646	0.0100028
2658	0.00971034
2670	0.00947635
2682	0.00742899
2694	0.00842342
2706	0.00766298
2718	0.00982733
2730	0.00842342
2742	0.00894989
2754	0.00906688
2766	0.0119332
2778	0.014975
2790	0.0130446
2802	0.01439
2814	0.0138636
2826	0.0190697
2838	0.0301254
2850	0.0493121
2862	0.0532899
2874	0.0640531
2886	0.0621812
2898	0.0775072
2910	0.0982148
2922	0.0708387
2934	0.0757523
2946	0.120326
2958	0.134248
2970	0.165836
2982	0.183736
2994	0.0708387
3006	0.0765128
3018	0.175546
3030	0.296809
3042	0.398007
3054	0.167065
3066	0.211522
3078	0.355948
3090	0.18397
3102	0.138226
3114	0.0821869
3126	0.0339277
3138	0.014039
3150	0.013922
3162	0.0108218
3174	0.0138051
3186	0.00941786
3198	0.00701952
3210	0.0088329
3222	0.00608358
3234	0.00953485
3246	0.00666854
3258	0.00941786
3270	0.00713651
3282	0.00783846
3294	0.00906688
3306	0.00777997
3318	0.00976883
3330	0.00772147
3342	0.00988582
3354	0.00701952
3366	0.00924237
3378	0.00912538
3390	0.00848192
3402	0.00859891
3414	0.00842342
3426	0.0114067
3438	0.00772147
3450	0.0107633
3462	0.00783846
3474	0.00900838
3486	0.00807245
3498	0.00795546
3510	0.00924237
3522	0.00701952
3534	0.0104708
3546	0.00655155
3558	0.0108803
3570	0.00707802
3582	0.0111142
3594	0.0126936
3606	0.0133371
3618	0.00924237
3630	0.00239834
3642	0.0123427
3654	0.00959334
3666	0.0100028
3678	0.00356826
3690	0.00409472
3702	0.00818944
3714	0.00427021
3726	0.00625907
3738	0.00105293
3750	0.00111142
3762	0.00549862
3774	0.00982733
3786	0.00918387
3798	0.00596659
3810	0.00631757
3822	0.00345126
3834	0.00672704
3846	0.00532314
3858	0.00807245
3870	0.0059081
3882	0.00777997
3894	0.0119332
3906	0.0102368
3918	0.0129276
3930	0.0110557
3942	0.014858
3954	0
3966	0.00111142
