Infrared Spectrum: 2-Propen-1-ol, 3-phenyl-, acetate
Formula: C 11 H 12 O 2
CAS: 103-54-8
Origin: Sadtler Research Labs Under US-EPA Contract
1/CM	ABSORBANCE
450	0.0192984
462	0.014341
474	0.00548855
486	0.0153148
498	0.012305
510	0.00478035
522	0.00894103
534	0.00867545
546	0.000265575
558	0.0049574
570	0.00522297
582	0.0107115
594	0.0199181
606	0.0189443
618	0.0146951
630	0.0205378
642	0.0185902
654	0.0155804
666	0.0161115
678	0.0322231
690	0.0719708
702	0.0528494
714	0.0347903
726	0.0455018
738	0.0705544
750	0.0516986
762	0.0207148
774	0.0132787
786	0.0105345
798	0.0159345
810	0.0197411
822	0.0157574
834	0.0211575
846	0.0180591
858	0.0191214
870	0.0167312
882	0.0162886
894	0.0190329
906	0.0225739
918	0.0196525
930	0.0220427
942	0.0327542
954	0.0713512
966	0.130397
978	0.0678987
990	0.0501052
1002	0.0704659
1014	0.11464
1026	0.161558
1038	0.112073
1050	0.0647118
1062	0.0600199
1074	0.0626757
1086	0.0624986
1098	0.0478035
1110	0.0453248
1122	0.0278854
1134	0.0159345
1146	0.0176165
1158	0.021423
1170	0.0210689
1182	0.0324001
1194	0.0560363
1206	0.124024
1218	0.388359
1230	0.88525
1242	0.408543
1254	0.210601
1266	0.112869
1278	0.0617904
1290	0.0458559
1302	0.0395707
1314	0.0255837
1326	0.0238132
1338	0.0206263
1350	0.0261149
1362	0.106319
1374	0.0930398
1386	0.0802922
1398	0.0420494
1410	0.0223083
1422	0.0197411
1434	0.0274427
1446	0.0428461
1458	0.0415182
1470	0.0252296
1482	0.0189443
1494	0.0420494
1506	0.0285936
1518	0.0123935
1530	0.0123935
1542	0.0155804
1554	0.0110656
1566	0.0116853
1578	0.0153148
1590	0.0135443
1602	0.0216886
1614	0.0136329
1626	0.00876398
1638	0.0120394
1650	0.017705
1662	0.0177935
1674	0.0149607
1686	0.0154033
1698	0.0161115
1710	0.0270001
1722	0.0344362
1734	0.0599314
1746	0.129246
1758	0.309837
1770	0.358792
1782	0.131194
1794	0.0574527
1806	0.030187
1818	0.0239017
1830	0.0139869
1842	0.00947217
1854	0.0101804
1866	0.00973775
1878	0.0102689
1890	0.0125705
1902	0.00699347
1914	0.0060197
1926	0.00787872
1938	0.00894103
1950	0.00964922
1962	0.0099148
1974	0.00522297
1986	0.00593117
1998	0.00646232
2010	0.00469183
2022	0.00575412
2034	0.00575412
2046	0.00451477
2058	0.00681643
2070	0.00699347
2082	0.00451477
2094	0.00540003
2106	0.00593117
2118	0.0042492
2130	0.00486887
2142	0.0042492
2154	0.00309838
2166	0.0049574
2178	0.0046033
2190	0.00371805
2202	0.0042492
2214	0.00345247
2226	0.00309838
2238	0.00442625
2250	0.00345247
2262	0.00300985
2274	0.00486887
2286	0.00336395
2298	0.00327542
2310	0.00548855
2322	0.00203608
2334	0.0042492
2346	0.0100918
2358	0.0010623
2370	0.00646232
2382	0.00540003
2394	0.00256722
2406	0.00300985
2418	0.00265575
2430	0.00159345
2442	0.00292132
2454	0.00380657
2466	0.0031869
2478	0.00327542
2490	0.00309838
2502	0.0017705
2514	0.003541
2526	0.00274428
2538	0.000619675
2550	0.00203608
2562	0.00239018
2574	0.00185902
2586	0.00327542
2598	0.0028328
2610	0.00230165
2622	0.00371805
2634	0.00239018
2646	0.000265575
2658	0.00168198
2670	0.0017705
2682	0.00150492
2694	0.00336395
2706	0.00185902
2718	0.00159345
2730	0.00416067
2742	0.00221312
2754	0.00230165
2766	0.00300985
2778	0.00123935
2790	0.0024787
2802	0.00522297
2814	0.00300985
2826	0.00327542
2838	0.00504592
2850	0.0038951
2862	0.00575412
2874	0.00964922
2886	0.0115968
2898	0.014341
2910	0.0138984
2922	0.0118623
2934	0.0192099
2946	0.0341706
2958	0.04081
2970	0.0309837
2982	0.0236362
2994	0.0185902
3006	0.021423
3018	0.0277968
3030	0.0486002
3042	0.0698462
3054	0.0407215
3066	0.046033
3078	0.0616134
3090	0.0368264
3102	0.0232821
3114	0.0162886
3126	0.00663937
3138	0.00451477
3150	0.00478035
3162	0.00123935
3174	0.00053115
3186	0.0028328
3198	0.00150492
3210	0.0021246
3222	0.00265575
3234	0.0007082
3246	0.00300985
3258	0.00407215
3270	0.000265575
3282	0.00115082
3294	0.00300985
3306	0.000619675
3318	0.00336395
3330	0.003541
3342	0.00132788
3354	0.00309838
3366	0.0038951
3378	0.000265575
3390	0.00115082
3402	0.0024787
3414	0.0014164
3426	0.00442625
3438	0.00221312
3450	0.000619675
3462	0.00451477
3474	0.0031869
3486	0.0021246
3498	0.00584265
3510	0.00380657
3522	0.00300985
3534	0.00540003
3546	0.0031869
3558	0.000619675
3570	0.00504592
3582	0.0014164
3594	0.00159345
3606	0.00309838
3618	0.0014164
3630	0.00327542
3642	0.00451477
3654	0.00362952
3666	0.00132788
3678	0.0038951
3690	0.00230165
3702	0.003541
3714	0.0046033
3726	8.8525e-05
3738	0.003541
3750	0.00655085
3762	0.00115082
3774	0.00230165
3786	0.0024787
3798	0.000265575
3810	0.00274428
3822	0.0046033
3834	0.000265575
3846	0.00309838
3858	0.00584265
3870	0.00221312
3882	0.00345247
3894	0.00203608
3906	0.000619675
3918	0.00513445
3930	0.0031869
3942	0.0007082
3954	8.8525e-05
3966	0.000265575
