Infrared Spectrum: Acetamide, N-phenyl-
Formula: C 8 H 9 N O
CAS: 103-84-4
Origin: Sadtler Research Labs Under US-EPA Contract
1/CM	ABSORBANCE
450	0
462	0.012942
474	0.0357515
486	0.060563
498	0.0852316
510	0.0637807
522	0.0596335
534	0.105896
546	0.0556293
558	0.0208074
570	0.0158737
582	0.0174467
594	0.012656
606	0.0193058
618	0.0185193
630	0.0162312
642	0.0179473
654	0.0194488
666	0.0338209
678	0.0649962
690	0.10039
702	0.0805124
714	0.0393982
726	0.0393266
738	0.0966721
750	0.157307
762	0.0820854
774	0.0289587
786	0.0138716
798	0.0131566
810	0.011226
822	0.0120125
834	0.0112975
846	0.00886637
858	0.00557723
870	0.00793683
882	0.0138001
894	0.0191628
906	0.0215224
918	0.0170892
930	0.0138001
942	0.0150156
954	0.0156592
966	0.024168
978	0.0443319
990	0.0552718
1002	0.0464769
1014	0.0341069
1026	0.0416147
1038	0.0439743
1050	0.0375391
1062	0.0406137
1074	0.0396842
1086	0.0298883
1098	0.0214509
1110	0.0167317
1122	0.010797
1134	0.00786533
1146	0.011226
1158	0.0140146
1170	0.023453
1182	0.0400417
1194	0.0546283
1206	0.0968151
1218	0.163956
1230	0.239035
1242	0.266134
1254	0.110329
1266	0.0707165
1278	0.122342
1290	0.185693
1302	0.289516
1314	0.277646
1326	0.113761
1338	0.0389691
1350	0.0500521
1362	0.121627
1374	0.163956
1386	0.100533
1398	0.0681424
1410	0.0779383
1422	0.182118
1434	0.410356
1446	0.29116
1458	0.0784388
1470	0.0943125
1482	0.139288
1494	0.377178
1506	0.662618
1518	0.56087
1530	0.258054
1542	0.0927394
1554	0.0445464
1566	0.0540563
1578	0.0640667
1590	0.145223
1602	0.292519
1614	0.142577
1626	0.0313183
1638	0.0298883
1650	0.0240965
1662	0.0257411
1674	0.0350365
1686	0.0531267
1698	0.102464
1710	0.25977
1722	0.62751
1734	0.519612
1746	0.220372
1758	0.119553
1770	0.070931
1782	0.0421868
1794	0.0229525
1806	0.0139431
1818	0.0143721
1830	0.013085
1842	0.0154446
1854	0.0167317
1866	0.0135856
1878	0.0114405
1890	0.0095099
1902	0.00765082
1914	0.0094384
1926	0.0115835
1938	0.0121555
1950	0.0112975
1962	0.00786533
1974	0.00507671
1986	0.00514822
1998	0.00436168
2010	0.00450469
2022	0.00557723
2034	0.00507671
2046	0.00543423
2058	0.00614926
2070	0.00521972
2082	0.0047192
2094	0.00450469
2106	0.00450469
2118	0.00557723
2130	0.00614926
2142	0.00564874
2154	0.00607775
2166	0.00543423
2178	0.00493371
2190	0.00507671
2202	0.00443319
2214	0.00436168
2226	0.0048622
2238	0.00429018
2250	0.0047907
2262	0.00521972
2274	0.00457619
2286	0.00450469
2298	0.00507671
2310	0.00536272
2322	0.00600625
2334	0.00657828
2346	0.00657828
2358	0.0047907
2370	0.00414717
2382	0.00464769
2394	0.00457619
2406	0.00436168
2418	0.00464769
2430	0.00536272
2442	0.00557723
2454	0.00593475
2466	0.00564874
2478	0.00443319
2490	0.0047907
2502	0.00514822
2514	0.00586325
2526	0.00629226
2538	0.00614926
2550	0.00457619
2562	0.00443319
2574	0.00407567
2586	0.00407567
2598	0.00436168
2610	0.00414717
2622	0.00407567
2634	0.00457619
2646	0.00521972
2658	0.00579174
2670	0.00607775
2682	0.00514822
2694	0.00514822
2706	0.00536272
2718	0.00529122
2730	0.00593475
2742	0.00614926
2754	0.00500521
2766	0.00500521
2778	0.00493371
2790	0.0048622
2802	0.00529122
2814	0.00557723
2826	0.00593475
2838	0.00679278
2850	0.00700729
2862	0.00800834
2874	0.00893787
2886	0.00850886
2898	0.010797
2910	0.0138001
2922	0.0169462
2934	0.0239535
2946	0.0249545
2958	0.0183048
2970	0.0163027
2982	0.0157307
2994	0.0165172
3006	0.0224519
3018	0.0418293
3030	0.0631371
3042	0.0631371
3054	0.0646387
3066	0.0899508
3078	0.0782243
3090	0.0507671
3102	0.0394697
3114	0.0269566
3126	0.0143006
3138	0.0094384
3150	0.00765082
3162	0.00600625
3174	0.00593475
3186	0.00521972
3198	0.00500521
3210	0.00450469
3222	0.00414717
3234	0.0048622
3246	0.00557723
3258	0.00536272
3270	0.00457619
3282	0.0048622
3294	0.00493371
3306	0.00564874
3318	0.00579174
3330	0.00514822
3342	0.00586325
3354	0.00614926
3366	0.00543423
3378	0.00672128
3390	0.00893787
3402	0.0115835
3414	0.0175182
3426	0.0225234
3438	0.0259556
3450	0.0318903
3462	0.0432593
3474	0.0369671
3486	0.0190198
3498	0.00986741
3510	0.00686429
3522	0.00614926
3534	0.00557723
3546	0.00529122
3558	0.00607775
3570	0.00457619
3582	0.0071503
3594	0.00693579
3606	0.00421868
3618	0.00600625
3630	0.00650677
3642	0.00629226
3654	0.00507671
3666	0.00464769
3678	0.00629226
3690	0.00364665
3702	0.00543423
3714	0.0048622
3726	0.00600625
3738	0.00657828
3750	0.00371816
3762	0.00629226
3774	0.00493371
3786	0.00686429
3798	0.00600625
3810	0.00457619
3822	0.00750781
3834	0.0072218
3846	0.00536272
3858	0.00800834
3870	0.00529122
3882	0.00729331
3894	0.00679278
3906	0.00443319
3918	0.00636377
3930	0.00636377
3942	0.0047192
3954	0.00593475
3966	0.00614926
