Infrared Spectrum: Benzeneacetic acid
Formula: C 8 H 8 O 2
CAS: 103-82-2
Origin: Sadtler Research Labs Under US-EPA Contract
1/CM	ABSORBANCE
450	0.0357217
462	0.0347562
474	0.0378456
486	0.049431
498	0.049431
510	0.0372664
522	0.0345631
534	0.0273222
546	0.0376525
558	0.0809047
570	0.225433
582	0.419295
594	0.36243
606	0.27216
618	0.217419
630	0.156693
642	0.119137
654	0.0914281
666	0.0950003
678	0.146266
690	0.2431
702	0.265209
714	0.212496
726	0.155148
738	0.151865
750	0.0900765
762	0.0296393
774	0.00492379
786	0.0047307
798	0.00019309
810	0.0117785
822	0.0163161
834	0.0188263
846	0.017185
858	0.0195021
870	0.0192125
882	0.0199848
894	0.0233639
906	0.0219157
918	0.0233639
930	0.028867
942	0.024619
954	0.0191159
966	0.0149645
978	0.0115854
990	0.00888214
1002	0.0124543
1014	0.0133232
1026	0.0365906
1038	0.0387145
1050	0.0308944
1062	0.0598579
1074	0.124157
1086	0.255748
1098	0.509082
1110	0.84139
1122	0.76734
1134	0.403172
1146	0.2515
1158	0.162099
1170	0.125122
1182	0.124157
1194	0.147424
1206	0.190194
1218	0.17494
1230	0.116723
1242	0.0760775
1254	0.0642024
1266	0.067485
1278	0.0739535
1290	0.086987
1302	0.0923936
1314	0.0854423
1326	0.0789738
1338	0.0916212
1350	0.133618
1362	0.17156
1374	0.13468
1386	0.0780084
1398	0.0427694
1410	0.0351424
1422	0.0431556
1434	0.0556099
1446	0.0660368
1458	0.057927
1470	0.0326322
1482	0.0245224
1494	0.0981863
1506	0.0934556
1518	0.0153507
1530	0.00791669
1542	0.00791669
1554	0.00695124
1566	0.00782015
1578	0.0155437
1590	0.0236535
1602	0.0431556
1614	0.0350458
1626	0.0113923
1638	0.00743397
1650	0.00444107
1662	0.01062
1674	0.0101372
1686	0.018247
1698	0.0259706
1710	0.0510723
1722	0.0921039
1734	0.151189
1746	0.257872
1758	0.467954
1770	0.779408
1782	0.96545
1794	0.756816
1806	0.42866
1818	0.167312
1830	0.0642024
1842	0.0309909
1854	0.0199848
1866	0.0145783
1878	0.0124543
1890	0.0114889
1902	0.0077236
1914	0.00714433
1926	0.0096545
1938	0.0140956
1950	0.0172816
1962	0.0133232
1974	0.00598579
1986	0.00646852
1998	0.00434453
2010	0.00434453
2022	0.00222054
2034	0.00125508
2046	0.00260672
2058	0.00241362
2070	0.00077236
2082	0.00125508
2094	9.6545e-05
2106	9.6545e-05
2118	0.00173781
2130	0.00154472
2142	0.001062
2154	0.00183436
2166	0.00202745
2178	0.00231708
2190	0.00337908
2202	0.00347562
2214	0.00405489
2226	0.00405489
2238	0.00405489
2250	0.00337908
2262	0.00415144
2274	0.00511688
2286	0.00511688
2298	0.0111992
2310	0.0168954
2322	0.0132267
2334	0.00733742
2346	0.0136128
2358	0.0117785
2370	0.0068547
2382	0.00994413
2394	0.00183436
2406	0.0029929
2418	0.00251017
2430	0.00231708
2442	0.00357216
2454	0.00289635
2466	0.00144818
2478	0.00289635
2490	0.00251017
2502	0.00164127
2514	0.00212399
2526	0.00135163
2538	0.00154472
2550	0.001062
2562	0
2574	0.001062
2586	0.00212399
2598	0.00318599
2610	0.00222054
2622	0.0019309
2634	0.00376526
2646	0.00270326
2658	0.00251017
2670	0.00347562
2682	0.00241362
2694	0.00337908
2706	0.00279981
2718	0.00569616
2730	0.00482725
2742	0.00415144
2754	0.00173781
2766	0.00212399
2778	0.00222054
2790	0.00492379
2802	0.00598579
2814	0.00743397
2826	0.00666161
2838	0.0057927
2850	0.00868905
2862	0.0077236
2874	0.00733742
2886	0.0087856
2898	0.010813
2910	0.0178608
2922	0.0287704
2934	0.0390042
2946	0.0384249
2958	0.0329218
2970	0.0270326
2982	0.0238466
2994	0.0240397
3006	0.0271291
3018	0.0459554
3030	0.100503
3042	0.145107
3054	0.102917
3066	0.115082
3078	0.14781
3090	0.0936486
3102	0.0654575
3114	0.0378456
3126	0.0173781
3138	0.00569616
3150	0.0057927
3162	0.00695124
3174	0.00530998
3186	0.00424798
3198	0.0029929
3210	0.00328253
3222	0.00424798
3234	0.00530998
3246	0.00347562
3258	0.0057927
3270	0.00463416
3282	0.00453762
3294	0.00540652
3306	0.00424798
3318	0.00559961
3330	0.00318599
3342	0.00540652
3354	0.00482725
3366	0.00415144
3378	0.0057927
3390	0.00656506
3402	0.00482725
3414	0.00724088
3426	0.00357216
3438	0.00724088
3450	0.00511688
3462	0.00782015
3474	0.00511688
3486	0.00608234
3498	0.00849596
3510	0.0105234
3522	0.0131301
3534	0.0192125
3546	0.0356251
3558	0.0821598
3570	0.350362
3582	0.368995
3594	0.0961588
3606	0.0298324
3618	0.0133232
3630	0.0167988
3642	0.0121647
3654	0.00955795
3666	0.0113923
3678	0.00926832
3690	0.0130336
3702	0.00849596
3714	0.0101372
3726	0.00801324
3738	0.00550307
3750	0.00530998
3762	0.00289635
3774	0.00366871
3786	0.00695124
3798	0.0104269
3810	0.00975104
3822	0.00897869
3834	0.0096545
3846	0.0077236
3858	0.0100407
3870	0.0141921
3882	0.0100407
3894	0.0110061
3906	0.0100407
3918	0.00907523
3930	0.00897869
3942	0.0111027
3954	0.0123578
3966	0.0135163
