Infrared Spectrum: Benzene, isocyanato-
Formula: C 7 H 5 N O
CAS: 103-71-9
Origin: Sadtler Research Labs Under US-EPA Contract
1/CM	ABSORBANCE
450	0.00786998
462	0.0328687
474	0.038424
486	0.0379611
498	0.0455996
510	0.0347205
522	0.030554
534	0.0303226
546	0.0326373
558	0.0361093
570	0.0530066
582	0.0516178
594	0.0506919
606	0.0636542
618	0.069441
630	0.0516178
642	0.0618025
654	0.0666634
666	0.0569416
678	0.0861068
690	0.116429
702	0.0680522
714	0.0277764
726	0.0333317
738	0.0979118
750	0.213184
762	0.156011
774	0.0627284
786	0.0148141
798	0.0104162
810	0.00995321
822	0.00324058
834	0.00092588
846	0.00324058
858	0.00416646
870	0.00578675
882	0.00810145
894	0.0120364
906	0.0136567
918	0.00810145
930	0.00254617
942	0.00023147
954	0
966	0.00092588
978	0.00393499
990	0.00393499
1002	0.00162029
1014	0.00810145
1026	0.0259246
1038	0.0111106
1050	0.00833292
1062	0.0206008
1074	0.0224526
1086	0.0164344
1098	0.0321743
1110	0.0990692
1122	0.0905048
1134	0.0282393
1146	0.0277764
1158	0.0337946
1170	0.0249988
1182	0.0155085
1194	0.00949027
1206	0.011342
1218	0.0124994
1230	0.0129623
1242	0.011805
1254	0.00879586
1266	0.0120364
1278	0.01574
1290	0.00995321
1302	0.00902733
1314	0.0092588
1326	0.00810145
1338	0.00509234
1350	0.00532381
1362	0.00509234
1374	0.00439793
1386	0.00624969
1398	0.00601822
1410	0.00601822
1422	0.00717557
1434	0.00856439
1446	0.0171288
1458	0.0155085
1470	0.0201379
1482	0.0215267
1494	0.057636
1506	0.172677
1518	0.185407
1530	0.0648116
1542	0.0363408
1554	0.0171288
1566	0.0164344
1578	0.0377296
1590	0.132864
1602	0.281005
1614	0.110411
1626	0.015277
1638	0.0092588
1650	0.0108791
1662	0.0150455
1674	0.00578675
1686	0.00347205
1698	0.00601822
1710	0.0127309
1722	0.0168973
1734	0.0148141
1746	0.00879586
1758	0.0046294
1770	0.00486087
1782	0.00763851
1794	0.00624969
1806	0.00532381
1818	0.00416646
1830	0.00416646
1842	0.00555528
1854	0.00879586
1866	0.0101847
1878	0.0111106
1890	0.00810145
1902	0.00532381
1914	0.00648116
1926	0.00879586
1938	0.00833292
1950	0.00972174
1962	0.00717557
1974	0.00300911
1986	0.00324058
1998	0.00300911
2010	0.00277764
2022	0.00324058
2034	0.00393499
2046	0.00439793
2058	0.00648116
2070	0.00810145
2082	0.0136567
2094	0.0212952
2106	0.019675
2118	0.0173603
2130	0.019675
2142	0.0252302
2154	0.0393499
2166	0.0703669
2178	0.104162
2190	0.145132
2202	0.207397
2214	0.241655
2226	0.238646
2238	0.341418
2250	0.739547
2262	1.70223
2274	2.3147
2286	2.16818
2298	1.3085
2310	0.652514
2322	0.408082
2334	0.350214
2346	0.346279
2358	0.450672
2370	0.392805
2382	0.246516
2394	0.0814774
2406	0.0284708
2418	0.0162029
2430	0.0134253
2442	0.0115735
2454	0.0104162
2466	0.0104162
2478	0.00856439
2490	0.00555528
2502	0.00393499
2514	0.00393499
2526	0.00370352
2538	0.00439793
2550	0.00671263
2562	0.00648116
2574	0.00486087
2586	0.00439793
2598	0.00347205
2610	0.00393499
2622	0.00416646
2634	0.00254617
2646	0.0023147
2658	0.00416646
2670	0.00370352
2682	0.00185176
2694	0.00138882
2706	0.0023147
2718	0.00370352
2730	0.0046294
2742	0.00555528
2754	0.00439793
2766	0.00185176
2778	0.00092588
2790	0.00069441
2802	0
2814	0.00069441
2826	0.00185176
2838	0.0023147
2850	0.0023147
2862	0.00277764
2874	0.00277764
2886	0.00300911
2898	0.00416646
2910	0.00486087
2922	0.0046294
2934	0.0046294
2946	0.00300911
2958	0.0046294
2970	0.00416646
2982	0.00532381
2994	0.00624969
3006	0.00972174
3018	0.0166658
3030	0.0291652
3042	0.0347205
3054	0.034952
3066	0.0567102
3078	0.077311
3090	0.0483772
3102	0.0219896
3114	0.0164344
3126	0.00879586
3138	0.00393499
3150	0.0023147
3162	0.00300911
3174	0.00092588
3186	0.00185176
3198	0.00115735
3210	0.00046294
3222	0.00138882
3234	0.0023147
3246	0.00185176
3258	0.00162029
3270	0.00300911
3282	0.00416646
3294	0.00416646
3306	0.00370352
3318	0.00300911
3330	0.00486087
3342	0.00046294
3354	0.00416646
3366	0.00902733
3378	0.0120364
3390	0.0159714
3402	0.0162029
3414	0.0171288
3426	0.0106476
3438	0.00810145
3450	0.00578675
3462	0.00416646
3474	0.00370352
3486	0.00185176
3498	0
3510	0.00162029
3522	0.00208323
3534	0.00185176
3546	0.00393499
3558	0.00277764
3570	0.0023147
3582	0.00370352
3594	0.00300911
3606	0.00416646
3618	0.00115735
3630	0.00300911
3642	0.00277764
3654	0.00578675
3666	0.00416646
3678	0.00786998
3690	0.0150455
3702	0.0111106
3714	0.0166658
3726	0.0159714
3738	0.00763851
3750	0.00601822
3762	0.00740704
3774	0.00972174
3786	0.0111106
3798	0.00902733
3810	0.0141197
3822	0.0164344
3834	0.0175917
3846	0.0136567
3858	0.0166658
3870	0.0138882
3882	0.0148141
3894	0.011342
3906	0.0111106
3918	0.0104162
3930	0.0127309
3942	0.00972174
3954	0.0122679
3966	0.00763851
