Infrared Spectrum: Butanoic acid, phenylmethyl ester
Formula: C 11 H 14 O 2
CAS: 103-37-7
Origin: Sadtler Research Labs Under US-EPA Contract
1/CM	ABSORBANCE
450	0
462	0.0164564
474	0.0205161
486	0.0234159
498	0.0443669
510	0.0308829
522	0.0189937
534	0.014209
546	0.0132666
558	0.0171813
570	0.0238509
582	0.0348701
594	0.0324053
606	0.0299404
618	0.0264607
630	0.0210236
642	0.0173263
654	0.0152964
666	0.0194287
678	0.0524864
690	0.107438
702	0.124111
714	0.0841667
726	0.0856891
738	0.107945
750	0.123242
762	0.0550237
774	0.0319703
786	0.0316078
798	0.028998
810	0.0239233
822	0.0308829
834	0.0300129
846	0.028998
858	0.029288
870	0.0306654
882	0.0310279
894	0.0342176
906	0.0397998
918	0.0478467
930	0.0405972
942	0.0366825
954	0.0388573
966	0.0716976
978	0.140133
990	0.153979
1002	0.126359
1014	0.0731475
1026	0.0685078
1038	0.0839492
1050	0.0992457
1062	0.0828618
1074	0.106713
1086	0.173626
1098	0.208786
1110	0.156372
1122	0.100841
1134	0.103088
1146	0.158837
1158	0.349208
1170	0.72495
1182	0.491661
1194	0.349353
1206	0.279468
1218	0.213063
1230	0.1816
1242	0.218282
1254	0.259532
1266	0.223502
1278	0.148035
1290	0.139335
1302	0.138175
1314	0.086269
1326	0.0665504
1338	0.0890239
1350	0.129476
1362	0.107655
1374	0.0906187
1386	0.103595
1398	0.0569811
1410	0.0382774
1422	0.043932
1434	0.0598084
1446	0.0716251
1458	0.104828
1470	0.0866315
1482	0.0450194
1494	0.0477017
1506	0.0479917
1518	0.021096
1530	0.0184862
1542	0.0184137
1554	0.0160214
1566	0.0160214
1578	0.0171088
1590	0.0189937
1602	0.0206611
1614	0.021096
1626	0.0163839
1638	0.0166739
1650	0.0168188
1662	0.0168188
1674	0.0186312
1686	0.021096
1698	0.0273306
1710	0.0426996
1722	0.0671304
1734	0.128679
1746	0.360445
1758	0.675146
1770	0.338552
1782	0.108163
1794	0.0568361
1806	0.0390748
1818	0.0241408
1830	0.0187037
1842	0.0166739
1854	0.0157314
1866	0.0166739
1878	0.0168913
1890	0.0158039
1902	0.0133391
1914	0.0127591
1926	0.014644
1938	0.0171088
1950	0.0193562
1962	0.0189212
1974	0.0129041
1986	0.0119617
1998	0.0116717
2010	0.0118892
2022	0.0131216
2034	0.0137741
2046	0.0122517
2058	0.0116717
2070	0.0133391
2082	0.0112367
2094	0.00993182
2106	0.0108018
2118	0.0105118
2130	0.0106568
2142	0.0105118
2154	0.00978683
2166	0.00985932
2178	0.00942435
2190	0.00956934
2202	0.00964183
2214	0.00935186
2226	0.00985932
2238	0.00971433
2250	0.0104393
2262	0.0100043
2274	0.0103668
2286	0.0102943
2298	0.00956934
2310	0.00833693
2322	0.00811944
2334	0.00906188
2346	0.0108018
2358	0.00811944
2370	0.0154414
2382	0.0130491
2394	0.0102943
2406	0.0100043
2418	0.0102943
2430	0.0107293
2442	0.0106568
2454	0.0108018
2466	0.0106568
2478	0.0103668
2490	0.0108018
2502	0.0102943
2514	0.0102943
2526	0.0102943
2538	0.0108018
2550	0.0100768
2562	0.0100768
2574	0.0103668
2586	0.0110917
2598	0.0110192
2610	0.0109467
2622	0.0102218
2634	0.00993182
2646	0.0116717
2658	0.00935186
2670	0.0105843
2682	0.0128316
2694	0.0118892
2706	0.0122517
2718	0.0127591
2730	0.0122517
2742	0.0132666
2754	0.014209
2766	0.0131216
2778	0.0130491
2790	0.0147165
2802	0.0157314
2814	0.0174713
2826	0.0195737
2838	0.022401
2850	0.0257357
2862	0.0315353
2874	0.0535738
2886	0.10287
2898	0.0912712
2910	0.0739449
2922	0.0834417
2934	0.115847
2946	0.180368
2958	0.194722
2970	0.236914
2982	0.230752
2994	0.115122
3006	0.0558936
3018	0.0442944
3030	0.0661154
3042	0.107293
3054	0.0739449
3066	0.0703201
3078	0.103015
3090	0.0573435
3102	0.0447294
3114	0.0324053
3126	0.021821
3138	0.0152964
3150	0.0127591
3162	0.0120342
3174	0.0128316
3186	0.0107293
3198	0.0123242
3210	0.0108018
3222	0.0102218
3234	0.0102943
3246	0.00985932
3258	0.0102943
3270	0.00935186
3282	0.00906188
3294	0.0107293
3306	0.00906188
3318	0.0115267
3330	0.0102943
3342	0.00949685
3354	0.0100043
3366	0.0102218
3378	0.00978683
3390	0.0108743
3402	0.00956934
3414	0.0109467
3426	0.0106568
3438	0.0102943
3450	0.0118892
3462	0.0102943
3474	0.0105118
3486	0.0144265
3498	0.0147165
3510	0.0130491
3522	0.0101493
3534	0.0101493
3546	0.0102218
3558	0.00855441
3570	0.0108018
3582	0.00920686
3594	0.00978683
3606	0.00985932
3618	0.00964183
3630	0.0100043
3642	0.00993182
3654	0.0122517
3666	0.0121792
3678	0.0118167
3690	0.00985932
3702	0.0103668
3714	0.0121067
3726	0.0104393
3738	0.0115267
3750	0.0104393
3762	0.0130491
3774	0.0125416
3786	0.0128316
3798	0.00978683
3810	0.0116717
3822	0.0124691
3834	0.0120342
3846	0.0124691
3858	0.00884439
3870	0.0110917
3882	0.00927936
3894	0.0109467
3906	0.00956934
3918	0.00913437
3930	0.0087719
3942	0.0112367
3954	0.0110917
3966	0.0107293
