Infrared Spectrum: Bibenzyl
Formula: C 14 H 14
CAS: 103-29-7
Origin: Sadtler Research Labs Under US-EPA Contract
1/CM	ABSORBANCE
450	0
462	0.0283772
474	0.0262181
486	0.0419489
498	0.116131
510	0.120912
522	0.117364
534	0.067473
546	0.0338522
558	0.0273748
570	0.0533615
582	0.0765722
594	0.0266808
606	0.0205889
618	0.0203576
630	0.0180442
642	0.024753
654	0.0395585
666	0.0731022
678	0.167796
690	0.501768
702	0.672031
714	0.33644
726	0.242903
738	0.327032
750	0.452185
762	0.249689
774	0.109499
786	0.0452647
798	0.0304592
810	0.0224396
822	0.0169646
834	0.0161935
846	0.0155766
858	0.0161164
870	0.0222083
882	0.0238276
894	0.026141
906	0.0289941
918	0.0243674
930	0.0387873
942	0.0418718
954	0.0240589
966	0.0239818
978	0.0259096
990	0.0229794
1002	0.0246758
1014	0.0298423
1026	0.110193
1038	0.0721768
1050	0.0331582
1062	0.0710973
1074	0.0758782
1086	0.0374764
1098	0.0236734
1110	0.0223625
1122	0.0192009
1134	0.0215142
1146	0.0241361
1158	0.0241361
1170	0.0258325
1182	0.0333124
1194	0.0394813
1206	0.0318473
1218	0.0251385
1230	0.0255241
1242	0.0255241
1254	0.0202033
1266	0.019278
1278	0.0212058
1290	0.0223625
1302	0.0248301
1314	0.0305364
1326	0.0356257
1338	0.0593762
1350	0.0559062
1362	0.0313846
1374	0.0309219
1386	0.0276061
1398	0.0257554
1410	0.0262952
1422	0.0370909
1434	0.064697
1446	0.169184
1458	0.175738
1470	0.0751842
1482	0.0896041
1494	0.317856
1506	0.201956
1518	0.0424116
1530	0.0432598
1542	0.041332
1554	0.0307677
1566	0.0337751
1578	0.0532073
1590	0.111427
1602	0.223008
1614	0.106106
1626	0.0367824
1638	0.0303821
1650	0.0306135
1662	0.0251385
1674	0.0249072
1686	0.0257554
1698	0.0272976
1710	0.0324642
1722	0.0432598
1734	0.0491975
1746	0.0331582
1758	0.0274519
1770	0.0305364
1782	0.0404838
1794	0.0678586
1806	0.040638
1818	0.0286086
1830	0.0262181
1842	0.0300737
1854	0.0363198
1866	0.0417947
1878	0.0407922
1890	0.0259096
1902	0.0219769
1914	0.0264494
1926	0.0394042
1938	0.0552122
1950	0.0566773
1962	0.0321557
1974	0.0179671
1986	0.0172731
1998	0.0154224
2010	0.0152682
2022	0.0161164
2034	0.0154995
2046	0.0151911
2058	0.0148055
2070	0.0151911
2082	0.0155766
2094	0.0148055
2106	0.0151911
2118	0.0150368
2130	0.0155766
2142	0.0154995
2154	0.0150368
2166	0.0146513
2178	0.0155766
2190	0.0155766
2202	0.0155766
2214	0.0158851
2226	0.0152682
2238	0.0149597
2250	0.0157308
2262	0.015808
2274	0.016502
2286	0.0181213
2298	0.0205118
2310	0.0249072
2322	0.0240589
2334	0.0212058
2346	0.0226709
2358	0.0200491
2370	0.0178129
2382	0.0205889
2394	0.016502
2406	0.015808
2418	0.0156537
2430	0.0154224
2442	0.0154224
2454	0.0155766
2466	0.0154995
2478	0.0152682
2490	0.0148055
2502	0.015114
2514	0.0147284
2526	0.0160393
2538	0.0164249
2550	0.017196
2562	0.0168104
2574	0.0173502
2586	0.0195093
2598	0.0204347
2610	0.0201262
2622	0.019278
2634	0.019972
2646	0.0191238
2658	0.0188924
2670	0.0191238
2682	0.0193551
2694	0.0187382
2706	0.0175044
2718	0.0182755
2730	0.01789
2742	0.0179671
2754	0.0169646
2766	0.0181213
2778	0.0233649
2790	0.0290712
2802	0.029611
2814	0.0293026
2826	0.0311532
2838	0.0387873
2850	0.0704804
2862	0.162089
2874	0.157231
2886	0.090915
2898	0.09292
2910	0.134638
2922	0.261795
2934	0.401599
2946	0.398438
2958	0.211364
2970	0.0852088
2982	0.0549037
2994	0.0596847
3006	0.118136
3018	0.223393
3030	0.567853
3042	0.499223
3054	0.254007
3066	0.492283
3078	0.50385
3090	0.292177
3102	0.186457
3114	0.110964
3126	0.0462672
3138	0.0272976
3150	0.0233649
3162	0.0235963
3174	0.0214371
3186	0.0161935
3198	0.0161164
3210	0.016502
3222	0.016502
3234	0.0168104
3246	0.0167333
3258	0.0168104
3270	0.0171189
3282	0.0175815
3294	0.0173502
3306	0.0166562
3318	0.0155766
3330	0.0148055
3342	0.0152682
3354	0.016502
3366	0.0170418
3378	0.0162706
3390	0.0171189
3402	0.0158851
3414	0.0162706
3426	0.0157308
3438	0.0165791
3450	0.0168875
3462	0.015808
3474	0.0155766
3486	0.0162706
3498	0.0152682
3510	0.0177358
3522	0.0177358
3534	0.0160393
3546	0.0168875
3558	0.0172731
3570	0.017196
3582	0.0173502
3594	0.0163477
3606	0.0171189
3618	0.016502
3630	0.0174273
3642	0.018584
3654	0.019972
3666	0.0186611
3678	0.0172731
3690	0.0181213
3702	0.01789
3714	0.0175815
3726	0.0161164
3738	0.0148826
3750	0.0170418
3762	0.0165791
3774	0.015808
3786	0.0171189
3798	0.0171189
3810	0.0195864
3822	0.0174273
3834	0.0181984
3846	0.0186611
3858	0.017196
3870	0.0175044
3882	0.0164249
3894	0.0146513
3906	0.0146513
3918	0.0191238
3930	0.0179671
3942	0.0171189
3954	0.0168875
3966	0.0183527
