Infrared Spectrum: Benzene, propyl-
Formula: C 9 H 12
CAS: 103-65-1
Origin: Sadtler Research Labs Under US-EPA Contract
1/CM	ABSORBANCE
450	0
462	0.0096201
474	0.0251726
486	0.0464972
498	0.0288069
510	0.00913909
522	0.00684096
534	0.00545139
546	0.00614618
558	0.0181713
570	0.0237296
582	0.0173162
594	0.0120786
606	0.00673407
618	0.00358082
630	0.00577206
642	0.00796331
654	0.0090322
666	0.0136819
678	0.0637599
690	0.211696
702	0.267385
714	0.147134
726	0.145157
738	0.267332
750	0.194112
762	0.0615686
774	0.019935
786	0.0115976
798	0.0105287
810	0.0132009
822	0.0182247
834	0.00940632
846	0.0070013
858	0.00865809
870	0.0112234
882	0.0158732
894	0.0175834
906	0.0177437
918	0.0115441
930	0.00710819
942	0.0064134
954	0.00646684
966	0.00635996
978	0.00689441
990	0.00662718
1002	0.00716163
1014	0.0117045
1026	0.0378925
1038	0.0389614
1050	0.0242106
1062	0.0212177
1074	0.0198281
1086	0.0309981
1098	0.0366633
1110	0.0248519
1122	0.0140026
1134	0.00769608
1146	0.00619962
1158	0.00587895
1170	0.00571861
1182	0.00689441
1194	0.00978044
1206	0.012132
1218	0.0090322
1230	0.00967355
1242	0.0110097
1254	0.0103149
1266	0.0115441
1278	0.0138957
1290	0.0145905
1302	0.0117045
1314	0.0136285
1326	0.0164076
1338	0.0373581
1350	0.0326014
1362	0.0156059
1374	0.0268294
1386	0.043718
1398	0.028219
1410	0.0175834
1422	0.0181713
1434	0.0369305
1446	0.0825191
1458	0.114693
1470	0.0948649
1482	0.0616221
1494	0.134147
1506	0.104378
1518	0.0220193
1530	0.0190264
1542	0.0105821
1554	0.0114907
1566	0.013575
1578	0.0154991
1590	0.0348461
1602	0.0731662
1614	0.0587361
1626	0.0159266
1638	0.00929943
1650	0.0143767
1662	0.00887187
1674	0.00919254
1686	0.00406182
1698	0.0064134
1710	0.00892531
1722	0.0102614
1734	0.00967355
1746	0.0143233
1758	0.0103683
1770	0.00860464
1782	0.0117579
1794	0.0219124
1806	0.0194005
1818	0.010208
1830	0.00860464
1842	0.00929943
1854	0.0111166
1866	0.0161404
1878	0.0166748
1890	0.0128268
1902	0.00657373
1914	0.00780297
1926	0.0135216
1938	0.0198815
1950	0.0222866
1962	0.0135216
1974	0.00497038
1986	0.00486349
1998	0.00464972
2010	0.00432905
2022	0.00470316
2034	0.00443594
2046	0.0042756
2058	0.00379459
2070	0.00416871
2082	0.00459627
2094	0.00422216
2106	0.00363426
2118	0.00347393
2130	0.0036877
2142	0.00379459
2154	0.00416871
2166	0.00443594
2178	0.00416871
2190	0.00416871
2202	0.00406182
2214	0.00411526
2226	0.00400837
2238	0.00443594
2250	0.00432905
2262	0.00400837
2274	0.00379459
2286	0.00448938
2298	0.00518417
2310	0.00662718
2322	0.00619962
2334	0.00587895
2346	0.00625307
2358	0.00630651
2370	0.00502383
2382	0.00614618
2394	0.00566517
2406	0.0059324
2418	0.00635996
2430	0.0053445
2442	0.00497038
2454	0.00481005
2466	0.00470316
2478	0.0047566
2490	0.00497038
2502	0.00518417
2514	0.00523761
2526	0.00603929
2538	0.00630651
2550	0.00662718
2562	0.00684096
2574	0.00673407
2586	0.0070013
2598	0.00753574
2610	0.00833742
2622	0.00887187
2634	0.00892531
2646	0.00897876
2658	0.00839087
2670	0.00951321
2682	0.0104752
2694	0.00823053
2706	0.00764264
2718	0.00935288
2730	0.0106356
2742	0.012613
2754	0.0123992
2766	0.010689
2778	0.012613
2790	0.0173696
2802	0.0188661
2814	0.0203091
2826	0.0261346
2838	0.0396562
2850	0.0750368
2862	0.141736
2874	0.231203
2886	0.269844
2898	0.170971
2910	0.181018
2922	0.302552
2934	0.492442
2946	0.501795
2958	0.39234
2970	0.53445
2982	0.374115
2994	0.110898
3006	0.0840155
3018	0.120198
3030	0.267973
3042	0.281228
3054	0.12939
3066	0.195929
3078	0.231363
3090	0.1373
3102	0.0941701
3114	0.0552087
3126	0.0263484
3138	0.0139491
3150	0.010689
3162	0.0113838
3174	0.0107424
3186	0.00924598
3198	0.00839087
3210	0.00764264
3222	0.00657373
3234	0.00566517
3246	0.00539795
3258	0.00555828
3270	0.00603929
3282	0.00657373
3294	0.00619962
3306	0.00561172
3318	0.00529106
3330	0.00545139
3342	0.00609273
3354	0.0058255
3366	0.00614618
3378	0.00587895
3390	0.00662718
3402	0.00603929
3414	0.00635996
3426	0.00587895
3438	0.00657373
3450	0.00689441
3462	0.00614618
3474	0.00614618
3486	0.00705474
3498	0.00684096
3510	0.00662718
3522	0.00646684
3534	0.00657373
3546	0.00860464
3558	0.00833742
3570	0.00753574
3582	0.00550484
3594	0.00652029
3606	0.00796331
3618	0.00817709
3630	0.00481005
3642	0.00919254
3654	0.0104752
3666	0.00967355
3678	0.00416871
3690	0.00619962
3702	0.00817709
3714	0.00769608
3726	0.0103683
3738	0.00705474
3750	0.00828398
3762	0.00828398
3774	0.00774953
3786	0.00924598
3798	0.0085512
3810	0.00774953
3822	0.00502383
3834	0.00732196
3846	0.00737541
3858	0.00801675
3870	0.00635996
3882	0.00929943
3894	0.00657373
3906	0.00742885
3918	0.00871153
3930	0.00774953
3942	0.00887187
3954	0.0106356
3966	0.00871153
