Infrared Spectrum: Butanoic acid, 3-phenyl-2-propenyl ester
Formula: C 13 H 16 O 2
CAS: 103-61-7
Origin: Sadtler Research Labs Under US-EPA Contract
1/CM	ABSORBANCE
450	0.00116757
462	0.00191815
474	0.00083398
486	0.0138441
498	0.0165128
510	0.0229345
522	0.0255198
534	0.0211831
546	0.0110085
558	0.0213499
570	0.0100078
582	0.00950737
594	0.0158456
606	0.0283553
618	0.0329422
630	0.016763
642	0.0200155
654	0.0216001
666	0.0440341
678	0.0853996
690	0.136356
702	0.105915
714	0.0795617
726	0.101245
738	0.142277
750	0.101996
762	0.0603802
774	0.0370287
786	0.0381963
798	0.0386967
810	0.0402812
822	0.0402812
834	0.042116
846	0.0354442
858	0.035194
870	0.0380295
882	0.0369453
894	0.0493716
906	0.0472033
918	0.0466195
930	0.0496218
942	0.0691369
954	0.144862
966	0.274963
978	0.254948
990	0.177304
1002	0.101412
1014	0.0730566
1026	0.0889023
1038	0.112587
1050	0.115173
1062	0.1291
1074	0.155954
1086	0.2155
1098	0.25745
1110	0.226426
1122	0.139275
1134	0.138691
1146	0.197903
1158	0.419075
1170	0.83398
1182	0.58412
1194	0.411653
1206	0.295646
1218	0.220838
1230	0.23585
1242	0.268125
1254	0.30532
1266	0.24027
1278	0.172467
1290	0.162376
1302	0.171299
1314	0.111587
1326	0.0853996
1338	0.116173
1350	0.157205
1362	0.129434
1374	0.106166
1386	0.104331
1398	0.0631323
1410	0.0436172
1422	0.050706
1434	0.075642
1446	0.0979927
1458	0.104664
1470	0.075642
1482	0.0493716
1494	0.0870675
1506	0.0417824
1518	0.0203491
1530	0.018431
1542	0.0132603
1554	0.0170132
1566	0.0187646
1578	0.0246858
1590	0.0304403
1602	0.0426164
1614	0.0227677
1626	0.0178472
1638	0.0183476
1650	0.0250194
1662	0.0279383
1674	0.0219337
1686	0.0220171
1698	0.0353608
1710	0.0646335
1722	0.101078
1734	0.16763
1746	0.425163
1758	0.758088
1770	0.33059
1782	0.134938
1794	0.084232
1806	0.0450349
1818	0.0279383
1830	0.0192649
1842	0.0160124
1854	0.0158456
1866	0.0161792
1878	0.0170132
1890	0.0161792
1902	0.0123429
1914	0.0103414
1926	0.0148448
1938	0.0185144
1950	0.0185144
1962	0.0160124
1974	0.00967417
1986	0.00900698
1998	0.00808961
2010	0.00758922
2022	0.00875679
2034	0.00800621
2046	0.0082564
2058	0.00750582
2070	0.00725563
2082	0.00625485
2094	0.00583786
2106	0.00600466
2118	0.00575446
2130	0.00483708
2142	0.00517068
2154	0.0043367
2166	0.0040865
2178	0.00483708
2190	0.0042533
2202	0.00316912
2214	0.00283553
2226	0.00316912
2238	0.00383631
2250	0.00250194
2262	0.00291893
2274	0.00241854
2286	0.00383631
2298	0.00216835
2310	0.00116757
2322	8.3398e-05
2334	8.3398e-05
2346	8.3398e-05
2358	8.3398e-05
2370	8.3398e-05
2382	0.000250194
2394	0.00241854
2406	0.00158456
2418	0.00283553
2430	0.00350272
2442	0.00266874
2454	0.00158456
2466	0.00100078
2478	0.00125097
2490	0.00166796
2502	0.00166796
2514	0.00108417
2526	0.00108417
2538	0.00141777
2550	0.00108417
2562	0.00166796
2574	0.00150116
2586	0.00233514
2598	0.00225175
2610	0.00133437
2622	0.00166796
2634	0.00183476
2646	0.00158456
2658	0.00225175
2670	0.00275213
2682	0.00475369
2694	0.00291893
2706	0.0042533
2718	0.00625485
2730	0.00675524
2742	0.00683864
2754	0.00642165
2766	0.00608805
2778	0.00692203
2790	0.00750582
2802	0.0106749
2814	0.0125097
2826	0.0132603
2838	0.0168464
2850	0.0220171
2862	0.0296063
2874	0.0551261
2886	0.106249
2898	0.0888189
2910	0.0734736
2922	0.0914042
2934	0.133437
2946	0.210663
2958	0.209412
2970	0.231846
2982	0.238602
2994	0.123179
3006	0.0712219
3018	0.0645501
3030	0.105665
3042	0.123763
3054	0.073974
3066	0.0992436
3078	0.110586
3090	0.0707215
3102	0.0474535
3114	0.0273545
3126	0.00934058
3138	0.00667184
3150	0.00525407
3162	0.00617145
3174	0.00450349
3186	0.00333592
3198	0.00391971
3210	0.00366951
3222	0.00383631
3234	0.00225175
3246	0.00341932
3258	0.00116757
3270	0.00325252
3282	0.0040031
3294	0.00283553
3306	0.00341932
3318	0.00266874
3330	0.00333592
3342	0.00375291
3354	0.00183476
3366	0.00283553
3378	0.00375291
3390	0.00250194
3402	0.00308573
3414	0.00283553
3426	0.00341932
3438	0.00341932
3450	0.00483708
3462	0.00475369
3474	0.00567106
3486	0.00800621
3498	0.00984096
3510	0.00642165
3522	0.00383631
3534	0.0043367
3546	0.00442009
3558	0.00366951
3570	0.00633825
3582	0.00875679
3594	0.00492048
3606	0.00450349
3618	0.00316912
3630	0.00208495
3642	0.00617145
3654	0.00358611
3666	0.00341932
3678	8.3398e-05
3690	0.00108417
3702	0.00150116
3714	8.3398e-05
3726	8.3398e-05
3738	8.3398e-05
3750	8.3398e-05
3762	8.3398e-05
3774	8.3398e-05
3786	0.000583786
3798	8.3398e-05
3810	8.3398e-05
3822	8.3398e-05
3834	8.3398e-05
3846	8.3398e-05
3858	8.3398e-05
3870	8.3398e-05
3882	8.3398e-05
3894	8.3398e-05
3906	8.3398e-05
3918	8.3398e-05
3930	8.3398e-05
3942	8.3398e-05
3954	8.3398e-05
3966	8.3398e-05
