Infrared Spectrum: Benzyl methyl ketone
Formula: C 9 H 10 O
CAS: 103-79-7
Origin: Sadtler Research Labs Under US-EPA Contract
1/CM	ABSORBANCE
450	0.0379907
462	0
474	0.00636808
486	0.0183422
498	0.0077832
510	0.00881734
522	0.0380996
534	0.103849
546	0.0836558
558	0.026833
570	0.0126273
582	0.0111577
594	0.0114299
606	0.0102325
618	0.0199751
630	0.0257444
642	0.0146956
654	0.0114843
666	0.0187777
678	0.042726
690	0.126708
702	0.181245
714	0.109237
726	0.131444
738	0.11419
750	0.0430525
762	0.0221522
774	0.0131716
786	0.0171992
798	0.00925276
810	0.00821863
822	0.012845
834	0.00511623
846	0.0040821
858	0.00598708
870	0.00947047
882	0.00761992
894	0.0058238
906	0.00800092
918	0.00549723
930	0.00413653
942	0.00473524
954	0.00598708
966	0.0142057
978	0.018179
990	0.0173081
1002	0.0209548
1014	0.0188321
1026	0.0380452
1038	0.0355415
1050	0.0168183
1062	0.0203561
1074	0.0303708
1086	0.0280848
1098	0.0197029
1110	0.0209548
1122	0.0294455
1134	0.0538837
1146	0.121048
1158	0.13558
1170	0.0885544
1182	0.079737
1194	0.0813699
1206	0.102869
1218	0.174932
1230	0.166005
1242	0.0813699
1254	0.043869
1266	0.0425627
1278	0.053666
1290	0.0548634
1302	0.0460461
1314	0.0492573
1326	0.0504548
1338	0.0594898
1350	0.114952
1362	0.187777
1374	0.111305
1386	0.0506725
1398	0.0400046
1410	0.0433791
1422	0.0584557
1434	0.0663477
1446	0.065749
1458	0.0623745
1470	0.0384806
1482	0.0295
1494	0.0972084
1506	0.0873025
1518	0.0289557
1530	0.0192131
1542	0.0173081
1554	0.0139336
1566	0.0150221
1578	0.0200295
1590	0.0297721
1602	0.0552988
1614	0.0416918
1626	0.0167638
1638	0.0138247
1650	0.013988
1662	0.0149677
1674	0.0242749
1686	0.0456651
1698	0.0753284
1710	0.147337
1722	0.40157
1734	0.532959
1746	0.285529
1758	0.177326
1770	0.119742
1782	0.064225
1794	0.0465904
1806	0.0403311
1818	0.0188321
1830	0.0103413
1842	0.00751106
1854	0.00669464
1866	0.0100148
1878	0.011321
1890	0.00903505
1902	0.00462638
1914	0.0040821
1926	0.00598708
1938	0.0103413
1950	0.0129539
1962	0.0100692
1974	0.00440867
1986	0.00326568
1998	0.00337454
2010	0.0031024
2022	0.00277583
2034	0.00244926
2046	0.00239483
2058	0.00201384
2070	0.00223155
2082	0.00228598
2094	0.00255812
2106	0.00201384
2118	0.00185055
2130	0.00185055
2142	0.0023404
2154	0.00266697
2166	0.0023404
2178	0.00239483
2190	0.00179612
2202	0.00163284
2214	0.00168727
2226	0.00108856
2238	0.00125184
2250	0.000870848
2262	0.00125184
2274	0.00130627
2286	0.00152398
2298	0.00141513
2310	0.00212269
2322	0.00195941
2334	0.00130627
2346	0.0023404
2358	0.00163284
2370	0.00146956
2382	0.00201384
2394	0.00114299
2406	0.00130627
2418	0.00185055
2430	0.00157841
2442	0.00163284
2454	0.00157841
2466	0.00152398
2478	0.00195941
2490	0.00163284
2502	0.00157841
2514	0.00179612
2526	0.00185055
2538	0.00163284
2550	0.00146956
2562	0.00195941
2574	0.00212269
2586	0.00266697
2598	0.00255812
2610	0.0027214
2622	0.00250369
2634	0.00266697
2646	0.00217712
2658	0.00195941
2670	0.00190498
2682	0.0027214
2694	0.00337454
2706	0.00402767
2718	0.00609594
2730	0.00604151
2742	0.00571494
2754	0.00326568
2766	0.00353782
2778	0.00429981
2790	0.00691236
2802	0.00898062
2814	0.00996032
2826	0.0114843
2838	0.0157841
2850	0.0161651
2862	0.0161107
2874	0.0193219
2886	0.0257989
2898	0.0358136
2910	0.0483321
2922	0.0698311
2934	0.0717361
2946	0.0537749
2958	0.0567684
2970	0.056333
2982	0.0390249
2994	0.0292823
3006	0.0453385
3018	0.067654
3030	0.111251
3042	0.135145
3054	0.0713007
3066	0.0938339
3078	0.127743
3090	0.0785396
3102	0.0542103
3114	0.0292278
3126	0.0135526
3138	0.00555166
3150	0.00451752
3162	0.00451752
3174	0.00419096
3186	0.00266697
3198	0.00277583
3210	0.00239483
3222	0.00201384
3234	0.00277583
3246	0.00190498
3258	0.00195941
3270	0.00223155
3282	0.00283026
3294	0.00244926
3306	0.0023404
3318	0.00223155
3330	0.00255812
3342	0.00190498
3354	0.00261254
3366	0.00239483
3378	0.00195941
3390	0.00293911
3402	0.00375553
3414	0.0040821
3426	0.0064225
3438	0.0108312
3450	0.0100692
3462	0.00707564
3474	0.0054428
3486	0.00326568
3498	0.00348339
3510	0.00283026
3522	0.00332011
3534	0.00206826
3546	0.00266697
3558	0.00462638
3570	0.00691236
3582	0.0107767
3594	0.0100148
3606	0.00250369
3618	0.00108856
3630	0.00304797
3642	0.00168727
3654	0.00332011
3666	0.00217712
3678	0.00359225
3690	0.0023404
3702	0.00190498
3714	0.00239483
3726	0.00419096
3738	0.00239483
3750	0.00261254
3762	0.000979704
3774	0.00239483
3786	0.00146956
3798	0.000925276
3810	0.00223155
3822	0.00217712
3834	0.00413653
3846	0.00413653
3858	0.0037011
3870	0.00549723
3882	0.000925276
3894	0.00375553
3906	0.00391882
3918	0.00326568
3930	0.00500738
3942	0.00201384
3954	0.00228598
3966	0.00223155
