Infrared Spectrum: 2-Nonanol, 5-ethyl-
Formula: C 11 H 24 O
CAS: 103-08-2
Origin: Sadtler Research Labs Under US-EPA Contract
1/CM	ABSORBANCE
450	0.00811103
462	0.00368683
474	0.0104285
486	0.0196982
498	0.0185395
510	0.0182235
522	0.0112712
534	0.0188555
546	0.022437
558	0.0129566
570	0.01559
582	0.0142206
594	0.00990177
606	0.00716298
618	0.007479
630	0.0126406
642	0.00990177
654	0.0130619
666	0.00895373
678	0.0184341
690	0.00790035
702	0.00758434
714	0.0201196
726	0.015274
738	0.0265452
750	0.0189608
762	0.0172754
774	0.0234904
786	0.0314961
798	0.0219103
810	0.0169594
822	0.0211729
834	0.0267559
846	0.0314961
858	0.0249651
870	0.0267559
882	0.0290733
894	0.0303373
906	0.0348669
918	0.0418192
930	0.0642562
942	0.0778448
954	0.0693124
966	0.0606747
978	0.0527743
990	0.0446633
1002	0.0432939
1014	0.0472968
1026	0.0597266
1038	0.0794249
1050	0.0912227
1062	0.100914
1074	0.101967
1086	0.111132
1098	0.130619
1110	0.102389
1122	0.0923814
1134	0.097227
1146	0.0881679
1158	0.0644669
1170	0.0483501
1182	0.0460327
1194	0.0511943
1206	0.0565665
1218	0.0624654
1230	0.074474
1242	0.0951202
1254	0.0881679
1266	0.066995
1278	0.0567772
1290	0.0503516
1302	0.0480341
1314	0.0496142
1326	0.053301
1338	0.0674163
1350	0.0896426
1362	0.101862
1374	0.14189
1386	0.193401
1398	0.108498
1410	0.0664683
1422	0.052353
1434	0.052037
1446	0.0810049
1458	0.157164
1470	0.163695
1482	0.0644669
1494	0.0313907
1506	0.0252811
1518	0.0226477
1530	0.0201196
1542	0.0198035
1554	0.0172754
1566	0.014958
1578	0.0147473
1590	0.014326
1602	0.0175914
1614	0.0193822
1626	0.022753
1638	0.0267559
1650	0.0238064
1662	0.0174861
1674	0.0195929
1686	0.0190662
1698	0.0175914
1710	0.0171701
1722	0.0173808
1734	0.0120085
1746	0.00811103
1758	0.000105338
1770	0.00726832
1782	0.00863772
1794	0.00758434
1806	0.00653096
1818	0.00589893
1830	0.00505622
1842	0.00431886
1854	0.00431886
1866	0.0044242
1878	0.00410818
1890	0.0044242
1902	0.00431886
1914	0.00421352
1926	0.00389751
1938	0.00379217
1950	0.00379217
1962	0.00347615
1974	0.00347615
1986	0.00337082
1998	0.0030548
2010	0.00294946
2022	0.0030548
2034	0.00294946
2046	0.00326548
2058	0.00316014
2070	0.00263345
2082	0.00263345
2094	0.00252811
2106	0.00263345
2118	0.00273879
2130	0.00273879
2142	0.00252811
2154	0.00273879
2166	0.00284413
2178	0.00294946
2190	0.00242277
2202	0.00273879
2214	0.00273879
2226	0.00294946
2238	0.00273879
2250	0.0022121
2262	0.0022121
2274	0.0022121
2286	0.00179075
2298	0.000842704
2310	0.000105338
2322	0.00147473
2334	0.00337082
2346	0.00189608
2358	0.00326548
2370	0.00547758
2382	0.00379217
2394	0.00537224
2406	0.0052669
2418	0.00568825
2430	0.00537224
2442	0.00474021
2454	0.00431886
2466	0.0044242
2478	0.00474021
2490	0.00452953
2502	0.00495089
2514	0.00505622
2526	0.00600427
2538	0.00642562
2550	0.00705765
2562	0.00811103
2574	0.00895373
2586	0.0107445
2598	0.0107445
2610	0.0115872
2622	0.0122192
2634	0.0126406
2646	0.0137993
2658	0.0148527
2670	0.0156954
2682	0.0166434
2694	0.0154847
2706	0.0154847
2718	0.0167487
2730	0.0186448
2742	0.022121
2754	0.0207516
2766	0.0201196
2778	0.022121
2790	0.0274932
2802	0.0343402
2814	0.0433993
2826	0.0567772
2838	0.0821636
2850	0.153267
2862	0.366682
2874	0.531009
2886	0.492034
2898	0.346141
2910	0.458536
2922	0.770021
2934	1.05338
2946	0.834593
2958	0.585995
2970	1.01862
2982	0.509099
2994	0.157796
3006	0.0759487
3018	0.0510889
3030	0.038027
3042	0.029916
3054	0.0248598
3066	0.0213836
3078	0.0204356
3090	0.0184341
3102	0.0173808
3114	0.0156954
3126	0.0142206
3138	0.0136939
3150	0.0129566
3162	0.0127459
3174	0.0130619
3186	0.0126406
3198	0.0120085
3210	0.0104285
3222	0.00821636
3234	0.00684697
3246	0.0052669
3258	0.00484555
3270	0.00431886
3282	0.00368683
3294	0.00379217
3306	0.00273879
3318	0.00379217
3330	0.00284413
3342	0.00252811
3354	0.00242277
3366	0.00231744
3378	0.00231744
3390	0.00242277
3402	0.00179075
3414	0.00252811
3426	0.00273879
3438	0.00231744
3450	0.00210676
3462	0.00189608
3474	0.00179075
3486	0.00115872
3498	0.000737366
3510	0.00126406
3522	0.00126406
3534	0.00158007
3546	0.00052669
3558	0.00052669
3570	0.00200142
3582	0.00242277
3594	0.00179075
3606	0.00316014
3618	0.00547758
3630	0.014326
3642	0.0226477
3654	0.0555131
3666	0.0341295
3678	0.00948042
3690	0.00589893
3702	0.00294946
3714	0.00179075
3726	0.000421352
3738	0.0022121
3750	0.00326548
3762	0.000842704
3774	0.000105338
3786	0.000316014
3798	0.00242277
3810	0.000105338
3822	0.0022121
3834	0.00252811
3846	0.00263345
3858	0.00379217
3870	0.00505622
3882	0.00252811
3894	0.00326548
3906	0.00179075
3918	0.00252811
3930	0.00273879
3942	0.000105338
3954	0.00126406
3966	0.0044242
