Infrared Spectrum: Benzenepropanol, .alpha.,.alpha.-dimethyl-
Formula: C 11 H 16 O
CAS: 103-05-9
Origin: Sadtler Research Labs Under US-EPA Contract
1/CM	ABSORBANCE
450	0.0462578
462	0.0194597
474	0.024898
486	0.0286327
498	0.0429163
510	0.0442267
522	0.0416714
534	0.0081246
546	0.0090419
558	0.000982815
570	0.0201805
582	0.0090419
594	0.0142836
606	0.00760044
618	0.00537272
630	0.0040623
642	0.00615897
654	0.0102868
666	0.0222771
678	0.0487476
690	0.174613
702	0.264967
714	0.136808
726	0.127373
738	0.190666
750	0.128487
762	0.074825
774	0.0477648
786	0.0193287
798	0.01258
810	0.0115317
822	0.015594
834	0.0191321
846	0.0128421
858	0.0148077
870	0.0185424
882	0.0300086
894	0.056217
906	0.0970366
918	0.155547
930	0.145195
942	0.0760699
954	0.0380022
966	0.0317122
978	0.0375435
990	0.0324984
1002	0.0264705
1014	0.028174
1026	0.0571998
1038	0.0610001
1050	0.0336123
1062	0.0610001
1074	0.0821633
1086	0.0695833
1098	0.0960538
1110	0.140477
1122	0.173958
1134	0.163868
1146	0.163409
1158	0.168323
1170	0.12888
1182	0.112893
1194	0.124097
1206	0.15653
1218	0.173565
1230	0.136611
1242	0.109355
1254	0.100706
1266	0.103523
1278	0.0936295
1290	0.080984
1302	0.0795425
1314	0.0879292
1326	0.0946778
1338	0.0925157
1350	0.0896982
1362	0.14526
1374	0.229323
1386	0.207374
1398	0.0845221
1410	0.0363642
1422	0.0333502
1434	0.0450784
1446	0.0801322
1458	0.121672
1470	0.110075
1482	0.070304
1494	0.133728
1506	0.102147
1518	0.0167734
1530	0.0131042
1542	0.0131697
1554	0.00917294
1566	0.00930398
1578	0.0173631
1590	0.0370194
1602	0.0790183
1614	0.0638175
1626	0.0127766
1638	0.00897638
1650	0.00629002
1662	0.00583137
1674	0.00720731
1686	0.0102868
1698	0.0106144
1710	0.00989367
1722	0.0159871
1734	0.02326
1746	0.0148077
1758	0.00897638
1770	0.00642106
1782	0.00773148
1794	0.0211633
1806	0.0117938
1818	0.00609345
1830	0.00478303
1842	0.00583137
1854	0.00832117
1866	0.0110075
1878	0.00989367
1890	0.00543824
1902	0.00288292
1914	0.00255532
1926	0.00727283
1938	0.013956
1950	0.0153319
1962	0.00727283
1974	0.000917294
1986	0.000589689
1998	0.000131042
2010	0.000786252
2022	0.000786252
2034	0.000917294
2046	0.0012449
2058	0.000589689
2070	6.5521e-05
2082	0.000589689
2094	0.000458647
2106	6.5521e-05
2118	0.00065521
2130	0.000982815
2142	0.000720731
2154	0.000524168
2166	0.000393126
2178	0.000131042
2190	0.000851773
2202	0.000393126
2214	0.000458647
2226	0.000393126
2238	0.000393126
2250	0.00065521
2262	0.000917294
2274	0.00163802
2286	0.00307949
2298	0.00445543
2310	0.00629002
2322	0.00393126
2334	0.00209667
2346	0.00681418
2358	0.000196563
2370	0.00661762
2382	0.00589689
2394	0.00150698
2406	0.00163802
2418	0.0012449
2430	0.00150698
2442	0.00163802
2454	0.00163802
2466	0.00176907
2478	0.00183459
2490	0.00176907
2502	0.00170355
2514	0.0012449
2526	0.00137594
2538	0.00183459
2550	0.00183459
2562	0.00170355
2574	0.00301397
2586	0.00360365
2598	0.00366918
2610	0.0049796
2622	0.00445543
2634	0.00445543
2646	0.00386574
2658	0.00307949
2670	0.0028174
2682	0.00307949
2694	0.00380022
2706	0.00452095
2718	0.00753491
2730	0.0090419
2742	0.00864877
2754	0.00668314
2766	0.00746939
2778	0.00851773
2790	0.0104834
2802	0.013956
2814	0.0185424
2826	0.023522
2838	0.0332847
2850	0.0611311
2862	0.101427
2874	0.137398
2886	0.138773
2898	0.142508
2910	0.180445
2922	0.268505
2934	0.348113
2946	0.385591
2958	0.355845
2970	0.507395
2982	0.626512
2994	0.2326
3006	0.0879292
3018	0.0885189
3030	0.226113
3042	0.227358
3054	0.0911397
3066	0.164392
3078	0.210978
3090	0.111058
3102	0.0729249
3114	0.0434404
3126	0.0177562
3138	0.00701075
3150	0.0062245
3162	0.00694523
3174	0.00819012
3186	0.00720731
3198	0.0068797
3210	0.00635554
3222	0.00642106
3234	0.00484855
3246	0.00307949
3258	0.00347261
3270	0.00347261
3282	0.00288292
3294	0.00262084
3306	0.00183459
3318	0.00301397
3330	0.00242428
3342	0.00222771
3354	0.00294845
3366	0.00347261
3378	0.00353813
3390	0.00327605
3402	0.00602793
3414	0.00380022
3426	0.00334157
3438	0.00543824
3450	0.00425886
3462	0.00327605
3474	0.00104834
3486	0.00366918
3498	0.00294845
3510	0.00196563
3522	0.00183459
3534	0.00150698
3546	0.000720731
3558	0.00235876
3570	0.00511064
3582	0.00111386
3594	0.00412782
3606	0.00819012
3618	0.0323674
3630	0.0501891
3642	0.074825
3654	0.0426542
3666	0.0106799
3678	0.00753491
3690	0.00484855
3702	0.00386574
3714	0.00104834
3726	0.00183459
3738	0.00163802
3750	0.0012449
3762	0.00216219
3774	0.000851773
3786	0.00190011
3798	0.00307949
3810	0.00471751
3822	0.00314501
3834	0.0062245
3846	0.00694523
3858	0.00360365
3870	0.00452095
3882	0.00563481
3894	0.00504512
3906	0.00314501
3918	0.00294845
3930	0.00111386
3942	0.00629002
3954	0.000982815
3966	0.00209667
