Infrared Spectrum: Hexanedioic acid, bis(2-ethylhexyl) ester
Formula: C 22 H 42 O 4
CAS: 103-23-1
Origin: Sadtler Research Labs Under US-EPA Contract
1/CM	ABSORBANCE
450	0.0268926
462	0.0225799
474	0.0273133
486	0.0115354
498	0.0235967
510	0.020897
522	0.0229305
534	0.0194594
546	0.0235967
558	0.0218086
570	0.0202308
582	0.0262614
594	0.0204762
606	0.019775
618	0.0220189
630	0.0279444
642	0.0212476
654	0.0230007
666	0.0206515
678	0.0176011
690	0.0222644
702	0.0226851
714	0.0193542
726	0.0380423
738	0.0269627
750	0.0257004
762	0.0286807
774	0.0302936
786	0.0290313
798	0.0257355
810	0.0233162
822	0.0234214
834	0.0249641
846	0.0240876
858	0.0249291
870	0.0280496
882	0.0287508
894	0.0289612
906	0.0293469
918	0.0301884
930	0.0331687
942	0.0344659
954	0.0394447
966	0.0494725
978	0.0496478
990	0.0522774
1002	0.0566602
1014	0.0655659
1026	0.0616039
1038	0.0585535
1050	0.0586938
1062	0.0629012
1074	0.0620247
1086	0.0528034
1098	0.0469831
1110	0.0575367
1122	0.088812
1134	0.14677
1146	0.195576
1158	0.193928
1170	0.188669
1182	0.162758
1194	0.139161
1206	0.130957
1218	0.136426
1230	0.14719
1242	0.145963
1254	0.123734
1266	0.102065
1278	0.0884965
1290	0.0776273
1302	0.0651101
1314	0.0580627
1326	0.0511204
1338	0.0575017
1350	0.0645141
1362	0.0584133
1374	0.049227
1386	0.0637778
1398	0.0434068
1410	0.028821
1422	0.0315909
1434	0.0393396
1446	0.0455455
1458	0.0653205
1470	0.0693526
1482	0.0387084
1494	0.0247538
1506	0.0188283
1518	0.016374
1530	0.0153221
1542	0.014165
1554	0.0147962
1566	0.015287
1578	0.0161636
1590	0.0165493
1602	0.0153922
1614	0.0157428
1626	0.0139196
1638	0.0131833
1650	0.0132534
1662	0.0143404
1674	0.0150065
1686	0.0167596
1698	0.0219488
1710	0.0318012
1722	0.0469831
1734	0.0907755
1746	0.259739
1758	0.270749
1770	0.0836229
1782	0.0420744
1794	0.0258056
1806	0.018092
1818	0.0144105
1830	0.0117107
1842	0.0112198
1854	0.011325
1866	0.010168
1878	0.010203
1890	0.00988748
1902	0.00974724
1914	0.00918624
1926	0.00974724
1938	0.00957193
1950	0.00922131
1962	0.0097823
1974	0.00887069
1986	0.00830969
1998	0.00823957
2010	0.00764352
2022	0.0077487
2034	0.00715265
2046	0.00852007
2058	0.00946674
2070	0.0097823
2082	0.0106238
2094	0.00901093
2106	0.0072929
2118	0.00669684
2130	0.00687215
2142	0.00634622
2154	0.00550473
2166	0.00564498
2178	0.00557486
2190	0.00522424
2202	0.00490868
2214	0.0049788
2226	0.00504893
2238	0.00539955
2250	0.00529436
2262	0.0049788
2274	0.00466325
2286	0.00669684
2298	0.00897587
2310	0.0100277
2322	0.010203
2334	0.00571511
2346	0.0067319
2358	0.00515411
2370	0.00164791
2382	0.00501387
2394	0.00326077
2406	0.0027699
2418	0.00262965
2430	0.00220891
2442	0.00227903
2454	0.00231409
2466	0.0017531
2478	0.00199853
2490	0.00192841
2502	0.00189335
2514	0.00343608
2526	0.00168298
2538	0.00122717
2550	0.00259459
2562	0.00129729
2574	0.00213878
2586	0.00329583
2598	0.00217384
2610	0.00112198
2622	0.000596054
2634	0.00220891
2646	0.00347114
2658	0.00522424
2670	0.00610079
2682	0.00806426
2694	0.00704746
2706	0.00494374
2718	0.00469831
2730	0.00462818
2742	0.00539955
2754	0.00613585
2766	0.0062761
2778	0.00641635
2790	0.00785389
2802	0.00908106
2814	0.0113601
2826	0.0162337
2838	0.0220891
2850	0.0337647
2862	0.0764001
2874	0.118264
2886	0.116195
2898	0.0986294
2910	0.112093
2922	0.171488
2934	0.250939
2946	0.246942
2958	0.202448
2970	0.273484
2982	0.131027
2994	0.0535747
3006	0.0275587
3018	0.0178115
3030	0.0142001
3042	0.0116406
3054	0.00999267
3066	0.00862525
3078	0.00739808
3090	0.00767858
3102	0.00550473
3114	0.00504893
3126	0.0052593
3138	0.00578523
3150	0.00280496
3162	0.00357632
3174	0.00410225
3186	0.00319064
3198	0.00182322
3210	0.00150767
3222	0.00178816
3234	0.00182322
3246	0.0014726
3258	0.00112198
3270	0.00343608
3282	0.0037867
3294	0.00438275
3306	0.00459312
3318	0.00326077
3330	0.0032257
3342	0.00532942
3354	0.00382176
3366	0.00280496
3378	0.00459312
3390	0.00427756
3402	0.00501387
3414	0.00294521
3426	0.00406719
3438	0.00417238
3450	0.00375163
3462	0.00462818
3474	0.00641635
3486	0.00585535
3498	0.00357632
3510	0.00357632
3522	0.00336595
3534	0.00340101
3546	0.0032257
3558	0.00291015
3570	0.00420744
3582	0.00315558
3594	0.00550473
3606	0.00192841
3618	0.00417238
3630	0.00308546
3642	0.00326077
3654	0.00385682
3666	0.00326077
3678	0.00396201
3690	0.00375163
3702	0.00410225
3714	0.00291015
3726	0.004523
3738	0.00196347
3750	0.00196347
3762	0.00354126
3774	0.0010168
3786	0.00354126
3798	0.00312052
3810	0.00445287
3822	0.0032257
3834	0.00392694
3846	0.00315558
3858	0.00620597
3870	0.00575017
3882	0.00711759
3894	0.00227903
3906	0.00683709
3918	0.00494374
3930	0.00568004
3942	0.00357632
3954	0.00785389
3966	0.00305039
