Infrared Spectrum: 2-Propenoic acid, 3-phenyl-, ethyl ester
Formula: C 11 H 12 O 2
CAS: 103-36-6
Origin: Sadtler Research Labs Under US-EPA Contract
1/CM	ABSORBANCE
450	0
462	0.00552538
474	0.00936913
486	0.00760741
498	0.0127324
510	0.0120117
522	0.00856835
534	0.00568554
546	0.00104101
558	0.00864842
570	0.0378769
582	0.0191386
594	0.00752733
606	0.00296289
618	0.00224218
630	0.00120117
642	0.00536523
654	0.00688671
666	0.0200195
678	0.0446835
690	0.0622206
702	0.0578964
714	0.0403593
726	0.0229824
738	0.0247441
750	0.0465253
762	0.0792772
774	0.0539726
786	0.0216211
798	0.0158554
810	0.0151347
822	0.0152949
834	0.0182578
846	0.0200996
858	0.0290683
870	0.0336328
882	0.0350742
894	0.0259453
906	0.0218613
918	0.02058
930	0.0245839
942	0.0292285
954	0.0354746
966	0.0612597
978	0.0844022
990	0.0547734
1002	0.0323515
1014	0.0380371
1026	0.0874452
1038	0.141658
1050	0.141418
1062	0.0819999
1074	0.0587773
1086	0.0619003
1098	0.0776757
1110	0.0582167
1122	0.0476464
1134	0.0606991
1146	0.129326
1158	0.41064
1170	0.733034
1182	0.307099
1194	0.231986
1206	0.186021
1218	0.0875253
1230	0.111388
1242	0.183619
1254	0.334486
1266	0.340412
1278	0.192347
1290	0.177213
1302	0.251525
1314	0.302134
1326	0.126203
1338	0.0511698
1350	0.0285078
1362	0.0466855
1374	0.0819999
1386	0.0326718
1398	0.0353144
1410	0.0302695
1422	0.0225019
1434	0.0242636
1446	0.0483671
1458	0.043082
1470	0.0385175
1482	0.0280273
1494	0.0458847
1506	0.0202597
1518	0.0087285
1530	0.01025
1542	0.00640624
1554	0.0101699
1566	0.0132129
1578	0.0245039
1590	0.0167363
1602	0.0178574
1614	0.0241035
1626	0.0496484
1638	0.160717
1650	0.118756
1662	0.033873
1674	0.0293886
1686	0.0280273
1698	0.0394785
1710	0.0691073
1722	0.187463
1734	0.542368
1746	0.40055
1758	0.119156
1770	0.0489277
1782	0.0282675
1794	0.0199394
1806	0.014414
1818	0.0103301
1830	0.00848827
1842	0.00768749
1854	0.0065664
1866	0.00712694
1878	0.00896874
1890	0.00976952
1902	0.00712694
1914	0.00552538
1926	0.00560546
1938	0.0072871
1950	0.00912889
1962	0.00712694
1974	0.00416406
1986	0.00368359
1998	0.00336328
2010	0.00376367
2022	0.00312304
2034	0.00216211
2046	0.00240234
2058	0.00216211
2070	0.00216211
2082	0.00224218
2094	0.00240234
2106	0.00272265
2118	0.0032832
2130	0.00320312
2142	0.00280273
2154	0.00184179
2166	0.00136133
2178	0.000880858
2190	0.00128125
2202	0.00128125
2214	0.00104101
2226	0.00120117
2238	0.00136133
2250	0.00184179
2262	0.00184179
2274	0.00232226
2286	0.00232226
2298	0.00184179
2310	0.00184179
2322	0.00136133
2334	0.000880858
2346	0.000880858
2358	0.000880858
2370	0.000880858
2382	0.00136133
2394	0.00136133
2406	0.000880858
2418	0.00128125
2430	0.00160156
2442	0.00192187
2454	0.00128125
2466	0.00176172
2478	0.00184179
2490	0.00152148
2502	0.00168164
2514	0.00128125
2526	0.00136133
2538	0.00080078
2550	0.00136133
2562	0.00136133
2574	0.00128125
2586	0.00184179
2598	0.00224218
2610	0.00232226
2622	0.00176172
2634	0.00128125
2646	0.00136133
2658	0.0014414
2670	0.0014414
2682	0.00200195
2694	0.00224218
2706	0.00224218
2718	0.00272265
2730	0.00288281
2742	0.00344335
2754	0.0032832
2766	0.00416406
2778	0.00488476
2790	0.00496484
2802	0.00608593
2814	0.0065664
2826	0.00664647
2838	0.00768749
2850	0.00792772
2862	0.00968944
2874	0.0131328
2886	0.0219414
2898	0.0235429
2910	0.0295488
2922	0.03083
2934	0.0364355
2946	0.057496
2958	0.0442031
2970	0.055414
2982	0.0952127
2994	0.087285
3006	0.0507695
3018	0.0367558
3030	0.0457245
3042	0.0498085
3054	0.0351542
3066	0.0611796
3078	0.0681464
3090	0.0413202
3102	0.0269062
3114	0.0162558
3126	0.00792772
3138	0.00568554
3150	0.00624608
3162	0.00600585
3174	0.00448437
3186	0.00448437
3198	0.00416406
3210	0.00376367
3222	0.00344335
3234	0.00352343
3246	0.00312304
3258	0.00320312
3270	0.0032832
3282	0.00304296
3294	0.0032832
3306	0.00336328
3318	0.00280273
3330	0.00280273
3342	0.00336328
3354	0.00376367
3366	0.00416406
3378	0.00416406
3390	0.00384374
3402	0.00320312
3414	0.00344335
3426	0.00360351
3438	0.00520507
3450	0.00584569
3462	0.00624608
3474	0.00464452
3486	0.00352343
3498	0.00224218
3510	0.00272265
3522	0.0025625
3534	0.00296289
3546	0.0025625
3558	0.00272265
3570	0.00272265
3582	0.00584569
3594	0.0040039
3606	0.00264257
3618	0.00312304
3630	0.00112109
3642	0.00384374
3654	0.00296289
3666	0.00440429
3678	0.0025625
3690	0.00376367
3702	0.00536523
3714	0.00504491
3726	0.00648632
3738	0.00576562
3750	0.00688671
3762	0.00880858
3774	0.00984959
3786	0.0108906
3798	0.0111308
3810	0.0115312
3822	0.0112109
3834	0.0125722
3846	0.0132929
3858	0.0132129
3870	0.0136133
3882	0.0140937
3894	0.0152949
3906	0.0156953
3918	0.0158554
3930	0.0159355
3942	0.0156152
3954	0.00216211
3966	0.00344335
