Infrared Spectrum: Benzenamine, N-ethyl-
Formula: C 8 H 11 N
CAS: 103-69-5
Origin: Sadtler Research Labs Under US-EPA Contract
1/CM	ABSORBANCE
450	0.028767
462	0.0345461
474	0.0586898
486	0.0674226
498	0.099657
510	0.103638
522	0.0742291
534	0.0579192
546	0.0521401
558	0.0516264
570	0.04726
582	0.0324913
594	0.0154109
606	0.0196489
618	0.028767
630	0.0268406
642	0.0276112
654	0.0265838
666	0.0449484
678	0.159374
690	0.325812
702	0.192636
714	0.0757702
726	0.105821
738	0.302182
750	0.486213
762	0.257233
774	0.0698627
786	0.0210615
798	0.0173372
810	0.0182362
822	0.0200341
834	0.0143835
846	0.0123287
858	0.0267122
870	0.0446916
882	0.0237584
894	0.00783386
906	0.00629278
918	0.00770544
930	0.0106592
942	0.00603593
954	0
966	0.00128424
978	0.00680647
990	0.0383988
1002	0.040582
1014	0.00873283
1026	0.0297944
1038	0.033005
1050	0.0457189
1062	0.0703764
1074	0.0603593
1086	0.0500854
1098	0.0676794
1110	0.0607446
1122	0.049058
1134	0.106207
1146	0.19071
1158	0.164511
1170	0.112371
1182	0.125727
1194	0.0702479
1206	0.0505991
1218	0.0498285
1230	0.0697342
1242	0.216138
1254	0.482489
1266	0.397601
1278	0.341479
1290	0.255307
1302	0.333132
1314	0.515879
1326	0.362156
1338	0.123544
1350	0.084503
1362	0.0809071
1374	0.102354
1386	0.130992
1398	0.0803934
1410	0.0753849
1422	0.147174
1434	0.198544
1446	0.110573
1458	0.110188
1470	0.14666
1482	0.250812
1494	0.643533
1506	1.28424
1518	0.666264
1530	0.130992
1542	0.0687068
1554	0.064212
1566	0.0660099
1578	0.106977
1590	0.357532
1602	0.974738
1614	0.947769
1626	0.306677
1638	0.0683216
1650	0.0399399
1662	0.0359587
1674	0.0295375
1686	0.0268406
1698	0.0228595
1710	0.0166951
1722	0.011815
1734	0.00924653
1746	0.0148972
1758	0.0200341
1770	0.0115582
1782	0.00744859
1794	0.00744859
1806	0.0133561
1818	0.0183646
1830	0.0201626
1842	0.0132277
1854	0.00757702
1866	0.00577908
1878	0.00667805
1890	0.0101455
1902	0.0213184
1914	0.0250427
1926	0.0252995
1938	0.0157962
1950	0.0064212
1962	0.00513696
1974	0.00436642
1986	0.00475169
1998	0.00462326
2010	0.00449484
2022	0.0037243
2034	0.00231163
2046	0.00205478
2058	0.00205478
2070	0.00231163
2082	0.00308218
2094	0.0026969
2106	0.00244006
2118	0.00218321
2130	0.00205478
2142	0.00205478
2154	0.00115582
2166	0.000256848
2178	0.00064212
2190	0.00166951
2202	0.00102739
2214	0.000898968
2226	0.000128424
2238	0
2250	0.00102739
2262	0.00166951
2274	0.00218321
2286	0.00179794
2298	0.000770544
2310	0.00115582
2322	0.00205478
2334	0.00359587
2346	0.00308218
2358	0.00102739
2370	0.00526538
2382	0.00256848
2394	0.0032106
2406	0.00552223
2418	0.00577908
2430	0.00539381
2442	0.00500854
2454	0.00333902
2466	0.00256848
2478	0.00231163
2490	0.00282533
2502	0.00333902
2514	0.00500854
2526	0.00667805
2538	0.00821914
2550	0.0111729
2562	0.0168235
2574	0.0173372
2586	0.0122003
2598	0.0104023
2610	0.00898968
2622	0.00757702
2634	0.00706332
2646	0.00796229
2658	0.00847598
2670	0.00950338
2682	0.0114297
2694	0.0141266
2706	0.0154109
2718	0.0137414
2730	0.0139982
2742	0.0166951
2754	0.0195204
2766	0.0208047
2778	0.0235016
2790	0.0295375
2802	0.038784
2814	0.052397
2826	0.0697342
2838	0.0891263
2850	0.112756
2862	0.149229
2874	0.215239
2886	0.287927
2898	0.250427
2910	0.184545
2922	0.166181
2934	0.211257
2946	0.25261
2958	0.251454
2970	0.348671
2982	0.467207
2994	0.266993
3006	0.12547
3018	0.179408
3030	0.222687
3042	0.191609
3054	0.269177
3066	0.317978
3078	0.193792
3090	0.163612
3102	0.116866
3114	0.0747428
3126	0.0392977
3138	0.0168235
3150	0.0096318
3162	0.00680647
3174	0.00539381
3186	0.00475169
3198	0.00513696
3210	0.00526538
3222	0.00449484
3234	0.00398114
3246	0.0026969
3258	0.00244006
3270	0.00308218
3282	0.00192636
3294	0.00192636
3306	0.00256848
3318	0.00244006
3330	0.00231163
3342	0.00179794
3354	0.00128424
3366	0.00231163
3378	0.00295375
3390	0.00462326
3402	0.0100171
3414	0.0231163
3426	0.0466179
3438	0.0522686
3450	0.0364724
3462	0.0235016
3474	0.0155393
3486	0.00937495
3498	0.00565066
3510	0.00346745
3522	0.0026969
3534	0.00231163
3546	0.00102739
3558	0.00128424
3570	0.00218321
3582	0.000770544
3594	0.00166951
3606	0.000898968
3618	0.00115582
3630	0.00102739
3642	0.00244006
3654	0.00436642
3666	0.000898968
3678	0.0032106
3690	0.00244006
3702	0.00231163
3714	0.00282533
3726	0.00205478
3738	0.00205478
3750	0.00154109
3762	0.00205478
3774	0.00231163
3786	0.00179794
3798	0.00064212
3810	0.00192636
3822	0.00346745
3834	0.00205478
3846	0.00295375
3858	0.0032106
3870	0.00308218
3882	0.0026969
3894	0.00205478
3906	0.0032106
3918	0.00115582
3930	0.00205478
3942	0.00179794
3954	0.00218321
3966	0.00192636
