Infrared Spectrum: Benzene, ethoxy-
Formula: C 8 H 10 O
CAS: 103-73-1
Origin: Sadtler Research Labs Under US-EPA Contract
1/CM	ABSORBANCE
450	0.00418422
462	0.00106831
474	0.00569766
486	0.0124636
498	0.0250163
510	0.0297347
522	0.0133539
534	0.0040952
546	0.00329396
558	0.00525253
570	0.00694403
582	0.0085465
594	0.00872455
606	0.00275981
618	0.00142442
630	0.000267078
642	0.00142442
654	0.00623182
666	0.0245712
678	0.0746928
690	0.14075
702	0.0666805
714	0.0208321
726	0.0315152
738	0.109858
750	0.210546
762	0.149831
774	0.0681049
786	0.0399727
798	0.0386373
810	0.0156686
822	0.00872455
834	0.0040952
846	0.00320494
858	0.00560864
870	0.0153125
882	0.0285773
894	0.041219
906	0.0465606
918	0.0486972
930	0.037569
942	0.0122856
954	0.00507448
966	0.00462935
978	0.00587572
990	0.00997091
1002	0.0159357
1014	0.0259066
1026	0.0638316
1038	0.165855
1050	0.241349
1062	0.153303
1074	0.0763843
1086	0.0771855
1098	0.0791441
1110	0.0749599
1122	0.0726452
1134	0.0406849
1146	0.0427325
1158	0.0741587
1170	0.108256
1182	0.0573327
1194	0.0366787
1206	0.0800344
1218	0.224613
1230	0.526233
1242	0.89026
1254	0.575998
1266	0.145647
1278	0.121075
1290	0.147427
1302	0.153303
1314	0.0794112
1326	0.0419312
1338	0.0379251
1350	0.0197638
1362	0.0245712
1374	0.037836
1386	0.0768294
1398	0.102825
1410	0.061784
1422	0.0209211
1434	0.0237699
1446	0.0324945
1458	0.0461155
1470	0.105763
1482	0.226304
1494	0.441124
1506	0.340079
1518	0.0401507
1530	0.017093
1542	0.0167369
1554	0.020565
1566	0.0357885
1578	0.0939224
1590	0.235296
1602	0.377381
1614	0.167903
1626	0.0300908
1638	0.013799
1650	0.0113063
1662	0.00738916
1674	0.00979286
1686	0.0108612
1698	0.013532
1710	0.00836844
1722	0.00632085
1734	0.00774526
1746	0.00543059
1758	0.0089026
1770	0.0109502
1782	0.00587572
1794	0.00525253
1806	0.00311591
1818	0.00471838
1830	0.00908065
1842	0.0107721
1854	0.00774526
1866	0.00525253
1878	0.0024037
1890	0.00338299
1902	0.00569766
1914	0.0109502
1926	0.0134429
1938	0.0144222
1950	0.00988189
1962	0.00587572
1974	0.00640987
1986	0.00578669
1998	0.00587572
2010	0.00498546
2022	0.00489643
2034	0.00783429
2046	0.00970383
2058	0.00560864
2070	0.00436227
2082	0.00382812
2094	0.00302688
2106	0.00169149
2118	0.000979286
2130	0.000979286
2142	0.00186955
2154	0.00142442
2166	0.0020476
2178	0.00151344
2190	0.000979286
2202	0.000623182
2214	0
2226	0.000178052
2238	0.000534156
2250	0.00106831
2262	0.00160247
2274	0.00249273
2286	0.00258175
2298	0.00311591
2310	0.00320494
2322	0.00267078
2334	0.00142442
2346	0.00133539
2358	0.00222565
2370	0.000623182
2382	0.00142442
2394	0.00320494
2406	0.00365007
2418	0.00418422
2430	0.0040952
2442	0.00454033
2454	0.00560864
2466	0.00560864
2478	0.00560864
2490	0.00587572
2502	0.00427325
2514	0.00365007
2526	0.0048074
2538	0.00614279
2550	0.00578669
2562	0.00329396
2574	0.00284883
2586	0.00231468
2598	0.0024037
2610	0.00284883
2622	0.00329396
2634	0.00284883
2646	0.00213662
2658	0.00142442
2670	0.00142442
2682	0.000979286
2694	0.00133539
2706	0.00169149
2718	0.00329396
2730	0.00587572
2742	0.00632085
2754	0.00623182
2766	0.00587572
2778	0.00640987
2790	0.00632085
2802	0.00640987
2814	0.00810137
2826	0.0113063
2838	0.0142442
2850	0.0194077
2862	0.0317823
2874	0.0559974
2886	0.0835064
2898	0.0951688
2910	0.103003
2922	0.0972164
2934	0.0952578
2946	0.110214
2958	0.0851979
2970	0.0853759
2982	0.157398
2994	0.186153
3006	0.0881357
3018	0.0486082
3030	0.0577779
3042	0.0912517
3054	0.0952578
3066	0.0805685
3078	0.102024
3090	0.0840405
3102	0.0577779
3114	0.0381031
3126	0.01371
3138	0.00498546
3150	0.00320494
3162	0.00275981
3174	0.00320494
3186	0.00311591
3198	0.00231468
3210	0.00231468
3222	0.0024037
3234	0.00249273
3246	0.0020476
3258	0.000979286
3270	0.00089026
3282	0.00151344
3294	0.000712208
3306	0.00115734
3318	0.00151344
3330	0.00044513
3342	0.000356104
3354	0.00044513
3366	0.000534156
3378	8.9026e-05
3390	0.000623182
3402	0.000712208
3414	0.00089026
3426	8.9026e-05
3438	8.9026e-05
3450	0.000267078
3462	0.000979286
3474	0.000801234
3486	0.000534156
3498	0.000178052
3510	0.000178052
3522	0.000623182
3534	8.9026e-05
3546	0.00106831
3558	0.000534156
3570	0.000534156
3582	0.00106831
3594	0.00115734
3606	0.00222565
3618	0.00213662
3630	0.00151344
3642	0.00231468
3654	0.00213662
3666	0.00275981
3678	0.00267078
3690	0.00311591
3702	0.00311591
3714	0.00249273
3726	0.00293786
3738	0.00338299
3750	0.00365007
3762	0.0024037
3774	0.00311591
3786	0.00284883
3798	0.00382812
3810	0.00275981
3822	0.00347201
3834	0.00391714
3846	0.00391714
3858	0.00347201
3870	0.00320494
3882	0.00302688
3894	0.00365007
3906	0.00293786
3918	0.00311591
3930	0.00338299
3942	0.0024037
3954	0.00329396
3966	0.00418422
