Infrared Spectrum: 2-Propenoic acid, 3-phenyl-, methyl ester
Formula: C 10 H 10 O 2
CAS: 103-26-4
Origin: Sadtler Research Labs Under US-EPA Contract
1/CM	ABSORBANCE
450	0.0029969
462	0.00315744
474	0.00604731
486	0.00883014
498	0.00604731
510	0.00428128
522	0.00363909
534	0.00230119
546	0.00171251
558	0.00647544
570	0.0236006
582	0.0164829
594	0.00588676
606	0.00438831
618	0.00219416
630	0.00278283
642	0.00321096
654	0.00647544
666	0.0133255
678	0.0308252
690	0.0425987
702	0.0404581
714	0.0319491
726	0.018463
738	0.0161618
750	0.0307717
762	0.0515894
774	0.036819
786	0.00754576
798	0.000642192
810	0.00187306
822	0.00695708
834	0.0154126
846	0.0166435
858	0.0201755
870	0.0167505
882	0.0133255
894	0.00850904
906	0.00663598
918	0.00909772
930	0.0144493
942	0.0143423
954	0.0156802
966	0.0325377
978	0.0515894
990	0.0330729
1002	0.0179814
1014	0.0373007
1026	0.0338756
1038	0.0429198
1050	0.046773
1062	0.0215134
1074	0.013486
1086	0.00749224
1098	0.0083485
1110	0.0104891
1122	0.0123087
1134	0.0193193
1146	0.0424917
1158	0.170074
1170	0.510222
1182	0.187306
1194	0.182168
1206	0.161939
1218	0.0565129
1230	0.061918
1242	0.0879803
1254	0.158621
1266	0.245585
1278	0.177566
1290	0.109333
1302	0.12785
1314	0.228299
1326	0.128331
1338	0.0463449
1350	0.0212994
1362	0.018356
1374	0.0161618
1386	0.0144493
1398	0.0101145
1410	0.0123087
1422	0.013379
1434	0.0521246
1446	0.0740126
1458	0.0390667
1470	0.018463
1482	0.015145
1494	0.0323237
1506	0.0171251
1518	0.00717114
1530	0.00813443
1542	0.00615434
1554	0.00909772
1566	0.0104891
1578	0.0195869
1590	0.0145028
1602	0.0134325
1614	0.0155196
1626	0.0363374
1638	0.109226
1650	0.0859467
1662	0.0431874
1674	0.0215669
1686	0.0151985
1698	0.0228513
1710	0.0395483
1722	0.0765279
1734	0.234454
1746	0.425292
1758	0.145617
1770	0.046666
1782	0.0246174
1794	0.0128438
1806	0.00808092
1818	0.00706411
1830	0.00690356
1842	0.00561918
1854	0.00486996
1866	0.00486996
1878	0.00599379
1890	0.00647544
1902	0.0050305
1914	0.00374612
1926	0.00428128
1938	0.00524457
1950	0.00631489
1962	0.00486996
1974	0.0026758
1986	0.00272932
1998	0.00363909
2010	0.0036926
2022	0.00422776
2034	0.00417425
2046	0.00262228
2058	0.0026758
2070	0.00305041
2082	0.0036926
2094	0.00476292
2106	0.00497699
2118	0.0036926
2130	0.00251525
2142	0.00208712
2154	0.00149845
2166	0.00149845
2178	0.00149845
2190	0.00144493
2202	0.00149845
2214	0.00149845
2226	0.00149845
2238	0.00149845
2250	0.00144493
2262	0.00144493
2274	0.00144493
2286	0.00144493
2298	0.00203361
2310	0.00246174
2322	0.00272932
2334	0.00198009
2346	0.0029969
2358	0.00310393
2370	0.00246174
2382	0.00203361
2394	0.00144493
2406	0.00080274
2418	0.000856256
2430	0.00080274
2442	0.00080274
2454	0.0013379
2466	0.00139142
2478	0.000856256
2490	0.000856256
2502	0.000856256
2514	0.000749224
2526	0.000749224
2538	0.000749224
2550	0.000749224
2562	0.000749224
2574	0.00080274
2586	0.00128438
2598	0.00128438
2610	0.00123087
2622	0.000695708
2634	0.000695708
2646	0.0010168
2658	0.00123087
2670	0.00123087
2682	0.000695708
2694	0.00026758
2706	0.000107032
2718	0.000749224
2730	0.000160548
2742	0.000107032
2754	0.000695708
2766	0.000749224
2778	0.00128438
2790	0.0013379
2802	0.0013379
2814	0.00144493
2826	0.00198009
2838	0.00460238
2850	0.0142888
2862	0.00631489
2874	0.00374612
2886	0.00577973
2898	0.00909772
2910	0.0125763
2922	0.0141817
2934	0.0128438
2946	0.0198009
2958	0.0706411
2970	0.041796
2982	0.0130579
2994	0.016697
3006	0.0189982
3018	0.0214599
3030	0.0356952
3042	0.0377823
3054	0.0244568
3066	0.0421706
3078	0.0499839
3090	0.0282029
3102	0.0194798
3114	0.0102751
3126	0.00353206
3138	0.00246174
3150	0.00251525
3162	0.00262228
3174	0.00160548
3186	0.00107032
3198	0.00080274
3210	0.000695708
3222	0.000695708
3234	0.00026758
3246	0.00080274
3258	0.00026758
3270	0.00026758
3282	0.000428128
3294	0.000481644
3306	0.000481644
3318	0.00053516
3330	0.00053516
3342	0.000588676
3354	0.000642192
3366	0.000642192
3378	0.00123087
3390	0.0013379
3402	0.000642192
3414	0.000856256
3426	0.000856256
3438	0.000856256
3450	0.00203361
3462	0.0029969
3474	0.00310393
3486	0.00214064
3498	0.00107032
3510	0.000642192
3522	0.000642192
3534	0.000642192
3546	0.000749224
3558	0.00080274
3570	0
3582	0.00144493
3594	0.000321096
3606	0.000856256
3618	0.00026758
3630	0.000107032
3642	0.00107032
3654	0.00117735
3666	0.00128438
3678	0.00026758
3690	0.000856256
3702	0.00187306
3714	0.0013379
3726	0.00192658
3738	0.00155196
3750	0.00149845
3762	0.00251525
3774	0.00315744
3786	0.00337151
3798	0.00310393
3810	0.0036926
3822	0.00374612
3834	0.00315744
3846	0.00385315
3858	0.00379964
3870	0.00396018
3882	0.00390667
3894	0.00422776
3906	0.00460238
3918	0.00513754
3930	0.00460238
3942	0.00417425
3954	0.000749224
3966	0.00117735
