Infrared Spectrum: Benzene, 1,1'-[oxybis(methylene)]bis-
Formula: C 14 H 14 O
CAS: 103-50-4
Origin: Sadtler Research Labs Under US-EPA Contract
1/CM	ABSORBANCE
450	0
462	0.0210976
474	0.0469439
486	0.0331049
498	0.0244895
510	0.0133641
522	0.0073265
534	0.00685164
546	0.00719083
558	0.00522353
570	0.0148565
582	0.0286276
594	0.0420596
606	0.0466725
618	0.0380571
630	0.033512
642	0.0191982
654	0.0200122
666	0.0392104
678	0.117699
690	0.277457
702	0.33763
714	0.221762
726	0.247677
738	0.392239
750	0.284784
762	0.112475
774	0.0396852
786	0.0255749
798	0.0253036
810	0.0337833
822	0.0278814
834	0.0204871
846	0.0153314
858	0.01255
870	0.0149244
882	0.0234719
894	0.0376501
906	0.0624788
918	0.0433485
930	0.0424666
942	0.0425344
954	0.0449088
966	0.0472831
978	0.0546096
990	0.0604437
1002	0.0763856
1014	0.0943627
1026	0.197612
1038	0.0912421
1050	0.0993148
1062	0.189268
1074	0.350994
1086	0.57201
1098	0.67838
1110	0.516315
1122	0.297266
1134	0.134048
1146	0.0653958
1158	0.0442304
1170	0.0465369
1182	0.0546096
1194	0.0991792
1206	0.158877
1218	0.0822197
1230	0.0595618
1242	0.0753002
1254	0.0792348
1266	0.0552201
1278	0.0381928
1290	0.0394817
1302	0.0471474
1314	0.0550845
1326	0.0558985
1338	0.0642426
1350	0.134658
1362	0.27488
1374	0.0885964
1386	0.072451
1398	0.0468761
1410	0.0302557
1422	0.0280171
1434	0.0409063
1446	0.0845261
1458	0.117835
1470	0.0638356
1482	0.0400244
1494	0.101486
1506	0.0665491
1518	0.0159419
1530	0.0128892
1542	0.0147887
1554	0.0131606
1566	0.01506
1578	0.0208263
1590	0.0285598
1602	0.0358185
1614	0.0257106
1626	0.0122787
1638	0.0116681
1650	0.00983651
1662	0.0073265
1674	0.00712299
1686	0.00766569
1698	0.00970083
1710	0.0137033
1722	0.0194017
1734	0.0227257
1746	0.0225901
1758	0.0161454
1770	0.0134319
1782	0.0145173
1794	0.0263211
1806	0.0278136
1818	0.0132284
1830	0.00922597
1842	0.00956516
1854	0.0139068
1866	0.0193338
1878	0.0201479
1890	0.0119395
1902	0.00644461
1914	0.00759786
1926	0.0128214
1938	0.0222509
1950	0.0291025
1962	0.0211655
1974	0.00868326
1986	0.00719083
1998	0.00658029
2010	0.00651245
2022	0.00685164
2034	0.00664812
2046	0.0062411
2058	0.00569839
2070	0.00590191
2082	0.00603758
2094	0.00610542
2106	0.00563055
2118	0.00522353
2130	0.00440947
2142	0.00379893
2154	0.00312055
2166	0.00312055
2178	0.00345974
2190	0.00373109
2202	0.00352758
2214	0.0033919
2226	0.00345974
2238	0.00318839
2250	0.0033919
2262	0.00359541
2274	0.00359541
2286	0.00366325
2298	0.0039346
2310	0.00610542
2322	0.00583407
2334	0.00522353
2346	0.00529136
2358	0.00400244
2370	0.00420596
2382	0.00332406
2394	0.00305271
2406	0.00325622
2418	0.0033919
2430	0.00352758
2442	0.00373109
2454	0.0039346
2466	0.0039346
2478	0.00352758
2490	0.00332406
2502	0.00332406
2514	0.00332406
2526	0.0033919
2538	0.00345974
2550	0.00359541
2562	0.00359541
2574	0.00400244
2586	0.00529136
2598	0.00644461
2610	0.00698731
2622	0.00705515
2634	0.00725867
2646	0.00705515
2658	0.00705515
2670	0.00793705
2682	0.00902245
2694	0.0112611
2706	0.0139068
2718	0.0149922
2730	0.0134319
2742	0.0149244
2754	0.0166881
2766	0.0183163
2778	0.0232684
2790	0.0307985
2802	0.0346652
2814	0.0452479
2826	0.062818
2838	0.104335
2850	0.18106
2862	0.266739
2874	0.231599
2886	0.150193
2898	0.116071
2910	0.112001
2922	0.111933
2934	0.116206
2946	0.146869
2958	0.0854759
2970	0.0409742
2982	0.0270674
2994	0.0269317
3006	0.0440269
3018	0.0952446
3030	0.222169
3042	0.262058
3054	0.174751
3066	0.251001
3078	0.292314
3090	0.162065
3102	0.105827
3114	0.0617326
3126	0.0248965
3138	0.0107184
3150	0.00780137
3162	0.00854759
3174	0.00888678
3186	0.00651245
3198	0.00508785
3210	0.00508785
3222	0.00468082
3234	0.00488434
3246	0.00400244
3258	0.00400244
3270	0.00400244
3282	0.00400244
3294	0.00427379
3306	0.00447731
3318	0.00447731
3330	0.00420596
3342	0.00474866
3354	0.00468082
3366	0.00474866
3378	0.00529136
3390	0.00515569
3402	0.00522353
3414	0.00468082
3426	0.00400244
3438	0.00420596
3450	0.00440947
3462	0.00427379
3474	0.00325622
3486	0.00427379
3498	0.00413812
3510	0.00447731
3522	0.00488434
3534	0.00474866
3546	0.00542704
3558	0.00522353
3570	0.00556272
3582	0.00563055
3594	0.00569839
3606	0.00522353
3618	0.00617326
3630	0.00630893
3642	0.00793705
3654	0.009633
3666	0.00800488
3678	0.0073265
3690	0.00773353
3702	0.00637677
3714	0.00644461
3726	0.0062411
3738	0.00603758
3750	0.0053592
3762	0.00576623
3774	0.00576623
3786	0.00576623
3798	0.00705515
3810	0.00549488
3822	0.00583407
3834	0.00705515
3846	0.00759786
3858	0.00746218
3870	0.00691948
3882	0.00712299
3894	0.00780137
3906	0.00664812
3918	0.00685164
3930	0.00610542
3942	0.00549488
3954	0.00705515
3966	0.00576623
