Infrared Spectrum: Monobenzone
Formula: C 13 H 12 O 2
CAS: 103-16-2
Origin: Sadtler Research Labs Under US-EPA Contract
1/CM	ABSORBANCE
450	0.0168778
462	0.0155429
474	0.0102983
486	0.0167825
498	0.026604
510	0.0422423
522	0.0408119
534	0.0281297
546	0.0248877
558	0
570	0.0108705
582	0.00810517
594	0.0187849
606	0.0138265
618	0.00924944
630	0.00848659
642	0.0107751
654	0.0139218
666	0.00877266
678	0.0350906
690	0.080861
702	0.0788586
714	0.0580712
726	0.0890616
738	0.154094
750	0.127299
762	0.0861056
774	0.0770468
786	0.0312764
798	0.0484403
810	0.0745676
822	0.144749
834	0.110993
846	0.0507289
858	0.0281297
870	0.0237434
882	0.0197385
894	0.0214549
906	0.0304182
918	0.0231713
930	0.0231713
942	0.0237434
954	0.0272715
966	0.0344232
978	0.0561641
990	0.0800028
1002	0.11004
1014	0.135976
1026	0.160292
1038	0.115284
1050	0.0711348
1062	0.0535895
1074	0.0505381
1086	0.0595015
1098	0.0770468
1110	0.055592
1122	0.048345
1134	0.0590247
1146	0.0754258
1158	0.159147
1170	0.443782
1182	0.3962
1194	0.275671
1206	0.304182
1218	0.432816
1230	0.452555
1242	0.310381
1254	0.19195
1266	0.0921129
1278	0.0574991
1290	0.0694184
1302	0.0724698
1314	0.0790493
1326	0.088108
1338	0.0613133
1350	0.0363303
1362	0.0395723
1374	0.068751
1386	0.0567362
1398	0.0179267
1410	0.0262226
1422	0.0442447
1434	0.0862009
1446	0.0722791
1458	0.0560687
1470	0.0697999
1482	0.0600736
1494	0.158289
1506	0.769515
1518	0.366068
1530	0.0551152
1542	0.00152568
1554	0.0123008
1566	0.0187849
1578	0.0187849
1590	0.027939
1602	0.042433
1614	0.0413841
1626	0.0223131
1638	0.00781911
1650	9.5355e-05
1662	0.0106798
1674	0.0114426
1686	0.0130636
1698	0.011824
1710	0.0281297
1722	0.0285111
1734	0.0182128
1746	0.00629343
1758	0.00600736
1770	0.014494
1782	0.0203106
1794	0.00753304
1806	0.0102983
1818	0.00915408
1830	0.00619807
1842	0.0108705
1854	0.0148754
1866	0.0117287
1878	0.013159
1890	0.00800982
1902	0.00705627
1914	0.00600736
1926	0.00820053
1938	0.0117287
1950	0.0125869
1962	0.0109658
1974	0.00800982
1986	0.00848659
1998	0.0086773
2010	0.00924944
2022	0.00829588
2034	0.00877266
2046	0.00772375
2058	0.00791446
2070	0.00696091
2082	0.00638879
2094	0.00610272
2106	0.00410026
2118	0.00219316
2130	0.00152568
2142	0.00114426
2154	0.00114426
2166	0.00038142
2178	0.000667485
2190	0.00057213
2202	9.5355e-05
2214	0.00038142
2226	0.00057213
2238	0.00171639
2250	0.0019071
2262	0.00162104
2274	0.00133497
2286	0.00219316
2298	0.00362349
2310	0.00553059
2322	0.00743769
2334	0.00753304
2346	0.0108705
2358	0.013159
2370	0.00543524
2382	0.00448169
2394	0.00457704
2406	0.00410026
2418	0.00533988
2430	0.00648414
2442	0.00505381
2454	0.00448169
2466	0.0038142
2478	0.00438633
2490	0.00524452
2502	0.00429097
2514	0.00362349
2526	0.00314672
2538	0.0027653
2550	0.00219316
2562	0.00181175
2574	0.00219316
2586	0.00266994
2598	0.00305136
2610	0.00200245
2622	0.00219316
2634	0.00219316
2646	0.0027653
2658	0.00228852
2670	0.00324207
2682	0.00314672
2694	0.00429097
2706	0.00429097
2718	0.00619807
2730	0.00734234
2742	0.00610272
2754	0.00314672
2766	0.00371884
2778	0.0048631
2790	0.00648414
2802	0.0076284
2814	0.00905873
2826	0.00982156
2838	0.0105844
2850	0.0139218
2862	0.0221224
2874	0.0328021
2886	0.0362349
2898	0.0291786
2910	0.0254598
2922	0.0265087
2934	0.029274
2946	0.0303229
2958	0.0238387
2970	0.0153522
2982	0.00934479
2994	0.00915408
3006	0.0184989
3018	0.0437679
3030	0.0754258
3042	0.0887755
3054	0.0569269
3066	0.0627436
3078	0.071993
3090	0.0402398
3102	0.0277483
3114	0.0179267
3126	0.00944015
3138	0.00438633
3150	0.00209781
3162	0.0010489
3174	0.00219316
3186	0.00181175
3198	0.00095355
3210	0.000667485
3222	0.00162104
3234	0.00133497
3246	0.00181175
3258	0.00123961
3270	0.00219316
3282	0.00400491
3294	0.00305136
3306	0.00247923
3318	0.00314672
3330	0.0038142
3342	0.00410026
3354	0.00219316
3366	0.00181175
3378	0.00438633
3390	0.00410026
3402	0.00410026
3414	0.00362349
3426	0.00362349
3438	0.00371884
3450	0.00362349
3462	0.0038142
3474	0.002956
3486	0.00333742
3498	0.00219316
3510	0.00343278
3522	0.00533988
3534	0.00591201
3546	0.00686556
3558	0.00629343
3570	0.00724698
3582	0.00715162
3594	0.00629343
3606	0.00514917
3618	0.00781911
3630	0.0123008
3642	0.0420516
3654	0.140267
3666	0.092399
3678	0.0173546
3690	0.00705627
3702	0.00352813
3714	0.00505381
3726	0.00686556
3738	0.0067702
3750	0.00314672
3762	0.00219316
3774	0.00553059
3786	0.00390956
3798	0.00390956
3810	0.00533988
3822	0.00562595
3834	0.00743769
3846	0.00524452
3858	0.00476775
3870	0.0057213
3882	0.00696091
3894	0.00390956
3906	0.00896337
3918	0.00715162
3930	0.00991692
3942	0.00257458
3954	0.00686556
3966	0.00877266
