Infrared Spectrum: Benzene, (2-bromoethenyl)-
Formula: C 8 H 7 Br
CAS: 103-64-0
Origin: Sadtler Research Labs Under US-EPA Contract
1/CM	ABSORBANCE
450	0.0423344
462	0.0286187
474	0.0363969
486	0.069825
498	0.0646594
510	0.0456
522	0.0328937
534	0.0127656
546	0.0111625
558	0.160847
570	0.217253
582	0.0379406
594	0.0366344
606	0.00682812
618	0.006175
630	0.00469063
642	0.0134188
654	0.0268969
666	0.0673906
678	0.195166
690	0.304059
702	0.237559
714	0.219569
726	0.405353
738	0.530159
750	0.441216
762	0.0737437
774	0.0549813
786	0.044175
798	0.0301625
810	0.0107469
822	0.0334875
834	0.05225
846	0.0268969
858	0.0225625
870	0.0226219
882	0.0334875
894	0.0366344
906	0.0411469
918	0.0893
930	0.230909
942	0.285059
954	0.132406
966	0.0379406
978	0.0333688
990	0.0355063
1002	0.0270156
1014	0.0127063
1026	0.038
1038	0.0309938
1050	0.0179312
1062	0.0287969
1074	0.0290938
1086	0.0189406
1098	0.0154969
1110	0.0154969
1122	0.0092625
1134	0.00676875
1146	0.00777813
1158	0.0139531
1170	0.0357437
1182	0.0633531
1194	0.0523094
1206	0.0497563
1218	0.186438
1230	0.083125
1242	0.0252938
1254	0.0138344
1266	0.0209
1278	0.0379406
1290	0.0230375
1302	0.0255312
1314	0.0311719
1326	0.0521906
1338	0.0305188
1350	0.0147844
1362	0.0102719
1374	0.0135969
1386	0.0115781
1398	0.0112219
1410	0.00754062
1422	0.0153188
1434	0.0334281
1446	0.0691125
1458	0.0491031
1470	0.0286781
1482	0.0162094
1494	0.100106
1506	0.0737437
1518	0.018525
1530	0.0248781
1542	0.0232156
1554	0.0207813
1566	0.046075
1578	0.0986812
1590	0.0580094
1602	0.171297
1614	0.320447
1626	0.0550406
1638	0.0229188
1650	0.0162094
1662	0.0282625
1674	0.0385938
1686	0.0285594
1698	0.0394844
1710	0.03705
1722	0.0316469
1734	0.0374656
1746	0.0267781
1758	0.0188219
1770	0.0188812
1782	0.0181094
1794	0.0322406
1806	0.0162687
1818	0.0105688
1830	0.00866875
1842	0.01045
1854	0.00979688
1866	0.0160313
1878	0.0201281
1890	0.0209594
1902	0.00884688
1914	0.00849062
1926	0.0145469
1938	0.0192969
1950	0.0235125
1962	0.0268969
1974	0.00771875
1986	0.00463125
1998	0.00510625
2010	0.0038
2022	0.00421562
2034	0.0049875
2046	0.00564062
2058	0.00558125
2070	0.00415625
2082	0.00457188
2094	0.0038
2106	0.00504688
2118	0.0038
2130	0.00492813
2142	0.0038
2154	0.0040375
2166	0.00421562
2178	0.00409687
2190	0.00326562
2202	0.00290938
2214	0.00385937
2226	0.00368125
2238	0.00457188
2250	0.0035625
2262	0.00409687
2274	0.00338437
2286	0.0049875
2298	0.0054625
2310	0.0116375
2322	0.0184656
2334	0.0196531
2346	0.0192375
2358	0.0248781
2370	0.0282031
2382	0.00860938
2394	0.00528438
2406	0.00439375
2418	0.00492813
2430	0.00421562
2442	0.00581875
2454	0.0049875
2466	0.00599687
2478	0.00558125
2490	0.00540312
2502	0.00659063
2514	0.00516563
2526	0.00528438
2538	0.00439375
2550	0.00605625
2562	0.0054625
2574	0.00730312
2586	0.00587812
2598	0.00528438
2610	0.00510625
2622	0.0040375
2634	0.00700625
2646	0.0068875
2658	0.00665
2670	0.00385937
2682	0.00350313
2694	0.00273125
2706	0.00534375
2718	0.0059375
2730	0.00676875
2742	0.0059375
2754	0.00629375
2766	0.00599687
2778	0.00647188
2790	0.00748125
2802	0.007125
2814	0.00991563
2826	0.00991563
2838	0.0109844
2850	0.0076
2862	0.00866875
2874	0.00682812
2886	0.0116969
2898	0.0126469
2910	0.0131219
2922	0.012825
2934	0.0121125
2946	0.0103906
2958	0.00789687
2970	0.0106875
2982	0.0110437
2994	0.0157937
3006	0.0266
3018	0.0632344
3030	0.171178
3042	0.188041
3054	0.150338
3066	0.214344
3078	0.363731
3090	0.278884
3102	0.108359
3114	0.0691719
3126	0.0162687
3138	0.00872812
3150	0.0130625
3162	0.0119937
3174	0.0108062
3186	0.009975
3198	0.00777813
3210	0.006175
3222	0.00623438
3234	0.00920312
3246	0.00801563
3258	0.00860938
3270	0.00540312
3282	0.0057
3294	0.00504688
3306	0.0073625
3318	0.00748125
3330	0.00777813
3342	0.00623438
3354	0.0059375
3366	0.00665
3378	0.00623438
3390	0.00706562
3402	0.00433437
3414	0.00718437
3426	0.00730312
3438	0.00771875
3450	0.00469063
3462	0.00475
3474	0.00314687
3486	0.00665
3498	0.00742187
3510	0.0108656
3522	0.0083125
3534	0.0040375
3546	0.0064125
3558	0.00540312
3570	0.0103906
3582	0.0106281
3594	0.0141906
3606	0.00872812
3618	0.00955938
3630	0.0119937
3642	0.00955938
3654	0.0100344
3666	0.00890625
3678	0.0105688
3690	0.009975
3702	0.00896562
3714	0.00765938
3726	0.00866875
3738	0.00860938
3750	0.00914375
3762	0.00765938
3774	0.00896562
3786	0.00789687
3798	0.00629375
3810	0.00659063
3822	0.00659063
3834	0.0112812
3846	0.0105688
3858	0.0125875
3870	0.00843125
3882	0.0073625
3894	0.009025
3906	0.0111031
3918	0.0126469
3930	0.0141312
3942	0.0125281
3954	0
3966	0.0007125
