Infrared Spectrum: Benzene, isothiocyanato-
Formula: C 7 H 5 N S
CAS: 103-72-0
Origin: Sadtler Research Labs Under US-EPA Contract
1/CM	ABSORBANCE
450	0.000337026
462	0.00280855
474	0.00331409
486	0.00454985
498	0.00202216
510	0.00539242
522	0.0153909
534	0.0143236
546	0.0158964
558	0.0140989
570	0.00612264
582	0.00331409
594	0.0038758
606	0.00292089
618	0.00314558
630	0.00359494
642	0.00404431
654	0.00471836
666	0.0087065
678	0.0188735
690	0.0288719
702	0.0263442
714	0.00494305
726	0.00853799
738	0.028591
750	0.0583055
762	0.0279732
774	0.00589795
786	0.00314558
798	0.00393197
810	0.00258387
822	0.000898736
834	0.000898736
846	0.00112342
858	0.000842565
870	0.00146045
882	0.00241535
894	0.00595413
906	0.0102231
918	0.0127508
930	0.0288157
942	0.0224122
954	0.00893119
966	0.00511156
978	0.00584178
990	0.00342643
1002	0.00292089
1014	0.0021345
1026	0.00190981
1038	0.000954907
1050	0.00190981
1062	0.00483071
1074	0.00443751
1086	0.00297706
1098	0.00196598
1110	0.000954907
1122	0.00056171
1134	0.000449368
1146	0.000449368
1158	0.00056171
1170	0.00101108
1182	0.000449368
1194	0.00101108
1206	0.00101108
1218	0.00106725
1230	0.00207833
1242	0.00606647
1254	0.0106163
1266	0.00595413
1278	0.00499922
1290	0.00303323
1302	0.00269621
1314	0.00157279
1326	0.00112342
1338	0.00101108
1350	0.000617881
1362	0.00056171
1374	0.00101108
1386	0.00106725
1398	0.00151662
1410	0.00056171
1422	0.00106725
1434	0.00157279
1446	0.00275238
1458	0.0052239
1470	0.00702137
1482	0.013144
1494	0.0543735
1506	0.0139866
1518	0.00623498
1530	0.00702137
1542	0.00876268
1554	0.00258387
1566	0.0038758
1578	0.0140427
1590	0.0511156
1602	0.0545982
1614	0.00707755
1626	0.00505539
1638	0.00662818
1650	0.00449368
1662	0.00275238
1674	0.0021345
1686	0.00320175
1698	0.00359494
1710	0.00331409
1722	0.00365111
1734	0.00393197
1746	0.00325792
1758	0.00376346
1770	0.00337026
1782	0.00376346
1794	0.00381963
1806	0.00488688
1818	0.00438134
1830	0.00381963
1842	0.00381963
1854	0.00539242
1866	0.00589795
1878	0.00629115
1890	0.00567327
1902	0.00589795
1914	0.00893119
1926	0.013144
1938	0.0201092
1950	0.030894
1962	0.0413419
1974	0.0535871
1986	0.0789203
1998	0.12161
2010	0.169187
2022	0.208114
2034	0.284955
2046	0.521772
2058	0.470994
2070	0.20098
2082	0.111499
2094	0.134754
2106	0.20098
2118	0.226875
2130	0.121442
2142	0.0640911
2154	0.0538118
2166	0.0508909
2178	0.051565
2190	0.044993
2202	0.0266251
2214	0.0145483
2226	0.00982992
2238	0.00724606
2250	0.00477453
2262	0.00325792
2274	0.0030894
2286	0.00252769
2298	0.00247152
2310	0.00230301
2322	0.000280855
2334	5.6171e-05
2346	0.000337026
2358	5.6171e-05
2370	0.00421282
2382	0.00415665
2394	0.000898736
2406	0.000449368
2418	5.6171e-05
2430	0.000898736
2442	0.00185364
2454	0.00286472
2466	0.00286472
2478	0.00297706
2490	0.00370729
2502	0.00381963
2514	0.0038758
2526	0.00438134
2538	0.00432517
2550	0.00488688
2562	0.00539242
2574	0.00741457
2586	0.00876268
2598	0.00556093
2610	0.00342643
2622	0.00241535
2634	0.00140427
2646	0.000954907
2658	0.00101108
2670	0.000393197
2682	0.000449368
2694	0.00190981
2706	0.00247152
2718	0.00331409
2730	0.00342643
2742	0.00550476
2754	0.00792011
2766	0.0056171
2778	0.00342643
2790	0.00247152
2802	0.00247152
2814	0.00235918
2826	0.00230301
2838	0.00247152
2850	0.00252769
2862	0.00219067
2874	0.00241535
2886	0.00247152
2898	0.00196598
2910	0.00185364
2922	0.00247152
2934	0.00241535
2946	0.00297706
2958	0.00292089
2970	0.00292089
2982	0.00376346
2994	0.00393197
3006	0.00342643
3018	0.00398814
3030	0.00544859
3042	0.00932439
3054	0.00938056
3066	0.00954907
3078	0.0179185
3090	0.012807
3102	0.0108972
3114	0.00578561
3126	0.00241535
3138	0.00168513
3150	0.00190981
3162	0.00151662
3174	0.00140427
3186	0.000954907
3198	0.0013481
3210	0.00101108
3222	0.00101108
3234	0.000954907
3246	0.000898736
3258	0.00101108
3270	0.00101108
3282	0.000954907
3294	0.000954907
3306	0.000954907
3318	0.000954907
3330	0.000954907
3342	0.00106725
3354	0.00101108
3366	0.000954907
3378	0.000505539
3390	0.00106725
3402	0.000786394
3414	0.00101108
3426	0.00106725
3438	0.00106725
3450	0.000898736
3462	0.00106725
3474	0.000505539
3486	0.00101108
3498	0.00106725
3510	0.00101108
3522	0.000954907
3534	0.00112342
3546	0.000954907
3558	0.000730223
3570	0.00123576
3582	0.000954907
3594	0.00106725
3606	0.00101108
3618	0.00101108
3630	0.00168513
3642	0.00151662
3654	0.00196598
3666	0.00190981
3678	0.00230301
3690	0.00292089
3702	0.00196598
3714	0.00202216
3726	0.00185364
3738	0.00185364
3750	0.00275238
3762	0.00292089
3774	0.00292089
3786	0.00219067
3798	0.00297706
3810	0.00269621
3822	0.00241535
3834	0.00264004
3846	0.00297706
3858	0.00320175
3870	0.00219067
3882	0.00247152
3894	0.00241535
3906	0.00224684
3918	0.00179747
3930	0.00179747
3942	0.00264004
3954	0.00202216
3966	0.00280855
