Infrared Spectrum: Nonanedioic acid, bis(2-ethylhexyl) ester
Formula: C 25 H 48 O 4
CAS: 103-24-2
Origin: Sadtler Research Labs Under US-EPA Contract
1/CM	ABSORBANCE
450	0
462	0.0104656
474	0.0112314
486	0.0102103
498	0.0146348
510	0.00867877
522	0.00527533
534	0.00740248
546	0.00536042
558	0.00416921
570	0.0107208
582	0.00927437
594	0.014805
606	0.0163365
618	0.0129331
630	0.00944455
642	0.00952963
654	0.00944455
666	0.00382887
678	0.00595602
690	0.00876386
702	0.0096998
714	0.0192294
726	0.0305459
738	0.0224627
750	0.0210162
762	0.0233987
774	0.0312266
786	0.0248451
798	0.0196549
810	0.0182084
822	0.0195698
834	0.0216118
846	0.0176128
858	0.0222074
870	0.0234837
882	0.0253556
894	0.0298652
906	0.035651
918	0.036587
930	0.0422027
942	0.0461166
954	0.0579436
966	0.076152
978	0.0847457
990	0.0991252
1002	0.116142
1014	0.127374
1026	0.129586
1038	0.107634
1050	0.0934244
1062	0.0994655
1074	0.130692
1086	0.15843
1098	0.135202
1110	0.127118
1122	0.187189
1134	0.287165
1146	0.373953
1158	0.459294
1170	0.491031
1182	0.415985
1194	0.337706
1206	0.302566
1218	0.304438
1230	0.328432
1242	0.334984
1254	0.28206
1266	0.222245
1278	0.182424
1290	0.15375
1302	0.13835
1314	0.129841
1326	0.113845
1338	0.125842
1350	0.140732
1362	0.124055
1374	0.106953
1386	0.145412
1398	0.0769177
1410	0.0503709
1422	0.0638145
1434	0.0822782
1446	0.114356
1458	0.189316
1470	0.168385
1482	0.0610067
1494	0.0268872
1506	0.0194847
1518	0.0146348
1530	0.0114015
1542	0.00833843
1554	0.0114866
1566	0.00952963
1578	0.00706214
1590	0.00629636
1602	0.00859369
1614	0.00952963
1626	0.0091042
1638	0.0091042
1650	0.0111463
1662	0.0156558
1674	0.0216118
1686	0.0323327
1698	0.0567524
1710	0.0934244
1722	0.185828
1734	0.486862
1746	0.734292
1758	0.473333
1770	0.155197
1782	0.0745353
1794	0.0427132
1806	0.0311415
1818	0.0226329
1830	0.0159111
1842	0.0141243
1854	0.0119971
1866	0.0111463
1878	0.0115717
1890	0.0103805
1902	0.010891
1914	0.010891
1926	0.0113164
1938	0.0101252
1950	0.0096998
1962	0.00927437
1974	0.0111463
1986	0.0111463
1998	0.0103805
2010	0.0107208
2022	0.0116568
2034	0.0143795
2046	0.0152304
2058	0.0140392
2070	0.0146348
2082	0.0145497
2094	0.0125927
2106	0.0106358
2118	0.0105507
2130	0.0129331
2142	0.0120822
2154	0.0112314
2166	0.0136138
2178	0.0131883
2190	0.0096998
2202	0.0085086
2214	0.00808317
2226	0.00782791
2238	0.00842351
2250	0.00876386
2262	0.00918929
2274	0.00995506
2286	0.0114866
2298	0.0154006
2310	0.0187189
2322	0.0176128
2334	0.0119971
2346	0.0119971
2358	0.0154857
2370	0.00578585
2382	0.00842351
2394	0.0101252
2406	0.00986998
2418	0.0110612
2430	0.00859369
2442	0.00893403
2454	0.00927437
2466	0.00884894
2478	0.00799808
2490	0.0085086
2502	0.00680688
2514	0.00502007
2526	0.00229732
2538	0.0042543
2550	0.00255258
2562	0.00374378
2574	0.00723231
2586	0.00918929
2598	0.00714722
2610	0.00825334
2622	0.00663671
2634	0.0091042
2646	0.00825334
2658	0.0110612
2670	0.0184637
2682	0.0165067
2694	0.0184637
2706	0.0208461
2718	0.0213566
2730	0.0243346
2742	0.0279933
2754	0.0272275
2766	0.026717
2778	0.0292696
2790	0.0314818
2802	0.0367572
2814	0.0482438
2826	0.064325
2838	0.0934244
2850	0.179106
2862	0.35651
2874	0.390885
2886	0.339833
2898	0.328602
2910	0.42075
2922	0.620873
2934	0.836991
2946	0.752075
2958	0.626658
2970	0.644697
2982	0.313882
2994	0.13869
3006	0.0769177
3018	0.05437
3030	0.040586
3042	0.0319073
3054	0.0257811
3066	0.0193996
3078	0.0187189
3090	0.0189742
3102	0.0160813
3114	0.0142944
3126	0.011912
3138	0.0154006
3150	0.0142944
3162	0.0162514
3174	0.0171023
3186	0.0171023
3198	0.0180382
3210	0.0176979
3222	0.0171023
3234	0.0187189
3246	0.0194847
3258	0.0163365
3270	0.0133585
3282	0.0120822
3294	0.011912
3306	0.00680688
3318	0.0091042
3330	0.007913
3342	0.00502007
3354	0.00672179
3366	0.0100401
3378	0.00536042
3390	0.00808317
3402	0.00587093
3414	0.00867877
3426	0.0114015
3438	0.0120822
3450	0.00995506
3462	0.0169321
3474	0.0116568
3486	0.011912
3498	0.00867877
3510	0.00476482
3522	0.00833843
3534	0.00757265
3546	0.00604111
3558	0.00638145
3570	0.0091042
3582	0.00502007
3594	0.00331835
3606	0.00672179
3618	0.00740248
3630	0.00587093
3642	0.00578585
3654	0.00399904
3666	0.00672179
3678	0.00706214
3690	0.00816826
3702	0.00527533
3714	0.00587093
3726	0.00510516
3738	0.00774283
3750	0.00604111
3762	0.00340344
3774	0.00680688
3786	0.00255258
3798	0.00229732
3810	0.0102954
3822	0.00765774
3834	0.010891
3846	0.0054455
3858	0.0085086
3870	0.0102103
3882	0.012848
3894	0.0117419
3906	0.0102954
3918	0.0119971
3930	0.0130182
3942	0.0140392
3954	0.0140392
3966	0.0175277
