Infrared Spectrum: N,N-Bis(2-hydroxypropyl)ethanolamine
Formula: C 8 H 19 N O 3
CAS: 10353-86-3
Origin: Sadtler Research Labs Under US-EPA Contract
1/CM	ABSORBANCE
450	0
462	0.01754
474	0.0132017
486	0.00527134
498	0.0160939
510	0.0144145
522	0.0187062
534	0.0208988
546	0.0196392
558	0.00918985
570	0.0124553
582	0.0138081
594	0.0108226
606	0.0100295
618	0.00359197
630	0.00858342
642	0.00960969
654	0.0117089
666	0.00793033
678	0.0109625
690	0.0125019
702	0.0161872
714	0.0180998
726	0.019406
738	0.0188928
750	0.0197792
762	0.0235577
774	0.0311149
786	0.0378323
798	0.0436168
810	0.0412377
822	0.0494946
834	0.0744518
846	0.0769242
858	0.067781
870	0.0716995
882	0.055419
894	0.0549992
906	0.0647488
918	0.0772041
930	0.0996423
942	0.107759
954	0.0901259
966	0.0902658
978	0.0923184
990	0.0831285
1002	0.0988492
1014	0.152915
1026	0.249479
1038	0.397729
1050	0.46649
1062	0.398149
1074	0.350381
1086	0.336013
1098	0.264686
1110	0.21118
1122	0.192241
1134	0.188462
1146	0.161126
1158	0.126839
1170	0.111444
1182	0.0999688
1194	0.0908256
1206	0.0953506
1218	0.101135
1230	0.114803
1242	0.134256
1254	0.154735
1266	0.182444
1278	0.185243
1290	0.165604
1302	0.145032
1314	0.143212
1326	0.15968
1338	0.155621
1350	0.146058
1362	0.155761
1374	0.198911
1386	0.215192
1398	0.175587
1410	0.133136
1422	0.0911988
1434	0.0743119
1446	0.095957
1458	0.121987
1470	0.0918519
1482	0.0492147
1494	0.0288757
1506	0.0239309
1518	0.0206189
1530	0.0185197
1542	0.0121287
1554	0.0122687
1566	0.0134816
1578	0.0116623
1590	0.00918985
1602	0.00988959
1614	0.0114757
1626	0.0112424
1638	0.0101695
1650	0.0111025
1662	0.00872336
1674	0.0126419
1686	0.0101228
1698	0.0110558
1710	0.0139481
1722	0.0110092
1734	0.00769709
1746	0.00974964
1758	0.00793033
1770	0.0104027
1782	0.0105427
1794	0.00410511
1806	0.00657751
1818	0.00886331
1830	0.00877001
1842	0.00765044
1854	0.00811693
1866	0.00872336
1878	0.00797698
1890	0.00825687
1902	0.00835017
1914	0.00760379
1926	0.00825687
1938	0.00881666
1950	0.00741719
1962	0.00751049
1974	0.00825687
1986	0.0069507
1998	0.00629762
2010	0.00662416
2022	0.00587777
2034	0.00615767
2046	0.00480485
2058	0.00643756
2070	0.00597107
2082	0.00331208
2094	0.00601772
2106	0.00550458
2118	0.00396516
2130	0.0047582
2142	0.00410511
2154	0.00513139
2166	0.00438501
2178	0.00480485
2190	0.00345203
2202	0.0044783
2214	0.00368527
2226	0.00429171
2238	0.00387187
2250	0.00471155
2262	0.00471155
2274	0.00429171
2286	0.00545793
2298	0.0046649
2310	0.00513139
2322	0.00443165
2334	0.00564453
2346	0.0094231
2358	0.00606437
2370	0.00559788
2382	0.00503809
2394	0.00573783
2406	0.00508474
2418	0.00634426
2430	0.00615767
2442	0.00531799
2454	0.00550458
2466	0.00629762
2478	0.00615767
2490	0.00517804
2502	0.00522469
2514	0.00587777
2526	0.00681075
2538	0.00639091
2550	0.0071373
2562	0.00779038
2574	0.00816357
2586	0.00928315
2598	0.0110092
2610	0.0128285
2622	0.0147411
2634	0.0163271
2646	0.0187995
2658	0.0214585
2670	0.0232779
2682	0.0241175
2694	0.0273363
2706	0.0314414
2718	0.0366195
2730	0.0411911
2742	0.0458093
2754	0.0543927
2766	0.0650287
2778	0.0786969
2790	0.101228
2802	0.143119
2814	0.213466
2826	0.267812
2838	0.244301
2850	0.196066
2862	0.185383
2874	0.247613
2886	0.323278
2898	0.306717
2910	0.277235
2922	0.285212
2934	0.341284
2946	0.352666
2958	0.306531
2970	0.373612
2982	0.366941
2994	0.165231
3006	0.0470688
3018	0.02645
3030	0.0187529
3042	0.0137148
3054	0.0100295
3066	0.00853677
3078	0.00835017
3090	0.00737054
3102	0.00741719
3114	0.00648421
3126	0.00550458
3138	0.00527134
3150	0.00513139
3162	0.00578448
3174	0.00601772
3186	0.00681075
3198	0.00587777
3210	0.00569118
3222	0.0046649
3234	0.00415176
3246	0.00354532
3258	0.00415176
3270	0.00429171
3282	0.00541128
3294	0.00536464
3306	0.00639091
3318	0.00727724
3330	0.00807028
3342	0.00881666
3354	0.00979629
3366	0.0125019
3378	0.0128285
3390	0.0146478
3402	0.0176333
3414	0.0198725
3426	0.0225315
3438	0.0261701
3450	0.0292956
3462	0.0346136
3474	0.0374591
3486	0.0445964
3498	0.0533665
3510	0.0663349
3522	0.0855076
3534	0.107199
3546	0.120914
3558	0.118022
3570	0.105193
3582	0.0799564
3594	0.0606437
3606	0.0451562
3618	0.034287
3630	0.0358264
3642	0.0444565
3654	0.0726325
3666	0.0653086
3678	0.0370393
3690	0.0208988
3702	0.00984294
3714	0.0069507
3726	0.00382522
3738	0.00251905
3750	0.0107759
3762	0.00298554
3774	0.00298554
3786	0.00284559
3798	0.00634426
3810	0.00312548
3822	0.00321878
3834	0.00363862
3846	0.00489814
3858	0.0044783
3870	0.00349868
3882	0.00415176
3894	0.00261234
3906	0.00401181
3918	0.0045716
3930	0.00289224
3942	0.00298554
3954	0.00345203
3966	0.00326543
