Infrared Spectrum: Oxadiazole, 1,2,4-, 5-ethyl-3-phenyl-,
Formula: C 10 H 10 N 2 O
CAS: 10364-68-8
Origin: Sadtler Research Labs Under US-EPA Contract
1/CM	ABSORBANCE
450	0.0287658
462	0
474	0.0152162
486	0.0209404
498	0.0226794
510	0.0210128
522	0.0201433
534	0.015506
546	0.00941954
558	0.0099992
570	0.00920217
582	0.0072458
594	0.00927462
606	0.0081153
618	0.00978183
630	0.0126077
642	0.0214476
654	0.0364464
666	0.0512278
678	0.140713
690	0.395693
702	0.436415
714	0.396708
726	0.277224
738	0.160567
750	0.10347
762	0.0864424
774	0.101151
786	0.0831093
798	0.0378955
810	0.0265921
822	0.022462
834	0.0163755
846	0.0127526
858	0.0177522
870	0.037968
882	0.0620965
894	0.145278
906	0.398302
918	0.138322
930	0.0446341
942	0.0291281
954	0.0426778
966	0.0997022
978	0.0666614
990	0.0508655
1002	0.0848483
1014	0.113542
1026	0.122889
1038	0.0615168
1050	0.0518799
1062	0.115933
1074	0.101586
1086	0.0583287
1098	0.0640529
1110	0.123976
1122	0.210201
1134	0.0369536
1146	0.0223171
1158	0.023259
1170	0.0576041
1182	0.0981806
1194	0.0590533
1206	0.0941954
1218	0.129555
1230	0.110716
1242	0.0887611
1254	0.0554304
1266	0.0572418
1278	0.086225
1290	0.116947
1302	0.225779
1314	0.274688
1326	0.311787
1338	0.36171
1350	0.525465
1362	0.682047
1374	0.637341
1386	0.319177
1398	0.137308
1410	0.0900653
1422	0.0876742
1434	0.134482
1446	0.505612
1458	0.266356
1470	0.198535
1482	0.194695
1494	0.107818
1506	0.0548507
1518	0.066444
1530	0.140279
1542	0.0935433
1554	0.0877466
1566	0.253675
1578	0.719218
1590	0.571621
1602	0.588431
1614	0.0851382
1626	0.0452863
1638	0.030215
1650	0.0332582
1662	0.0226069
1674	0.0281862
1686	0.0299252
1698	0.0312294
1710	0.0251429
1722	0.0236938
1734	0.0305773
1746	0.0262298
1758	0.0276065
1770	0.0315917
1782	0.0207954
1794	0.0193463
1806	0.0317366
1818	0.024998
1830	0.0135496
1842	0.010289
1854	0.00920217
1866	0.0113759
1878	0.0107962
1890	0.0200709
1902	0.0264472
1914	0.0204332
1926	0.00883988
1938	0.0105064
1950	0.020723
1962	0.024998
1974	0.0141293
1986	0.0044924
1998	0.00405765
2010	0.00369536
2022	0.00427502
2034	0.00340553
2046	0.00282586
2058	0.00304324
2070	0.00369536
2082	0.00470977
2094	0.00253603
2106	0.00166653
2118	0.00188391
2130	0.00181145
2142	0.00123179
2154	0.00152162
2166	0.00173899
2178	0.00210128
2190	0.00246357
2202	0.00333307
2214	0.00405765
2226	0.00623139
2238	0.00630385
2250	0.00507206
2262	0.00318815
2274	0.00289832
2286	0.00268095
2298	0.00123179
2310	0.00101441
2322	0.0044924
2334	0.00239111
2346	0.00260849
2358	0.000507206
2370	0.000434748
2382	0.00123179
2394	0.00289832
2406	0.00282586
2418	0.00311569
2430	0.00376782
2442	0.00413011
2454	0.00384027
2466	0.00355044
2478	0.00311569
2490	0.00253603
2502	0.00282586
2514	0.0027534
2526	0.00195637
2538	0.00181145
2550	0.00195637
2562	0.00231866
2574	0.00217374
2586	0.00355044
2598	0.00470977
2610	0.00601401
2622	0.00485469
2634	0.00492714
2646	0.00579664
2658	0.00492714
2670	0.00340553
2682	0.00326061
2694	0.00355044
2706	0.00326061
2718	0.00456485
2730	0.00644876
2742	0.00514452
2754	0.00623139
2766	0.00644876
2778	0.00550681
2790	0.00536189
2802	0.00615893
2814	0.00717334
2826	0.00956446
2838	0.0133323
2850	0.0195637
2862	0.027534
2874	0.0355044
2886	0.0516626
2898	0.0882538
2910	0.0762258
2922	0.0690525
2934	0.0892683
2946	0.13738
2958	0.198028
2970	0.12557
2982	0.15564
2994	0.352218
3006	0.140931
3018	0.0831093
3030	0.0726029
3042	0.11144
3054	0.132888
3066	0.165349
3078	0.248241
3090	0.123324
3102	0.0610096
3114	0.0315917
3126	0.0228967
3138	0.0229692
3150	0.0173175
3162	0.0150713
3174	0.0125352
3186	0.00818775
3198	0.00557927
3210	0.00485469
3222	0.0036229
3234	0.0022462
3246	0.00260849
3258	0.0022462
3270	0.00181145
3282	0.00166653
3294	0.00181145
3306	0.000941954
3318	0.00152162
3330	0.00159408
3342	0.00159408
3354	0.00188391
3366	0.00188391
3378	0.00166653
3390	0.00130424
3402	0.00188391
3414	0.00246357
3426	0.00217374
3438	0.0022462
3450	0.0022462
3462	0.00210128
3474	0.00181145
3486	0.00166653
3498	0.000797038
3510	0.00123179
3522	0.00123179
3534	0.00123179
3546	0.00130424
3558	0.00181145
3570	0.00202882
3582	0.00202882
3594	0.00239111
3606	0.000652122
3618	0.00173899
3630	0.00268095
3642	0.00304324
3654	0.00340553
3666	0.00195637
3678	0.00311569
3690	0.00376782
3702	0.00384027
3714	0.00318815
3726	0.00355044
3738	0.00441994
3750	0.00202882
3762	0.00210128
3774	0.00260849
3786	0.00246357
3798	0.00318815
3810	0.00159408
3822	0.00108687
3834	0.00181145
3846	0.00130424
3858	0.00246357
3870	0.00217374
3882	0.00101441
3894	0.000941954
3906	0.00195637
3918	0.00173899
3930	0.00101441
3942	0.00217374
3954	0.00195637
3966	0.00152162
