Infrared Spectrum: Benzonitrile, 4-methyl-
Formula: C 8 H 7 N
CAS: 104-85-8
Origin: Sadtler Research Labs Under US-EPA Contract
1/CM	ABSORBANCE
450	0
462	0.0107058
474	0.0108577
486	0.0173875
498	0.0181468
510	0.0350028
522	0.0783577
534	0.195515
546	0.287995
558	0.0951378
570	0.050568
582	0.0196654
594	0.0173875
606	0.0156412
618	0.00994657
630	0.00713723
642	0.0111614
654	0.0167042
666	0.0192857
678	0.0157171
690	0.0182986
702	0.0258914
714	0.0271822
726	0.0201209
738	0.0089595
750	0.00918729
762	0.0145022
774	0.0246766
786	0.0498847
798	0.191718
810	0.399837
822	0.472348
834	0.255042
846	0.0502643
858	0.0182227
870	0.0152615
882	0.0122244
894	0.0107818
906	0.015793
918	0.0195135
930	0.0178431
942	0.0312823
954	0.0380399
966	0.0291564
978	0.0233099
990	0.0173116
1002	0.013743
1014	0.0420641
1026	0.0730427
1038	0.0377362
1050	0.0479865
1062	0.0416845
1074	0.0322694
1086	0.0338639
1098	0.0373566
1110	0.0551237
1122	0.0448734
1134	0.0264229
1146	0.01473
1158	0.0145022
1170	0.0568701
1182	0.088532
1194	0.0318138
1206	0.0271063
1218	0.0287767
1230	0.0334842
1242	0.044266
1254	0.071752
1266	0.10759
1278	0.0528459
1290	0.0333324
1302	0.0209561
1314	0.0171597
1326	0.0159449
1338	0.0162486
1350	0.0312823
1362	0.0485939
1374	0.0438864
1386	0.0522385
1398	0.0526181
1410	0.0733464
1422	0.0819263
1434	0.0672722
1446	0.0517829
1458	0.0465439
1470	0.0628684
1482	0.0667407
1494	0.0855709
1506	0.312899
1518	0.331578
1530	0.063248
1542	0.024297
1554	0.0271822
1566	0.0346991
1578	0.0355343
1590	0.0494291
1602	0.115942
1614	0.196654
1626	0.136291
1638	0.0699297
1650	0.0401659
1662	0.0350028
1674	0.0122244
1686	0.0192098
1698	0.0682593
1710	0.0819263
1722	0.02536
1734	0.00873172
1746	0.0127559
1758	0.0245247
1770	0.0211839
1782	0.0167042
1794	0.0299916
1806	0.0246007
1818	0.009491
1830	0.00546682
1842	0.00561867
1854	0.00850394
1866	0.00941507
1878	0.0124522
1890	0.0213358
1902	0.0434308
1914	0.0447975
1926	0.0277896
1938	0.0120726
1950	0.00736502
1962	0.00675759
1974	0.00668166
1986	0.00675759
1998	0.00645388
2010	0.00645388
2022	0.00630202
2034	0.00698538
2046	0.00637795
2058	0.00577053
2070	0.00592238
2082	0.00630202
2094	0.00592238
2106	0.00508718
2118	0.00402418
2130	0.00394826
2142	0.00364454
2154	0.00387233
2166	0.00425197
2178	0.00630202
2190	0.00683352
2202	0.00789651
2214	0.0167042
2226	0.108425
2238	0.232719
2250	0.0713723
2262	0.00736502
2274	0.00713723
2286	0.00766873
2298	0.009491
2310	0.0103262
2322	0.0089595
2334	0.0070613
2346	0.00713723
2358	0.00918729
2370	0.00857986
2382	0.00987064
2394	0.00926322
2406	0.00774466
2418	0.00857986
2430	0.00918729
2442	0.00683352
2454	0.00577053
2466	0.00501125
2478	0.00561867
2490	0.0056946
2502	0.00546682
2514	0.00584646
2526	0.00736502
2538	0.00835208
2550	0.00797244
2562	0.00774466
2574	0.00827615
2586	0.00888358
2598	0.0089595
2610	0.00645388
2622	0.00637795
2634	0.00827615
2646	0.00964286
2658	0.00607424
2670	0.00364454
2682	0.00410011
2694	0.00417604
2706	0.00561867
2718	0.00592238
2730	0.00675759
2742	0.0123003
2754	0.0145782
2766	0.00994657
2778	0.0107058
2790	0.00964286
2802	0.00971878
2814	0.0123003
2826	0.0139708
2838	0.0163245
2850	0.0246766
2862	0.0487458
2874	0.0933914
2886	0.109033
2898	0.0933914
2910	0.0883802
2922	0.122927
2934	0.226417
2946	0.213206
2958	0.107742
2970	0.0774466
2982	0.0757761
2994	0.0952137
3006	0.125509
3018	0.130748
3030	0.140315
3042	0.247829
3054	0.18534
3066	0.116701
3078	0.0965045
3090	0.0945304
3102	0.0804837
3114	0.0445697
3126	0.0285489
3138	0.0229303
3150	0.0122244
3162	0.00584646
3174	0.00463161
3186	0.00485939
3198	0.0051631
3210	0.00455568
3222	0.00485939
3234	0.0051631
3246	0.0037964
3258	0.00402418
3270	0.0043279
3282	0.00387233
3294	0.00447975
3306	0.00447975
3318	0.00455568
3330	0.00554274
3342	0.00561867
3354	0.0056946
3366	0.00554274
3378	0.00592238
3390	0.00675759
3402	0.00956693
3414	0.0130596
3426	0.0130596
3438	0.0101744
3450	0.00637795
3462	0.0056946
3474	0.00523903
3486	0.00478346
3498	0.00501125
3510	0.00447975
3522	0.0037964
3534	0.00440382
3546	0.00440382
3558	0.00417604
3570	0.00478346
3582	0.0075928
3594	0.00645388
3606	0.00539089
3618	0.00668166
3630	0.00645388
3642	0.0070613
3654	0.00577053
3666	0.00637795
3678	0.00630202
3690	0.00873172
3702	0.009491
3714	0.00804837
3726	0.00660574
3738	0.0075928
3750	0.00994657
3762	0.00751687
3774	0.0062261
3786	0.00615017
3798	0.00523903
3810	0.00607424
3822	0.00668166
3834	0.00804837
3846	0.00911136
3858	0.00971878
3870	0.0104781
3882	0.00857986
3894	0.00926322
3906	0.00804837
3918	0.0107818
3930	0.00903543
3942	0.00971878
3954	0.0081243
3966	0.00880765
