Infrared Spectrum: Benzeneacetonitrile, 4-methoxy-
Formula: C 9 H 9 N O
CAS: 104-47-2
Origin: Sadtler Research Labs Under US-EPA Contract
1/CM	ABSORBANCE
450	0
462	0.0312343
474	0.0251276
486	0.0323355
498	0.0224246
510	0.0357893
522	0.0384422
534	0.0243267
546	0.0280308
558	0.0298828
570	0.032786
582	0.0265292
594	0.0206227
606	0.0247272
618	0.0234758
630	0.0293823
642	0.0440484
654	0.18185
666	0.182
678	0.180548
690	0.131444
702	0.052808
714	0.0291821
726	0.0308839
738	0.0467013
750	0.134248
762	0.364901
774	0.373861
786	0.1365
798	0.0616177
810	0.141205
822	0.312243
834	0.115026
846	0.0394934
858	0.0457503
870	0.0714785
882	0.0558113
894	0.032786
906	0.0282811
918	0.0268795
930	0.0303333
942	0.0280809
954	0.028181
966	0.0349384
978	0.0615677
990	0.142356
1002	0.088247
1014	0.080989
1026	0.0365402
1038	0.0433476
1050	0.0875462
1062	0.211933
1074	0.108719
1086	0.0650715
1098	0.043698
1110	0.03644
1122	0.0314345
1134	0.0246271
1146	0.0224747
1158	0.0334868
1170	0.0387926
1182	0.0328861
1194	0.0383922
1206	0.120332
1218	0.0781859
1230	0.0290319
1242	0.0290319
1254	0.0292321
1266	0.0275803
1278	0.0276304
1290	0.0383421
1302	0.0441986
1314	0.0400941
1326	0.0413955
1338	0.0332365
1350	0.0340875
1362	0.0420462
1374	0.0631694
1386	0.0739813
1398	0.0746821
1410	0.0904494
1422	0.131444
1434	0.106367
1446	0.0787866
1458	0.132896
1470	0.288517
1482	0.3187
1494	0.120132
1506	0.0881969
1518	0.0894983
1530	0.106867
1542	0.111823
1554	0.178046
1566	0.378766
1578	0.274802
1590	0.323505
1602	0.278606
1614	0.050055
1626	0.0366903
1638	0.0356392
1650	0.0349884
1662	0.0387426
1674	0.0264791
1686	0.0249774
1698	0.0247272
1710	0.0233256
1722	0.0265792
1734	0.0383922
1746	0.039093
1758	0.0351386
1770	0.0344378
1782	0.0324356
1794	0.0296326
1806	0.0251276
1818	0.0259285
1830	0.0284312
1842	0.0320352
1854	0.0389428
1866	0.0385424
1878	0.024527
1890	0.0220743
1902	0.0223746
1914	0.02733
1926	0.0358394
1938	0.0357893
1950	0.0253779
1962	0.0201722
1974	0.0199719
1986	0.0197717
1998	0.0197717
2010	0.0199219
2022	0.0199719
2034	0.0195715
2046	0.0197217
2058	0.019071
2070	0.019071
2082	0.0188707
2094	0.0181199
2106	0.0183201
2118	0.0186705
2130	0.0187706
2142	0.019071
2154	0.0188207
2166	0.0192712
2178	0.0201221
2190	0.0197717
2202	0.0207228
2214	0.0204224
2226	0.0200721
2238	0.0202222
2250	0.0199719
2262	0.0198718
2274	0.0200721
2286	0.0194714
2298	0.01822
2310	0.0185204
2322	0.0184703
2334	0.0198218
2346	0.0202723
2358	0.0220242
2370	0.0224246
2382	0.0217739
2394	0.0228251
2406	0.0228751
2418	0.0225748
2430	0.020973
2442	0.0205726
2454	0.0205726
2466	0.0205226
2478	0.0207728
2490	0.0205726
2502	0.0216238
2514	0.020923
2526	0.0204725
2538	0.0203223
2550	0.0204725
2562	0.0204224
2574	0.0207228
2586	0.0226249
2598	0.0217239
2610	0.0202222
2622	0.0213234
2634	0.0213234
2646	0.0198218
2658	0.0196716
2670	0.0197717
2682	0.0196216
2694	0.0190209
2706	0.0196216
2718	0.0202723
2730	0.0222745
2742	0.0268295
2754	0.0278806
2766	0.0226749
2778	0.0219741
2790	0.0221744
2802	0.0239763
2814	0.0256782
2826	0.0265292
2838	0.0314345
2850	0.0435478
2862	0.0695264
2874	0.0981078
2886	0.0976073
2898	0.097357
2910	0.114075
2922	0.162929
2934	0.225398
2946	0.183402
2958	0.111573
2970	0.0774351
2982	0.0669736
2994	0.0934527
3006	0.111523
3018	0.123285
3030	0.148013
3042	0.155871
3054	0.171388
3066	0.234858
3078	0.160126
3090	0.112924
3102	0.0540594
3114	0.0298328
3126	0.0233256
3138	0.0213234
3150	0.0202723
3162	0.0192712
3174	0.0196716
3186	0.0198718
3198	0.0185204
3210	0.0187206
3222	0.0177695
3234	0.0187706
3246	0.0184202
3258	0.0183201
3270	0.0180198
3282	0.0185704
3294	0.0187206
3306	0.0185204
3318	0.01822
3330	0.0186705
3342	0.01822
3354	0.0190209
3366	0.0194714
3378	0.0187206
3390	0.01822
3402	0.0185204
3414	0.0195214
3426	0.0193212
3438	0.0189208
3450	0.0186705
3462	0.0189708
3474	0.0185204
3486	0.0193713
3498	0.0185704
3510	0.0179697
3522	0.0183201
3534	0.0183201
3546	0.0176694
3558	0.0189708
3570	0.0192712
3582	0.0187706
3594	0.0199219
3606	0.0185204
3618	0.0189708
3630	0.0185704
3642	0.0185704
3654	0.0193212
3666	0.0188707
3678	0.0210732
3690	0.0192712
3702	0.0198218
3714	0.0192211
3726	0.0202222
3738	0.0207728
3750	0.0204725
3762	0.019071
3774	0.0179197
3786	0.0188207
3798	0.0180699
3810	0.0176194
3822	0.0174692
3834	0.0194714
3846	0.0177695
3858	0.0208729
3870	0.0223245
3882	0.0194714
3894	0.0197717
3906	0.0197217
3918	0.0195214
3930	0.0197717
3942	0.0188207
3954	0.0174191
3966	0.0173691
