Infrared Spectrum: Benzene, butyl-
Formula: C 10 H 14
CAS: 104-51-8
Origin: Sadtler Research Labs Under US-EPA Contract
1/CM	ABSORBANCE
450	0.0362439
462	0.0233436
474	0.0516015
486	0.0362439
498	0.0604322
510	0.0552874
522	0.0266454
534	0.0347082
546	0.0320206
558	0.0350153
570	0.0543659
582	0.0414655
594	0.0305616
606	0.0314063
618	0.0254168
630	0.0261079
642	0.0303313
654	0.0324045
666	0.0375493
678	0.0790916
690	0.243264
702	0.304004
714	0.169701
726	0.17692
738	0.271983
750	0.189436
762	0.0790916
774	0.0509872
786	0.0403137
798	0.0321742
810	0.0303313
822	0.0284116
834	0.0249561
846	0.02319
858	0.0218846
870	0.0226525
882	0.0264151
894	0.0297937
906	0.0344778
918	0.0327117
930	0.0301777
942	0.0286419
954	0.0266454
966	0.0291794
978	0.0296402
990	0.0286419
1002	0.0267222
1014	0.0288723
1026	0.0631197
1038	0.0575142
1050	0.0413119
1062	0.0465335
1074	0.0375493
1086	0.0343242
1098	0.0390851
1110	0.0406976
1122	0.0276437
1134	0.0210399
1146	0.0201952
1158	0.0216542
1170	0.0228828
1182	0.0274133
1194	0.0325581
1206	0.0340939
1218	0.0283348
1230	0.0250329
1242	0.0270294
1254	0.0264151
1266	0.0262615
1278	0.0279508
1290	0.0295634
1302	0.031867
1314	0.0325581
1326	0.0351689
1338	0.0438459
1350	0.0467639
1362	0.0426173
1374	0.0451513
1386	0.0581285
1398	0.0377029
1410	0.0294098
1422	0.0309456
1434	0.0458424
1446	0.0986726
1458	0.146281
1470	0.122938
1482	0.0794756
1494	0.140906
1506	0.121095
1518	0.0264919
1530	0.0238811
1542	0.0241882
1554	0.0197345
1566	0.0209631
1578	0.0301009
1590	0.0442299
1602	0.0871544
1614	0.0698003
1626	0.024265
1638	0.0168934
1650	0.0189666
1662	0.0149737
1674	0.0144361
1686	0.0168166
1698	0.0251865
1710	0.0300241
1722	0.0271062
1734	0.0261079
1746	0.0182755
1758	0.0149737
1770	0.0148201
1782	0.0162023
1794	0.0289491
1806	0.0214239
1818	0.0137451
1830	0.0121325
1842	0.0120557
1854	0.0154344
1866	0.0178148
1878	0.0172773
1890	0.0142058
1902	0.00952171
1914	0.00998244
1926	0.0162791
1938	0.0234971
1950	0.0246489
1962	0.0155112
1974	0.00721807
1986	0.00598946
1998	0.00545195
2010	0.00529837
2022	0.00560552
2034	0.0057591
2046	0.0051448
2058	0.00453049
2070	0.00483764
2082	0.00414655
2094	0.00368582
2106	0.00353225
2118	0.00337867
2130	0.0038394
2142	0.0038394
2154	0.00353225
2166	0.00360904
2178	0.00360904
2190	0.00314831
2202	0.00299473
2214	0.00314831
2226	0.00268758
2238	0.00261079
2250	0.00261079
2262	0.00238043
2274	0.00207328
2286	0.00199649
2298	0.000998244
2310	0.00122861
2322	0.000307152
2334	0.000460728
2346	0.00038394
2358	0.000307152
2370	0.00268758
2382	0.00307152
2394	0.00268758
2406	0.00215006
2418	0.00230364
2430	0.002534
2442	0.00222685
2454	0.00199649
2466	0.00161255
2478	0.00176612
2490	0.0013054
2502	0.00184291
2514	0.00307152
2526	0.00337867
2538	0.0032251
2550	0.00345546
2562	0.00406976
2574	0.00406976
2586	0.00468407
2598	0.0051448
2610	0.00560552
2622	0.00545195
2634	0.00621983
2646	0.00737165
2658	0.00806274
2670	0.00860026
2682	0.00867704
2694	0.0082931
2706	0.00698771
2718	0.00691092
2730	0.00813953
2742	0.0109039
2754	0.0108271
2766	0.00967529
2778	0.013054
2790	0.0195042
2802	0.0237275
2814	0.0268758
2826	0.0332492
2838	0.0494515
2850	0.101821
2862	0.240807
2874	0.328883
2886	0.308227
2898	0.21731
2910	0.256856
2922	0.445294
2934	0.714512
2946	0.702687
2958	0.505572
2970	0.649857
2982	0.312066
2994	0.10543
3006	0.0843132
3018	0.117255
3030	0.270524
3042	0.285728
3054	0.124934
3066	0.198036
3078	0.24265
3090	0.137758
3102	0.0909938
3114	0.0530605
3126	0.0243418
3138	0.011595
3150	0.0095985
3162	0.00998244
3174	0.0095985
3186	0.00752522
3198	0.00668056
3210	0.00545195
3222	0.00406976
3234	0.00330188
3246	0.00337867
3258	0.00299473
3270	0.002534
3282	0.00138218
3294	0.00176612
3306	0.00184291
3318	0.00199649
3330	0.000844668
3342	0.00038394
3354	0.00076788
3366	0.00138218
3378	0.00076788
3390	0.00138218
3402	0.00207328
3414	0.00199649
3426	0.00230364
3438	0.00145897
3450	0.00115182
3462	0.000921456
3474	0.000998244
3486	0.0013054
3498	0.00138218
3510	0.00153576
3522	0.00215006
3534	0.00176612
3546	0.0013054
3558	0.00145897
3570	0.00222685
3582	0.00184291
3594	0.00330188
3606	0.00161255
3618	0.00337867
3630	0.00606625
3642	0.00353225
3654	0.00460728
3666	0.00406976
3678	0.00537516
3690	0.00161255
3702	0.0032251
3714	0.00483764
3726	0.00337867
3738	0.000691092
3750	0.00330188
3762	0.00176612
3774	0.000614304
3786	0.00168934
3798	0
3810	0.00330188
3822	0.00437692
3834	0.0019197
3846	0.00307152
3858	0.00414655
3870	0.00153576
3882	0.00353225
3894	0.000153576
3906	0.0019197
3918	0.00115182
3930	0.00115182
3942	0.00161255
3954	0.00153576
3966	0.00238043
