Infrared Spectrum: Benzenemethanol, 4-methoxy-, acetate
Formula: C 10 H 12 O 3
CAS: 104-21-2
Origin: Sadtler Research Labs Under US-EPA Contract
1/CM	ABSORBANCE
450	0.009384
462	0.00780354
474	0.00276581
486	0.0109645
498	0.0185705
510	0.0212375
522	0.0345726
534	0.0228179
546	0.0265716
558	0.0397092
570	0.0224228
582	0.0176814
594	0.0158046
606	0.038425
618	0.0335849
630	0.0164961
642	0.0227192
654	0.03398
666	0.0207436
678	0.0173851
690	0.0217314
702	0.0162985
714	0.017879
726	0.0190643
738	0.0210399
750	0.023707
762	0.0193607
774	0.0191631
786	0.0264728
798	0.0430676
810	0.0698368
822	0.100063
834	0.0854438
846	0.0737879
858	0.046031
870	0.0309178
882	0.0218302
894	0.027263
906	0.0304239
918	0.0277569
930	0.0351653
942	0.0350665
954	0.0492907
966	0.0701331
978	0.0556126
990	0.0614405
1002	0.107175
1014	0.15449
1026	0.227093
1038	0.224525
1050	0.15291
1062	0.0863328
1074	0.0677624
1086	0.0540321
1098	0.0485993
1110	0.0464261
1122	0.0354617
1134	0.028152
1146	0.0341775
1158	0.0507724
1170	0.189952
1182	0.172369
1194	0.0974949
1206	0.192323
1218	0.566695
1230	0.98779
1242	0.62053
1254	0.442234
1266	0.261468
1278	0.144612
1290	0.108854
1302	0.113398
1314	0.0605515
1326	0.0435615
1338	0.0373385
1350	0.0452408
1362	0.120905
1374	0.10599
1386	0.100656
1398	0.0534394
1410	0.0338812
1422	0.0368446
1434	0.042475
1446	0.0658856
1458	0.0809988
1470	0.0831719
1482	0.053637
1494	0.0520565
1506	0.146983
1518	0.35916
1530	0.0720099
1542	0.0427713
1554	0.0288435
1566	0.027263
1578	0.0391165
1590	0.0523529
1602	0.0766525
1614	0.125252
1626	0.0807024
1638	0.0388201
1650	0.0285471
1662	0.0220277
1674	0.0216326
1686	0.0335849
1698	0.0350665
1710	0.0293374
1722	0.0441542
1734	0.0770476
1746	0.149848
1758	0.366766
1770	0.337034
1782	0.130882
1794	0.0648978
1806	0.0371409
1818	0.0268679
1830	0.0235094
1842	0.0171875
1854	0.0161998
1866	0.016101
1878	0.014323
1890	0.0162985
1902	0.0135327
1914	0.0113596
1926	0.0113596
1938	0.0116559
1950	0.00948278
1962	0.0105694
1974	0.0127425
1986	0.0121498
1998	0.012051
2010	0.0126437
2022	0.0115571
2034	0.0121498
2046	0.0132364
2058	0.0131376
2070	0.0140266
2082	0.0134339
2094	0.0109645
2106	0.0105694
2118	0.00869255
2130	0.00770476
2142	0.00869255
2154	0.00790232
2166	0.00622308
2178	0.0080011
2190	0.0075072
2202	0.00642064
2214	0.00681575
2226	0.00730965
2238	0.00602552
2250	0.00622308
2262	0.00721087
2274	0.00730965
2286	0.00711209
2298	0.00711209
2310	0.00889011
2322	0.0131376
2334	0.0114584
2346	0.0176814
2358	0.0216326
2370	0.0183729
2382	0.00958156
2394	0.00661819
2406	0.00523529
2418	0.00484017
2430	0.00642064
2442	0.00691453
2454	0.00651941
2466	0.00671697
2478	0.00671697
2490	0.00622308
2502	0.00533407
2514	0.00632186
2526	0.00721087
2538	0.00513651
2550	0.00711209
2562	0.00661819
2574	0.00434628
2586	0.00572918
2598	0.00582796
2610	0.00582796
2622	0.00325971
2634	0.00404994
2646	0.00464261
2658	0.00404994
2670	0.00345726
2682	0.00325971
2694	0.00355604
2706	0.00286459
2718	0.00404994
2730	0.00572918
2742	0.00513651
2754	0.00365482
2766	0.00642064
2778	0.00592674
2790	0.00533407
2802	0.00829744
2814	0.0103718
2826	0.0135327
2838	0.0328934
2850	0.0522541
2862	0.024596
2874	0.0201509
2886	0.0246947
2898	0.0332885
2910	0.0428701
2922	0.0494883
2934	0.0558101
2946	0.0853451
2958	0.0906791
2970	0.0758623
2982	0.0472164
2994	0.0418823
3006	0.0728001
3018	0.0542297
3030	0.0320044
3042	0.0408945
3054	0.0294361
3066	0.023707
3078	0.0274606
3090	0.0189656
3102	0.0154095
3114	0.0125449
3126	0.00908767
3138	0.00829744
3150	0.00859377
3162	0.00365482
3174	0.00276581
3186	0.00651941
3198	0.00385238
3210	0.00395116
3222	0.0061243
3234	0.00246948
3246	0.00296337
3258	0.00355604
3270	0.0037536
3282	0.00395116
3294	0.0037536
3306	0.00197558
3318	0.00493895
3330	0.00286459
3342	0.00335849
3354	0.00602552
3366	0.00256825
3378	0.00118535
3390	0.00503773
3402	0.00404994
3414	0.00138291
3426	0.00493895
3438	0.00355604
3450	0.0023707
3462	0.00246948
3474	0.00464261
3486	0.00345726
3498	0.0056304
3510	0.00553162
3522	0.00464261
3534	0.0023707
3546	0.00404994
3558	0.00404994
3570	0.00948278
3582	0.00197558
3594	0.00404994
3606	0.0061243
3618	0.0042475
3630	0.0113596
3642	0.00395116
3654	0.00484017
3666	0.00217314
3678	0.0110632
3690	0.00760598
3702	0.00454383
3714	0.00572918
3726	0.0056304
3738	0.0110632
3750	0.0101742
3762	0.00543284
3774	0.0042475
3786	0.00266703
3798	0.00572918
3810	0.00839622
3822	0.0100755
3834	0.00829744
3846	0.00839622
3858	0.0103718
3870	0.010273
3882	0.0113596
3894	0.0107669
3906	0.0112608
3918	0.0080011
3930	0.00859377
3942	0.0109645
3954	0
3966	0.000790232
