Infrared Spectrum: Benzene, 1-bromo-4-(methylthio)-
Formula: C 7 H 7 Br S
CAS: 104-95-0
Origin: Sadtler Research Labs Under US-EPA Contract
1/CM	ABSORBANCE
450	0.0235525
462	0.0438963
474	0.115714
486	0.181661
498	0.115168
510	0.0696334
522	0.0264197
534	0.0219823
546	0.0197977
558	0.0172718
570	0.00989886
582	0.0116738
594	0.0154286
606	0.0201391
618	0.0267611
630	0.0199343
642	0.0159747
654	0.0163843
666	0.0189102
678	0.0147459
690	0.0195246
702	0.023689
714	0.0297648
726	0.0492895
738	0.0447155
750	0.0279216
762	0.0307206
774	0.0414387
786	0.0645815
798	0.167666
810	0.283585
822	0.216887
834	0.0944829
846	0.0322908
858	0.0234842
870	0.018842
882	0.0204804
894	0.0189785
906	0.0204121
918	0.021914
930	0.0275803
942	0.0326321
954	0.0524298
966	0.113393
978	0.0791226
990	0.0443059
1002	0.193267
1014	0.44777
1026	0.0506549
1038	0.0378205
1050	0.0370013
1062	0.112028
1074	0.294781
1086	0.244809
1098	0.47535
1110	0.0744121
1122	0.0421896
1134	0.0337244
1146	0.0253274
1158	0.0221188
1170	0.0213679
1182	0.0156334
1194	0.0015019
1206	0.0139267
1218	0.0267611
1230	0.0171353
1242	0.0150872
1254	0.0211631
1266	0.0215044
1278	0.0222554
1290	0.0280581
1302	0.0268293
1314	0.0395272
1326	0.0553653
1338	0.028536
1350	0.02956
1362	0.0352946
1374	0.0555702
1386	0.0754361
1398	0.0694968
1410	0.0634892
1422	0.0814437
1434	0.110662
1446	0.144387
1458	0.131826
1470	0.512351
1482	0.454324
1494	0.0569355
1506	0.0344071
1518	0.023689
1530	0.0208217
1542	0.0242351
1554	0.032086
1566	0.0443059
1578	0.0405512
1590	0.0270341
1602	0.0272389
1614	0.0325638
1626	0.0353628
1638	0.0273072
1650	0.0165209
1662	0.0165891
1674	0.00989886
1686	0.00996713
1698	0.00812389
1710	0.00921618
1722	0.011469
1734	0.011196
1746	0.012493
1758	0.0151555
1770	0.0178179
1782	0.00948925
1794	0.0068268
1806	0.00798736
1818	0.00826043
1830	0.00805562
1842	0.00757775
1854	0.0100354
1866	0.0151555
1878	0.022665
1890	0.0241669
1902	0.0169305
1914	0.00935272
1926	0.00675853
1938	0.0068268
1950	0.006622
1962	0.00484703
1974	0.00477876
1986	0.00546144
1998	0.00573451
2010	0.00477876
2022	0.00552971
2034	0.00628066
2046	0.0070316
2058	0.00354994
2070	0.00573451
2082	0.00498356
2094	0.00409608
2106	0.00368647
2118	0.0032086
2130	0.00354994
2142	0.0032086
2154	0.00245765
2166	0.00314033
2178	0.00225284
2190	0.00307206
2202	0.00314033
2214	0.00300379
2226	0.00286726
2238	0.00245765
2250	0.00354994
2262	0.00477876
2274	0.00669026
2286	0.00798736
2298	0.00785082
2310	0.00689507
2322	0.00607585
2334	0.0036182
2346	0.00518837
2358	0.006622
2370	0.00723641
2382	0.0053249
2394	0.00334513
2406	0.00286726
2418	0.00102402
2430	0.000750948
2442	0.000204804
2454	0.00068268
2466	0.000955752
2478	0.00116056
2490	0.00068268
2502	0.0019115
2514	0.00116056
2526	0.00143363
2538	0.00286726
2550	0.00293552
2562	0.00314033
2574	0.00368647
2586	0.00293552
2598	0.000955752
2610	0.00177497
2622	0.00211631
2634	0.00245765
2646	0.00273072
2658	0.00252592
2670	0.00157016
2682	0.00157016
2694	0.00109229
2706	0.000955752
2718	0.00143363
2730	0.00129709
2742	0.0017067
2754	0.00238938
2766	0.00279899
2778	0.00409608
2790	0.00628066
2802	0.00812389
2814	0.00771428
2826	0.0117421
2838	0.0197977
2850	0.0297648
2862	0.0240986
2874	0.0197977
2886	0.0169305
2898	0.0221188
2910	0.0388445
2922	0.0707939
2934	0.15135
2946	0.076665
2958	0.0406195
2970	0.0314715
2982	0.036933
2994	0.062397
3006	0.0610316
3018	0.0346119
3030	0.0232111
3042	0.0172718
3054	0.0196612
3066	0.0309254
3078	0.0545461
3090	0.0612364
3102	0.0268293
3114	0.0109911
3126	0.00716814
3138	0.00607585
3150	0.00518837
3162	0.00546144
3174	0.00457396
3186	0.0036182
3198	0.00348167
3210	0.00266245
3222	0.00245765
3234	0.00300379
3246	0.00163843
3258	0.00293552
3270	0.00184324
3282	0.00204804
3294	0.00266245
3306	0.00286726
3318	0.00252592
3330	0.0015019
3342	0.00286726
3354	0.00307206
3366	0.00266245
3378	0.00225284
3390	0.00382301
3402	0.00122882
3414	0.00259418
3426	0.00204804
3438	0.00218458
3450	0.00238938
3462	0.00252592
3474	0.00307206
3486	0.00314033
3498	0.00163843
3510	0.00136536
3522	0.00232111
3534	0.00129709
3546	0.0034134
3558	0.00184324
3570	0.00354994
3582	0.00286726
3594	0.00252592
3606	0.00245765
3618	0.0032086
3630	0.00293552
3642	0.00259418
3654	0.00395954
3666	0.00273072
3678	0.00184324
3690	0.00197977
3702	0.00436915
3714	0.00709987
3726	0.00157016
3738	0.00136536
3750	0.0051201
3762	0.000409608
3774	0.00034134
3786	0.00163843
3798	0.00382301
3810	0.00368647
3822	0.00395954
3834	0.00204804
3846	0.00430088
3858	0
3870	0.00279899
3882	0.00293552
3894	0.00307206
3906	0.00552971
3918	0.006622
3930	0.00628066
3942	0.000750948
3954	0.00157016
3966	0.000136536
