Infrared Spectrum: 1-Hexanamine, 2-ethyl-
Formula: C 8 H 19 N
CAS: 104-75-6
Origin: Sadtler Research Labs Under US-EPA Contract
1/CM	ABSORBANCE
450	0
462	0.0269741
474	0.0211449
486	0.0160016
498	0.0174874
510	0.0193162
522	0.01463
534	0.0170303
546	0.0152015
558	0.0178303
570	0.0224022
582	0.0211449
594	0.0179446
606	0.0142871
618	0.0130299
630	0.0142871
642	0.0122298
654	0.0209164
666	0.0220593
678	0.02926
690	0.0306316
702	0.0505193
714	0.0706355
726	0.121841
738	0.168245
750	0.196477
762	0.233052
774	0.251682
786	0.20082
798	0.118983
810	0.0721214
822	0.0521194
834	0.0353178
846	0.0236595
858	0.0165731
870	0.0124584
882	0.0131442
894	0.0153158
906	0.0173731
918	0.0154301
930	0.0147443
942	0.0172588
954	0.0193162
966	0.0158873
978	0.012687
990	0.010401
1002	0.0114297
1014	0.0138299
1026	0.0178303
1038	0.0285742
1050	0.0501764
1062	0.0758932
1074	0.0708641
1086	0.0393182
1098	0.0204592
1110	0.0142871
1122	0.0164588
1134	0.0170303
1146	0.016916
1158	0.0145157
1170	0.0136013
1182	0.0131442
1194	0.0144014
1206	0.0154301
1218	0.0155444
1230	0.0149729
1242	0.0148586
1254	0.0148586
1266	0.0155444
1278	0.0168017
1290	0.0185161
1302	0.0195448
1314	0.0178303
1326	0.0153158
1338	0.0226308
1350	0.0299458
1362	0.034632
1374	0.0586344
1386	0.0945236
1398	0.0458331
1410	0.0162302
1422	0.0150872
1434	0.0217164
1446	0.0585201
1458	0.142071
1470	0.177046
1482	0.0904089
1494	0.02846
1506	0.0176017
1518	0.0131442
1530	0.010401
1542	0.0106296
1554	0.00868657
1566	0.0118869
1578	0.0164588
1590	0.0204592
1602	0.0374894
1614	0.0752074
1626	0.0901803
1638	0.0529195
1650	0.0225165
1662	0.0117726
1674	0.0114297
1686	0.00880087
1698	0.00788649
1710	0.00525766
1722	0.00685782
1734	0.0076579
1746	0.00651493
1758	0.00640063
1770	0.00674352
1782	0.00617204
1794	0.00811509
1806	0.00731501
1818	0.00720071
1830	0.0077722
1842	0.0076579
1854	0.00628633
1866	0.00628633
1878	0.00674352
1890	0.00617204
1902	0.00640063
1914	0.00674352
1926	0.00708641
1938	0.00720071
1950	0.00720071
1962	0.00662923
1974	0.00662923
1986	0.00685782
1998	0.00674352
2010	0.00674352
2022	0.00697212
2034	0.0074293
2046	0.0077722
2058	0.0074293
2070	0.0074293
2082	0.00651493
2094	0.00685782
2106	0.00685782
2118	0.00674352
2130	0.00674352
2142	0.00685782
2154	0.00674352
2166	0.00685782
2178	0.00674352
2190	0.00628633
2202	0.00628633
2214	0.00605774
2226	0.00651493
2238	0.00685782
2250	0.00697212
2262	0.00697212
2274	0.00697212
2286	0.00697212
2298	0.00811509
2310	0.00914376
2322	0.00891517
2334	0.00868657
2346	0.00948665
2358	0.0109725
2370	0.0106296
2382	0.010401
2394	0.00868657
2406	0.00937235
2418	0.00925806
2430	0.00891517
2442	0.00868657
2454	0.00845798
2466	0.00788649
2478	0.00811509
2490	0.00845798
2502	0.00822938
2514	0.00937235
2526	0.0100581
2538	0.0110868
2550	0.0113154
2562	0.0124584
2574	0.013487
2586	0.0152015
2598	0.0161159
2610	0.0172588
2622	0.0176017
2634	0.0185161
2646	0.0198877
2658	0.021945
2670	0.0241167
2682	0.026174
2694	0.0266312
2706	0.0276599
2718	0.0301744
2730	0.0356607
2742	0.04389
2754	0.0449187
2766	0.0413755
2778	0.0404611
2790	0.0451473
2802	0.0545197
2814	0.0696069
2826	0.0963524
2838	0.149043
2850	0.26254
2862	0.509536
2874	0.681896
2886	0.630691
2898	0.490334
2910	0.622576
2922	0.932778
2934	1.14297
2946	0.946036
2958	0.778363
2970	1.08742
2982	0.508965
2994	0.154758
3006	0.0894946
3018	0.0652636
3030	0.0525766
3042	0.0428614
3054	0.0355464
3066	0.0299458
3078	0.0274313
3090	0.0251453
3102	0.0235452
3114	0.0218307
3126	0.0205735
3138	0.018859
3150	0.0179446
3162	0.0180589
3174	0.0172588
3186	0.0158873
3198	0.0158873
3210	0.013487
3222	0.0118869
3234	0.0116583
3246	0.0108582
3258	0.00994384
3270	0.00971524
3282	0.0101724
3294	0.00948665
3306	0.0102867
3318	0.0105153
3330	0.0112011
3342	0.0147443
3354	0.0170303
3366	0.0132585
3378	0.0102867
3390	0.00971524
3402	0.00982954
3414	0.0122298
3426	0.011544
3438	0.00994384
3450	0.00891517
3462	0.00880087
3474	0.00891517
3486	0.00845798
3498	0.00880087
3510	0.00845798
3522	0.00834368
3534	0.00880087
3546	0.0076579
3558	0.00811509
3570	0.00880087
3582	0.0074293
3594	0.00891517
3606	0.00662923
3618	0.00902946
3630	0.00982954
3642	0.00731501
3654	0.0110868
3666	0.0077722
3678	0.0109725
3690	0.00994384
3702	0.0101724
3714	0.00891517
3726	0.0101724
3738	0.0118869
3750	0.0105153
3762	0.00640063
3774	0.0074293
3786	0.00720071
3798	0.00880087
3810	0.00628633
3822	0.0116583
3834	0.0118869
3846	0.0101724
3858	0.0123441
3870	0.0139442
3882	0.00914376
3894	0.00845798
3906	0.0112011
3918	0.0114297
3930	0.00994384
3942	0.00822938
3954	0.00868657
3966	0.010401
