Infrared Spectrum: Benzene, 1,1'-[1,2-ethanediylbis(oxy)]bis-
Formula: C 14 H 14 O 2
CAS: 104-66-5
Origin: Sadtler Research Labs Under US-EPA Contract
1/CM	ABSORBANCE
450	0.000449465
462	0.00197765
474	0.00791058
486	0.0161807
498	0.0247206
510	0.0298445
522	0.0240014
534	0.0149222
546	0.0131244
558	0.0163605
570	0.00809037
582	0.0106074
594	0.0163605
606	0.0129446
618	0.0124052
630	0.0101579
642	0.00548347
654	0.0141132
666	0.0374854
678	0.0836005
690	0.165403
702	0.0734426
714	0.0337099
726	0.0431486
738	0.113805
750	0.256465
762	0.157133
774	0.0811734
786	0.0629251
798	0.0623857
810	0.038654
822	0.0257094
834	0.0172595
846	0.0139334
858	0.0145627
870	0.0266982
882	0.039463
894	0.0497108
906	0.0458454
918	0.0607677
930	0.0784766
942	0.0681389
954	0.0349684
966	0.0261589
978	0.026878
990	0.0337099
1002	0.0397327
1014	0.0551943
1026	0.0988823
1038	0.164954
1050	0.192461
1062	0.177449
1074	0.149043
1086	0.101849
1098	0.0519582
1110	0.0375753
1122	0.0280466
1134	0.0221137
1146	0.034429
1158	0.0758697
1170	0.179876
1182	0.0767686
1194	0.10895
1206	0.329548
1218	0.631858
1230	0.715638
1242	0.851287
1254	0.371797
1266	0.194169
1278	0.173853
1290	0.185899
1302	0.171516
1314	0.0837803
1326	0.0592395
1338	0.0592395
1350	0.0353279
1362	0.0372157
1374	0.0492614
1386	0.0269679
1398	0.0227429
1410	0.0191472
1422	0.0163605
1434	0.0192371
1446	0.0418901
1458	0.131154
1470	0.124052
1482	0.249543
1494	0.673658
1506	0.270308
1518	0.0519582
1530	0.0249903
1542	0.0188775
1554	0.0282264
1566	0.0536661
1578	0.13466
1590	0.348156
1602	0.422587
1614	0.106433
1626	0.031103
1638	0.0177089
1650	0.0121356
1662	0.0105175
1674	0.0105175
1686	0.0120457
1698	0.0141132
1710	0.0114164
1722	0.00979834
1734	0.00907919
1746	0.00844994
1758	0.0135738
1770	0.0144728
1782	0.0101579
1794	0.00683187
1806	0.00683187
1818	0.00791058
1830	0.0113265
1842	0.0126749
1854	0.011776
1866	0.00961855
1878	0.00611272
1890	0.00548347
1902	0.00836005
1914	0.0133941
1926	0.0172595
1938	0.0165403
1950	0.0118659
1962	0.00800048
1974	0.00889941
1986	0.0101579
1998	0.0107872
2010	0.0113265
2022	0.0106074
2034	0.0126749
2046	0.0122254
2058	0.0105175
2070	0.010068
2082	0.00809037
2094	0.00782069
2106	0.00656219
2118	0.00539358
2130	0.00503401
2142	0.00431486
2154	0.0026069
2166	0.00287658
2178	0.00323615
2190	0.00278668
2202	0.00215743
2214	0.00233722
2226	0.00242711
2238	0.00314626
2250	0.00215743
2262	0.00449465
2274	0.00575315
2286	0.00692176
2298	0.00737123
2310	0.00791058
2322	0.00629251
2334	0.00440476
2346	0.00485422
2358	0.00422497
2370	0.00503401
2382	0.00791058
2394	0.00557337
2406	0.0051239
2418	0.0051239
2430	0.00620262
2442	0.00593294
2454	0.00593294
2466	0.00584304
2478	0.00620262
2490	0.00611272
2502	0.00584304
2514	0.00575315
2526	0.00620262
2538	0.0063824
2550	0.00602283
2562	0.00467444
2574	0.00305636
2586	0.00269679
2598	0.00215743
2610	0.00197765
2622	0.00206754
2634	0.00143829
2646	0.00170797
2658	0.00089893
2670	0.00152818
2682	0.00107872
2694	0.00152818
2706	0.00368561
2718	0.00458454
2730	0.00620262
2742	0.00602283
2754	0.00557337
2766	0.00431486
2778	0.00431486
2790	0.00494411
2802	0.00485422
2814	0.0051239
2826	0.00746112
2838	0.00844994
2850	0.0129446
2862	0.0247206
2874	0.0481826
2886	0.0611272
2898	0.0542055
2910	0.0524076
2922	0.0700266
2934	0.0866569
2946	0.080634
2958	0.0642735
2970	0.0569023
2982	0.0567225
2994	0.0339796
3006	0.0184281
3018	0.0278668
3030	0.0513289
3042	0.0963653
3054	0.0943877
3066	0.091601
3078	0.126569
3090	0.0817127
3102	0.0628352
3114	0.0350583
3126	0.0109669
3138	0.00404518
3150	0.00278668
3162	0.00314626
3174	0.00224733
3186	0.00161807
3198	0.00152818
3210	0.00206754
3222	0.00089893
3234	0.000809037
3246	0.00179786
3258	0.00224733
3270	0.00107872
3282	0.000719144
3294	0.0012585
3306	0.00314626
3318	0.00269679
3330	0.00278668
3342	0.00179786
3354	0.002517
3366	0.00341593
3378	0.00341593
3390	0.00296647
3402	0.00305636
3414	0.00323615
3426	0.00224733
3438	0.00215743
3450	0.00350583
3462	0.00431486
3474	0.002517
3486	0.00332604
3498	0.00332604
3510	0.0026069
3522	0.00341593
3534	0.00395529
3546	0.00359572
3558	0.00242711
3570	0.00368561
3582	0.00269679
3594	0.00476433
3606	0.00431486
3618	0.00350583
3630	0.00341593
3642	0.00530369
3654	0.00485422
3666	0.00485422
3678	0.00332604
3690	0.00413508
3702	0.00404518
3714	0.00476433
3726	0.00377551
3738	0.00305636
3750	0.0012585
3762	0.00431486
3774	0.00305636
3786	0.00287658
3798	0.00269679
3810	0.00341593
3822	0.00440476
3834	0.00206754
3846	0.00296647
3858	0.00602283
3870	0.00566326
3882	0.00503401
3894	0.00422497
3906	0.00674197
3918	0.00629251
3930	0.00530369
3942	0.00683187
3954	0
3966	0.000539358
