Infrared Spectrum: Benzene, 1-methoxy-4-methyl-
Formula: C 8 H 10 O
CAS: 104-93-8
Origin: Sadtler Research Labs Under US-EPA Contract
1/CM	ABSORBANCE
450	0.0109567
462	0.0345135
474	0.036157
486	0.0569747
498	0.123263
510	0.227351
522	0.177498
534	0.0909404
546	0.0632748
558	0.0599878
570	0.0599878
582	0.0493051
594	0.0441006
606	0.0405397
618	0.0378005
630	0.0399919
642	0.043005
654	0.0435528
666	0.0468398
678	0.049579
690	0.0624531
702	0.0909404
714	0.234473
726	0.229269
738	0.0761489
750	0.0635487
762	0.0665618
774	0.0775185
786	0.136137
798	0.290352
810	0.50209
822	0.639322
834	0.364584
846	0.145998
858	0.0898448
870	0.0802577
882	0.0772446
894	0.0788881
906	0.0794359
918	0.0827229
930	0.0843664
942	0.0882013
954	0.0939535
966	0.100528
978	0.115867
990	0.132028
1002	0.14545
1014	0.188455
1026	0.307335
1038	0.60837
1050	0.728345
1062	0.410054
1074	0.187085
1086	0.152298
1098	0.188181
1110	0.224612
1122	0.204616
1134	0.158872
1146	0.149833
1158	0.193659
1170	0.476342
1182	0.565639
1194	0.259399
1206	0.207081
1218	0.3287
1230	0.73848
1242	2.03
1254	2.30172
1266	0.702871
1278	0.596591
1290	0.882561
1302	0.612478
1314	0.21749
1326	0.20489
1338	0.128467
1350	0.161611
1362	0.121071
1374	0.116963
1386	0.14682
1398	0.110115
1410	0.157776
1422	0.191468
1434	0.208725
1446	0.311991
1458	0.276382
1470	0.454428
1482	0.35527
1494	0.32377
1506	1.23865
1518	2.08916
1530	0.644527
1542	0.0882013
1554	0.137506
1566	0.172568
1578	0.221599
1590	0.320483
1602	0.385675
1614	0.542082
1626	0.377184
1638	0.169555
1650	0.0816273
1662	0.139424
1674	0.0577965
1686	0.0249264
1698	0.0095871
1710	0.101623
1722	0.0876534
1734	0.00876534
1746	0.0613574
1758	0.0879274
1770	0.0635487
1782	0.0731358
1794	0.0553312
1806	0.0939535
1818	0.0994319
1830	0.0635487
1842	0.075875
1854	0.116689
1866	0.100801
1878	0.119976
1890	0.09231
1902	0.095597
1914	0.0731358
1926	0.0772446
1938	0.0846404
1950	0.0871056
1962	0.0983362
1974	0.0945014
1986	0.0802577
1998	0.0764228
2010	0.0810794
2022	0.0654662
2034	0.0676575
2046	0.0665618
2058	0.0780663
2070	0.0816273
2082	0.082449
2094	0.0736837
2106	0.0577965
2118	0.0460181
2130	0.0399919
2142	0.0353353
2154	0.0320483
2166	0.0301309
2178	0.0282135
2190	0.0260221
2202	0.0254743
2214	0.0265699
2226	0.0306787
2238	0.029857
2250	0.0260221
2262	0.0265699
2274	0.0293091
2286	0.03287
2298	0.0334179
2310	0.0309526
2322	0.0317744
2334	0.0342396
2346	0.0309526
2358	0.0268439
2370	0.0246525
2382	0.0246525
2394	0.0254743
2406	0.0279395
2418	0.0320483
2430	0.03287
2442	0.029857
2454	0.029857
2466	0.0320483
2478	0.0353353
2490	0.0383484
2502	0.0378005
2514	0.0345135
2526	0.0408136
2538	0.0471137
2550	0.0438267
2562	0.033144
2574	0.0312265
2586	0.0334179
2598	0.0353353
2610	0.0339657
2622	0.0306787
2634	0.0301309
2646	0.0309526
2658	0.0293091
2670	0.0282135
2682	0.0290352
2694	0.0301309
2706	0.0312265
2718	0.03287
2730	0.0353353
2742	0.0484833
2754	0.049579
2766	0.0399919
2778	0.0410876
2790	0.0473876
2802	0.0575226
2814	0.0742315
2826	0.122167
2838	0.310348
2850	0.350614
2862	0.218586
2874	0.279669
2886	0.314183
2898	0.296378
2910	0.400467
2922	0.515238
2934	0.650279
2946	0.676849
2958	0.526742
2970	0.342944
2982	0.267617
2994	0.370336
3006	0.605083
3018	0.472781
3030	0.414436
3042	0.41471
3054	0.23146
3066	0.186264
3078	0.184072
3090	0.138876
3102	0.114771
3114	0.100528
3126	0.0728619
3138	0.0569747
3150	0.0438267
3162	0.0372527
3174	0.0334179
3186	0.0334179
3198	0.0317744
3210	0.0301309
3222	0.0293091
3234	0.0306787
3246	0.0290352
3258	0.0282135
3270	0.0276656
3282	0.0271178
3294	0.0276656
3306	0.0279395
3318	0.0268439
3330	0.0279395
3342	0.0276656
3354	0.0279395
3366	0.0282135
3378	0.0276656
3390	0.0271178
3402	0.0268439
3414	0.0271178
3426	0.0276656
3438	0.0271178
3450	0.0268439
3462	0.0282135
3474	0.0271178
3486	0.0271178
3498	0.0276656
3510	0.0279395
3522	0.0276656
3534	0.0276656
3546	0.0268439
3558	0.0271178
3570	0.0276656
3582	0.0287613
3594	0.0282135
3606	0.0268439
3618	0.0290352
3630	0.0306787
3642	0.0282135
3654	0.0271178
3666	0.0301309
3678	0.0312265
3690	0.0287613
3702	0.029857
3714	0.0301309
3726	0.0306787
3738	0.0287613
3750	0.033144
3762	0.0301309
3774	0.029857
3786	0.029857
3798	0.0271178
3810	0.0323222
3822	0.0309526
3834	0.0317744
3846	0.0317744
3858	0.0306787
3870	0.033144
3882	0.0345135
3894	0.029857
3906	0.033144
3918	0.0306787
3930	0.0293091
3942	0.029857
3954	0.0317744
3966	0.0312265
