Infrared Spectrum: Benzene, 1-chloro-4-(chloromethyl)-
Formula: C 7 H 6 Cl 2
CAS: 104-83-6
Origin: Sadtler Research Labs Under US-EPA Contract
1/CM	ABSORBANCE
450	0.0172176
462	0.023683
474	0.0472957
486	0.0831365
498	0.116588
510	0.0647945
522	0.0112442
534	0.00681677
546	0.00822229
558	0.00196773
570	0.0120172
582	0.0107522
594	0.0137038
606	0.0192556
618	0.0256507
630	0.0446253
642	0.133103
654	0.0447658
666	0.0357002
678	0.0705571
690	0.136617
702	0.0948726
714	0.0927643
726	0.198881
738	0.275904
750	0.141325
762	0.0605076
774	0.0489824
786	0.0714004
798	0.172879
810	0.264238
822	0.378366
834	0.235776
846	0.0732276
858	0.0284618
870	0.0213639
882	0.0225586
894	0.0220667
906	0.0207314
918	0.0177096
930	0.015531
942	0.0134227
954	0.0115955
966	0.00990892
978	0.0109631
990	0.0148282
1002	0.0267752
1014	0.225586
1026	0.107522
1038	0.0146174
1050	0.0271968
1062	0.026986
1074	0.0440631
1086	0.172598
1098	0.70276
1110	0.154888
1122	0.04329
1134	0.0271968
1146	0.0200287
1158	0.0179204
1170	0.0193259
1182	0.0273374
1194	0.023683
1206	0.0306403
1218	0.0399168
1230	0.0389329
1242	0.04329
1254	0.0753359
1266	0.255945
1278	0.173371
1290	0.0719626
1302	0.0390032
1314	0.0234019
1326	0.0186231
1338	0.0207314
1350	0.016304
1362	0.015531
1374	0.0180609
1386	0.0278293
1398	0.0565019
1410	0.0663405
1422	0.0450469
1434	0.0397762
1446	0.062897
1458	0.0530584
1470	0.0398465
1482	0.111458
1494	0.556024
1506	0.196843
1518	0.0470849
1530	0.0209422
1542	0.02038
1554	0.0150391
1566	0.0156013
1578	0.0229803
1590	0.0548153
1602	0.136195
1614	0.0396357
1626	0.0199584
1638	0.023683
1650	0.02291
1662	0.0178501
1674	0.0111739
1686	0.0109631
1698	0.00983864
1710	0.00794119
1722	0.00829257
1734	0.0146174
1746	0.0149688
1758	0.0137038
1770	0.0234019
1782	0.0174284
1794	0.00808174
1806	0.00414628
1818	0.00442739
1830	0.00548153
1842	0.00365435
1854	0.00477877
1866	0.00660594
1878	0.0126497
1890	0.023683
1902	0.0242452
1914	0.0137038
1926	0.00597346
1938	0.00365435
1950	0.0035138
1962	0.0035138
1974	0.00295159
1986	0.00238938
1998	0.00281104
2010	0.0032327
2022	0.00337325
2034	0.00281104
2046	0.00281104
2058	0.00477877
2070	0.00231911
2082	0.00112442
2094	0.00161635
2106	0.00189745
2118	0.00154607
2130	0.00252994
2142	0.00245966
2154	0.00196773
2166	0.00189745
2178	0.00196773
2190	0.00189745
2202	0.0017569
2214	0.00224883
2226	0.00224883
2238	0.0017569
2250	0.00168662
2262	0.00224883
2274	0.00386518
2286	0.0049896
2298	0.00463822
2310	0.00344352
2322	0.00295159
2334	0.00330297
2346	0.00611401
2358	0.0017569
2370	0.0067465
2382	0.00597346
2394	0.00421656
2406	0.00372463
2418	0.00407601
2430	0.00260021
2442	0.0017569
2454	0.002038
2466	0.00252994
2478	0.00295159
2490	0.002038
2502	0.00196773
2514	0.00245966
2526	0.00196773
2538	0.00281104
2550	0.00372463
2562	0.0032327
2574	0.00365435
2586	0.00484904
2598	0.00428684
2610	0.00477877
2622	0.00456794
2634	0.00281104
2646	0.00217856
2658	0.00245966
2670	0.00154607
2682	0.000983864
2694	0.00365435
2706	0.00400573
2718	0.00618429
2730	0.00505987
2742	0.00267049
2754	0.00260021
2766	0.00217856
2778	0.00274076
2790	0.00491932
2802	0.00386518
2814	0.00344352
2826	0.00337325
2838	0.0049896
2850	0.00709788
2862	0.00983864
2874	0.014758
2886	0.0156013
2898	0.0106117
2910	0.0070276
2922	0.00709788
2934	0.0125091
2946	0.025721
2958	0.0481391
2970	0.0712599
2982	0.0609996
2994	0.0406195
3006	0.0358408
3018	0.0317648
3030	0.0418845
3042	0.0690813
3054	0.0500365
3066	0.0312025
3078	0.0243155
3090	0.0349272
3102	0.038441
3114	0.0231911
3126	0.00604374
3138	0.00358408
3150	0.00421656
3162	0.00224883
3174	0.00224883
3186	0.002038
3198	0.00224883
3210	0.00252994
3222	0.00154607
3234	0.00260021
3246	0.00245966
3258	0.00245966
3270	0.00267049
3282	0.00274076
3294	0.00309214
3306	0.00316242
3318	0.00231911
3330	0.00252994
3342	0.00245966
3354	0.00252994
3366	0.00372463
3378	0.00260021
3390	0.00295159
3402	0.00231911
3414	0.00260021
3426	0.00231911
3438	0.00330297
3450	0.00295159
3462	0.00182718
3474	0.00238938
3486	0.00224883
3498	0.00358408
3510	0.00238938
3522	0.00372463
3534	0.00302187
3546	0.002038
3558	0.00288132
3570	0.00337325
3582	0.00372463
3594	0.00295159
3606	0.00245966
3618	0.00400573
3630	0.00787091
3642	0.00513015
3654	0.00766008
3666	0.0049896
3678	0.00815202
3690	0.00660594
3702	0.00484904
3714	0.00899533
3726	0.00716815
3738	0.00822229
3750	0.00625456
3762	0.00864395
3774	0.00660594
3786	0.00569236
3798	0.00372463
3810	0.00625456
3822	0.00484904
3834	0.00372463
3846	0.00681677
3858	0.00934671
3870	0.00604374
3882	0.00913588
3894	0.00829257
3906	0.00843312
3918	0.00625456
3930	0.00541125
3942	0.00716815
3954	0.00716815
3966	0.00864395
