Infrared Spectrum: 1-Hexanol, 2-ethyl-
Formula: C 8 H 18 O
CAS: 104-76-7
Origin: Sadtler Research Labs Under US-EPA Contract
1/CM	ABSORBANCE
450	0.00449463
462	0.0110439
474	0.028252
486	0.024271
498	0.0349297
510	0.0107871
522	0.0270962
534	0.0386538
546	0.0183638
558	0.00988819
570	0.0146397
582	0.0274815
594	0.0170796
606	0.0199048
618	0.02273
630	0.0255552
642	0.0195195
654	0.0175933
666	0.018749
678	0.0204185
690	0.0190059
702	0.0209321
714	0.0276099
726	0.0330034
738	0.0360855
750	0.0299214
762	0.0389107
774	0.0562471
786	0.0408369
798	0.0256836
810	0.0268394
822	0.028252
834	0.0274815
846	0.0261973
858	0.0259404
870	0.0285088
882	0.0342876
894	0.0441758
906	0.0477715
918	0.0496978
930	0.0550913
942	0.0663921
954	0.0879663
966	0.0910484
978	0.08848
990	0.0960567
1002	0.12174
1014	0.170282
1026	0.260432
1038	0.454343
1050	0.390519
1062	0.193012
1074	0.107743
1086	0.0847559
1098	0.0770508
1110	0.0765371
1122	0.0701162
1134	0.0627964
1146	0.0629248
1158	0.058687
1170	0.055605
1182	0.0604849
1194	0.0674194
1206	0.0707583
1218	0.071272
1230	0.0694741
1242	0.067291
1254	0.0656216
1266	0.0667774
1278	0.0663921
1290	0.0652363
1302	0.0656216
1314	0.0636953
1326	0.064209
1338	0.0733267
1350	0.0792339
1362	0.0802612
1374	0.103762
1386	0.147424
1398	0.0925894
1410	0.0518809
1422	0.0428916
1434	0.0461021
1446	0.0778213
1458	0.166943
1470	0.208294
1482	0.127391
1494	0.0491841
1506	0.028252
1518	0.0210606
1530	0.0182354
1542	0.0169512
1554	0.0146397
1566	0.0128418
1578	0.012585
1590	0.0115576
1602	0.0113008
1614	0.0104019
1626	0.00963135
1638	0.00898926
1650	0.00834717
1662	0.00860401
1674	0.00886084
1686	0.00796192
1698	0.00770508
1710	0.00719141
1722	0.00757666
1734	0.00770508
1746	0.00860401
1758	0.00731983
1770	0.00847559
1782	0.00719141
1794	0.0050083
1806	0.00449463
1818	0.00449463
1830	0.00410938
1842	0.00346729
1854	0.0035957
1866	0.00321045
1878	0.00295361
1890	0.00346729
1902	0.00256836
1914	0.00321045
1926	0.00295361
1938	0.0035957
1950	0.0035957
1962	0.00308203
1974	0.00333887
1986	0.00398096
1998	0.00398096
2010	0.0035957
2022	0.00449463
2034	0.00526514
2046	0.00526514
2058	0.00449463
2070	0.00449463
2082	0.00410938
2094	0.00346729
2106	0.00243994
2118	0.00218311
2130	0.00179785
2142	0.0014126
2154	0.00205469
2166	0.00205469
2178	0.00192627
2190	0.00154102
2202	0.00166943
2214	0.00179785
2226	0.00154102
2238	0.00154102
2250	0.0014126
2262	0.00179785
2274	0.00128418
2286	0.00115576
2298	0.00064209
2310	0.000513672
2322	0.000898926
2334	0.00064209
2346	0.00231152
2358	0.000385254
2370	0.00462305
2382	0.00475147
2394	0.00410938
2406	0.0035957
2418	0.00372412
2430	0.00372412
2442	0.00346729
2454	0.00333887
2466	0.00269678
2478	0.00308203
2490	0.00269678
2502	0.00346729
2514	0.00398096
2526	0.00487988
2538	0.00526514
2550	0.00603565
2562	0.00693457
2574	0.00886084
2586	0.00975977
2598	0.0106587
2610	0.0114292
2622	0.0119429
2634	0.0129702
2646	0.0132271
2658	0.0150249
2670	0.0175933
2682	0.0195195
2694	0.0200332
2706	0.0215742
2718	0.0235005
2730	0.028252
2742	0.0354434
2754	0.0372412
2766	0.0378833
2778	0.0417358
2790	0.0475147
2802	0.0545776
2814	0.0627964
2826	0.0774361
2838	0.109412
2850	0.201103
2862	0.456012
2874	0.721581
2886	0.786689
2898	0.606518
2910	0.669957
2922	0.995882
2934	1.28418
2946	1.06664
2958	0.869647
2970	1.25323
2982	0.61936
2994	0.180042
3006	0.0972124
3018	0.0654932
3030	0.0518809
3042	0.0419927
3054	0.0319761
3066	0.027353
3078	0.0233721
3090	0.0204185
3102	0.0191343
3114	0.0159238
3126	0.0139976
3138	0.0128418
3150	0.0119429
3162	0.0109155
3174	0.0109155
3186	0.010145
3198	0.00834717
3210	0.00526514
3222	0.00410938
3234	0.00333887
3246	0.00295361
3258	0.00166943
3270	0.00205469
3282	0.00243994
3294	0.00102734
3306	0.00179785
3318	0.00231152
3330	0.00179785
3342	0.00205469
3354	0.00218311
3366	0.00269678
3378	0.00218311
3390	0.0028252
3402	0.00269678
3414	0.00333887
3426	0.00321045
3438	0.00398096
3450	0.00526514
3462	0.00539356
3474	0.00423779
3486	0.00462305
3498	0.00539356
3510	0.00346729
3522	0.00385254
3534	0.00398096
3546	0.00487988
3558	0.00423779
3570	0.00487988
3582	0.00552197
3594	0.00552197
3606	0.00565039
3618	0.0078335
3630	0.011686
3642	0.0232437
3654	0.0565039
3666	0.105431
3678	0.0995239
3690	0.0407085
3702	0.0170796
3714	0.00898926
3726	0.00526514
3738	0.00731983
3750	0.0134839
3762	0.0110439
3774	0.00590723
3786	0.00950293
3798	0.0092461
3810	0.0123281
3822	0.0100166
3834	0.0124565
3846	0.00988819
3858	0.0164375
3870	0.0139976
3882	0.00963135
3894	0.012585
3906	0.00988819
3918	0.0064209
3930	0.0102734
3942	0.00603565
3954	0.010145
3966	0.00898926
