Infrared Spectrum: Benzenamine, 4-butyl-
Formula: C 10 H 15 N
CAS: 104-13-2
Origin: Sadtler Research Labs Under US-EPA Contract
1/CM	ABSORBANCE
450	0
462	0.0123646
474	0.0333734
486	0.059525
498	0.0482547
510	0.0188204
522	0.0134588
534	0.0438778
546	0.0799868
558	0.0488018
570	0.0121457
582	0.0106138
594	0.0100667
606	0.0125834
618	0.0242915
630	0.0733121
642	0.230112
654	0.387241
666	0.239085
678	0.163147
690	0.129445
702	0.0860049
714	0.0632453
726	0.0501148
738	0.0490206
750	0.053288
762	0.0567895
774	0.0639019
786	0.0941021
798	0.163803
810	0.238428
822	0.261297
834	0.168727
846	0.0692635
858	0.024948
870	0.0144436
882	0.0128023
894	0.00776889
906	0.00339205
918	0.000875368
930	0.00372031
942	0.00251668
954	0.000765947
966	0.00941021
978	0.00809715
990	0.00612758
1002	0.000328263
1014	0.00755005
1026	0.004158
1038	0.0112704
1050	0.0246197
1062	0.0427836
1074	0.0722179
1086	0.0613852
1098	0.0437684
1110	0.0451909
1122	0.0648867
1134	0.0502242
1146	0.0132399
1158	0.00645584
1170	0.0298719
1182	0.130539
1194	0.0218842
1206	0.0113798
1218	0.008316
1230	0.0180545
1242	0.0567895
1254	0.193347
1266	0.586168
1278	0.485282
1290	0.123317
1302	0.0575554
1314	0.0473793
1326	0.040814
1338	0.0458474
1350	0.0484735
1362	0.037422
1374	0.0323886
1386	0.043659
1398	0.0218842
1410	0.0205711
1422	0.029106
1434	0.0442061
1446	0.0850201
1458	0.123536
1470	0.123974
1482	0.0777983
1494	0.078236
1506	0.326622
1518	1.09421
1530	0.293358
1542	0.0597439
1554	0.0303096
1566	0.0331546
1578	0.0542728
1590	0.0834882
1602	0.138199
1614	0.330233
1626	0.697559
1638	0.47248
1650	0.10209
1662	0.0463945
1674	0.0274647
1686	0.0234161
1698	0.0225407
1710	0.0293248
1722	0.0177262
1734	0.0118175
1746	0.0143342
1758	0.0108327
1770	0.00306379
1782	0.00153189
1794	0.000875368
1806	0.00196958
1818	0.00328263
1830	0.00317321
1842	0.00744063
1854	0.0176168
1866	0.026261
1878	0.0224313
1890	0.00941021
1902	0.00634642
1914	0.00820657
1926	0.0100667
1938	0.0067841
1950	0.00514279
1962	0.00382973
1974	0.00229784
1986	0.002079
1998	0.00196958
2010	0.00361089
2022	0.00579931
2034	0.0067841
2046	0.00514279
2058	0.006237
2070	0.00776889
2082	0.00558047
2094	0.00459568
2106	0.00459568
2118	0.00306379
2130	0.00131305
2142	0.00120363
2154	0.00131305
2166	0.00164131
2178	0.00186016
2190	0.000547105
2202	0.000328263
2214	0
2226	0.000656526
2238	0.000328263
2250	0.000547105
2262	0.00131305
2274	0.00218842
2286	0.00273552
2298	0.00306379
2310	0.00350147
2322	0.00426742
2334	0.00459568
2346	0.00536163
2358	0.00459568
2370	0.00306379
2382	0.00273552
2394	0.00273552
2406	0.00218842
2418	0.00229784
2430	0.00273552
2442	0.00273552
2454	0.00284495
2466	0.00240726
2478	0.00164131
2490	0.000437684
2502	0.000875368
2514	0.00251668
2526	0.00547105
2538	0.00700294
2550	0.00525221
2562	0.004158
2574	0.004158
2586	0.00579931
2598	0.00722179
2610	0.00820657
2622	0.00722179
2634	0.00809715
2646	0.00908194
2658	0.0102856
2670	0.0102856
2682	0.00951963
2694	0.00820657
2706	0.00853484
2718	0.00897252
2730	0.0101762
2742	0.0143342
2754	0.0149907
2766	0.0153189
2778	0.0180545
2790	0.0213371
2802	0.0244009
2814	0.0297625
2826	0.0412517
2838	0.0682787
2850	0.158004
2862	0.344129
2874	0.394463
2886	0.354852
2898	0.261297
2910	0.361636
2922	0.639347
2934	0.900644
2946	0.747236
2958	0.56133
2970	0.723054
2982	0.299157
2994	0.163147
3006	0.252653
3018	0.267206
3030	0.34402
3042	0.25703
3054	0.142794
3066	0.1115
3078	0.0717802
3090	0.0506619
3102	0.0461757
3114	0.0349053
3126	0.0256045
3138	0.0208994
3150	0.014553
3162	0.0115986
3174	0.00995731
3186	0.00930078
3198	0.0110515
3210	0.0131305
3222	0.0111609
3234	0.012474
3246	0.00919136
3258	0.00437684
3270	0.00339205
3282	0.00306379
3294	0.00382973
3306	0.00404858
3318	0.00492394
3330	0.00514279
3342	0.00536163
3354	0.0067841
3366	0.00864426
3378	0.0119269
3390	0.0253857
3402	0.0684975
3414	0.0676222
3426	0.0247291
3438	0.0156472
3450	0.0144436
3462	0.0196958
3474	0.0362184
3486	0.0523032
3498	0.0466133
3510	0.0254951
3522	0.00984789
3534	0.00459568
3546	0.00306379
3558	0.00196958
3570	0.00229784
3582	0.00120363
3594	0.000765947
3606	0.000547105
3618	0.000437684
3630	0.00306379
3642	0.00186016
3654	0.00404858
3666	0.00284495
3678	0.00361089
3690	0.00229784
3702	0.00251668
3714	0.00175074
3726	0.00284495
3738	0.00196958
3750	0.000984789
3762	0.00142247
3774	0.000109421
3786	0.00131305
3798	0.000656526
3810	0.00218842
3822	0.000437684
3834	0.00251668
3846	0.00361089
3858	0.00645584
3870	0.008316
3882	0.00382973
3894	0.00382973
3906	0.004158
3918	0.00350147
3930	0.00339205
3942	0.00393916
3954	0.00579931
3966	0.00382973
