Infrared Spectrum: Formic acid, phenylmethyl ester
Formula: C 8 H 8 O 2
CAS: 104-57-4
Origin: Sadtler Research Labs Under US-EPA Contract
1/CM	ABSORBANCE
450	0.0234071
462	0.0153673
474	0.0189292
486	0.021677
498	0.0123142
510	0.00264602
522	0.00335841
534	0.00447788
546	0.00335841
558	0.00661505
570	0.0143496
582	0.029208
594	0.0376549
606	0.0248319
618	0.0126195
630	0.00702213
642	0.00865045
654	0.00661505
666	0.0138407
678	0.0452876
690	0.0973939
702	0.102991
714	0.0742921
726	0.082739
738	0.128637
750	0.116221
762	0.0640133
774	0.0249336
786	0.0112965
798	0.00895576
810	0.00773452
822	0.0132301
834	0.0151637
846	0.012823
858	0.0159779
870	0.0180133
882	0.0271726
894	0.0435576
906	0.038062
918	0.0289027
930	0.0262567
942	0.0240177
954	0.0227965
966	0.0197434
978	0.0194381
990	0.0248319
1002	0.0365354
1014	0.0426416
1026	0.0556682
1038	0.0457965
1050	0.026969
1062	0.0262567
1074	0.031854
1086	0.0364337
1098	0.0386726
1110	0.0505797
1122	0.0952567
1134	0.213106
1146	0.573372
1158	1.0177
1170	0.780881
1182	0.393138
1194	0.146142
1206	0.111845
1218	0.0901682
1230	0.0413186
1242	0.0385708
1254	0.0499691
1266	0.0560753
1278	0.0364337
1290	0.025646
1302	0.0198451
1314	0.0170974
1326	0.0161814
1338	0.0164867
1350	0.0185221
1362	0.0315487
1374	0.053531
1386	0.0293098
1398	0.0129248
1410	0.00885399
1422	0.00793806
1434	0.0123142
1446	0.0275797
1458	0.0414204
1470	0.0361283
1482	0.015469
1494	0.0255443
1506	0.0295133
1518	0.00590266
1530	0.00457965
1542	0.00468142
1554	0.0040708
1566	0.00396903
1578	0.00620797
1590	0.00803983
1602	0.0081416
1614	0.00865045
1626	0.00580089
1638	0.0050885
1650	0.00620797
1662	0.00590266
1674	0.00732744
1686	0.012823
1698	0.0226947
1710	0.0545487
1722	0.110929
1734	0.250965
1746	0.88947
1758	0.733965
1770	0.19723
1782	0.0983098
1794	0.058416
1806	0.0257478
1818	0.00844691
1830	0.0050885
1842	0.00447788
1854	0.00590266
1866	0.00844691
1878	0.00865045
1890	0.00641151
1902	0.00600443
1914	0.00498673
1926	0.00457965
1938	0.00641151
1950	0.00722567
1962	0.00753098
1974	0.00315487
1986	0.00122124
1998	0.00122124
2010	0.00173009
2022	0.00193363
2034	0.00346018
2046	0.00386726
2058	0.00386726
2070	0.0040708
2082	0.00376549
2094	0.00376549
2106	0.00284956
2118	0.00264602
2130	0.00234071
2142	0.00173009
2154	0.00081416
2166	0.00020354
2178	0.00050885
2190	0.00010177
2202	0.00040708
2214	0
2226	0.00030531
2238	0.00081416
2250	0.0010177
2262	0.00152655
2274	0.00254425
2286	0.00346018
2298	0.00437611
2310	0.00386726
2322	0.0020354
2334	0.00274779
2346	0.00264602
2358	0.00020354
2370	0.00427434
2382	0.0020354
2394	0.00091593
2406	0.00061062
2418	0.00071239
2430	0.00030531
2442	0.00061062
2454	0.00040708
2466	0.00040708
2478	0.00010177
2490	0.00050885
2502	0.00091593
2514	0.00091593
2526	0.00061062
2538	0.00091593
2550	0.00050885
2562	0.00030531
2574	0.00081416
2586	0.00061062
2598	0.00122124
2610	0.00152655
2622	0.00132301
2634	0.00122124
2646	0.00091593
2658	0.00091593
2670	0.00111947
2682	0.00111947
2694	0.00152655
2706	0.00223894
2718	0.0040708
2730	0.00346018
2742	0.00244248
2754	0.00173009
2766	0.00173009
2778	0.00183186
2790	0.00244248
2802	0.00335841
2814	0.0040708
2826	0.00559735
2838	0.00580089
2850	0.00753098
2862	0.0111947
2874	0.0209646
2886	0.0330753
2898	0.0447788
2910	0.0612655
2922	0.109097
2934	0.153164
2946	0.0757169
2958	0.0542434
2970	0.0477301
2982	0.0342965
2994	0.0228982
3006	0.0161814
3018	0.0197434
3030	0.044677
3042	0.0834514
3054	0.0652346
3066	0.0558717
3078	0.0792788
3090	0.0481372
3102	0.0338894
3114	0.0238142
3126	0.0132301
3138	0.00335841
3150	0.0010177
3162	0.00162832
3174	0.00173009
3186	0.00132301
3198	0.00091593
3210	0.00091593
3222	0.00091593
3234	0.00122124
3246	0.00091593
3258	0.00081416
3270	0.00071239
3282	0.00071239
3294	0.00071239
3306	0.00050885
3318	0.00061062
3330	0.0010177
3342	0.0010177
3354	0.0010177
3366	0.00091593
3378	0.00081416
3390	0.00111947
3402	0.00091593
3414	0.00010177
3426	0.00132301
3438	0.00071239
3450	0.00091593
3462	0.00315487
3474	0.00742921
3486	0.0081416
3498	0.00244248
3510	0.00142478
3522	0.00061062
3534	0.00122124
3546	0.00050885
3558	0.00132301
3570	0.00152655
3582	0.00162832
3594	0.00132301
3606	0.0010177
3618	0.00111947
3630	0.00284956
3642	0.00386726
3654	0.00600443
3666	0.00641151
3678	0.00346018
3690	0.0030531
3702	0.00254425
3714	0.00193363
3726	0.00193363
3738	0.00050885
3750	0.00223894
3762	0.00183186
3774	0.00061062
3786	0.00081416
3798	0.00081416
3810	0.00081416
3822	0.0010177
3834	0.00122124
3846	0.00142478
3858	0.00173009
3870	0.00081416
3882	0.00213717
3894	0.00244248
3906	0.00081416
3918	0.00122124
3930	0.00244248
3942	0.0020354
3954	0
3966	0.00040708
