Infrared Spectrum: Phenol, 4-dodecyl-
Formula: C 18 H 30 O
CAS: 104-43-8
Origin: Sadtler Research Labs Under US-EPA Contract
1/CM	ABSORBANCE
450	0
462	0.0780368
474	0.0693484
486	0.0618899
498	0.0831149
510	0.0609774
522	0.0593905
534	0.0595492
546	0.064429
558	0.0678805
570	0.056296
582	0.0621676
594	0.05824
606	0.0544314
618	0.0526857
630	0.0534792
642	0.0479647
654	0.0597872
666	0.0698245
678	0.0540743
690	0.0537966
702	0.0599062
714	0.0514162
726	0.0583193
738	0.0624453
750	0.0691897
762	0.0543917
774	0.0634371
786	0.0635958
798	0.0734347
810	0.0838687
822	0.111164
834	0.114972
846	0.0706179
858	0.0607394
870	0.0583193
882	0.0513369
894	0.0533205
906	0.0603823
918	0.0523684
930	0.0591921
942	0.0580813
954	0.056534
966	0.056653
978	0.0558596
990	0.056415
1002	0.0580019
1014	0.0665713
1026	0.0582796
1038	0.0577242
1050	0.0579623
1062	0.0568911
1074	0.0590334
1086	0.0609774
1098	0.0703402
1110	0.0783145
1122	0.0720858
1134	0.0738315
1146	0.0742679
1158	0.0936283
1170	0.239942
1182	0.236292
1194	0.11767
1206	0.0910495
1218	0.0834323
1230	0.0848605
1242	0.087479
1254	0.130524
1266	0.165714
1278	0.0742282
1290	0.0700228
1302	0.0635165
1314	0.0655795
1326	0.0826785
1338	0.0793063
1350	0.0714907
1362	0.0748233
1374	0.0932315
1386	0.101166
1398	0.0663729
1410	0.0588747
1422	0.0718081
1434	0.0717288
1446	0.075339
1458	0.0977543
1470	0.108506
1482	0.0864871
1494	0.0754184
1506	0.134055
1518	0.201936
1530	0.0622073
1542	0.0508608
1554	0.0502657
1566	0.0494326
1578	0.0532412
1590	0.0701419
1602	0.0789096
1614	0.093787
1626	0.0584383
1638	0.045981
1650	0.0448702
1662	0.0428468
1674	0.0395143
1686	0.0437196
1698	0.0434023
1710	0.0431246
1722	0.0453859
1734	0.0455049
1746	0.0460207
1758	0.0459017
1770	0.0447908
1782	0.0444734
1794	0.0433626
1806	0.044156
1818	0.0443544
1830	0.0430055
1842	0.0437196
1854	0.0443941
1866	0.0451875
1878	0.0455049
1890	0.0447511
1902	0.0443147
1914	0.0433229
1926	0.0429659
1938	0.0427675
1950	0.0423708
1962	0.0417757
1974	0.0419344
1986	0.0421327
1998	0.0425691
2010	0.0420137
2022	0.0424104
2034	0.0420137
2046	0.0412996
2058	0.0415773
2070	0.0422517
2082	0.0423311
2094	0.041736
2106	0.041974
2118	0.0413393
2130	0.0412599
2142	0.0410219
2154	0.0410616
2166	0.0410219
2178	0.0409822
2190	0.0404665
2202	0.0399507
2214	0.0399904
2226	0.0400697
2238	0.039673
2250	0.039554
2262	0.0397127
2274	0.0395937
2286	0.0375307
2298	0.0349519
2310	0.0322938
2322	0.033246
2334	0.035428
2346	0.035547
2358	0.0357454
2370	0.0397523
2382	0.0377687
2394	0.0395143
2406	0.0397127
2418	0.0407838
2430	0.0416566
2442	0.0411409
2454	0.039911
2466	0.0396333
2478	0.0393556
2490	0.0390382
2502	0.0388399
2514	0.0390779
2526	0.0385622
2538	0.0387208
2550	0.0388795
2562	0.0390382
2574	0.0390779
2586	0.039554
2598	0.0393556
2610	0.0391969
2622	0.0392366
2634	0.0387208
2646	0.0385225
2658	0.0384431
2670	0.0387208
2682	0.0383241
2694	0.0384035
2706	0.0386415
2718	0.0381654
2730	0.0391573
2742	0.0393953
2754	0.0386018
2766	0.0380861
2778	0.0393159
2790	0.0396333
2802	0.0405061
2814	0.0432832
2826	0.0470522
2838	0.0533999
2850	0.0728793
2862	0.108347
2874	0.148417
2886	0.171427
2898	0.146592
2910	0.168729
2922	0.210505
2934	0.253233
2946	0.254145
2958	0.284416
2970	0.39673
2982	0.211536
2994	0.0901371
3006	0.0638339
3018	0.0593508
3030	0.0623263
3042	0.0612948
3054	0.0512575
3066	0.0560976
3078	0.054352
3090	0.0468935
3102	0.0466554
3114	0.0464968
3126	0.0443941
3138	0.0434816
3150	0.043918
3162	0.0438783
3174	0.0444338
3186	0.0447908
3198	0.0443941
3210	0.0443544
3222	0.0445131
3234	0.0443544
3246	0.043918
3258	0.044156
3270	0.0446718
3282	0.0445528
3294	0.0435213
3306	0.0443941
3318	0.043918
3330	0.0442751
3342	0.0430849
3354	0.0433229
3366	0.0420137
3378	0.0420931
3390	0.0415773
3402	0.0405458
3414	0.0406648
3426	0.0389986
3438	0.0388795
3450	0.0374513
3462	0.0366975
3474	0.0362214
3486	0.0358644
3498	0.0364595
3510	0.0350313
3522	0.0355073
3534	0.0346742
3546	0.0343568
3558	0.0335634
3570	0.0341585
3582	0.0335237
3594	0.0349519
3606	0.0352296
3618	0.033484
3630	0.0387208
3642	0.0576449
3654	0.144092
3666	0.0430055
3678	0.0339601
3690	0.0345155
3702	0.0324525
3714	0.0323335
3726	0.0324922
3738	0.0333253
3750	0.035547
3762	0.0323335
3774	0.0335237
3786	0.0343171
3798	0.0325715
3810	0.0324128
3822	0.0348329
3834	0.0325715
3846	0.0347535
3858	0.0337617
3870	0.0355867
3882	0.0345552
3894	0.0326906
3906	0.0363008
3918	0.0330873
3930	0.0349916
3942	0.0341981
3954	0.0378877
3966	0.0343965
