Infrared Spectrum: Benzene, 1-methoxy-4-(1-propenyl)-
Formula: C 10 H 12 O
CAS: 104-46-1
Origin: Sadtler Research Labs Under US-EPA Contract
1/CM	ABSORBANCE
450	0
462	0.0113528
474	0.0120736
486	0.0185609
498	0.0342386
510	0.0645127
522	0.0760457
534	0.0668553
546	0.0738832
558	0.0897411
570	0.0996523
582	0.0792893
594	0.0300939
606	0.0237868
618	0.0201827
630	0.0207233
642	0.0264898
654	0.0198223
666	0.0198223
678	0.0185609
690	0.0196421
702	0.0216244
714	0.0241472
726	0.0209035
738	0.0277513
750	0.0666751
762	0.0872183
774	0.0906421
786	0.146505
798	0.113348
810	0.0715406
822	0.0982106
834	0.21264
846	0.246698
858	0.107401
870	0.0529797
882	0.0517183
894	0.0434289
906	0.0419873
918	0.0490152
930	0.0755051
942	0.162002
954	0.246698
966	0.2485
978	0.11497
990	0.0666751
1002	0.071
1014	0.082533
1026	0.146505
1038	0.344368
1050	0.431586
1062	0.160921
1074	0.0688375
1086	0.0580254
1098	0.0655939
1110	0.0785685
1122	0.0704594
1134	0.050637
1146	0.0509974
1158	0.0892005
1170	0.441678
1182	0.393563
1194	0.118213
1206	0.11551
1218	0.160561
1230	0.331393
1242	1.17528
1254	1.61011
1266	0.430325
1278	0.55899
1290	0.457175
1302	0.29319
1314	0.18633
1326	0.13281
1338	0.0762259
1350	0.061269
1362	0.0432487
1374	0.0412665
1386	0.0495558
1398	0.0376624
1410	0.0600076
1422	0.0803705
1434	0.0965888
1446	0.203449
1458	0.171013
1470	0.296074
1482	0.166508
1494	0.17732
1506	0.862632
1518	1.12861
1530	0.172274
1542	0.0522589
1554	0.0544213
1566	0.0744238
1578	0.121817
1590	0.145604
1602	0.347251
1614	0.5152
1626	0.139297
1638	0.0573046
1650	0.0358604
1662	0.0535203
1674	0.0263096
1686	0.014236
1698	0.00864974
1710	0.0353198
1722	0.0387436
1734	0.0205431
1746	0.0407259
1758	0.0398249
1770	0.0250482
1782	0.025769
1794	0.0218046
1806	0.0335178
1818	0.0349594
1830	0.0243274
1842	0.02667
1854	0.0387436
1866	0.0342386
1878	0.0439695
1890	0.0331574
1902	0.0295533
1914	0.0234264
1926	0.0259492
1938	0.0275711
1950	0.0225254
1962	0.0218046
1974	0.0225254
1986	0.0281117
1998	0.0374822
2010	0.0387436
2022	0.0306345
2034	0.0288325
2046	0.0277513
2058	0.0299137
2070	0.0327969
2082	0.0367614
2094	0.0318959
2106	0.0192817
2118	0.0147766
2130	0.0127944
2142	0.011533
2154	0.0108122
2166	0.00991117
2178	0.00955076
2190	0.00901015
2202	0.00864974
2214	0.00919035
2226	0.00955076
2238	0.00937056
2250	0.00991117
2262	0.0127944
2274	0.0144162
2286	0.0144162
2298	0.0131548
2310	0.00973096
2322	0.00901015
2334	0.00864974
2346	0.010632
2358	0.0113528
2370	0.010632
2382	0.00973096
2394	0.0102716
2406	0.0108122
2418	0.0127944
2430	0.0126142
2442	0.0109924
2454	0.013335
2466	0.0131548
2478	0.0151371
2490	0.0172995
2502	0.0172995
2514	0.0172995
2526	0.0218046
2538	0.0219848
2550	0.0219848
2562	0.0192817
2574	0.0147766
2586	0.0147766
2598	0.0147766
2610	0.014236
2622	0.012434
2634	0.0120736
2646	0.012434
2658	0.0111726
2670	0.010632
2682	0.0108122
2694	0.011533
2706	0.0120736
2718	0.0136954
2730	0.0174797
2742	0.0309949
2754	0.0232462
2766	0.0185609
2778	0.0203629
2790	0.0237868
2802	0.0286523
2814	0.038203
2826	0.0614492
2838	0.170292
2850	0.23066
2862	0.169751
2874	0.189574
2886	0.149568
2898	0.194259
2910	0.230119
2922	0.350315
2934	0.429063
2946	0.387977
2958	0.360766
2970	0.284721
2982	0.199845
2994	0.181825
3006	0.354459
3018	0.273728
3030	0.295353
3042	0.276251
3054	0.149749
3066	0.111005
3078	0.119475
3090	0.0901015
3102	0.0821726
3114	0.060368
3126	0.0446903
3138	0.0308147
3150	0.0225254
3162	0.0176599
3174	0.0144162
3186	0.0136954
3198	0.0127944
3210	0.0113528
3222	0.010632
3234	0.010632
3246	0.0108122
3258	0.0104518
3270	0.0102716
3282	0.00991117
3294	0.00991117
3306	0.0102716
3318	0.00973096
3330	0.00919035
3342	0.00991117
3354	0.00955076
3366	0.00973096
3378	0.00937056
3390	0.00955076
3402	0.00955076
3414	0.00882995
3426	0.00937056
3438	0.00937056
3450	0.00955076
3462	0.00937056
3474	0.00919035
3486	0.00973096
3498	0.00919035
3510	0.00901015
3522	0.00882995
3534	0.00919035
3546	0.00864974
3558	0.00901015
3570	0.00919035
3582	0.00973096
3594	0.0100914
3606	0.00901015
3618	0.00919035
3630	0.0104518
3642	0.00919035
3654	0.00991117
3666	0.00955076
3678	0.0111726
3690	0.0100914
3702	0.00937056
3714	0.0100914
3726	0.010632
3738	0.00919035
3750	0.0113528
3762	0.0108122
3774	0.00955076
3786	0.00937056
3798	0.0102716
3810	0.010632
3822	0.0127944
3834	0.0108122
3846	0.0102716
3858	0.010632
3870	0.0104518
3882	0.0113528
3894	0.0126142
3906	0.0111726
3918	0.0108122
3930	0.0111726
3942	0.0100914
3954	0.010632
3966	0.011533
