Infrared Spectrum: Pyridine, 5-ethyl-2-methyl-
Formula: C 8 H 11 N
CAS: 104-90-5
Origin: Sadtler Research Labs Under US-EPA Contract
1/CM	ABSORBANCE
450	0.100778
462	0.0692925
474	0.0506299
486	0.0336529
498	0.0223951
510	0.0185422
522	0.0234186
534	0.0249838
546	0.0491248
558	0.0293184
570	0.0203483
582	0.0213717
594	0.0163147
606	0.0143883
618	0.0144485
630	0.0255256
642	0.0381681
654	0.0361814
666	0.0189034
678	0.0192044
690	0.0163749
702	0.024442
714	0.0344355
726	0.0567705
738	0.0712792
750	0.0485228
762	0.0300408
774	0.0280541
786	0.0361814
798	0.0476198
810	0.0794666
822	0.147314
834	0.122029
846	0.0626703
858	0.0291378
870	0.0192044
882	0.017579
894	0.0153515
906	0.0208299
918	0.0281143
930	0.0311846
942	0.0278133
954	0.0388303
966	0.0567103
978	0.0459943
990	0.0286562
1002	0.0293184
1014	0.0518339
1026	0.0989119
1038	0.090604
1050	0.059299
1062	0.0654396
1074	0.0500881
1086	0.029499
1098	0.0266093
1110	0.0298
1122	0.0470178
1134	0.0683293
1146	0.0538808
1158	0.0271511
1170	0.0217329
1182	0.0217931
1194	0.0219737
1206	0.024743
1218	0.0287766
1230	0.0408772
1242	0.0954202
1254	0.0785636
1266	0.0313652
1278	0.0291378
1290	0.0572521
1302	0.079286
1314	0.0659212
1326	0.0769382
1338	0.0506299
1350	0.0417802
1362	0.0553858
1374	0.0745301
1386	0.163268
1398	0.200593
1410	0.103246
1422	0.0807911
1434	0.0933131
1446	0.121307
1458	0.159716
1470	0.192767
1482	0.376564
1494	0.51557
1506	0.179944
1518	0.0756137
1530	0.0571919
1542	0.059901
1554	0.0781422
1566	0.116009
1578	0.11041
1590	0.110471
1602	0.208961
1614	0.132866
1626	0.030101
1638	0.0217931
1650	0.0213115
1662	0.017579
1674	0.0184218
1686	0.0210105
1698	0.0240808
1710	0.0298602
1722	0.0308234
1734	0.0313652
1746	0.0231778
1758	0.0228166
1770	0.0198667
1782	0.0162545
1794	0.01192
1806	0.00999353
1818	0.00866909
1830	0.0117996
1842	0.0160137
1854	0.0154719
1866	0.0132444
1878	0.0118598
1890	0.0130036
1902	0.0132444
1914	0.0166158
1926	0.0157127
1938	0.00921091
1950	0.00662222
1962	0.00734464
1974	0.00632121
1986	0.0060202
1998	0.0061406
2010	0.00493656
2022	0.00433454
2034	0.00463555
2046	0.00547838
2058	0.00361212
2070	0.00373252
2082	0.00577939
2094	0.0061406
2106	0.00367232
2118	0.00421414
2130	0.00439475
2142	0.00403353
2154	0.00427434
2166	0.00439475
2178	0.00433454
2190	0.00457535
2202	0.00499677
2214	0.00547838
2226	0.0058998
2238	0.00535798
2250	0.00517737
2262	0.00523757
2274	0.00529778
2286	0.00481616
2298	0.00409374
2310	0.00409374
2322	0.00427434
2334	0.00331111
2346	0.00391313
2358	0.00228768
2370	0.00168566
2382	0.0028897
2394	0.00325091
2406	0.00361212
2418	0.00421414
2430	0.00559879
2442	0.00523757
2454	0.00439475
2466	0.00264889
2478	0.00258869
2490	0.0029499
2502	0.00246828
2514	0.0030101
2526	0.00276929
2538	0.00186626
2550	0.00108364
2562	0.000541818
2574	0.00108364
2586	0.00234788
2598	0.00276929
2610	0.00421414
2622	0.00620081
2634	0.00734464
2646	0.00451515
2658	0.00409374
2670	0.00547838
2682	0.00451515
2694	0.00319071
2706	0.0028897
2718	0.00451515
2730	0.00836808
2742	0.0113782
2754	0.00933131
2766	0.0112578
2778	0.0140271
2790	0.0131842
2802	0.0135454
2814	0.0158331
2826	0.0219135
2838	0.0349774
2850	0.059299
2862	0.108725
2874	0.177054
2886	0.217269
2898	0.194452
2910	0.192165
2922	0.229731
2934	0.370062
2946	0.418524
2958	0.308896
2970	0.521891
2982	0.58107
2994	0.251885
3006	0.285719
3018	0.296555
3030	0.179522
3042	0.153997
3054	0.120464
3066	0.0957212
3078	0.0776004
3090	0.0651386
3102	0.0584561
3114	0.0338937
3126	0.0176994
3138	0.0127026
3150	0.0124618
3162	0.0126424
3174	0.0143883
3186	0.012522
3198	0.00866909
3210	0.00674262
3222	0.00547838
3234	0.00487636
3246	0.00559879
3258	0.00379273
3270	0.00457535
3282	0.00325091
3294	0.00409374
3306	0.00379273
3318	0.00343151
3330	0.00379273
3342	0.00415394
3354	0.00481616
3366	0.00379273
3378	0.00475596
3390	0.00397333
3402	0.00463555
3414	0.00505697
3426	0.0058998
3438	0.00553858
3450	0.00403353
3462	0.0060804
3474	0.00409374
3486	0.00517737
3498	0.0030703
3510	0.00451515
3522	0.00427434
3534	0.00349172
3546	0.00553858
3558	0.00559879
3570	0.00632121
3582	0.00379273
3594	0.00361212
3606	0.00325091
3618	0.00090303
3630	0.00511717
3642	0.00361212
3654	0.00234788
3666	0.00228768
3678	0.00571919
3690	0.000240808
3702	0.00331111
3714	0.00385293
3726	0.00565899
3738	0.00439475
3750	0.00276929
3762	0.00216727
3774	0.00343151
3786	0.0061406
3798	0.00451515
3810	0.00060202
3822	0.00421414
3834	0.00686303
3846	0.00475596
3858	0.00511717
3870	0.00385293
3882	0.00577939
3894	0.0090905
3906	0.00397333
3918	0.00650182
3930	0.00782626
3942	0.00698343
3954	0.00620081
3966	0.00957212
