Infrared Spectrum: 2(3H)-Furanone, dihydro-5-pentyl-
Formula: C 9 H 16 O 2
CAS: 104-61-0
Origin: Sadtler Research Labs Under US-EPA Contract
1/CM	ABSORBANCE
450	0.00065918
462	0.00210938
474	0.00764649
486	0.00619629
498	0.00573487
510	0.00645996
522	0.00626221
534	0.0101514
546	0.00494385
558	0.00652588
570	0.0047461
582	0.00435059
594	0.00606446
606	0.00494385
618	0.0065918
630	0.00863526
642	0.0117334
654	0.0098877
666	0.00830567
678	0.0106787
690	0.00896485
702	0.00850342
714	0.00494385
726	0.00922852
738	0.0116675
750	0.00837159
762	0.00856934
774	0.00692139
786	0.00949219
798	0.0102173
810	0.0131836
822	0.0103491
834	0.0119312
846	0.0113379
858	0.014436
870	0.0187207
882	0.0280811
894	0.0471314
906	0.0476587
918	0.0341455
930	0.0270264
942	0.0280811
954	0.0340137
966	0.03052
978	0.0236646
990	0.0278174
1002	0.03375
1014	0.0484497
1026	0.0792994
1038	0.0845069
1050	0.0505591
1062	0.0411328
1074	0.0348706
1086	0.0334863
1098	0.0344751
1110	0.0549756
1122	0.0886597
1134	0.0970972
1146	0.156423
1158	0.228867
1170	0.2172
1182	0.145217
1194	0.0607105
1206	0.0413965
1218	0.0413965
1230	0.0437036
1242	0.0357935
1254	0.0214893
1266	0.0207642
1278	0.0269605
1290	0.0246533
1302	0.0210278
1314	0.0196436
1326	0.0227417
1338	0.0330249
1350	0.0443628
1362	0.031311
1374	0.0259717
1386	0.0307178
1398	0.0172046
1410	0.0113379
1422	0.0142383
1434	0.0238623
1446	0.0217529
1458	0.0349365
1470	0.0406714
1482	0.0176001
1494	0.0084375
1506	0.00606446
1518	0.00520752
1530	0.00454834
1542	0.00507569
1554	0.004021
1566	0.004021
1578	0.004021
1590	0.00395508
1602	0.00448242
1614	0.00428467
1626	0.0047461
1638	0.0047461
1650	0.00520752
1662	0.00527344
1674	0.00566895
1686	0.00619629
1698	0.00705323
1710	0.00856934
1722	0.00949219
1734	0.0127222
1746	0.0199072
1758	0.0343433
1770	0.0767286
1782	0.0953833
1794	0.1526
1806	0.490825
1818	0.547515
1830	0.13032
1842	0.044231
1854	0.0245215
1866	0.0145679
1878	0.00949219
1890	0.00672364
1902	0.00553711
1914	0.00507569
1926	0.00448242
1938	0.004021
1950	0.00382324
1962	0.00349365
1974	0.00349365
1986	0.00283447
1998	0.00309815
2010	0.00322998
2022	0.00336182
2034	0.00316406
2046	0.00263672
2058	0.00309815
2070	0.00263672
2082	0.0025708
2094	0.00191162
2106	0.00151611
2118	0.00151611
2130	0.00204346
2142	0.0014502
2154	0.00138428
2166	0.00158203
2178	0.00131836
2190	0.00230713
2202	0.00177979
2214	0.00210938
2226	0.00158203
2238	0.00217529
2250	0.00217529
2262	0.00290039
2274	0.00263672
2286	0.00276856
2298	0.00303223
2310	0.00263672
2322	0.0025708
2334	0.00204346
2346	0.00138428
2358	0.000791016
2370	0.000922852
2382	0.000791016
2394	0.00125244
2406	0.000791016
2418	0.000725098
2430	0.00105469
2442	0.00131836
2454	0.00112061
2466	0.00112061
2478	0.000922852
2490	0.00112061
2502	0.00098877
2514	0.00098877
2526	0.00098877
2538	0.000395508
2550	0.000461426
2562	0.000395508
2574	0.000395508
2586	0.000791016
2598	0.000791016
2610	0.00138428
2622	0.0014502
2634	0.0014502
2646	0.00224121
2658	0.00237305
2670	0.00296631
2682	0.00296631
2694	0.00204346
2706	0.00243897
2718	0.00309815
2730	0.00355957
2742	0.004021
2754	0.00388916
2766	0.00362549
2778	0.00362549
2790	0.00415283
2802	0.00560303
2814	0.00685547
2826	0.00949219
2838	0.0150952
2850	0.0288721
2862	0.059524
2874	0.0851661
2886	0.0872754
2898	0.0740918
2910	0.0898462
2922	0.125508
2934	0.195117
2946	0.212651
2958	0.167761
2970	0.182593
2982	0.111533
2994	0.0488452
3006	0.0270923
3018	0.0140405
3030	0.00936036
3042	0.00639405
3054	0.00540528
3066	0.00395508
3078	0.00369141
3090	0.0032959
3102	0.00296631
3114	0.00243897
3126	0.00224121
3138	0.00171387
3150	0.00158203
3162	0.0014502
3174	0.00197754
3186	0.00204346
3198	0.00158203
3210	0.00151611
3222	0.00105469
3234	0.00125244
3246	0.000791016
3258	0.00112061
3270	0.00065918
3282	0.000922852
3294	0.000593262
3306	0.0014502
3318	0.00118652
3330	0.00065918
3342	0.000725098
3354	0.000395508
3366	0.00164795
3378	0.00171387
3390	0.00125244
3402	0.00125244
3414	0.00065918
3426	0.00065918
3438	0.0018457
3450	0.00164795
3462	0.000791016
3474	0.00118652
3486	0.00138428
3498	0.00138428
3510	0.00138428
3522	0.00237305
3534	0.0018457
3546	0.0018457
3558	0.00131836
3570	0.00296631
3582	0.00500977
3594	0.00593262
3606	0.00692139
3618	0.00500977
3630	0.00303223
3642	0.0014502
3654	0.00204346
3666	0.00151611
3678	0.00197754
3690	0.00210938
3702	0.00210938
3714	0.0025708
3726	0.00164795
3738	0.00164795
3750	0.00197754
3762	0.00210938
3774	0.00263672
3786	0.00151611
3798	0.00217529
3810	0.00217529
3822	0.00263672
3834	0.00276856
3846	0.00309815
3858	0.00276856
3870	0.00171387
3882	0.00237305
3894	0.00283447
3906	0.00336182
3918	0.0018457
3930	0.00177979
3942	0.0018457
3954	0
3966	0.000197754
