Infrared Spectrum: Benzene, decyl-
Formula: C 16 H 26
CAS: 104-72-3
Origin: Sadtler Research Labs Under US-EPA Contract
1/CM	ABSORBANCE
450	0.00249386
462	0.00452011
474	0.0084947
486	0.0109886
498	0.00904023
510	0.00444218
522	0.00296145
534	0.000935196
546	0.00171453
558	0.00452011
570	0.0108327
582	0.00576704
594	0.00389665
606	0.00264972
618	0.00311732
630	0.00155866
642	0.00218212
654	0.00335112
666	0.00467598
678	0.0155866
690	0.0497213
702	0.0954679
714	0.0462143
726	0.0476171
738	0.0713866
750	0.0509682
762	0.0202626
774	0.010521
786	0.00794917
798	0.00787123
810	0.0077933
822	0.00600084
834	0.00459805
846	0.00350699
858	0.00350699
870	0.00358492
882	0.00397458
894	0.00529944
906	0.0075595
918	0.00452011
930	0.00296145
942	0.00226006
954	0.00233799
966	0.00280559
978	0.00327319
990	0.00381872
1002	0.00498771
1014	0.00701397
1026	0.0137941
1038	0.0114562
1050	0.00716984
1062	0.00865056
1074	0.011612
1086	0.00904023
1098	0.00670224
1110	0.0068581
1122	0.00444218
1134	0.00171453
1146	0.00109106
1158	0.00210419
1170	0.00241592
1182	0.00342905
1194	0.00335112
1206	0.00413045
1218	0.00342905
1230	0.00358492
1242	0.00413045
1254	0.00483185
1266	0.0068581
1278	0.00662431
1290	0.0084947
1302	0.0105989
1314	0.0113003
1326	0.0102092
1338	0.0142617
1350	0.0215095
1362	0.0202626
1374	0.0182363
1386	0.0166777
1398	0.00880643
1410	0.00716984
1422	0.0084947
1434	0.0153528
1446	0.0420838
1458	0.0713866
1470	0.0579822
1482	0.0234578
1494	0.0434087
1506	0.0233799
1518	0.00693604
1530	0.00537738
1542	0.00483185
1554	0.00381872
1566	0.00413045
1578	0.00623464
1590	0.0114562
1602	0.0231461
1614	0.0153528
1626	0.00467598
1638	0.00350699
1650	0.00350699
1662	0.00288352
1674	0.00288352
1686	0.00311732
1698	0.00436425
1710	0.00374078
1722	0.00327319
1734	0.00389665
1746	0.00132486
1758	0.000311732
1770	0.000935196
1782	0.00257179
1794	0.00724777
1806	0.00405252
1818	0.00249386
1830	0.00194833
1842	0.00218212
1854	0.00303939
1866	0.00428631
1878	0.00428631
1890	0.00288352
1902	0.00187039
1914	0.00187039
1926	0.00288352
1938	0.00600084
1950	0.00506564
1962	0.00264972
1974	0.00116899
1986	0.00116899
1998	0.00109106
2010	0.00109106
2022	0.00140279
2034	0.00116899
2046	0.00109106
2058	0.00101313
2070	0.00077933
2082	0.000857263
2094	0.00077933
2106	0.000857263
2118	0.000389665
2130	0.000623464
2142	0.000701397
2154	0.000623464
2166	0.00077933
2178	0.00077933
2190	0.00077933
2202	0.000701397
2214	0.000623464
2226	0.000623464
2238	0.000623464
2250	0.000857263
2262	0.000857263
2274	0.00101313
2286	0.00179246
2298	0.00335112
2310	0.00483185
2322	0.00218212
2334	0
2346	0.000155866
2358	0
2370	0
2382	0.00210419
2394	0.000623464
2406	0.000155866
2418	0.000389665
2430	0.000389665
2442	0.000311732
2454	0.000233799
2466	7.7933e-05
2478	7.7933e-05
2490	0.000233799
2502	0.000467598
2514	0.000623464
2526	0.00077933
2538	0.000935196
2550	0.00116899
2562	0.00124693
2574	0.00148073
2586	0.00194833
2598	0.00226006
2610	0.00303939
2622	0.00319525
2634	0.00374078
2646	0.00389665
2658	0.00475391
2670	0.00529944
2682	0.00561118
2694	0.00561118
2706	0.00459805
2718	0.00483185
2730	0.00529944
2742	0.00592291
2754	0.00592291
2766	0.00592291
2778	0.00716984
2790	0.00997542
2802	0.0130148
2814	0.0172232
2826	0.024393
2838	0.0400576
2850	0.101079
2862	0.300666
2874	0.216264
2886	0.140513
2898	0.132642
2910	0.216732
2922	0.418422
2934	0.77933
2946	0.464559
2958	0.207769
2970	0.219381
2982	0.0776992
2994	0.0386548
3006	0.0333553
3018	0.0374858
3030	0.082531
3042	0.0688928
3054	0.0334333
3066	0.0529944
3078	0.0595408
3090	0.0387327
3102	0.022133
3114	0.0149631
3126	0.00654637
3138	0.00397458
3150	0.00350699
3162	0.00342905
3174	0.00303939
3186	0.00280559
3198	0.00226006
3210	0.00132486
3222	0.00124693
3234	0.000935196
3246	0.000935196
3258	0.00109106
3270	0.000389665
3282	0.000935196
3294	0.00109106
3306	0.000857263
3318	0.000389665
3330	0.000311732
3342	0.00101313
3354	0
3366	0.00109106
3378	0.00140279
3390	0.000623464
3402	0.00101313
3414	0.00132486
3426	0.000233799
3438	0.000311732
3450	0.000857263
3462	0.000389665
3474	0.000155866
3486	0.00101313
3498	0.000857263
3510	0.000545531
3522	0.000545531
3534	0.00077933
3546	0.000467598
3558	0.000545531
3570	0.000467598
3582	0.000545531
3594	0.000701397
3606	0
3618	0.00132486
3630	0.00163659
3642	0.00140279
3654	0.00171453
3666	0.00171453
3678	0.00155866
3690	0.000935196
3702	0.00101313
3714	0.00116899
3726	0.00116899
3738	0.00124693
3750	0.000233799
3762	0.000935196
3774	0.000701397
3786	0.00171453
3798	0.00179246
3810	0.00077933
3822	0.00171453
3834	0.00140279
3846	0.00124693
3858	0.00132486
3870	0.000701397
3882	0.000935196
3894	0.000857263
3906	0.000155866
3918	0.00241592
3930	0.000935196
3942	0.000935196
3954	0.000935196
3966	0.00101313
