Infrared Spectrum: Ethanol, 2-[(phenylmethyl)amino]-
Formula: C 9 H 13 N O
CAS: 104-63-2
Origin: Sadtler Research Labs Under US-EPA Contract
1/CM	ABSORBANCE
450	0
462	0.053077
474	0.0624663
486	0.0519724
498	0.0256272
510	0.023915
522	0.0277812
534	0.0381646
546	0.0132002
558	0.0087265
570	0.037778
582	0.0488794
594	0.0695911
606	0.0736229
618	0.0495422
630	0.0407052
642	0.0627424
654	0.0854976
666	0.113721
678	0.18646
690	0.404236
702	0.491666
714	0.388163
726	0.410808
738	0.44472
750	0.285489
762	0.140563
774	0.0727945
786	0.0642337
798	0.0589315
810	0.0575507
822	0.0610855
834	0.0467254
846	0.0405948
858	0.0618587
870	0.0747828
882	0.0930642
894	0.0817971
906	0.0901922
918	0.0688731
930	0.0536293
942	0.0504259
954	0.0557281
966	0.0711375
978	0.0899713
990	0.10273
1002	0.138685
1014	0.199881
1026	0.35149
1038	0.427377
1050	0.489568
1062	0.508236
1074	0.38485
1086	0.208221
1098	0.176021
1110	0.233241
1122	0.315535
1134	0.284937
1146	0.161219
1158	0.111788
1170	0.105381
1182	0.123552
1194	0.150725
1206	0.136476
1218	0.121619
1230	0.112008
1242	0.0993053
1254	0.0964886
1266	0.0924015
1278	0.085111
1290	0.0916282
1302	0.097317
1314	0.118691
1326	0.149897
1338	0.197451
1350	0.219101
1362	0.196236
1374	0.13504
1386	0.135205
1398	0.163042
1410	0.148848
1422	0.112119
1434	0.134377
1446	0.249258
1458	0.392913
1470	0.26787
1482	0.132333
1494	0.156469
1506	0.0848348
1518	0.0286097
1530	0.0226447
1542	0.0194413
1554	0.018171
1566	0.0202145
1578	0.0265661
1590	0.0400425
1602	0.0586553
1614	0.0397663
1626	0.0179501
1638	0.0159618
1650	0.0152438
1662	0.0127031
1674	0.0102177
1686	0.00994158
1698	0.0134764
1710	0.0152438
1722	0.011488
1734	0.0129241
1746	0.0134764
1758	0.0117642
1770	0.0133107
1782	0.0187785
1794	0.0323654
1806	0.0315921
1818	0.0189995
1830	0.0165693
1842	0.0165693
1854	0.0205459
1866	0.0257929
1878	0.0270632
1890	0.0204355
1902	0.0159618
1914	0.0166245
1926	0.0230866
1938	0.0334148
1950	0.036342
1962	0.0251853
1974	0.0128688
1986	0.010991
1998	0.00966543
2010	0.00933404
2022	0.00905788
2034	0.00927881
2046	0.00922358
2058	0.00961019
2070	0.00961019
2082	0.00999681
2094	0.00994158
2106	0.0102177
2118	0.00999681
2130	0.00955496
2142	0.00883696
2154	0.00833988
2166	0.00845034
2178	0.0087265
2190	0.00828465
2202	0.00850557
2214	0.00867127
2226	0.00894742
2238	0.00922358
2250	0.00961019
2262	0.00961019
2274	0.00966543
2286	0.0104939
2298	0.0117642
2310	0.0151885
2322	0.0132002
2334	0.0112119
2346	0.0133107
2358	0.0119851
2370	0.010052
2382	0.0119299
2394	0.0104387
2406	0.0112119
2418	0.0115985
2430	0.011709
2442	0.0117642
2454	0.0115985
2466	0.0114328
2478	0.0115433
2490	0.0115985
2502	0.0115985
2514	0.012427
2526	0.0132554
2538	0.0136421
2550	0.0141944
2562	0.0154094
2574	0.0160722
2586	0.0183367
2598	0.0180053
2610	0.0195518
2622	0.0218715
2634	0.0244673
2646	0.027008
2658	0.0315921
2670	0.0370048
2682	0.0425279
2694	0.049487
2706	0.0534084
2718	0.0555072
2730	0.0603675
2742	0.0682103
2754	0.0753351
2766	0.0884801
2778	0.115543
2790	0.164312
2802	0.234732
2814	0.318849
2826	0.399486
2838	0.436435
2850	0.40534
2862	0.377007
2874	0.385181
2886	0.418651
2898	0.412796
2910	0.408212
2922	0.467199
2934	0.542755
2946	0.526407
2958	0.378056
2970	0.226005
2982	0.119575
2994	0.0798088
3006	0.0873754
3018	0.14708
3030	0.28085
3042	0.27135
3054	0.177568
3066	0.276707
3078	0.302169
3090	0.173701
3102	0.112395
3114	0.0632395
3126	0.0294934
3138	0.0171768
3150	0.0152438
3162	0.0159065
3174	0.0151333
3186	0.0128688
3198	0.0120956
3210	0.0123717
3222	0.0114328
3234	0.0101073
3246	0.0106044
3258	0.0094445
3270	0.00972066
3282	0.00883696
3294	0.00861604
3306	0.00850557
3318	0.00927881
3330	0.0103834
3342	0.0123717
3354	0.0136973
3366	0.0169007
3378	0.0158513
3390	0.0150228
3402	0.013863
3414	0.0141391
3426	0.0132002
3438	0.0140287
3450	0.0154094
3462	0.015299
3474	0.0149676
3486	0.0149676
3498	0.0167902
3510	0.0161827
3522	0.0189442
3534	0.0247987
3546	0.0382751
3558	0.0475539
3570	0.0719108
3582	0.0663324
3594	0.048051
3606	0.0372257
3618	0.0317026
3630	0.0276707
3642	0.0322549
3654	0.0492661
3666	0.0699777
3678	0.071248
3690	0.0414785
3702	0.0192756
3714	0.0115985
3726	0.00828465
3738	0.00828465
3750	0.00828465
3762	0.00828465
3774	0.00828465
3786	0.00828465
3798	0.00828465
3810	0.00828465
3822	0.00828465
3834	0.00828465
3846	0.00828465
3858	0.00828465
3870	0.00828465
3882	0.00828465
3894	0.00828465
3906	0.00828465
3918	0.00828465
3930	0.00828465
3942	0.00828465
3954	0.00828465
3966	0.00828465
