Infrared Spectrum: 2-Butanone, 4-(4-methoxyphenyl)-
Formula: C 11 H 14 O 2
CAS: 104-20-1
Origin: Sadtler Research Labs Under US-EPA Contract
1/CM	ABSORBANCE
450	0
462	0.0962309
474	0.0963977
486	0.115827
498	0.105654
510	0.133256
522	0.154853
534	0.136675
546	0.143429
558	0.126501
570	0.103402
582	0.106154
594	0.0975651
606	0.0938126
618	0.0895598
630	0.0912276
642	0.0892262
654	0.0898933
666	0.0878086
678	0.0875584
690	0.100567
702	0.109323
714	0.0961475
726	0.0977319
738	0.111324
750	0.101735
762	0.0948133
774	0.0946465
786	0.104653
798	0.133923
810	0.167779
822	0.203386
834	0.167862
846	0.121748
858	0.114493
870	0.108156
882	0.098399
894	0.0981489
906	0.0969814
918	0.0979821
930	0.103319
942	0.105737
954	0.105404
966	0.105654
978	0.102402
990	0.103069
1002	0.110073
1014	0.128836
1026	0.148099
1038	0.232989
1050	0.264927
1062	0.158272
1074	0.121081
1086	0.113075
1098	0.120664
1110	0.132172
1122	0.123166
1134	0.129837
1146	0.178786
1158	0.244663
1170	0.267178
1182	0.314627
1194	0.175534
1206	0.168863
1218	0.190377
1230	0.238159
1242	0.499333
1254	0.811625
1266	0.353986
1278	0.245581
1290	0.241328
1302	0.2495
1314	0.151935
1326	0.141845
1338	0.154186
1350	0.182789
1362	0.249833
1374	0.1993
1386	0.135424
1398	0.119079
1410	0.126001
1422	0.141845
1434	0.143763
1446	0.182622
1458	0.169113
1470	0.198966
1482	0.140677
1494	0.138843
1506	0.339393
1518	0.76401
1530	0.155187
1542	0.108989
1554	0.100817
1566	0.101651
1578	0.116161
1590	0.132088
1602	0.148849
1614	0.22515
1626	0.152435
1638	0.106738
1650	0.0948967
1662	0.0947299
1674	0.0980655
1686	0.109156
1698	0.126001
1710	0.163109
1722	0.265094
1734	0.435708
1746	0.273933
1758	0.155771
1770	0.114243
1782	0.0973984
1794	0.0908106
1806	0.0872249
1818	0.0856405
1830	0.0851402
1842	0.0853903
1854	0.0871415
1866	0.0880588
1878	0.0907272
1890	0.0880588
1902	0.0853069
1914	0.0837226
1926	0.0820548
1938	0.0836392
1950	0.0862242
1962	0.0851402
1974	0.0854737
1986	0.0865578
1998	0.0863076
2010	0.0850568
2022	0.0843897
2034	0.0843063
2046	0.0858073
2058	0.0881422
2070	0.0889761
2082	0.0891428
2094	0.0877252
2106	0.0849734
2118	0.0834724
2130	0.0820548
2142	0.0817212
2154	0.0811375
2166	0.0817212
2178	0.0808873
2190	0.0813043
2202	0.0815544
2214	0.0812209
2226	0.0810541
2238	0.0808039
2250	0.0810541
2262	0.0808873
2274	0.0814711
2286	0.0822216
2298	0.0814711
2310	0.0801368
2322	0.0795531
2334	0.0801368
2346	0.0807206
2358	0.0781355
2370	0.0810541
2382	0.0808873
2394	0.0801368
2406	0.0800534
2418	0.0806372
2430	0.0809707
2442	0.0798033
2454	0.0797199
2466	0.0805538
2478	0.0813043
2490	0.0822216
2502	0.0819714
2514	0.0815544
2526	0.0813877
2538	0.0828887
2550	0.0841395
2562	0.0812209
2574	0.0793863
2586	0.0807206
2598	0.0817212
2610	0.0823049
2622	0.0817212
2634	0.081888
2646	0.0823049
2658	0.0808039
2670	0.078886
2682	0.0783023
2694	0.078886
2706	0.0801368
2718	0.0792195
2730	0.0803036
2742	0.0805538
2754	0.0828053
2766	0.0843897
2778	0.0847232
2790	0.0870581
2802	0.0894764
2814	0.0938126
2826	0.102485
2838	0.144346
2850	0.167445
2862	0.130671
2874	0.129753
2886	0.130087
2898	0.154186
2910	0.192045
2922	0.221982
2934	0.236324
2946	0.25442
2958	0.239493
2970	0.196548
2982	0.147348
2994	0.150601
3006	0.22982
3018	0.176701
3030	0.151434
3042	0.15552
3054	0.116328
3066	0.116328
3078	0.123166
3090	0.10557
3102	0.104737
3114	0.0980655
3126	0.0916445
3138	0.0880588
3150	0.0842229
3162	0.0835558
3174	0.0834724
3186	0.0829721
3198	0.0819714
3210	0.0822216
3222	0.0808873
3234	0.0812209
3246	0.0803036
3258	0.0796365
3270	0.0806372
3282	0.0818046
3294	0.0805538
3306	0.0801368
3318	0.0783023
3330	0.0806372
3342	0.0806372
3354	0.0819714
3366	0.0814711
3378	0.0805538
3390	0.0808873
3402	0.0816378
3414	0.0820548
3426	0.0828887
3438	0.0850568
3450	0.0857239
3462	0.0842229
3474	0.0826385
3486	0.0814711
3498	0.0813043
3510	0.080387
3522	0.0818046
3534	0.0809707
3546	0.0804704
3558	0.0807206
3570	0.0822216
3582	0.0810541
3594	0.081888
3606	0.0807206
3618	0.0817212
3630	0.0844731
3642	0.0814711
3654	0.0835558
3666	0.0829721
3678	0.0814711
3690	0.0823049
3702	0.0835558
3714	0.0817212
3726	0.0805538
3738	0.0831388
3750	0.0825551
3762	0.0813043
3774	0.0828887
3786	0.0813877
3798	0.0833056
3810	0.0834724
3822	0.0822216
3834	0.0825551
3846	0.0827219
3858	0.0849734
3870	0.0828887
3882	0.0826385
3894	0.0868913
3906	0.0819714
3918	0.0830554
3930	0.0847232
3942	0.0846398
3954	0.0820548
3966	0.0853069
