Infrared Spectrum: 1,3-Propanediamine, N,N-diethyl-
Formula: C 7 H 18 N 2
CAS: 104-78-9
Origin: Sadtler Research Labs Under US-EPA Contract
1/CM	ABSORBANCE
450	0.00245312
462	0.000551952
474	0.00392499
486	0.0233046
498	0.0222007
510	0.0139215
522	0.0137375
534	0.0237953
546	0.0252671
558	0.00484491
570	0.0202996
582	0.0164972
594	0.0207289
606	0.0198089
618	0.0201156
630	0.0219554
642	0.019257
654	0.0213421
666	0.0252671
678	0.0295601
690	0.0375327
702	0.0440335
714	0.0597335
726	0.0857365
738	0.112598
750	0.139399
762	0.171166
774	0.194164
786	0.175521
798	0.121245
810	0.0872697
822	0.057219
834	0.0484491
846	0.0409671
858	0.0458733
870	0.0393112
882	0.0280269
894	0.0296214
906	0.0278429
918	0.0280882
930	0.0324425
942	0.0278429
954	0.0260031
966	0.0245312
978	0.0311546
990	0.0366741
1002	0.0401085
1014	0.0432976
1026	0.0402925
1038	0.0521901
1050	0.0810756
1062	0.132714
1074	0.183187
1086	0.176809
1098	0.141729
1110	0.0983701
1122	0.076476
1134	0.064701
1146	0.0547659
1158	0.0542753
1170	0.0562991
1182	0.0628612
1194	0.0980021
1206	0.14271
1218	0.0896002
1230	0.0505956
1242	0.0414577
1254	0.0398632
1266	0.0396792
1278	0.0500436
1290	0.0757401
1302	0.0859205
1314	0.0694233
1326	0.0612053
1338	0.0753721
1350	0.100149
1362	0.108305
1374	0.158778
1386	0.185456
1398	0.0989221
1410	0.0380847
1422	0.0283949
1434	0.0340984
1446	0.0578936
1458	0.0894776
1470	0.100026
1482	0.0694233
1494	0.0297441
1506	0.0239792
1518	0.0195636
1530	0.0147187
1542	0.0190117
1554	0.0147187
1566	0.0142281
1578	0.0169265
1590	0.0195023
1602	0.0263097
1614	0.045628
1626	0.057219
1638	0.0371034
1650	0.0205449
1662	0.0131242
1674	0.0105484
1686	0.0125109
1698	0.00932186
1710	0.00680741
1722	0.00680741
1734	0.0096285
1746	0.00711405
1758	0.00717538
1770	0.00625546
1782	0.00588749
1794	0.00717538
1806	0.00551952
1818	0.00515155
1830	0.00625546
1842	0.00484491
1854	0.00374101
1866	0.00429296
1878	0.00275976
1890	0.00361835
1902	0.00226914
1914	0.00214648
1926	0.00214648
1938	0.00183984
1950	0.00159453
1962	0.00159453
1974	0.0015332
1986	0.00134922
1998	0.00141054
2010	0.00147187
2022	0.00141054
2034	0.00122656
2046	0.00190117
2058	0.00122656
2070	0.00171718
2082	0.00165586
2094	0.00171718
2106	0.00159453
2118	0.00171718
2130	0.00104258
2142	0.0015332
2154	0.000551952
2166	0.00122656
2178	0.00177851
2190	0.00134922
2202	0.000858592
2214	0.000797264
2226	0.000858592
2238	0.000735936
2250	0.000858592
2262	0.00141054
2274	0.00141054
2286	0.00171718
2298	0.00141054
2310	0.00128789
2322	0.00165586
2334	0.00030664
2346	0.00030664
2358	0.0019625
2370	0.000429296
2382	0.00183984
2394	0.00190117
2406	0.00147187
2418	0.00251445
2430	0.0019625
2442	0.00239179
2454	0.00251445
2466	0.00159453
2478	0.00208515
2490	0.0026371
2502	0.00257578
2514	0.00361835
2526	0.0041703
2538	0.00564218
2550	0.00674608
2562	0.00760467
2574	0.00968982
2586	0.0111617
2598	0.0118976
2610	0.0125722
2622	0.0146574
2634	0.0171718
2646	0.0207289
2658	0.0253285
2670	0.0295601
2682	0.0350796
2694	0.0400472
2706	0.0483265
2718	0.0604081
2730	0.0704659
2742	0.0770893
2754	0.0915627
2766	0.109654
2778	0.132836
2790	0.202137
2802	0.330865
2814	0.360915
2826	0.278552
2838	0.21152
2850	0.19582
2862	0.209558
2874	0.238137
2886	0.255738
2898	0.235684
2910	0.275424
2922	0.348588
2934	0.493138
2946	0.525029
2958	0.4036
2970	0.515646
2982	0.566364
2994	0.206859
3006	0.0662342
3018	0.0390659
3030	0.0289468
3042	0.0244085
3054	0.0187664
3066	0.0171718
3078	0.0143508
3090	0.0127562
3102	0.0114683
3114	0.00987381
3126	0.00840194
3138	0.00840194
3150	0.00754334
3162	0.0065621
3174	0.00588749
3186	0.00680741
3198	0.00515155
3210	0.00515155
3222	0.00380234
3234	0.00355702
3246	0.0019625
3258	0.00312773
3270	0.00183984
3282	0.00288242
3294	0.00331171
3306	0.00386366
3318	0.00631678
3330	0.00975115
3342	0.0102418
3354	0.00827928
3366	0.00398632
3378	0.0034957
3390	0.00367968
3402	0.00686874
3414	0.00607147
3426	0.0030664
3438	0.00214648
3450	0.00282109
3462	0.0019625
3474	0.00128789
3486	0.00165586
3498	0.00220781
3510	0.00220781
3522	0.00159453
3534	0.00134922
3546	0.00226914
3558	0.00171718
3570	0.00367968
3582	0.00233046
3594	0.00226914
3606	0.00190117
3618	0.00239179
3630	0.00472226
3642	0.0019625
3654	0.00337304
3666	0.00300507
3678	0.00533554
3690	0.00404765
3702	0.00294374
3714	0.00441562
3726	0.00282109
3738	0.00466093
3750	0.00453827
3762	0.00312773
3774	0.00245312
3786	0.00239179
3798	0.00208515
3810	0.00220781
3822	0.00318906
3834	0.00361835
3846	0.0030664
3858	0.00386366
3870	0.00275976
3882	0.0034957
3894	0.00404765
3906	0.00374101
3918	0.00331171
3930	0.00386366
3942	0.00429296
3954	0
3966	0.00030664
