Infrared Spectrum: Benzaldehyde, 4-methyl-
Formula: C 8 H 8 O
CAS: 104-87-0
Origin: Sadtler Research Labs Under US-EPA Contract
1/CM	ABSORBANCE
450	0.16735
462	0.0407998
474	0.063809
486	0.0492207
498	0.138055
510	0.0556253
522	0.0247882
534	0.00379533
546	0.0136395
558	0.0183836
570	0.018858
582	0.0317859
594	0.0411556
606	0.0400882
618	0.0237208
630	0.0117418
642	0.0116232
654	0.00948832
666	0.00996274
678	0.0109116
690	0.00960692
702	0.00913251
714	0.0106744
726	0.0103185
738	0.0322603
750	0.147306
762	0.136632
774	0.0392579
786	0.0729415
798	0.156083
810	0.205304
822	0.10283
834	0.0970181
846	0.156794
858	0.0444765
870	0.00984413
882	0.00770926
894	0.0118604
906	0.00735345
918	0.00569299
930	0.00652322
942	0.0060488
954	0.00806507
966	0.00711624
978	0.00913251
990	0.0129278
1002	0.0156557
1014	0.0253813
1026	0.0224162
1038	0.0132836
1050	0.017079
1062	0.0152999
1074	0.0136395
1086	0.0163674
1098	0.0241952
1110	0.0323789
1122	0.0228906
1134	0.0124534
1146	0.0142325
1158	0.0798205
1170	0.220248
1182	0.101169
1194	0.103779
1206	0.217283
1218	0.122044
1230	0.0156557
1242	0.0100813
1254	0.00830228
1266	0.0106744
1278	0.0288208
1290	0.0491021
1302	0.07816
1314	0.0770926
1326	0.0185022
1338	0.00806507
1350	0.0135209
1362	0.0126906
1374	0.0349882
1386	0.0608439
1398	0.0378347
1410	0.0287022
1422	0.0309556
1434	0.0270417
1446	0.0199255
1458	0.0151813
1470	0.018265
1482	0.0155371
1494	0.0135209
1506	0.0135209
1518	0.0144697
1530	0.0103185
1542	0.00735345
1554	0.0109116
1566	0.0262115
1578	0.0641648
1590	0.102592
1602	0.214792
1614	0.257015
1626	0.135446
1638	0.0509997
1650	0.0244324
1662	0.0212301
1674	0.0397323
1686	0.0888344
1698	0.113978
1710	0.39163
1722	1.18604
1734	0.523874
1746	0.0443579
1758	0.0157743
1770	0.0109116
1782	0.00853949
1794	0.0101999
1806	0.018265
1818	0.0141139
1830	0.00391393
1842	0.00355812
1854	0.00450695
1866	0.00450695
1878	0.00747205
1890	0.00936972
1902	0.0126906
1914	0.0163674
1926	0.0126906
1938	0.00747205
1950	0.00782786
1962	0.00913251
1974	0.00830228
1986	0.0059302
1998	0.00509997
2010	0.00664182
2022	0.00557439
2034	0.00332091
2046	0.0058116
2058	0.00652322
2070	0.00426974
2082	0.00415114
2094	0.00450695
2106	0.00426974
2118	0.00533718
2130	0.00640462
2142	0.00533718
2154	0.00438835
2166	0.00355812
2178	0.00272789
2190	0.00320231
2202	0.00332091
2214	0.00343952
2226	0.00343952
2238	0.00343952
2250	0.0028465
2262	0.00403254
2274	0.00391393
2286	0.00343952
2298	0.00154185
2310	0.000237208
2322	0.00213487
2334	0.00332091
2346	0.000118604
2358	0.00237208
2370	0.000118604
2382	0.000118604
2394	0.0030837
2406	0.00462556
2418	0.00533718
2430	0.00426974
2442	0.00343952
2454	0.00355812
2466	0.00320231
2478	0.00177906
2490	0.00177906
2502	0.0028465
2514	0.00355812
2526	0.00367672
2538	0.00320231
2550	0.00355812
2562	0.00450695
2574	0.00545578
2586	0.0060488
2598	0.00557439
2610	0.00450695
2622	0.00545578
2634	0.00818368
2646	0.00865809
2658	0.0122162
2670	0.0192138
2682	0.0333277
2694	0.0460184
2706	0.07816
2718	0.167587
2730	0.190359
2742	0.102711
2754	0.0472044
2766	0.042816
2778	0.0609625
2790	0.0919181
2802	0.127143
2814	0.155964
2826	0.127381
2838	0.0625043
2850	0.0294138
2862	0.0279905
2874	0.0432905
2886	0.0488648
2898	0.0424602
2910	0.040444
2922	0.0577601
2934	0.0893088
2946	0.0762624
2958	0.0413928
2970	0.0334463
2982	0.03653
2994	0.0460184
3006	0.0574043
3018	0.0741275
3030	0.0998646
3042	0.0964251
3054	0.0810065
3066	0.0768554
3078	0.047323
3090	0.0330905
3102	0.0282278
3114	0.0196883
3126	0.0126906
3138	0.00972553
3150	0.00676043
3162	0.0059302
3174	0.00426974
3186	0.00355812
3198	0.00403254
3210	0.00332091
3222	0.00498137
3234	0.00545578
3246	0.00391393
3258	0.00498137
3270	0.00498137
3282	0.0060488
3294	0.00391393
3306	0.00509997
3318	0.00521858
3330	0.00723484
3342	0.00498137
3354	0.00616741
3366	0.00676043
3378	0.0060488
3390	0.00853949
3402	0.012572
3414	0.0174348
3426	0.0198069
3438	0.0143511
3450	0.0058116
3462	0.00676043
3474	0.00545578
3486	0.00652322
3498	0.00569299
3510	0.00652322
3522	0.00723484
3534	0.00332091
3546	0.00391393
3558	0.00332091
3570	0.00403254
3582	0.00723484
3594	0.00652322
3606	0.00628601
3618	0.00426974
3630	0.00130464
3642	0.00521858
3654	0.00320231
3666	0.00569299
3678	0.0059302
3690	0.0030837
3702	0.000118604
3714	0.00343952
3726	0.00106744
3738	0.00237208
3750	0.00533718
3762	0.000118604
3774	0.00379533
3786	0.00260929
3798	0.00747205
3810	0.000118604
3822	0.00474416
3834	0.00130464
3846	0.00177906
3858	0.00415114
3870	0.00628601
3882	0.00415114
3894	0.00699764
3906	0.0059302
3918	0.00948832
3930	0.00059302
3942	0.00166046
3954	0.00948832
3966	0
