Infrared Spectrum: Benzene, 1-(chloromethyl)-4-methyl-
Formula: C 8 H 9 Cl
CAS: 104-82-5
Origin: Sadtler Research Labs Under US-EPA Contract
1/CM	ABSORBANCE
450	0.130921
462	0.133465
474	0.0806497
486	0.065846
498	0.10193
510	0.174561
522	0.18736
534	0.0471099
546	0.0192757
558	0.0248272
570	0.0256753
582	0.0233622
594	0.0223599
606	0.0239019
618	0.0248272
630	0.0281426
642	0.0464931
654	0.109563
666	0.266776
678	0.421753
690	0.298312
702	0.157676
714	0.320671
726	0.70688
738	0.70102
750	0.629777
762	0.259606
774	0.12668
786	0.15968
798	0.299005
810	0.379347
822	0.286206
834	0.269475
846	0.121206
858	0.0177337
870	0.0144183
882	0.0126449
894	0.0121823
906	0.0104089
918	0.00300702
930	0.00370094
942	0.0051659
954	0.0050117
966	0.00408646
978	0.00393225
990	0.00107944
1002	0.00077103
1014	0.0431777
1026	0.0777969
1038	0.0266776
1050	0.0400936
1062	0.0288365
1074	0.0244417
1086	0.030687
1098	0.0525071
1110	0.102933
1122	0.0926778
1134	0.0415585
1146	0.014958
1158	0.0170398
1170	0.0514277
1182	0.108098
1194	0.0686988
1206	0.128916
1218	0.09129
1230	0.0946825
1242	0.107327
1254	0.212958
1266	0.731399
1278	0.507569
1290	0.137166
1302	0.0963016
1314	0.0581357
1326	0.0406333
1338	0.0305328
1350	0.0354674
1362	0.0324604
1374	0.039708
1386	0.0672338
1398	0.0628389
1410	0.0968414
1422	0.13547
1434	0.144183
1446	0.15968
1458	0.147498
1470	0.117119
1482	0.0944512
1494	0.11311
1506	0.220437
1518	0.51366
1530	0.162071
1542	0.0520445
1554	0.0461076
1566	0.0365468
1578	0.0323062
1590	0.0320748
1602	0.0565165
1614	0.134699
1626	0.118276
1638	0.0465702
1650	0.0330772
1662	0.01943
1674	0.00732478
1686	0.00647665
1698	0.011257
1710	0.041173
1722	0.105091
1734	0.0577501
1746	0.0133388
1758	0.0154977
1770	0.0163458
1782	0.0383202
1794	0.0353132
1806	0.00639955
1818	0.00285281
1830	0.00154206
1842	0.00277571
1854	0.00693927
1866	0.0104089
1878	0.0259837
1890	0.0485749
1902	0.0522758
1914	0.0309183
1926	0.0111028
1938	0.0050117
1950	0.00393225
1962	0.00223599
1974	0.00285281
1986	0.0026986
1998	0.0026215
2010	0.00485749
2022	0.00439487
2034	0.00285281
2046	0.00485749
2058	0.00555142
2070	0.00377805
2082	0.00192757
2094	0.00185047
2106	0.0026986
2118	0.00393225
2130	0.00570562
2142	0.00424067
2154	0.00161916
2166	0.000616824
2178	0.000925236
2190	0.00138785
2202	0.00131075
2214	0.00285281
2226	0.00370094
2238	0.00300702
2250	0.00285281
2262	0.00339253
2274	0.00447197
2286	0.00747899
2298	0.0128762
2310	0.0145725
2322	0.0139556
2334	0.0131846
2346	0.0102547
2358	0.00932946
2370	0.00277571
2382	0.00416356
2394	0.00624534
2406	0.00686217
2418	0.00794161
2430	0.00786451
2442	0.00624534
2454	0.00663086
2466	0.00616824
2478	0.00647665
2490	0.00555142
2502	0.00485749
2514	0.00485749
2526	0.00478039
2538	0.00462618
2550	0.00362384
2562	0.00362384
2574	0.00624534
2586	0.0111799
2598	0.0117197
2610	0.00878974
2622	0.00724768
2634	0.0077103
2646	0.00755609
2658	0.00547431
2670	0.00686217
2682	0.00809581
2694	0.0114883
2706	0.0196613
2718	0.0356987
2730	0.0370094
2742	0.0385515
2754	0.0279884
2766	0.0138785
2778	0.0154977
2790	0.0202781
2802	0.0264463
2814	0.0349277
2826	0.0398623
2838	0.0466473
2850	0.0668483
2862	0.128068
2874	0.252358
2886	0.293608
2898	0.223444
2910	0.208409
2922	0.304634
2934	0.5408
2946	0.46948
2958	0.348043
2970	0.371559
2982	0.32869
2994	0.349662
3006	0.436634
3018	0.490298
3030	0.656532
3042	0.526536
3054	0.408569
3066	0.361382
3078	0.206328
3090	0.128068
3102	0.10594
3114	0.0717829
3126	0.0417898
3138	0.0448739
3150	0.0257524
3162	0.00755609
3174	0.00532011
3186	0.0050117
3198	0.00478039
3210	0.00416356
3222	0.00354674
3234	0.00416356
3246	0.00200468
3258	0.00308412
3270	0.00454908
3282	0.00377805
3294	0.00532011
3306	0.00478039
3318	0.005243
3330	0.00285281
3342	0.00470328
3354	0.00346963
3366	0.00655375
3378	0.00578272
3390	0.00578272
3402	0.0051659
3414	0.0051659
3426	0.00377805
3438	0.00424067
3450	0.00208178
3462	0.0024673
3474	0.00439487
3486	0.0050117
3498	0.00331543
3510	0.00339253
3522	0.00400936
3534	0.00146496
3546	0.00115654
3558	0.0026986
3570	0.00354674
3582	0.00393225
3594	0.00447197
3606	0.00493459
3618	0.00316122
3630	0.00570562
3642	0.00169627
3654	0.00601403
3666	0.00848133
3678	0.00755609
3690	0.011257
3702	0.00616824
3714	0.00547431
3726	0.00616824
3738	0.0050117
3750	0.00539721
3762	0.00277571
3774	0.00447197
3786	0.00447197
3798	0.00593693
3810	0.00377805
3822	0.00493459
3834	0.00609114
3846	0.00462618
3858	0.00470328
3870	0.00894395
3882	0.00693927
3894	0.00909815
3906	0.00848133
3918	0.00794161
3930	0.00616824
3942	0.00578272
3954	0.00647665
3966	0.00917526
