Infrared Spectrum: 1-Piperidinepropanol
Formula: C 8 H 17 N O
CAS: 104-58-5
Origin: Sadtler Research Labs Under US-EPA Contract
1/CM	ABSORBANCE
450	0.0178855
462	0.020428
474	0.0128881
486	0.000263022
498	0.0134141
510	0.0219185
522	0.0157813
534	0.0126251
546	0.0184992
558	0.0139402
570	0.0112223
582	0.0197267
594	0.0207787
606	0.0227952
618	0.0162197
630	0.0120113
642	0.0127127
654	0.00771531
666	0.00429603
678	0.00894275
690	0.00894275
702	0.00859205
714	0.00850438
726	0.011573
738	0.020165
750	0.0305106
762	0.0250748
774	0.0168334
786	0.0108716
798	0.0152553
810	0.0139402
822	0.0121867
834	0.0128881
846	0.0210418
858	0.0376998
870	0.0304229
882	0.0184992
894	0.0168334
906	0.0225322
918	0.0299845
930	0.0326147
942	0.0372615
954	0.0470809
966	0.039804
978	0.0393656
990	0.0424342
1002	0.0430479
1014	0.0707529
1026	0.104595
1038	0.133089
1050	0.132738
1062	0.128179
1074	0.129758
1086	0.122831
1098	0.0903919
1110	0.121165
1122	0.165879
1134	0.0917947
1146	0.0713666
1158	0.106436
1170	0.056199
1182	0.0371738
1194	0.0345436
1206	0.0364724
1218	0.0414698
1230	0.0411191
1242	0.0464672
1254	0.0623362
1266	0.0643527
1278	0.0588293
1290	0.0568128
1302	0.071279
1314	0.0613718
1326	0.0494481
1338	0.059706
1350	0.0910056
1362	0.0765394
1374	0.0742599
1386	0.0643527
1398	0.052166
1410	0.0410314
1422	0.0517277
1434	0.0662815
1446	0.087937
1458	0.096003
1470	0.067509
1482	0.0368231
1494	0.0182362
1506	0.0124497
1518	0.0107839
1530	0.00394533
1542	0.00780299
1554	0.00596183
1566	0.00280557
1578	0.00552346
1590	0.00385766
1602	0.00341929
1614	0.00569881
1626	0.00184115
1638	0.00604951
1650	0.00140278
1662	0.00341929
1674	0.00797833
1686	0.0143785
1698	0.0109593
1710	0.00648788
1722	0.00780299
1734	0.00745229
1746	0.00376998
1758	0.00508509
1770	0.00455905
1782	0.00578648
1794	0.00324394
1806	0.00306859
1818	0.00298092
1830	0.00192883
1842	0.00333161
1854	0.00184115
1866	0.00280557
1878	0.00219185
1890	0.00263022
1902	0.00227952
1914	0.00271789
1926	0.00149046
1938	0.00149046
1950	0.00131511
1962	0.00087674
1974	0.00105209
1986	0.00105209
1998	0.00184115
2010	0.00219185
2022	0.00298092
2034	0.00324394
2046	0.00490974
2058	0.00376998
2070	0.00482207
2082	0.0043837
2094	0.0023672
2106	0.00113976
2118	0.00157813
2130	0.00122744
2142	0.00105209
2154	0.00157813
2166	0.00184115
2178	0.00131511
2190	0.00122744
2202	0.00113976
2214	0.00140278
2226	0.00219185
2238	0.00219185
2250	0.0023672
2262	0.00210418
2274	0.00227952
2286	0.00385766
2298	0.00657555
2310	0.00771531
2322	0.00368231
2334	0.000701392
2346	0.000613718
2358	0.000701392
2370	0.00245487
2382	0.00683857
2394	0.00385766
2406	0.00315626
2418	0.00385766
2430	0.00385766
2442	0.00376998
2454	0.00420835
2466	0.0043837
2478	0.00534811
2490	0.00648788
2502	0.00657555
2514	0.00657555
2526	0.00631253
2538	0.00613718
2550	0.0064002
2562	0.00701392
2574	0.00920577
2586	0.011573
2598	0.0143785
2610	0.0149923
2622	0.0148169
2634	0.015606
2646	0.0202527
2658	0.0278803
2670	0.0418205
2682	0.0508509
2694	0.0551469
2706	0.0558483
2718	0.0611088
2730	0.0789066
2742	0.101
2754	0.12739
2766	0.16737
2778	0.188061
2790	0.202001
2802	0.205859
2814	0.19753
2826	0.162811
2838	0.131248
2850	0.147292
2862	0.210593
2874	0.201475
2886	0.153079
2898	0.15641
2910	0.18657
2922	0.333337
2934	0.62608
2946	0.87674
2958	0.450995
2970	0.18394
2982	0.071805
2994	0.0349819
3006	0.0227952
3018	0.0169211
3030	0.0149046
3042	0.0129758
3054	0.0113976
3066	0.0113976
3078	0.0103455
3090	0.0116606
3102	0.0111346
3114	0.0112223
3126	0.00999484
3138	0.00973181
3150	0.00999484
3162	0.0129758
3174	0.0129758
3186	0.0134141
3198	0.0121867
3210	0.0119237
3222	0.0133264
3234	0.0157813
3246	0.0170964
3258	0.0176225
3270	0.0163074
3282	0.0174471
3294	0.0197267
3306	0.0186746
3318	0.0216555
3330	0.0233213
3342	0.0296338
3354	0.0333161
3366	0.0327901
3378	0.0328777
3390	0.0431356
3402	0.0617225
3414	0.0589169
3426	0.0499742
3438	0.0393656
3450	0.0359463
3462	0.0358587
3474	0.0339298
3486	0.0306859
3498	0.0270913
3510	0.0227952
3522	0.0225322
3534	0.0177101
3546	0.0159567
3558	0.011573
3570	0.0139402
3582	0.0101702
3594	0.0064002
3606	0.00455905
3618	0.0047344
3630	0.00455905
3642	0.00508509
3654	0.011573
3666	0.0207787
3678	0.0164827
3690	0.00613718
3702	0.00113976
3714	0.000613718
3726	0.000701392
3738	0.000613718
3750	0.000350696
3762	0.000613718
3774	0.000701392
3786	0.000964414
3798	0.000964414
3810	0.00113976
3822	0.000613718
3834	0.000613718
3846	0.000613718
3858	0.00306859
3870	0.00412068
3882	0.00306859
3894	0.00482207
3906	0.000526044
3918	0.000613718
3930	0.000613718
3942	0.000263022
3954	0.0047344
3966	0.00271789
