Infrared Spectrum: Benzaldehyde, 4-chloro-
Formula: C 7 H 5 Cl O
CAS: 104-88-1
Origin: Sadtler Research Labs Under US-EPA Contract
1/CM	ABSORBANCE
450	0.0190249
462	0.0309256
474	0.0511648
486	0.0459026
498	0.0298731
510	0.0191868
522	0.0412071
534	0.0689754
546	0.0363497
558	0.0202393
570	0.0170819
582	0.0141675
594	0.0136008
606	0.0173248
618	0.0179725
630	0.017001
642	0.0127912
654	0.015058
666	0.0157057
678	0.0165152
690	0.0214536
702	0.0267158
714	0.0163533
726	0.0141675
738	0.0153818
750	0.01692
762	0.0241252
774	0.0396689
786	0.0239633
798	0.0425024
810	0.129045
822	0.240685
834	0.332814
846	0.0873526
858	0.0255824
870	0.015058
882	0.0157057
894	0.0165962
906	0.0165962
918	0.0154628
930	0.0146532
942	0.0153009
954	0.0180534
966	0.0223441
978	0.0153818
990	0.0137627
1002	0.020644
1014	0.0705945
1026	0.0195106
1038	0.000323828
1050	0.0133579
1062	0.0259062
1074	0.0638751
1086	0.213484
1098	0.279302
1110	0.0559413
1122	0.0295493
1134	0.0211298
1146	0.0172438
1158	0.0608797
1170	0.0995771
1182	0.0612844
1194	0.158514
1206	0.178105
1218	0.0349734
1230	0.0252586
1242	0.0221013
1254	0.018782
1266	0.0252586
1278	0.0397499
1290	0.0476837
1302	0.062094
1314	0.0293064
1326	0.0229108
1338	0.0212107
1350	0.0288207
1362	0.0369164
1374	0.0540793
1386	0.071485
1398	0.043231
1410	0.0297922
1422	0.022506
1434	0.0153009
1446	0.0136817
1458	0.00955293
1470	0.0211298
1482	0.0748043
1494	0.080957
1506	0.0104435
1518	0.0104435
1530	0.0127102
1542	0.00663847
1554	0.0252586
1566	0.0804713
1578	0.143213
1590	0.221741
1602	0.240361
1614	0.0625798
1626	0.02453
1638	0.0264729
1650	0.0293874
1662	0.0348925
1674	0.0328685
1686	0.032059
1698	0.0556984
1710	0.200935
1722	0.80957
1734	0.372888
1746	0.0766663
1758	0.0637132
1770	0.0569937
1782	0.0211298
1794	0.0190249
1806	0.0182963
1818	0.011253
1830	0.00825761
1842	0.00825761
1854	0.007529
1866	0.00850049
1878	0.0102006
1890	0.0111721
1902	0.0160295
1914	0.0136008
1926	0.0100387
1938	0.00850049
1950	0.00760996
1962	0.00680039
1974	0.00671943
1986	0.00671943
1998	0.0080957
2010	0.00704326
2022	0.00793379
2034	0.00817666
2046	0.00550508
2058	0.00445263
2070	0.00453359
2082	0.00493838
2094	0.00388594
2106	0.00380498
2118	0.00323828
2130	0.00315732
2142	0.00307637
2154	0.00291445
2166	0.00291445
2178	0.0028335
2190	0.00275254
2202	0.00267158
2214	0.00259062
2226	0.00242871
2238	0.00291445
2250	0.00331924
2262	0.00372402
2274	0.00356211
2286	0.00356211
2298	0.00493838
2310	0.00574795
2322	0.00566699
2334	0.00429072
2346	0.00558603
2358	0.00615273
2370	0.00510029
2382	0.00453359
2394	0.00331924
2406	0.00372402
2418	0.00202393
2430	0.00178105
2442	0.000971484
2454	0.000404785
2466	0.000728613
2478	0.000161914
2490	0.000161914
2502	0.000485742
2514	0
2526	0.00105244
2538	0.00307637
2550	0.00461455
2562	0.00445263
2574	0.00412881
2586	0.00461455
2598	0.00291445
2610	0.00250967
2622	0.00267158
2634	0.0028335
2646	0.00396689
2658	0.00615273
2670	0.00874336
2682	0.0124674
2694	0.0200773
2706	0.0384546
2718	0.080957
2730	0.0986866
2742	0.0597463
2754	0.0378879
2766	0.0362687
2778	0.0420167
2790	0.0475218
2802	0.0636322
2814	0.0955293
2826	0.0985247
2838	0.0524601
2850	0.0146532
2862	0.00615273
2874	0.00599082
2886	0.0058289
2898	0.00493838
2910	0.00437168
2922	0.00380498
2934	0.00323828
2946	0.00364307
2958	0.00161914
2970	0.0022668
2982	0.00526221
2994	0.00518125
3006	0.00574795
3018	0.00760996
3030	0.0118197
3042	0.0137627
3054	0.0114149
3066	0.0100387
3078	0.0107673
3090	0.0137627
3102	0.0144913
3114	0.007529
3126	0.00461455
3138	0.00348115
3150	0.00364307
3162	0.00275254
3174	0.0028335
3186	0.00323828
3198	0.00242871
3210	0.00242871
3222	0.00202393
3234	0.00218584
3246	0.00218584
3258	0.00186201
3270	0.00250967
3282	0.00210488
3294	0.00291445
3306	0.00250967
3318	0.00250967
3330	0.00218584
3342	0.00242871
3354	0.0022668
3366	0.00323828
3378	0.00429072
3390	0.00445263
3402	0.00550508
3414	0.00801474
3426	0.0147342
3438	0.0119816
3450	0.00429072
3462	0.00194297
3474	0.00186201
3486	0.00218584
3498	0.00275254
3510	0.00242871
3522	0.00372402
3534	0.00307637
3546	0.0028335
3558	0.00315732
3570	0.00372402
3582	0.0174058
3594	0.0126293
3606	0.00396689
3618	0.00210488
3630	0.000323828
3642	0.00412881
3654	0.00315732
3666	0.00526221
3678	0.00161914
3690	0.00380498
3702	0.00728613
3714	0.00704326
3726	0.00890527
3738	0.00728613
3750	0.007529
3762	0.0104435
3774	0.013196
3786	0.0136008
3798	0.0143294
3810	0.0143294
3822	0.0130341
3834	0.0136817
3846	0.0148961
3858	0.0134389
3870	0.0136008
3882	0.0147342
3894	0.0161104
3906	0.0153818
3918	0.0167581
3930	0.0168391
3942	0.0162724
3954	0.00259062
3966	0.00396689
