Infrared Spectrum: .beta.-Phenylethylmethylethylcarbinol
Formula: C 12 H 18 O
CAS: 10415-87-9
Origin: Sadtler Research Labs Under US-EPA Contract
1/CM	ABSORBANCE
450	0.0044987
462	0.0093723
474	0.0144333
486	0.020744
498	0.0308036
510	0.0321782
522	0.0254927
534	0.00662309
546	0.00543593
558	0.000249928
570	0.00581083
582	0.00887244
594	0.00818514
606	0.00368644
618	0.00412381
630	0.00306162
642	0.00531097
654	0.00743536
666	0.0205566
678	0.0543593
690	0.169951
702	0.226872
714	0.110656
726	0.127588
738	0.12915
750	0.110718
762	0.0632943
774	0.027742
786	0.0198693
798	0.0128713
810	0.00974719
822	0.0130587
834	0.0136836
846	0.00774777
858	0.00930982
870	0.0187446
882	0.043425
894	0.0787273
906	0.0900366
918	0.0619821
930	0.0871624
942	0.0912237
954	0.0590455
966	0.0475488
978	0.0454869
990	0.0531722
1002	0.0627319
1014	0.06092
1026	0.093723
1038	0.0940354
1050	0.0799145
1062	0.0681054
1074	0.0644189
1086	0.055484
1098	0.0734788
1110	0.104407
1122	0.124214
1134	0.117591
1146	0.119591
1158	0.118528
1170	0.100596
1182	0.106469
1194	0.115279
1206	0.101033
1218	0.0761031
1230	0.0646064
1242	0.0712295
1254	0.0826012
1266	0.0865376
1278	0.0788523
1290	0.0801644
1302	0.0774152
1314	0.0697299
1326	0.0692925
1338	0.0714169
1350	0.0804143
1362	0.0961598
1374	0.149957
1386	0.156517
1398	0.0673556
1410	0.0356147
1422	0.0326156
1434	0.0454244
1446	0.0924734
1458	0.155393
1470	0.127338
1482	0.0616697
1494	0.118028
1506	0.0895992
1518	0.0147458
1530	0.0146833
1542	0.0143084
1554	0.0115592
1566	0.0103095
1578	0.0188696
1590	0.0339902
1602	0.0805393
1614	0.0547342
1626	0.0125589
1638	0.00924734
1650	0.00818514
1662	0.00781025
1674	0.0079977
1686	0.0132462
1698	0.0151206
1710	0.0173075
1722	0.0179948
1734	0.0212439
1746	0.0146208
1758	0.0111843
1770	0.008685
1782	0.00962223
1794	0.0210564
1806	0.0119341
1818	0.00806018
1830	0.00543593
1842	0.00606075
1854	0.0079977
1866	0.012059
1878	0.0108719
1890	0.00749784
1902	0.00399885
1914	0.00424878
1926	0.00824762
1938	0.0146833
1950	0.0148082
1962	0.00874748
1974	0.00293665
1986	0.00224935
1998	0.00149957
2010	0.00156205
2022	0.00193694
2034	0.00149957
2046	0.00212439
2058	0.000999712
2070	0.00256176
2082	0.00212439
2094	0.00331155
2106	0.00224935
2118	0.00331155
2130	0.0031241
2142	0.00349899
2154	0.0031241
2166	0.00418629
2178	0.00368644
2190	0.00218687
2202	0.00287417
2214	0.00193694
2226	0.00231183
2238	0.00224935
2250	0.00406133
2262	0.0031241
2274	0.00349899
2286	0.00281169
2298	0.00306162
2310	0.00356147
2322	0.00362396
2334	0.00231183
2346	0.00324906
2358	0.0031241
2370	0.000249928
2382	0.00231183
2394	0.00299914
2406	0.00393637
2418	0.00299914
2430	0.00437374
2442	0.0031241
2454	0.00349899
2466	0.00349899
2478	0.00281169
2490	0.00306162
2502	0.00218687
2514	0.00206191
2526	0.00093723
2538	0.00062482
2550	0.00031241
2562	0.00156205
2574	0.00162453
2586	0.00412381
2598	0.00374892
2610	0.00524849
2622	0.00512352
2634	0.00568586
2646	0.00474863
2658	0.00656061
2670	0.00656061
2682	0.00656061
2694	0.00562338
2706	0.00581083
2718	0.00887244
2730	0.0100596
2742	0.0116217
2754	0.00955975
2766	0.0107469
2778	0.0111218
2790	0.0140585
2802	0.015683
2814	0.0204941
2826	0.0262424
2838	0.0371143
2850	0.065856
2862	0.124089
2874	0.149707
2886	0.171513
2898	0.194694
2910	0.193507
2922	0.293415
2934	0.419504
2946	0.45262
2958	0.384202
2970	0.490609
2982	0.566962
2994	0.226622
3006	0.090224
3018	0.0845381
3030	0.204066
3042	0.195944
3054	0.0857878
3066	0.144833
3078	0.186384
3090	0.102096
3102	0.0674806
3114	0.0413006
3126	0.0179323
3138	0.00812266
3150	0.00781025
3162	0.00768529
3174	0.00812266
3186	0.00699798
3198	0.00618572
3210	0.00618572
3222	0.00618572
3234	0.00543593
3246	0.00368644
3258	0.00443622
3270	0.00193694
3282	0.00281169
3294	0.000999712
3306	0.00368644
3318	0.00281169
3330	0.00374892
3342	0.00193694
3354	0.00274921
3366	0.00337403
3378	0.0024368
3390	0.00456119
3402	0.0031241
3414	0.00406133
3426	0.0038114
3438	0.00674806
3450	0.00224935
3462	0.00418629
3474	0.00218687
3486	0.00281169
3498	0.00237432
3510	0.00118716
3522	0.000999712
3534	0.00268673
3546	0.00356147
3558	0.00399885
3570	0.00412381
3582	0.00356147
3594	0.00393637
3606	0.00668557
3618	0.0266798
3630	0.0428002
3642	0.0599202
3654	0.0321157
3666	0.0112468
3678	0.00418629
3690	0.00287417
3702	0.00187446
3714	0.0017495
3726	0.00281169
3738	0.0013746
3750	0.000249928
3762	0.000874748
3774	0.00149957
3786	0.00131212
3798	0.00218687
3810	0.000249928
3822	0.00249928
3834	0.00218687
3846	0.00187446
3858	0.00306162
3870	0.00249928
3882	0.00356147
3894	0.00443622
3906	0.00387388
3918	0.00337403
3930	0.00287417
3942	0.000187446
3954	0.00318658
3966	0.00462367
