Infrared Spectrum: 1,2-Propanediol, 3-decyloxy-,
Formula: C 13 H 28 O 3
CAS: 10430-97-4
Origin: Sadtler Research Labs Under US-EPA Contract
1/CM	ABSORBANCE
450	0.0133833
462	0.0121847
474	0.00739075
486	0.0194756
498	0.00459425
510	0.007191
522	0.0105868
534	0.00699125
546	0.0116854
558	0.0059925
570	0.0142821
582	0.00579275
594	0.00289638
606	0.0099875
618	0.006392
630	0.0059925
642	0.0139825
654	0.0163795
666	0.0221723
678	0.0126841
690	0.0101873
702	0.00898875
714	0.0204744
726	0.0203745
738	0.0153808
750	0.0197753
762	0.0116854
774	0.0133833
786	0.0208739
798	0.0342571
810	0.0284644
822	0.022372
834	0.0234706
846	0.0368539
858	0.0483395
870	0.0473408
882	0.0396504
894	0.0522346
906	0.0492384
918	0.0480399
930	0.0546316
942	0.0534331
954	0.048739
966	0.0536329
978	0.0592259
990	0.070312
1002	0.0858925
1014	0.113158
1026	0.1597
1038	0.200849
1050	0.238102
1062	0.254382
1074	0.225418
1086	0.220025
1098	0.258776
1110	0.332883
1122	0.381922
1134	0.308114
1146	0.165193
1158	0.100474
1170	0.0714106
1182	0.0714106
1194	0.064719
1206	0.0650186
1218	0.0649187
1230	0.0677153
1242	0.0740074
1254	0.078302
1266	0.0793008
1278	0.059126
1290	0.0577278
1302	0.0611235
1314	0.0626216
1326	0.0706116
1338	0.0779025
1350	0.0893881
1362	0.0913856
1374	0.0872908
1386	0.0858925
1398	0.0712109
1410	0.057528
1422	0.0445443
1434	0.0468414
1446	0.0658176
1458	0.0991759
1470	0.0979774
1482	0.0525342
1494	0.0243695
1506	0.015181
1518	0.0123845
1530	0.0106866
1542	0.00689137
1554	0.00749062
1566	0.0043945
1578	0.004794
1590	0.0043945
1602	0.00419475
1614	0.00549312
1626	0.00379525
1638	0.00489387
1650	0.0043945
1662	0.00219725
1674	0.00489387
1686	0.00409488
1698	0.00409488
1710	0.005593
1722	0.00739075
1734	0.00808987
1746	0.0124844
1758	0.0116854
1770	0.00858925
1782	0.00769038
1794	0.011186
1806	0.010387
1818	0.00709113
1830	0.00529338
1842	0.00329588
1854	0.00379525
1866	0.0043945
1878	0.00429462
1890	0.00349563
1902	0.002397
1914	0.00409488
1926	0.00509363
1938	0.0035955
1950	0.00369537
1962	0.00339575
1974	0.00509363
1986	0.0043945
1998	0.0043945
2010	0.00509363
2022	0.005593
2034	0.0059925
2046	0.005593
2058	0.00609237
2070	0.00589263
2082	0.0059925
2094	0.00549312
2106	0.00499375
2118	0.00459425
2130	0.00459425
2142	0.004794
2154	0.00409488
2166	0.00419475
2178	0.00469413
2190	0.003995
2202	0.00419475
2214	0.00349563
2226	0.00339575
2238	0.00369537
2250	0.00409488
2262	0.00389513
2274	0.00389513
2286	0.00499375
2298	0.00789012
2310	0.00898875
2322	0.005593
2334	0.00619225
2346	0.00928837
2358	0.00499375
2370	0.003995
2382	0.00659175
2394	0.00489387
2406	0.00449438
2418	0.0043945
2430	0.00469413
2442	0.0043945
2454	0.00429462
2466	0.00429462
2478	0.004794
2490	0.00469413
2502	0.0051935
2514	0.005593
2526	0.0059925
2538	0.0059925
2550	0.00659175
2562	0.00749062
2574	0.00779025
2586	0.00769038
2598	0.00928837
2610	0.0091885
2622	0.0101873
2634	0.0112859
2646	0.0126841
2658	0.0141823
2670	0.0163795
2682	0.0178776
2694	0.0188764
2706	0.0197753
2718	0.0217728
2730	0.0241698
2742	0.0262671
2754	0.0282646
2766	0.029563
2778	0.0345567
2790	0.0421473
2802	0.0501373
2814	0.0588264
2826	0.075106
2838	0.112359
2850	0.22362
2862	0.458426
2874	0.464319
2886	0.382621
2898	0.341273
2910	0.435055
2922	0.667065
2934	0.99875
2946	0.756853
2958	0.440149
2970	0.346267
2982	0.152309
2994	0.0718101
3006	0.0436454
3018	0.030362
3030	0.0224719
3042	0.0176779
3054	0.0137827
3066	0.0114856
3078	0.009588
3090	0.00848938
3102	0.00659175
3114	0.00509363
3126	0.00579275
3138	0.0051935
3150	0.00429462
3162	0.00489387
3174	0.00459425
3186	0.00469413
3198	0.00419475
3210	0.00299625
3222	0.003995
3234	0.00329588
3246	0.003196
3258	0.00269663
3270	0.0035955
3282	0.00289638
3294	0.00369537
3306	0.00289638
3318	0.00329588
3330	0.00249687
3342	0.0043945
3354	0.00349563
3366	0.0035955
3378	0.00469413
3390	0.00299625
3402	0.00369537
3414	0.00449438
3426	0.0051935
3438	0.003995
3450	0.00449438
3462	0.0051935
3474	0.0043945
3486	0.00509363
3498	0.00489387
3510	0.00499375
3522	0.00779025
3534	0.00789012
3546	0.0121847
3558	0.0176779
3570	0.0334581
3582	0.0331585
3594	0.044744
3606	0.0540324
3618	0.0650186
3630	0.0661173
3642	0.0373532
3654	0.0323595
3666	0.0236704
3678	0.0179775
3690	0.0177778
3702	0.00749062
3714	0.00818975
3726	0.0051935
3738	0.00499375
3750	0.0148814
3762	0.00419475
3774	0.00449438
3786	0.0043945
3798	0.0075905
3810	0.00209737
3822	0.0067915
3834	0.00629212
3846	0.00928837
3858	0.00509363
3870	0.00589263
3882	0.00659175
3894	0.00489387
3906	0.003995
3918	0.010387
3930	0.00409488
3942	0.00209737
3954	0.00968788
3966	0.00848938
