Infrared Spectrum: Benzoic acid, 3,5-dinitro-, isobutyl ester
Formula: C 11 H 12 N 2 O 6
CAS: 10478-01-0
Origin: Sadtler Research Labs Under US-EPA Contract
1/CM	ABSORBANCE
450	0.00448228
462	0.00500347
474	0.0111536
486	0.0183461
498	0.0153231
510	0.0183461
522	0.0240792
534	0.0258513
546	0.0241834
558	0.021786
570	0.021786
582	0.0207436
594	0.0224114
606	0.0206393
618	0.0212648
630	0.021786
642	0.0228283
654	0.0250174
666	0.0241834
678	0.0267894
690	0.0274149
702	0.0347116
714	0.132175
726	0.392773
738	0.139576
750	0.0336692
762	0.028353
774	0.0457609
786	0.0255386
798	0.023975
810	0.0420083
822	0.0301251
834	0.0278318
846	0.0246004
858	0.0238707
870	0.0302293
882	0.0347116
894	0.0334607
906	0.0485754
918	0.105386
930	0.0927727
942	0.0638985
954	0.0496178
966	0.0559763
978	0.11706
990	0.214628
1002	0.0584781
1014	0.0330438
1026	0.0288742
1038	0.0258513
1050	0.0279361
1062	0.0480542
1074	0.134364
1086	0.085476
1098	0.0623349
1110	0.0454482
1122	0.0506602
1134	0.0818276
1146	0.174809
1158	0.496699
1170	0.360667
1182	0.130195
1194	0.0575399
1206	0.0459694
1218	0.0499305
1230	0.0661918
1242	0.109868
1254	0.253509
1266	0.727484
1278	0.79107
1290	0.323766
1302	0.171577
1314	0.170639
1326	0.127901
1338	0.352224
1350	0.672029
1362	0.168554
1374	0.0970465
1386	0.0837039
1398	0.0502432
1410	0.0506602
1422	0.0420083
1434	0.0336692
1446	0.0436761
1458	0.0813064
1470	0.0881862
1482	0.0649409
1494	0.0484711
1506	0.0546212
1518	0.107262
1530	0.0642112
1542	0.104343
1554	0.687456
1566	0.559659
1578	0.0911049
1590	0.10205
1602	0.139472
1614	0.0637943
1626	0.112474
1638	0.0577484
1650	0.0115705
1662	0.0162613
1674	0.0061501
1686	0.00198054
1698	0.00958999
1710	0.0351285
1722	0.0376303
1734	0.0632731
1746	0.411431
1758	0.361918
1770	0.0443016
1782	0.0308547
1794	0.0240792
1806	0.0190757
1818	0.0130299
1830	0.0061501
1842	0.0104239
1854	0.0162613
1866	0.0105281
1878	0.0115705
1890	0.00604586
1902	0.00521195
1914	0.00260597
1926	0.00354413
1938	0.00354413
1950	0.00333565
1962	0.00385684
1974	0.00354413
1986	0.00354413
1998	0.00260597
2010	0.00271021
2022	0.00218902
2034	0.00323141
2046	0.00250174
2058	0.00323141
2070	0.00354413
2082	0.0037526
2094	0.00323141
2106	0.00281445
2118	0.0018763
2130	0.00198054
2142	0.00208478
2154	0.00229326
2166	0.00281445
2178	0.00218902
2190	0.00218902
2202	0.00145935
2214	0.000833912
2226	0.000416956
2238	0.000625434
2250	0.000312717
2262	0.000729673
2274	0.00125087
2286	0.0018763
2298	0.00354413
2310	0.00479499
2322	0.00448228
2334	0.00385684
2346	0.00458652
2358	0.00521195
2370	0.00479499
2382	0.00406532
2394	0.00135511
2406	0.000833912
2418	0.00125087
2430	0.00208478
2442	0.0018763
2454	0.00156359
2466	0.00271021
2478	0.00260597
2490	0.00145935
2502	0.00156359
2514	0.00166782
2526	0.00114663
2538	0.00156359
2550	0.00135511
2562	0.00114663
2574	0.00208478
2586	0.0018763
2598	0.0023975
2610	0.00250174
2622	0.00229326
2634	0.00250174
2646	0.00250174
2658	0.00198054
2670	0.00250174
2682	0.00489923
2694	0.00583738
2706	0.00489923
2718	0.00385684
2730	0.00469076
2742	0.00583738
2754	0.00583738
2766	0.00562891
2778	0.00562891
2790	0.00562891
2802	0.00562891
2814	0.00646282
2826	0.0085476
2838	0.0103197
2850	0.0129256
2862	0.0164698
2874	0.0275191
2886	0.0674426
2898	0.0719249
2910	0.0623349
2922	0.0575399
2934	0.0613968
2946	0.082453
2958	0.109555
2970	0.17533
2982	0.215462
2994	0.0546212
3006	0.0214732
3018	0.0138638
3030	0.00979847
3042	0.0061501
3054	0.00677554
3066	0.00771369
3078	0.0108409
3090	0.0204308
3102	0.0628561
3114	0.0904795
3126	0.0111536
3138	0.00625434
3150	0.00562891
3162	0.00479499
3174	0.00437804
3186	0.00489923
3198	0.00396108
3210	0.00333565
3222	0.00250174
3234	0.00218902
3246	0.00156359
3258	0.00166782
3270	0.00166782
3282	0.00125087
3294	0.00125087
3306	0.00145935
3318	0.00198054
3330	0.00135511
3342	0.00166782
3354	0.00229326
3366	0.00156359
3378	0.0018763
3390	0.00198054
3402	0.0018763
3414	0.0018763
3426	0.0023975
3438	0.00198054
3450	0.00260597
3462	0.00229326
3474	0.00323141
3486	0.0042738
3498	0.000938151
3510	0.000416956
3522	0.00198054
3534	0.00166782
3546	0.0023975
3558	0.000938151
3570	0.000729673
3582	0.000625434
3594	0.00135511
3606	0.00218902
3618	0.00156359
3630	0.00271021
3642	0.00125087
3654	0.00229326
3666	0.000729673
3678	0.00302293
3690	0.00229326
3702	0.00198054
3714	0.00281445
3726	0.00198054
3738	0.00198054
3750	0.00166782
3762	0.00166782
3774	0.00177206
3786	0.0018763
3798	0.00166782
3810	0.000938151
3822	0.00333565
3834	0.00364837
3846	0.00229326
3858	0.00281445
3870	0.00250174
3882	0.00250174
3894	0.00364837
3906	0.00323141
3918	0.00333565
3930	0.00208478
3942	0.00156359
3954	0.0023975
3966	0.00302293
