Infrared Spectrum: Benzoic acid, 3,5-dinitro-, octyl ester
Formula: C 15 H 20 N 2 O 6
CAS: 10478-06-5
Origin: Sadtler Research Labs Under US-EPA Contract
1/CM	ABSORBANCE
450	0.00354176
462	0.00473561
474	0.00521314
486	0.00783961
498	0.00704371
510	0.006407
522	0.00815797
534	0.0101477
546	0.00720289
558	0.00346217
570	0.0031836
582	0.00242749
594	0.00274586
606	0.00342237
618	0.0023479
630	0.00218872
642	0.00374073
654	0.00581007
666	0.00529273
678	0.00596925
690	0.00756105
702	0.0140078
714	0.0565089
726	0.164552
738	0.0448888
750	0.00744167
762	0.00485499
774	0.0185047
786	0.00425807
798	0.00358155
810	0.00382032
822	0.0109436
834	0.00708351
846	0.00533253
858	0.00787941
870	0.00823757
882	0.00807839
894	0.00779982
906	0.0136497
918	0.0434959
930	0.0268616
942	0.0136099
954	0.0211311
966	0.0230413
978	0.019022
990	0.0155201
1002	0.0164751
1014	0.0223648
1026	0.0255882
1038	0.0146048
1050	0.0126548
1062	0.0218475
1074	0.0579017
1086	0.034741
1098	0.0260259
1110	0.0177088
1122	0.019022
1134	0.0278167
1146	0.0545192
1158	0.183853
1170	0.152375
1182	0.0424613
1194	0.0204944
1206	0.0164751
1218	0.0186241
1230	0.0251902
1242	0.041148
1254	0.0934387
1266	0.268179
1278	0.358712
1290	0.132796
1302	0.0636322
1314	0.0614833
1326	0.0613241
1338	0.162443
1350	0.252937
1362	0.0673729
1374	0.0299258
1386	0.0230811
1398	0.0154803
1410	0.0149231
1422	0.0138089
1434	0.0168333
1446	0.025429
1458	0.0477142
1470	0.042899
1482	0.025827
1494	0.0214495
1506	0.0250709
1518	0.0461224
1530	0.0432174
1542	0.109118
1554	0.281788
1566	0.190618
1578	0.0358155
1590	0.0373675
1602	0.0489081
1614	0.02718
1626	0.0496244
1638	0.0210516
1650	0.00194995
1662	0.00596925
1674	0.00206934
1686	0.00417848
1698	0.00708351
1710	0.019221
1722	0.0375267
1734	0.088902
1746	0.165428
1758	0.116321
1770	0.0158782
1782	0.0122967
1794	0.00660597
1806	0.00505397
1818	0.00409889
1830	0.00171119
1842	0.00429786
1854	0.00509376
1866	0.00382032
1878	0.00386011
1890	0.00139283
1902	0.00135303
1914	0.000835695
1926	0.00123365
1938	0.00139283
1950	0.00194995
1962	0.00191016
1974	0.00214893
1986	0.00206934
1998	0.00202955
2010	0.00214893
2022	0.00222852
2034	0.00230811
2046	0.0023877
2058	0.00270606
2070	0.00266627
2082	0.00282545
2094	0.00226831
2106	0.00214893
2118	0.00183057
2130	0.00187037
2142	0.00187037
2154	0.00179078
2166	0.00198975
2178	0.00191016
2190	0.00214893
2202	0.00167139
2214	0.00151221
2226	0.00139283
2238	0.00143262
2250	0.00167139
2262	0.00175098
2274	0.0023479
2286	0.00386011
2298	0.00684474
2310	0.0101875
2322	0.0104263
2334	0.0102273
2346	0.0125354
2358	0.0108242
2370	0.0107844
2382	0.00684474
2394	0.00214893
2406	0.00183057
2418	0.00210914
2430	0.00210914
2442	0.0023479
2454	0.00226831
2466	0.00274586
2478	0.00254688
2490	0.00214893
2502	0.00226831
2514	0.00226831
2526	0.00198975
2538	0.00246729
2550	0.00242749
2562	0.0023479
2574	0.00306421
2586	0.00282545
2598	0.0031836
2610	0.00326319
2622	0.00346217
2634	0.00358155
2646	0.00417848
2658	0.00401929
2670	0.00401929
2682	0.00493458
2694	0.00584987
2706	0.00565089
2718	0.00505397
2730	0.00525294
2742	0.00573048
2754	0.00600905
2766	0.006407
2778	0.00668556
2790	0.00720289
2802	0.00815797
2814	0.00982936
2826	0.0127344
2838	0.0182261
2850	0.0338258
2862	0.0574242
2874	0.0536039
2886	0.046202
2898	0.0491468
2910	0.0626771
2922	0.0945529
2934	0.135462
2946	0.110909
2958	0.0771227
2970	0.0777992
2982	0.0415062
2994	0.0292891
3006	0.0168731
3018	0.0110232
3030	0.00843654
3042	0.00684474
3054	0.00720289
3066	0.00779982
3078	0.0100283
3090	0.0173904
3102	0.0356165
3114	0.0358155
3126	0.00720289
3138	0.00489479
3150	0.00401929
3162	0.00374073
3174	0.00322339
3186	0.00326319
3198	0.00302442
3210	0.00270606
3222	0.00250709
3234	0.00222852
3246	0.00210914
3258	0.00222852
3270	0.00226831
3282	0.00230811
3294	0.00210914
3306	0.00210914
3318	0.0023877
3330	0.00214893
3342	0.00202955
3354	0.00258668
3366	0.00222852
3378	0.00246729
3390	0.00270606
3402	0.00262647
3414	0.00258668
3426	0.00326319
3438	0.00290504
3450	0.00298462
3462	0.00274586
3474	0.00278565
3486	0.00401929
3498	0.00218872
3510	0.00183057
3522	0.00326319
3534	0.00222852
3546	0.00409889
3558	0.00362135
3570	0.00378053
3582	0.00202955
3594	0.00509376
3606	0.00342237
3618	0.00445704
3630	0.00628761
3642	0.00401929
3654	0.00413868
3666	0.00135303
3678	0.00827736
3690	0.00290504
3702	0.00409889
3714	0.00509376
3726	0.00433766
3738	0.00465602
3750	0.00378053
3762	0.0039397
3774	0.00326319
3786	0.00322339
3798	0.00262647
3810	0.00206934
3822	0.00652638
3834	0.00533253
3846	0.00465602
3858	0.00565089
3870	0.00561109
3882	0.00604884
3894	0.00497438
3906	0.00604884
3918	0.00573048
3930	0.00358155
3942	0.00350196
3954	0.00330299
3966	0.00294483
