Infrared Spectrum: Benzoic acid, 3,5-dinitro-, hexyl ester
Formula: C 13 H 16 N 2 O 6
CAS: 10478-04-3
Origin: Sadtler Research Labs Under US-EPA Contract
1/CM	ABSORBANCE
450	0.00658145
462	0.00494884
474	0.00494884
486	0.00877527
498	0.00800998
510	0.00903036
522	0.00821406
534	0.00959157
546	0.00647941
558	0.00525496
570	0.00683655
582	0.00433662
594	0.00525496
606	0.0032142
618	0.00464273
630	0.00413254
642	0.00561209
654	0.00749979
666	0.00693858
678	0.00637738
690	0.00892833
702	0.0141323
714	0.0613759
726	0.190046
738	0.064335
750	0.0130098
762	0.00933648
774	0.02153
786	0.00821406
798	0.00739775
810	0.00795896
822	0.0159179
834	0.0118874
846	0.00892833
858	0.00933648
870	0.010714
882	0.0138261
894	0.0145914
906	0.0220912
918	0.0496925
930	0.0388765
942	0.0205096
954	0.0204076
966	0.0252544
978	0.0342337
990	0.0337746
1002	0.0288257
1014	0.0230096
1026	0.0218872
1038	0.0192852
1050	0.0198974
1062	0.0291829
1074	0.0722429
1086	0.0448457
1098	0.0328052
1110	0.0247952
1122	0.0286727
1134	0.0397948
1146	0.0707634
1158	0.228565
1170	0.203923
1182	0.0513761
1194	0.0290298
1206	0.0256626
1218	0.0256115
1230	0.0332644
1242	0.0555597
1254	0.117752
1266	0.341521
1278	0.458304
1290	0.165455
1302	0.0822426
1314	0.0788754
1326	0.0699981
1338	0.180964
1350	0.322542
1362	0.0840283
1374	0.0358664
1386	0.0310196
1398	0.0209178
1410	0.0210708
1422	0.0189791
1434	0.0198464
1446	0.0272952
1458	0.0467844
1470	0.0469375
1482	0.0312746
1494	0.0240299
1506	0.0265809
1518	0.0546924
1530	0.0381622
1542	0.0753551
1554	0.337032
1566	0.269737
1578	0.0462232
1590	0.0487742
1602	0.0676512
1614	0.0329073
1626	0.0556107
1638	0.0277033
1650	0.00204076
1662	0.00877527
1674	0.00219382
1686	0.00260197
1698	0.00418356
1710	0.0203056
1722	0.0281115
1734	0.0540291
1746	0.221984
1758	0.163414
1770	0.0233157
1782	0.0181117
1794	0.0101528
1806	0.00765285
1818	0.00642839
1830	0.0029591
1842	0.00612228
1854	0.00749979
1866	0.00551005
1878	0.00596922
1890	0.00249993
1902	0.00255095
1914	0.00158159
1926	0.0018877
1938	0.00198974
1950	0.00265299
1962	0.00244891
1974	0.00255095
1986	0.00239789
1998	0.00204076
2010	0.00224484
2022	0.00219382
2034	0.00255095
2046	0.00244891
2058	0.00290808
2070	0.0029591
2082	0.0029591
2094	0.00265299
2106	0.00239789
2118	0.00204076
2130	0.00219382
2142	0.0021428
2154	0.00219382
2166	0.00255095
2178	0.00198974
2190	0.00249993
2202	0.00198974
2214	0.00198974
2226	0.00183668
2238	0.00198974
2250	0.0021428
2262	0.00260197
2274	0.0029591
2286	0.00520394
2298	0.00954055
2310	0.0137751
2322	0.0128058
2334	0.0103569
2346	0.0142853
2358	0.0117854
2370	0.0119384
2382	0.00872425
2394	0.00204076
2406	0.00173465
2418	0.00183668
2430	0.00168363
2442	0.00204076
2454	0.00163261
2466	0.00204076
2478	0.0021428
2490	0.00142853
2502	0.00163261
2514	0.00142853
2526	0.000714266
2538	0.00127548
2550	0.00147955
2562	0.00142853
2574	0.0018877
2586	0.00193872
2598	0.00224484
2610	0.00239789
2622	0.00219382
2634	0.00244891
2646	0.00270401
2658	0.00249993
2670	0.00290808
2682	0.0040305
2694	0.00469375
2706	0.00454069
2718	0.00377541
2730	0.00397948
2742	0.00454069
2754	0.00494884
2766	0.00484681
2778	0.00505088
2790	0.00535699
2802	0.00622432
2814	0.00704062
2826	0.00948953
2838	0.0123976
2850	0.0204076
2862	0.0389275
2874	0.0486211
2886	0.0462742
2898	0.0445906
2910	0.0504068
2922	0.0692328
2934	0.107497
2946	0.111732
2958	0.0794876
2970	0.104181
2982	0.0570392
2994	0.0328562
3006	0.0182648
3018	0.0110711
3030	0.00800998
3042	0.00663247
3054	0.00632636
3066	0.00637738
3078	0.00816304
3090	0.0135711
3102	0.0337746
3114	0.0451008
3126	0.00658145
3138	0.00408152
3150	0.00372439
3162	0.00316318
3174	0.00270401
3186	0.00285706
3198	0.00265299
3210	0.0021428
3222	0.00209178
3234	0.00158159
3246	0.00142853
3258	0.0018877
3270	0.00173465
3282	0.00173465
3294	0.00178567
3306	0.00142853
3318	0.00173465
3330	0.00127548
3342	0.00168363
3354	0.00209178
3366	0.00224484
3378	0.00209178
3390	0.00239789
3402	0.00209178
3414	0.00260197
3426	0.00244891
3438	0.0021428
3450	0.00301012
3462	0.00249993
3474	0.00280605
3486	0.0042856
3498	0.00183668
3510	0.00173465
3522	0.00316318
3534	0.00265299
3546	0.00464273
3558	0.00346929
3570	0.00392846
3582	0.00193872
3594	0.00505088
3606	0.00336725
3618	0.00443865
3630	0.0061733
3642	0.00392846
3654	0.00433662
3666	0.000765285
3678	0.00816304
3690	0.00249993
3702	0.00362235
3714	0.00484681
3726	0.00530598
3738	0.00336725
3750	0.00265299
3762	0.00352031
3774	0.00285706
3786	0.00239789
3798	0.00249993
3810	0.00168363
3822	0.00607126
3834	0.00454069
3846	0.00525496
3858	0.00505088
3870	0.00586719
3882	0.00632636
3894	0.00408152
3906	0.00566311
3918	0.00520394
3930	0.00413254
3942	0.00301012
3954	0.00249993
3966	0.00367337
