Infrared Spectrum: Benzoic acid, 3,5-dinitro-, pentyl ester
Formula: C 12 H 14 N 2 O 6
CAS: 10478-03-2
Origin: Sadtler Research Labs Under US-EPA Contract
1/CM	ABSORBANCE
450	0.0100736
462	0.013813
474	0.019613
486	0.0200708
498	0.0240392
510	0.0248024
522	0.0270918
534	0.0280076
546	0.0232761
558	0.0190788
570	0.0212156
582	0.0192314
594	0.0209103
606	0.0223603
618	0.0226656
630	0.0219787
642	0.0286181
654	0.0353338
666	0.0344944
678	0.0333497
690	0.0378522
702	0.0563968
714	0.163161
726	0.352423
738	0.107909
750	0.0300681
762	0.0288471
774	0.0699045
786	0.026405
798	0.0210629
810	0.0309076
822	0.0453311
834	0.0331207
846	0.0302971
858	0.0396075
870	0.0447969
882	0.0418206
894	0.0407522
906	0.0588389
918	0.134238
930	0.0876859
942	0.0499863
954	0.0628072
966	0.109283
978	0.0998963
990	0.0541073
1002	0.0515126
1014	0.0618152
1026	0.0660888
1038	0.0586099
1050	0.0509784
1062	0.0679967
1074	0.156293
1086	0.101804
1098	0.0811992
1110	0.0613573
1122	0.0673861
1134	0.0904333
1146	0.15408
1158	0.374401
1170	0.356086
1182	0.109054
1194	0.0576941
1206	0.0538021
1218	0.0625783
1230	0.078986
1242	0.12012
1254	0.226579
1266	0.535579
1278	0.695077
1290	0.297018
1302	0.163848
1314	0.153927
1326	0.165604
1338	0.339602
1350	0.502076
1362	0.15843
1374	0.0760861
1386	0.0700572
1398	0.0521995
1410	0.0444153
1422	0.0417443
1434	0.0509021
1446	0.0704387
1458	0.119509
1470	0.109436
1482	0.0751703
1494	0.0666993
1506	0.0729571
1518	0.114091
1530	0.12447
1542	0.230548
1554	0.541302
1566	0.387528
1578	0.0818097
1590	0.0866938
1602	0.109817
1614	0.0674625
1626	0.132101
1638	0.0465522
1650	0
1662	0.0133551
1674	0.0122104
1686	0.018163
1698	0.0321286
1710	0.0660888
1722	0.120883
1734	0.196587
1746	0.340899
1758	0.227419
1770	0.0393785
1782	0.029305
1794	0.016484
1806	0.012592
1818	0.0114473
1830	0.0076315
1842	0.0115236
1854	0.0151867
1866	0.0114473
1878	0.0112946
1890	0.00534205
1902	0.00434995
1914	0.0030526
1926	0.00366312
1938	0.00427364
1950	0.00534205
1962	0.00496048
1974	0.00549468
1986	0.00587626
1998	0.00549468
2010	0.00587626
2022	0.00572363
2034	0.00641046
2046	0.00625783
2058	0.00686835
2070	0.00724992
2082	0.00793676
2094	0.00717361
2106	0.00663941
2118	0.00595257
2130	0.0061052
2142	0.0061052
2154	0.00671572
2166	0.00686835
2178	0.00686835
2190	0.00694467
2202	0.00625783
2214	0.00587626
2226	0.00564731
2238	0.005571
2250	0.00587626
2262	0.00618152
2274	0.00686835
2286	0.00816571
2298	0.0110657
2310	0.0137367
2322	0.0135841
2334	0.0109894
2346	0.0134314
2358	0.0119051
2370	0.0101499
2382	0.0113709
2394	0.00702098
2406	0.00679204
2418	0.00717361
2430	0.00831833
2442	0.00839465
2454	0.00839465
2466	0.00885254
2478	0.00816571
2490	0.00702098
2502	0.00770782
2514	0.00808939
2526	0.00747887
2538	0.00709729
2550	0.00724992
2562	0.00755519
2574	0.00770782
2586	0.00824202
2598	0.00885254
2610	0.00892886
2622	0.00953938
2634	0.00923412
2646	0.00908149
2658	0.00938675
2670	0.0106841
2682	0.0129736
2694	0.0139656
2706	0.0130499
2718	0.0125157
2730	0.0132025
2742	0.0147288
2754	0.0150341
2766	0.0154156
2778	0.0164077
2790	0.0172472
2802	0.0186972
2814	0.0217498
2826	0.0267103
2838	0.0333497
2850	0.0491469
2862	0.0751703
2874	0.0939438
2886	0.0922648
2898	0.090357
2910	0.0969201
2922	0.117983
2934	0.152935
2946	0.162093
2958	0.149577
2970	0.177738
2982	0.113404
2994	0.0690651
3006	0.0415154
3018	0.0281602
3030	0.0217498
3042	0.0201472
3054	0.0199945
3066	0.0244208
3078	0.0351812
3090	0.0586862
3102	0.101194
3114	0.0909675
3126	0.0224366
3138	0.0153393
3150	0.0134314
3162	0.0117525
3174	0.0112946
3186	0.0103025
3198	0.00969201
3210	0.00877623
3222	0.00824202
3234	0.00793676
3246	0.00770782
3258	0.00755519
3270	0.00755519
3282	0.00801307
3294	0.00778413
3306	0.00770782
3318	0.00770782
3330	0.00786045
3342	0.0076315
3354	0.00801307
3366	0.0086236
3378	0.00793676
3390	0.00885254
3402	0.00900517
3414	0.00885254
3426	0.00908149
3438	0.0101499
3450	0.0108367
3462	0.0103788
3474	0.00953938
3486	0.0101499
3498	0.00808939
3510	0.00778413
3522	0.00816571
3534	0.00854728
3546	0.00984464
3558	0.00885254
3570	0.00961569
3582	0.00961569
3594	0.00854728
3606	0.00892886
3618	0.00839465
3630	0.00747887
3642	0.00931043
3654	0.00999726
3666	0.00778413
3678	0.0086236
3690	0.0104552
3702	0.00938675
3714	0.00877623
3726	0.00923412
3738	0.0122867
3750	0.00679204
3762	0.00808939
3774	0.00900517
3786	0.00938675
3798	0.0112183
3810	0.00732624
3822	0.00953938
3834	0.00999726
3846	0.00786045
3858	0.00869991
3870	0.0102262
3882	0.00877623
3894	0.0120578
3906	0.0086236
3918	0.0115236
3930	0.0112946
3942	0.0108367
3954	0.00969201
3966	0.00999726
