Infrared Spectrum: Tetradecanoic acid, pentyl ester
Formula: C 19 H 38 O 2
CAS: 10484-35-2
Origin: Sadtler Research Labs Under US-EPA Contract
1/CM	ABSORBANCE
450	0
462	0.0200303
474	0.0220544
486	0.0165302
498	0.0137049
510	0.0143796
522	0.0167833
534	0.0131146
546	0.0153073
558	0.011217
570	0.00885549
582	0.0128194
594	0.0134941
606	0.0126507
618	0.0129881
630	0.011217
642	0.0115543
654	0.0128615
666	0.0112591
678	0.0104579
690	0.011976
702	0.0135362
714	0.0214219
726	0.0203676
738	0.0205785
750	0.0188495
762	0.0169941
774	0.0175845
786	0.015729
798	0.0161929
810	0.0156869
822	0.0167833
834	0.015729
846	0.0158134
858	0.015729
870	0.0160664
882	0.0163194
894	0.0162772
906	0.0165724
918	0.0156869
930	0.0157712
942	0.0159821
954	0.0166989
966	0.0199038
978	0.0264821
990	0.0296026
1002	0.0275364
1014	0.0263135
1026	0.0275785
1038	0.0311629
1050	0.0346629
1062	0.0335665
1074	0.0366449
1086	0.0371087
1098	0.0376991
1110	0.0485787
1122	0.0501811
1134	0.051151
1146	0.0750187
1158	0.0983803
1170	0.107404
1182	0.0975369
1194	0.0776331
1206	0.0702536
1218	0.0701692
1230	0.0735006
1242	0.0757777
1254	0.0684825
1266	0.0537233
1278	0.0457534
1290	0.0427594
1302	0.0412835
1314	0.0386268
1326	0.0354641
1338	0.0367714
1350	0.0452895
1362	0.0401871
1374	0.0323858
1386	0.0333135
1398	0.0250484
1410	0.0215905
1422	0.02197
1434	0.0293918
1446	0.035675
1458	0.0482413
1470	0.0505606
1482	0.0277472
1494	0.0185122
1506	0.0141266
1518	0.0121025
1530	0.0141266
1542	0.011723
1554	0.0127772
1566	0.0139579
1578	0.0145483
1590	0.0137471
1602	0.0139158
1614	0.0123977
1626	0.0148857
1638	0.0120182
1650	0.0155604
1662	0.0132832
1674	0.0153917
1686	0.0129037
1698	0.0180062
1710	0.0239098
1722	0.0320906
1734	0.0501389
1746	0.125706
1758	0.160664
1770	0.0584462
1782	0.0331448
1794	0.023446
1806	0.0186809
1818	0.0164037
1830	0.0150965
1842	0.0142531
1854	0.0146748
1866	0.0141688
1878	0.0141266
1890	0.0139579
1902	0.0141688
1914	0.0140423
1926	0.0140844
1938	0.0140423
1950	0.0138736
1962	0.0135784
1974	0.0133676
1986	0.0132411
1998	0.0134097
2010	0.0138736
2022	0.014211
2034	0.0143796
2046	0.0144218
2058	0.014717
2070	0.0141688
2082	0.0141266
2094	0.0142953
2106	0.014464
2118	0.0145905
2130	0.0143375
2142	0.0139158
2154	0.0139579
2166	0.0140844
2178	0.0139158
2190	0.0138314
2202	0.014211
2214	0.0145483
2226	0.0141688
2238	0.0143375
2250	0.0144218
2262	0.0141688
2274	0.0141266
2286	0.0133254
2298	0.0109218
2310	0.00818079
2322	0.00742174
2334	0.00742174
2346	0.00767476
2358	0.00742174
2370	0.00737958
2382	0.0126085
2394	0.0142531
2406	0.0139158
2418	0.0138736
2430	0.0140844
2442	0.0137893
2454	0.014464
2466	0.014211
2478	0.0143375
2490	0.0146326
2502	0.0145061
2514	0.0146326
2526	0.0153073
2538	0.0149278
2550	0.0146748
2562	0.0141266
2574	0.014211
2586	0.0150543
2598	0.0153073
2610	0.015476
2622	0.0158134
2634	0.0160242
2646	0.0164881
2658	0.0169519
2670	0.0173736
2682	0.0181748
2694	0.0182592
2706	0.017711
2718	0.0175001
2730	0.0178797
2742	0.01847
2754	0.0180905
2766	0.0180062
2778	0.0188917
2790	0.0200724
2802	0.0220122
2814	0.024964
2826	0.0295183
2838	0.0372352
2850	0.0640547
2862	0.163363
2874	0.138694
2886	0.106983
2898	0.0971995
2910	0.140844
2922	0.242514
2934	0.42169
2946	0.294424
2958	0.182297
2970	0.192544
2982	0.0965248
2994	0.050645
3006	0.0334822
3018	0.0269882
3030	0.023446
3042	0.0209158
3054	0.0193977
3066	0.0182592
3078	0.0178797
3090	0.0173315
3102	0.0169941
3114	0.0164459
3126	0.0161507
3138	0.0157712
3150	0.0156869
3162	0.0152652
3174	0.0152652
3186	0.0152652
3198	0.0151808
3210	0.0148013
3222	0.01497
3234	0.0152652
3246	0.0145905
3258	0.0148013
3270	0.0145483
3282	0.0146326
3294	0.0155604
3306	0.015476
3318	0.0151387
3330	0.0150122
3342	0.0148013
3354	0.0148857
3366	0.0140001
3378	0.0139579
3390	0.0147592
3402	0.014211
3414	0.0144218
3426	0.0145061
3438	0.0137893
3450	0.0131567
3462	0.014211
3474	0.0143375
3486	0.0145483
3498	0.0141266
3510	0.0130302
3522	0.0133254
3534	0.0136206
3546	0.0119338
3558	0.0140844
3570	0.012735
3582	0.0156869
3594	0.0115543
3606	0.0140423
3618	0.0115543
3630	0.00906634
3642	0.0137471
3654	0.0130724
3666	0.0160242
3678	0.0072109
3690	0.0131989
3702	0.0128615
3714	0.0119338
3726	0.0102892
3738	0.00957236
3750	0.0142953
3762	0.0124399
3774	0.0133676
3786	0.014464
3798	0.0113013
3810	0.0176266
3822	0.0113856
3834	0.012735
3846	0.0147592
3858	0.0119338
3870	0.0120603
3882	0.0128615
3894	0.0120603
3906	0.0117652
3918	0.0129881
3930	0.0128615
3942	0.0142953
3954	0.0143375
3966	0.0142531
