Infrared Spectrum: Propionic acid, 2-benzoyl-, ethyl ester
Formula: C 12 H 14 O 3
CAS: 10488-87-6
Origin: Sadtler Research Labs Under US-EPA Contract
1/CM	ABSORBANCE
450	0.000326627
462	0.00788571
474	0.00774573
486	0.00620591
498	0.00601927
510	0.00186644
522	0.000653254
534	0.00443279
546	0.002753
558	0.00620591
570	0.00895891
582	0.0196909
594	0.0188977
606	0.0113386
618	0.0130651
630	0.0132051
642	0.0159581
654	0.0369089
666	0.0503006
678	0.0482941
690	0.153561
702	0.11348
714	0.0669585
726	0.0526803
738	0.0297231
750	0.0239838
762	0.0424615
774	0.0439547
786	0.0299564
798	0.0148382
810	0.0116653
822	0.0106854
834	0.0110587
846	0.0153048
858	0.0306096
870	0.0233772
882	0.0154448
894	0.0238904
906	0.0163314
918	0.0189444
930	0.0325694
942	0.0707381
954	0.180251
966	0.158367
978	0.0673785
990	0.0303763
1002	0.0539868
1014	0.0500673
1026	0.0903824
1038	0.114553
1050	0.0918288
1062	0.104474
1074	0.173766
1086	0.171199
1098	0.167933
1110	0.13359
1122	0.102934
1134	0.115159
1146	0.208015
1158	0.2753
1170	0.259342
1182	0.336799
1194	0.299144
1206	0.311649
1218	0.40945
1230	0.356163
1242	0.321821
1254	0.239044
1266	0.222433
1278	0.195696
1290	0.168633
1302	0.195696
1314	0.19579
1326	0.191777
1338	0.13975
1350	0.0704114
1362	0.0528669
1374	0.0879093
1386	0.0839898
1398	0.0367222
1410	0.0224906
1422	0.0218373
1434	0.0353224
1446	0.107787
1458	0.124445
1470	0.0734444
1482	0.0328027
1494	0.0180111
1506	0.0102188
1518	0.00788571
1530	0.00886559
1542	0.0104054
1554	0.0122252
1566	0.0180578
1578	0.0393819
1590	0.0515137
1602	0.0581863
1614	0.0327094
1626	0.0342492
1638	0.0350424
1650	0.0387753
1662	0.052447
1674	0.0783438
1686	0.158041
1698	0.313935
1710	0.46661
1722	0.206242
1734	0.202555
1746	0.344731
1758	0.431988
1770	0.280433
1782	0.0813768
1794	0.0320561
1806	0.0185711
1818	0.0105454
1830	0.00331293
1842	0.000653254
1854	0.000279966
1866	0.000279966
1878	0.000746576
1890	0.00387286
1902	0.00597261
1914	0.00587929
1926	0.00331293
1938	0.00303296
1950	0.00503939
1962	0.00797903
1974	0.00606593
1986	0.00228639
1998	0.00102654
2010	0.00102654
2022	0.00135317
2034	0.00163313
2046	0.00163313
2058	0.00144649
2070	0.00135317
2082	0.00116653
2094	0.00149315
2106	0.00111986
2118	0.000746576
2130	0.000279966
2142	0.000233305
2154	0.000373288
2166	0.000326627
2178	0.000419949
2190	0.000326627
2202	4.6661e-05
2214	4.6661e-05
2226	0.000653254
2238	0.000979881
2250	0.00163313
2262	0.00177312
2274	0.00200642
2286	0.00228639
2298	0.00293964
2310	0.00443279
2322	0.00648588
2334	0.00569264
2346	0.00517937
2358	0.00433947
2370	0.00368622
2382	0.00354624
2394	0.002753
2406	0.00279966
2418	0.00251969
2430	0.00270634
2442	0.002753
2454	0.00256635
2466	0.00284632
2478	0.00247303
2490	0.00233305
2502	0.00205308
2514	0.00242637
2526	0.00214641
2538	0.00265968
2550	0.00279966
2562	0.00284632
2574	0.00270634
2586	0.00303296
2598	0.0038262
2610	0.00377954
2622	0.00331293
2634	0.0029863
2646	0.00303296
2658	0.00317295
2670	0.00312629
2682	0.0029863
2694	0.00307963
2706	0.00349957
2718	0.00401285
2730	0.00438613
2742	0.00527269
2754	0.00541268
2766	0.00559932
2778	0.00653254
2790	0.0074191
2802	0.00816568
2814	0.00914556
2826	0.0111053
2838	0.0123185
2850	0.0157248
2862	0.0185711
2874	0.02725
2886	0.0465677
2898	0.0454012
2910	0.0485274
2922	0.0513271
2934	0.068685
2946	0.128271
2958	0.102281
2970	0.0864628
2982	0.134057
2994	0.175912
3006	0.103587
3018	0.0475942
3030	0.0379821
3042	0.0416216
3054	0.0356023
3066	0.0582329
3078	0.0774106
3090	0.0423215
3102	0.0320094
3114	0.0164247
3126	0.00704581
3138	0.00494607
3150	0.005506
3162	0.00578596
3174	0.00545934
3186	0.00354624
3198	0.00345291
3210	0.0029863
3222	0.00247303
3234	0.00233305
3246	0.00219307
3258	0.00205308
3270	0.00200642
3282	0.00177312
3294	0.00228639
3306	0.00205308
3318	0.00181978
3330	0.00163313
3342	0.00237971
3354	0.00153981
3366	0.00312629
3378	0.00312629
3390	0.00480608
3402	0.00461944
3414	0.00293964
3426	0.00153981
3438	0.00172646
3450	0.002753
3462	0.00345291
3474	0.00237971
3486	0.00247303
3498	0.00200642
3510	0.00149315
3522	0.00116653
3534	0.000606593
3546	0.000233305
3558	0.00153981
3570	0.00144649
3582	0.00321961
3594	0.00391952
3606	0.00135317
3618	0.00172646
3630	0.00303296
3642	0.00261302
3654	0.00205308
3666	0.00233305
3678	0.00312629
3690	0.00303296
3702	0.00289298
3714	0.00396618
3726	0.00312629
3738	0.00242637
3750	0.00307963
3762	0.00340625
3774	0.00265968
3786	0.00289298
3798	0.00223973
3810	0.00284632
3822	0.00377954
3834	0.00289298
3846	0.00340625
3858	0.00261302
3870	0.00331293
3882	0.00335959
3894	0.00093322
3906	0.00303296
3918	0.00317295
3930	0.00377954
3942	0.0038262
3954	0.00284632
3966	0.00303296
