Infrared Spectrum: Benzoic acid, 2-hydroxy-, 2-propenyl ester
Formula: C 10 H 10 O 3
CAS: 10484-09-0
Origin: Sadtler Research Labs Under US-EPA Contract
1/CM	ABSORBANCE
450	0.00716878
462	0.00189364
474	0.00892716
486	0.0167722
498	0.0244821
510	0.0292162
522	0.064519
534	0.0703352
546	0.0279988
558	0.0351676
570	0.0220474
582	0.0177191
594	0.0193422
606	0.0235352
618	0.0361144
630	0.0392254
642	0.0493699
654	0.0630312
666	0.100498
678	0.0968462
690	0.147163
702	0.282288
714	0.19518
726	0.0726346
738	0.0646543
750	0.285534
762	0.252666
774	0.0480173
786	0.0192069
798	0.0309745
810	0.0297572
822	0.0159607
834	0.0269167
846	0.0685768
858	0.0772335
870	0.050993
882	0.0223179
894	0.0204243
906	0.0357086
918	0.0750693
930	0.145269
942	0.136342
954	0.0923826
966	0.170292
978	0.182195
990	0.104827
1002	0.0731757
1014	0.0511283
1026	0.0992808
1038	0.108208
1050	0.0500462
1062	0.0835907
1074	0.269844
1086	0.613269
1098	0.271332
1110	0.145269
1122	0.198697
1134	0.472463
1146	0.305147
1158	0.948173
1170	0.33815
1182	0.313262
1194	0.312315
1206	0.817376
1218	0.84294
1230	0.471787
1242	0.538335
1254	0.920715
1266	0.376293
1278	0.347212
1290	0.640997
1302	1.3526
1314	0.719448
1326	0.452445
1338	0.239951
1350	0.135936
1362	0.212088
1374	0.326923
1386	0.243874
1398	0.275525
1410	0.274172
1422	0.201402
1434	0.139047
1446	0.167181
1458	0.213711
1470	0.291891
1482	0.454474
1494	0.341667
1506	0.140265
1518	0.0706057
1530	0.0355734
1542	0.0297572
1554	0.0378728
1566	0.063978
1578	0.165152
1590	0.230348
1602	0.173133
1614	0.339232
1626	0.215199
1638	0.0798034
1650	0.113077
1662	0.136477
1674	0.24969
1686	0.820081
1698	1.21382
1710	0.458667
1722	0.113754
1734	0.0689826
1746	0.108749
1758	0.09103
1770	0.0330034
1782	0.0181248
1794	0.0147433
1806	0.0219121
1818	0.0174485
1830	0.0108208
1842	0.0112266
1854	0.00973872
1866	0.0136613
1878	0.0137965
1890	0.0110913
1902	0.00892716
1914	0.00933294
1926	0.0189364
1938	0.0108208
1950	0.0147433
1962	0.0054104
1974	0.00311098
1986	0.00297572
1998	0.0027052
2010	0.0027052
2022	0.0020289
2034	0.0020289
2046	0.00378728
2058	0.00513988
2070	0.00365202
2082	0.00175838
2094	0.0020289
2106	0.00297572
2118	0.0027052
2130	0.00243468
2142	0.0027052
2154	0.00311098
2166	0.0027052
2178	0.00175838
2190	0.00027052
2202	0.00013526
2214	0.00054104
2226	0.00094682
2238	0.00040578
2250	0.0006763
2262	0.0006763
2274	0.00162312
2286	0.00243468
2298	0.00229942
2310	0.00189364
2322	0.0020289
2334	0.00175838
2346	0.00297572
2358	0.00243468
2370	0.0033815
2382	0.00419306
2394	0.00311098
2406	0.0027052
2418	0.00311098
2430	0.00392254
2442	0.00378728
2454	0.00351676
2466	0.00378728
2478	0.0027052
2490	0.00324624
2502	0.00446358
2514	0.0040578
2526	0.00378728
2538	0.00527514
2550	0.00581618
2562	0.00554566
2574	0.00500462
2586	0.0054104
2598	0.00554566
2610	0.00689826
2622	0.00852138
2634	0.00825086
2646	0.00649248
2658	0.00554566
2670	0.0054104
2682	0.00554566
2694	0.00825086
2706	0.00838612
2718	0.0087919
2730	0.00906242
2742	0.0094682
2754	0.0102798
2766	0.0121734
2778	0.0121734
2790	0.0120381
2802	0.0110913
2814	0.0108208
2826	0.0116324
2838	0.0128497
2850	0.0139318
2862	0.0178543
2874	0.0209653
2886	0.0279988
2898	0.0382786
2910	0.0339503
2922	0.0304335
2934	0.0381433
2946	0.0650601
2958	0.107802
2970	0.0956288
2982	0.0527514
2994	0.0591086
3006	0.0591086
3018	0.0569445
3030	0.0722288
3042	0.0600554
3054	0.0741225
3066	0.105368
3078	0.121869
3090	0.110102
3102	0.112942
3114	0.0597849
3126	0.037467
3138	0.0330034
3150	0.0330034
3162	0.0362497
3174	0.0430127
3186	0.0520751
3198	0.0634369
3210	0.0835907
3222	0.120652
3234	0.183683
3246	0.246714
3258	0.271602
3270	0.244009
3282	0.199238
3294	0.170292
3306	0.146757
3318	0.126739
3330	0.112401
3342	0.102121
3354	0.0925178
3366	0.0791271
3378	0.0704705
3390	0.0601907
3402	0.0520751
3414	0.0451768
3426	0.0401722
3438	0.0358439
3450	0.0323271
3462	0.0339503
3474	0.0554566
3486	0.0754751
3498	0.0501815
3510	0.0357086
3522	0.0273225
3534	0.0190717
3546	0.0128497
3558	0.0102798
3570	0.00892716
3582	0.00852138
3594	0.00730404
3606	0.00513988
3618	0.00432832
3630	0.00378728
3642	0.00365202
3654	0.00175838
3666	0
3678	0.00054104
3690	0.00081156
3702	0.00013526
3714	0.00013526
3726	0.00040578
3738	0
3750	0
3762	0.00054104
3774	0
3786	0.00054104
3798	0
3810	0
3822	0
3834	0
3846	0.00175838
3858	0
3870	0.00148786
3882	0.00054104
3894	0.00121734
3906	0.0013526
3918	0.00108208
3930	0.00216416
3942	0.00243468
3954	0
3966	0.0013526
