Infrared Spectrum: Decyl disulfide
Formula: C 20 H 42 S 2
CAS: 10496-18-1
Origin: Sadtler Research Labs Under US-EPA Contract
1/CM	ABSORBANCE
450	0
462	0.00979881
474	0.0110595
486	0.012664
498	0.00722018
510	0.0109449
522	0.0120336
534	0.0130078
546	0.00934039
558	0.0114606
570	0.0109449
582	0.0110595
594	0.0108876
606	0.00997072
618	0.0122055
630	0.011346
642	0.0137527
654	0.00911118
666	0.0110022
678	0.011346
690	0.00807972
702	0.0143831
714	0.0199987
726	0.0173055
738	0.0171336
750	0.0187381
762	0.0124921
774	0.0154718
786	0.0123774
798	0.0128359
810	0.0124348
822	0.0140392
834	0.0111741
846	0.010773
858	0.0130078
870	0.0112887
882	0.0127213
894	0.012664
906	0.0128932
918	0.00939769
930	0.0115752
942	0.0114033
954	0.0114606
966	0.0108876
978	0.0100853
990	0.0111168
1002	0.012664
1014	0.0106011
1026	0.0138673
1038	0.00979881
1050	0.00968421
1062	0.0111168
1074	0.0112887
1086	0.0120909
1098	0.010773
1110	0.0122628
1122	0.00865275
1134	0.012664
1146	0.0104291
1158	0.0115179
1170	0.0137527
1182	0.0112887
1194	0.0138673
1206	0.016446
1218	0.0178212
1230	0.0212594
1242	0.0214313
1254	0.0214313
1266	0.0237807
1278	0.0253852
1290	0.0225201
1302	0.0242965
1314	0.0198841
1326	0.0181651
1338	0.0210875
1350	0.0274481
1362	0.0249841
1374	0.0216605
1386	0.0218324
1398	0.0158729
1410	0.015128
1422	0.0206291
1434	0.0263594
1446	0.037247
1458	0.0523176
1470	0.0452694
1482	0.0224628
1494	0.0158729
1506	0.011919
1518	0.0104864
1530	0.00859545
1542	0.011919
1554	0.0107157
1566	0.0077359
1578	0.00802242
1590	0.00802242
1602	0.00796512
1614	0.007564
1626	0.00687636
1638	0.007564
1650	0.00979881
1662	0.00704827
1674	0.00710557
1686	0.0102572
1698	0.00848084
1710	0.00916848
1722	0.00991342
1734	0.0109449
1746	0.0108876
1758	0.00974151
1770	0.00744939
1782	0.00836624
1794	0.0057876
1806	0.00670445
1818	0.00704827
1830	0.00618872
1842	0.00561569
1854	0.00647524
1866	0.00607412
1878	0.0057876
1890	0.00544378
1902	0.00492806
1914	0.00521457
1926	0.00527188
1938	0.00412582
1950	0.00458424
1962	0.00544378
1974	0.00636063
1986	0.00584491
1998	0.00527188
2010	0.00544378
2022	0.00544378
2034	0.00641794
2046	0.00595951
2058	0.00595951
2070	0.00544378
2082	0.00595951
2094	0.0057303
2106	0.005673
2118	0.00527188
2130	0.00550109
2142	0.00498536
2154	0.00538648
2166	0.00521457
2178	0.00498536
2190	0.00532918
2202	0.00521457
2214	0.00504266
2226	0.00544378
2238	0.00521457
2250	0.00492806
2262	0.00458424
2274	0.00521457
2286	0.00521457
2298	0.00475615
2310	0.00538648
2322	0.00498536
2334	0.00418312
2346	0.00418312
2358	0.00544378
2370	0.00395391
2382	0.00515727
2394	0.00481345
2406	0.00509997
2418	0.00515727
2430	0.00521457
2442	0.00481345
2454	0.00532918
2466	0.005673
2478	0.00498536
2490	0.00550109
2502	0.00504266
2514	0.00527188
2526	0.0057876
2538	0.00584491
2550	0.00624603
2562	0.005673
2574	0.00607412
2586	0.00676175
2598	0.00653254
2610	0.00722018
2622	0.00710557
2634	0.00744939
2646	0.00819433
2658	0.00911118
2670	0.00974151
2682	0.0104291
2694	0.0095123
2706	0.00916848
2718	0.00899657
2730	0.00968421
2742	0.0100853
2754	0.0106011
2766	0.0110022
2778	0.0124348
2790	0.0143831
2802	0.0178785
2814	0.0225201
2826	0.0290526
2838	0.0420031
2850	0.0877882
2862	0.203254
2874	0.160907
2886	0.121024
2898	0.121081
2910	0.193741
2922	0.342557
2934	0.57303
2946	0.357112
2958	0.207208
2970	0.187725
2982	0.0828028
2994	0.0423469
3006	0.0281931
3018	0.0212594
3030	0.0174201
3042	0.0143257
3054	0.0123201
3066	0.0112314
3078	0.00991342
3090	0.00939769
3102	0.0095696
3114	0.00871006
3126	0.00882466
3138	0.00819433
3150	0.00807972
3162	0.00802242
3174	0.00722018
3186	0.0076786
3198	0.00699097
3210	0.00653254
3222	0.00676175
3234	0.00647524
3246	0.0057876
3258	0.00601682
3270	0.00527188
3282	0.00636063
3294	0.00538648
3306	0.00590221
3318	0.0057303
3330	0.0057303
3342	0.00664715
3354	0.00590221
3366	0.00590221
3378	0.00515727
3390	0.00653254
3402	0.00590221
3414	0.00532918
3426	0.00618872
3438	0.00595951
3450	0.00532918
3462	0.00544378
3474	0.00544378
3486	0.0057876
3498	0.00481345
3510	0.00504266
3522	0.00492806
3534	0.00544378
3546	0.00561569
3558	0.005673
3570	0.00532918
3582	0.00613142
3594	0.0057303
3606	0.00532918
3618	0.00590221
3630	0.00636063
3642	0.00590221
3654	0.00636063
3666	0.00435503
3678	0.00911118
3690	0.00699097
3702	0.00630333
3714	0.00641794
3726	0.00653254
3738	0.00871006
3750	0.00458424
3762	0.00492806
3774	0.00624603
3786	0.00515727
3798	0.00636063
3810	0.00475615
3822	0.00853815
3834	0.00630333
3846	0.00395391
3858	0.00779321
3870	0.00716287
3882	0.00561569
3894	0.00532918
3906	0.00704827
3918	0.00515727
3930	0.00796512
3942	0.00664715
3954	0.00722018
3966	0.00785051
