Infrared Spectrum: 1-Pentanol, 2-methyl-
Formula: C 6 H 14 O
CAS: 105-30-6
Origin: Sadtler Research Labs Under US-EPA Contract
1/CM	ABSORBANCE
450	0.0117097
462	0.00992243
474	0.00912124
486	0.00992243
498	0.0147912
510	0.0102922
522	0.00634789
534	0.00949102
546	0.00856657
558	0.00560833
570	0.00036978
582	0.00400595
594	0.00745723
606	0.00622463
618	0.00573159
630	0.00332802
642	0.00400595
654	0.00585485
666	0.00400595
678	0.0049304
690	0.0043141
702	0.00591648
714	0.00714908
726	0.0117097
738	0.0147296
750	0.0136819
762	0.00979917
774	0.00671767
786	0.00659441
798	0.00684093
810	0.00875146
822	0.010662
834	0.011155
846	0.00979917
858	0.00949102
870	0.0123876
882	0.0165168
894	0.0189204
906	0.0203379
918	0.0255148
930	0.0330953
942	0.038642
954	0.0355605
966	0.0407991
978	0.0584252
990	0.0637254
1002	0.0754351
1014	0.128622
1026	0.227723
1038	0.286025
1050	0.217862
1062	0.131395
1074	0.0764212
1086	0.052139
1098	0.0456062
1110	0.0454829
1122	0.040984
1134	0.035314
1146	0.0347593
1158	0.0357454
1170	0.0340198
1182	0.0321709
1194	0.0354989
1206	0.0415386
1218	0.0421549
1230	0.0427712
1242	0.0423398
1254	0.0382722
1266	0.0361768
1278	0.0346977
1290	0.0311232
1302	0.0295824
1314	0.0295824
1326	0.0318011
1338	0.0358687
1350	0.0404293
1362	0.0517692
1374	0.0726001
1386	0.0848645
1398	0.063294
1410	0.0337732
1422	0.0221868
1434	0.0244671
1446	0.0480098
1458	0.0856657
1470	0.0966358
1482	0.0665604
1494	0.0273637
1506	0.0119562
1518	0.00727234
1530	0.00573159
1542	0.00610137
1554	0.00548507
1566	0.00394432
1578	0.00419084
1590	0.00326639
1602	0.00388269
1614	0.00351291
1626	0.00228031
1638	0.00271172
1650	0.00240357
1662	0.0030815
1674	0.00221868
1686	0.00277335
1698	0.00277335
1710	0.00511529
1722	0.00523855
1734	0.00530018
1746	0.00499203
1758	0.00579322
1770	0.0049304
1782	0.0024652
1794	0.00191053
1806	0.00135586
1818	0.00141749
1830	0.00117097
1842	0.00104771
1854	0.00104771
1866	0.00073956
1878	0.00135586
1890	0.00160238
1902	0.00067793
1914	0.00043141
1926	0.00086282
1938	0.00104771
1950	0.00117097
1962	0.00117097
1974	0.00055467
1986	0.00086282
1998	0.00172564
2010	0.00172564
2022	0.00098608
2034	0.00147912
2046	0.00351291
2058	0.00351291
2070	0.00117097
2082	0.00055467
2094	0.00092445
2106	0.00160238
2118	0.00073956
2130	0.00018489
2142	0
2154	0.00036978
2166	0.00080119
2178	0.00117097
2190	6.163e-05
2202	0.00086282
2214	0.00117097
2226	0.00135586
2238	0.00104771
2250	0.00104771
2262	0.00129423
2274	0.00228031
2286	0.00252683
2298	0.00160238
2310	0.00147912
2322	0.00117097
2334	0.00388269
2346	0.00597811
2358	0.00030815
2370	0.00955265
2382	0.00844331
2394	0.00542344
2406	0.00449899
2418	0.00456062
2430	0.00456062
2442	0.00511529
2454	0.00505366
2466	0.00468388
2478	0.00474551
2490	0.00474551
2502	0.00523855
2514	0.00530018
2526	0.00530018
2538	0.00585485
2550	0.0073956
2562	0.00893635
2574	0.00949102
2586	0.00998406
2598	0.0109085
2610	0.0119562
2622	0.0130039
2634	0.0126342
2646	0.012326
2658	0.013497
2670	0.0142365
2682	0.0132505
2694	0.0138051
2706	0.0152842
2718	0.0180576
2730	0.0223101
2742	0.0252067
2754	0.0247136
2766	0.0253299
2778	0.0282265
2790	0.0298289
2802	0.0334651
2814	0.0377176
2826	0.048133
2838	0.0706896
2850	0.120055
2862	0.205105
2874	0.326762
2886	0.396836
2898	0.360351
2910	0.371814
2922	0.449344
2934	0.486322
2946	0.462533
2958	0.507708
2970	0.6163
2982	0.384879
2994	0.122089
3006	0.0472702
3018	0.0314929
3030	0.0261311
3042	0.0220635
3054	0.0183657
3066	0.0154691
3078	0.0133121
3090	0.0115864
3102	0.0107236
3114	0.0112167
3126	0.0102922
3138	0.00856657
3150	0.00721071
3162	0.00745723
3174	0.00659441
3186	0.00610137
3198	0.00425247
3210	0.00277335
3222	0.00265009
3234	0.00228031
3246	0.00197216
3258	0.00129423
3270	0.00055467
3282	0.00160238
3294	0.00320476
3306	0.0036978
3318	0.00277335
3330	0.00345128
3342	0.00388269
3354	0.00449899
3366	0.00345128
3378	0.00265009
3390	0.00375943
3402	0.00351291
3414	0.00320476
3426	0.00228031
3438	0.0024652
3450	0.00338965
3462	0.00394432
3474	0.00277335
3486	0.00215705
3498	0.0024652
3510	0.00388269
3522	0.00443736
3534	0.00265009
3546	0.00289661
3558	0.00437573
3570	0.00671767
3582	0.00591648
3594	0.00505366
3606	0.00665604
3618	0.00788864
3630	0.0128807
3642	0.0181809
3654	0.0350675
3666	0.0602125
3678	0.0628626
3690	0.0347593
3702	0.012819
3714	0.00628626
3726	0.00548507
3738	0.00702582
3750	0.00603974
3762	0.00394432
3774	0.00295824
3786	0.00468388
3798	0.00517692
3810	0.00382106
3822	0.00265009
3834	0.00301987
3846	0.00499203
3858	0.00597811
3870	0.00456062
3882	0.00295824
3894	0.00610137
3906	0.00868983
3918	0.00745723
3930	0.00388269
3942	0.00338965
3954	0.00443736
3966	0.00530018
