Infrared Spectrum: 2,6-Octadien-1-ol, 3,7-dimethyl-, formate, (E)-
Formula: C 11 H 18 O 2
CAS: 105-86-2
Origin: Sadtler Research Labs Under US-EPA Contract
1/CM	ABSORBANCE
450	0.0129895
462	0.00709611
474	0.000481092
486	0.00204464
498	0.00432983
510	0.00336764
522	0.0075772
534	0.00457037
546	0.00252573
558	0.00914075
570	0.00553256
582	0.00601365
594	0.0062542
606	0.00324737
618	0.00420956
630	0.00432983
642	0.00829884
654	0.00252573
666	0.000721638
678	0.00384874
690	0.00372846
702	0.00156355
714	0.000841911
726	0.00553256
738	0.0123881
750	0.0151544
762	0.0126287
774	0.0144328
786	0.0184018
798	0.0236938
810	0.0274222
822	0.0351197
834	0.0380063
846	0.0236938
858	0.0179207
870	0.0173193
882	0.0251371
894	0.0478687
906	0.0760125
918	0.079741
930	0.069157
942	0.0488308
954	0.0369238
966	0.0322332
978	0.0346386
990	0.03524
1002	0.0324737
1014	0.0306696
1026	0.0288655
1038	0.0310304
1050	0.0315115
1062	0.0309102
1074	0.0381265
1086	0.0531607
1098	0.0661502
1110	0.0912872
1122	0.120995
1134	0.17175
1146	0.377417
1158	0.927185
1170	1.06514
1182	0.710212
1194	0.295751
1206	0.145771
1218	0.0934521
1230	0.0719233
1242	0.0604973
1254	0.059054
1266	0.0633839
1278	0.0736071
1290	0.0472673
1302	0.0380063
1314	0.0366833
1326	0.0342778
1338	0.0319926
1350	0.0393293
1362	0.0477484
1374	0.0875587
1386	0.129173
1398	0.0580919
1410	0.0306696
1422	0.0324737
1434	0.0527998
1446	0.0924899
1458	0.0997063
1470	0.0911669
1482	0.0495525
1494	0.0212883
1506	0.0089002
1518	0.00529201
1530	0.00589338
1542	0.00204464
1554	0.00721638
1566	0.00865966
1578	0.00974211
1590	0.0089002
1602	0.0102232
1614	0.00998266
1626	0.00685556
1638	0.0107043
1650	0.00914075
1662	0.0277831
1674	0.0384874
1686	0.0208072
1698	0.0331953
1710	0.0786585
1722	0.147936
1734	0.355888
1746	1.1907
1758	0.518136
1770	0.185341
1782	0.0980225
1794	0.0582121
1806	0.027302
1818	0.0116665
1830	0.00408928
1842	0.00324737
1854	0.00481092
1866	0.0018041
1878	0.00300683
1890	0.00168382
1902	0.00288655
1914	0.00216491
1926	0.00252573
1938	0.00324737
1950	0.00348792
1962	0.00420956
1974	0.00420956
1986	0.00372846
1998	0.0031271
2010	0.00252573
2022	0.00204464
2034	0.00324737
2046	0.0031271
2058	0.00372846
2070	0.00396901
2082	0.00396901
2094	0.00396901
2106	0.0031271
2118	0.00252573
2130	0.0018041
2142	0.00120273
2154	0.000962184
2166	0.000962184
2178	0.00108246
2190	0.00108246
2202	0.00108246
2214	0.000962184
2226	0.000601365
2238	0.000360819
2250	0.000721638
2262	0.00120273
2274	0.00168382
2286	0.00288655
2298	0.00469065
2310	0.00613392
2322	0.00637447
2334	0.00529201
2346	0.00553256
2358	0.0031271
2370	0.00240546
2382	0.00252573
2394	0.0018041
2406	0.00204464
2418	0.00168382
2430	0.00192437
2442	0.0018041
2454	0.00144328
2466	0.00168382
2478	0.00168382
2490	0.0018041
2502	0.00192437
2514	0.00216491
2526	0.00240546
2538	0.00240546
2550	0.00204464
2562	0.00204464
2574	0.00204464
2586	0.00216491
2598	0.00228519
2610	0.00264601
2622	0.00288655
2634	0.00300683
2646	0.00348792
2658	0.00408928
2670	0.00408928
2682	0.00529201
2694	0.00589338
2706	0.0075772
2718	0.0122678
2730	0.0168382
2742	0.019845
2754	0.0143125
2766	0.0122678
2778	0.0115462
2790	0.01323
2802	0.0174396
2814	0.0236938
2826	0.0336764
2838	0.0594149
2850	0.112696
2862	0.197969
2874	0.238381
2886	0.247883
2898	0.287452
2910	0.383791
2922	0.587053
2934	0.580437
2946	0.393774
2958	0.32149
2970	0.41398
2982	0.337967
2994	0.211801
3006	0.122919
3018	0.0862357
3030	0.0695178
3042	0.0530404
3054	0.0414942
3066	0.032594
3078	0.0238141
3090	0.0197248
3102	0.0157558
3114	0.0167179
3126	0.0120273
3138	0.00781775
3150	0.00601365
3162	0.00493119
3174	0.00432983
3186	0.00408928
3198	0.00360819
3210	0.00324737
3222	0.00264601
3234	0.00228519
3246	0.00228519
3258	0.0018041
3270	0.00156355
3282	0.00156355
3294	0.00156355
3306	0.00144328
3318	0.00144328
3330	0.00156355
3342	0.00156355
3354	0.00144328
3366	0.0018041
3378	0.00156355
3390	0.0018041
3402	0.00156355
3414	0.00144328
3426	0.000962184
3438	0.0018041
3450	0.00228519
3462	0.00457037
3474	0.00974211
3486	0.0057731
3498	0.00168382
3510	0.001323
3522	0.00120273
3534	0.0018041
3546	0.00168382
3558	0.0018041
3570	0.001323
3582	0.00300683
3594	0.00264601
3606	0.00204464
3618	0.00168382
3630	0.00420956
3642	0.00649474
3654	0.00505147
3666	0.00384874
3678	0.00324737
3690	0.00240546
3702	0.001323
3714	0.00108246
3726	0.000962184
3738	0.00168382
3750	0.00168382
3762	0.00144328
3774	0.00144328
3786	0.00156355
3798	0.001323
3810	0.0018041
3822	0.00324737
3834	0.00204464
3846	0.00144328
3858	0.00264601
3870	0.00324737
3882	0.00240546
3894	0.00288655
3906	0.00228519
3918	0.00252573
3930	0.00216491
3942	0.0018041
3954	0.0018041
3966	0.0031271
