Infrared Spectrum: Benzene, 1,4-diethyl-
Formula: C 10 H 14
CAS: 105-05-5
Origin: Sadtler Research Labs Under US-EPA Contract
1/CM	ABSORBANCE
450	0.0190096
462	0.0111476
474	0.0105609
486	0.0109129
498	0.0100915
510	0.0181882
522	0.0298051
534	0.0557379
546	0.08038
558	0.0758036
570	0.056442
582	0.0278103
594	0.00938744
606	0.00398966
618	0.0016428
630	0.000938744
642	0.00176015
654	0.000821401
666	0.00140812
678	0.00398966
690	0.0100915
702	0.0144332
714	0.0117343
726	0.00821401
738	0.00868338
750	0.011617
762	0.0124384
774	0.0168974
786	0.0310959
798	0.0515136
810	0.0985681
822	0.183172
834	0.217085
846	0.101971
858	0.0265195
870	0.00739261
882	0.00340295
894	0.00129077
906	0.000586715
918	0.00117343
930	0.00117343
942	0.00222952
954	0.00645387
966	0.0302745
978	0.0316826
990	0.0140812
1002	0.011617
1014	0.0315653
1026	0.0443557
1038	0.0256981
1050	0.0342642
1062	0.0749822
1074	0.035907
1086	0.0111476
1098	0.0124384
1110	0.0274583
1122	0.0381365
1134	0.0228819
1146	0.00727527
1158	0.0032856
1170	0.0024642
1182	0.00281623
1194	0.00481106
1206	0.0111476
1218	0.0117343
1230	0.0146679
1242	0.0137291
1254	0.00774464
1266	0.00868338
1278	0.0111476
1290	0.0170147
1302	0.0217085
1314	0.040718
1326	0.0898847
1338	0.0486973
1350	0.020183
1362	0.0187749
1374	0.032152
1386	0.0452944
1398	0.035907
1410	0.0421261
1422	0.0606663
1434	0.0638346
1446	0.0850737
1458	0.117812
1470	0.115818
1482	0.0682936
1494	0.0535084
1506	0.110654
1518	0.249002
1530	0.0598449
1542	0.0103262
1554	0.00551512
1566	0.00445903
1578	0.00387232
1590	0.00504575
1602	0.00621918
1614	0.0076273
1626	0.00633652
1638	0.00915275
1650	0.012673
1662	0.0156066
1674	0.00868338
1686	0.00293357
1698	0.00129077
1710	0.00187749
1722	0.00129077
1734	0.000352029
1746	0.00129077
1758	0.00445903
1770	0.00797932
1782	0.0161933
1794	0.00938744
1806	0.00117343
1818	0.000704058
1830	0.000117343
1842	0.000938744
1854	0.00187749
1866	0.00375498
1878	0.0120863
1890	0.0259328
1902	0.0225299
1914	0.00621918
1926	0.00152546
1938	0.000821401
1950	0.000469372
1962	0.000704058
1974	0.000469372
1986	0.000234686
1998	0.000469372
2010	0.00129077
2022	0.00234686
2034	0.00293357
2046	0.00129077
2058	0.000469372
2070	0.000117343
2082	0
2094	0.000117343
2106	0.000352029
2118	0.000117343
2130	0.000117343
2142	0.000469372
2154	0.000821401
2166	0.00105609
2178	0.000469372
2190	0.000234686
2202	0.000352029
2214	0.000704058
2226	0.00129077
2238	0.00152546
2250	0.00199483
2262	0.00140812
2274	0.00176015
2286	0.00293357
2298	0.00481106
2310	0.00610184
2322	0.00422435
2334	0.00211217
2346	0.00281623
2358	0.0016428
2370	0.000117343
2382	0.0016428
2394	0.000938744
2406	0.00129077
2418	0.00258155
2430	0.0032856
2442	0.00363763
2454	0.00187749
2466	0.00105609
2478	0.00140812
2490	0.0016428
2502	0.00187749
2514	0.00234686
2526	0.00316826
2538	0.00316826
2550	0.00269889
2562	0.00269889
2574	0.0024642
2586	0.00316826
2598	0.00398966
2610	0.00422435
2622	0.00551512
2634	0.00880073
2646	0.00774464
2658	0.00398966
2670	0.0032856
2682	0.00363763
2694	0.00469372
2706	0.00539778
2718	0.00621918
2730	0.00938744
2742	0.0139638
2754	0.0120863
2766	0.0152546
2778	0.019831
2790	0.0191269
2802	0.0190096
2814	0.0221778
2826	0.0323867
2838	0.0516309
2850	0.0827268
2862	0.16827
2874	0.304622
2886	0.387467
2898	0.302158
2910	0.297817
2922	0.304153
2934	0.468433
2946	0.622505
2958	0.466321
2970	1.11405
2982	0.851793
2994	0.294648
3006	0.223304
3018	0.282562
3030	0.316709
3042	0.157709
3054	0.154893
3066	0.128373
3078	0.0787372
3090	0.0654774
3102	0.0537431
3114	0.0315653
3126	0.0235859
3138	0.0245247
3150	0.020183
3162	0.0178361
3174	0.0158413
3186	0.0114996
3198	0.00809667
3210	0.00574981
3222	0.00469372
3234	0.00363763
3246	0.0032856
3258	0.0032856
3270	0.00258155
3282	0.00199483
3294	0.00234686
3306	0.0016428
3318	0.00199483
3330	0.00211217
3342	0.00258155
3354	0.0016428
3366	0.00199483
3378	0.0016428
3390	0.00211217
3402	0.00222952
3414	0.00199483
3426	0.00187749
3438	0.00258155
3450	0.00199483
3462	0.00199483
3474	0.00176015
3486	0.00187749
3498	0.00199483
3510	0.000938744
3522	0.0016428
3534	0.0016428
3546	0.00187749
3558	0.000821401
3570	0.00152546
3582	0.00105609
3594	0.000704058
3606	0.00211217
3618	0.00176015
3630	0.00129077
3642	0.00176015
3654	0.00316826
3666	0.00363763
3678	0.00340295
3690	0.00340295
3702	0.00234686
3714	0.0032856
3726	0.00269889
3738	0.00234686
3750	0.000821401
3762	0.00152546
3774	0.00222952
3786	0.000117343
3798	0.000704058
3810	0.00187749
3822	0.000469372
3834	0.000586715
3846	0.00129077
3858	0.00117343
3870	0.00117343
3882	0.000469372
3894	0.000586715
3906	0.000821401
3918	0.00152546
3930	0.00199483
3942	0.00305092
3954	0.00234686
3966	0.000938744
