Infrared Spectrum: Carbonic acid, diethyl ester
Formula: C 5 H 10 O 3
CAS: 105-58-8
Origin: Sadtler Research Labs Under US-EPA Contract
1/CM	ABSORBANCE
450	0.00386072
462	0.0045961
474	0.00487187
486	0.00422841
498	0.00358496
510	0.00441226
522	0.00349304
534	0.00505571
546	0.00340111
558	0.00386072
570	0.00422841
582	0.0037688
594	0.00441226
606	0.00422841
618	0.00422841
630	0.00367688
642	0.00432033
654	0.00422841
666	0.00321727
678	0.00413649
690	0.00413649
702	0.0045961
714	0.00496379
726	0.00441226
738	0.00441226
750	0.00487187
762	0.00643454
774	0.0107549
786	0.0189359
798	0.0239916
810	0.0172813
822	0.0102953
834	0.00818106
846	0.0175571
858	0.0338273
870	0.0237159
882	0.00965181
894	0.0101114
906	0.0110306
918	0.0083649
930	0.00652646
942	0.00643454
954	0.00808914
966	0.0116741
978	0.0140641
990	0.0157187
1002	0.0242674
1014	0.0680223
1026	0.13439
1038	0.103872
1050	0.038883
1062	0.0209582
1074	0.0199471
1086	0.0314373
1098	0.0409972
1110	0.0274847
1122	0.0182006
1134	0.0131448
1146	0.0124095
1158	0.0139721
1170	0.0160863
1182	0.0173733
1194	0.0191198
1206	0.0261978
1218	0.0454095
1230	0.083649
1242	0.154521
1254	0.403354
1266	0.904421
1278	0.622036
1290	0.128783
1302	0.0821783
1314	0.0662758
1326	0.0268412
1338	0.0138802
1350	0.0143398
1362	0.0312535
1374	0.0968858
1386	0.0822702
1398	0.0369526
1410	0.0421003
1422	0.0288635
1434	0.0198552
1446	0.0230724
1458	0.0293231
1470	0.0391588
1482	0.0346546
1494	0.016454
1506	0.0100195
1518	0.00597493
1530	0.00450418
1542	0.00551532
1554	0.00560724
1566	0.00533148
1578	0.00643454
1590	0.00689415
1602	0.00698607
1614	0.00716992
1626	0.00707799
1638	0.00716992
1650	0.00606685
1662	0.00606685
1674	0.00615877
1686	0.00827298
1698	0.00937604
1710	0.0113983
1722	0.0170056
1734	0.0405376
1746	0.120234
1758	0.246075
1770	0.241847
1782	0.114903
1794	0.0489025
1806	0.0155348
1818	0.00698607
1830	0.0062507
1842	0.00533148
1854	0.00404457
1866	0.00340111
1878	0.00303343
1890	0.0029415
1902	0.00248189
1914	0.00284958
1926	0.00340111
1938	0.00303343
1950	0.00284958
1962	0.0029415
1974	0.00386072
1986	0.00386072
1998	0.00266574
2010	0.00174652
2022	0.00128691
2034	0.00119499
2046	0.00128691
2058	0.00119499
2070	0.0016546
2082	0.00211421
2094	0.0016546
2106	0.00211421
2118	0.00238997
2130	0.00220613
2142	0.00257382
2154	0.00312535
2166	0.00358496
2178	0.00367688
2190	0.00257382
2202	0.00183844
2214	0.00193036
2226	0.00257382
2238	0.00303343
2250	0.0029415
2262	0.00257382
2274	0.00257382
2286	0.00156267
2298	0.00119499
2310	0.00193036
2322	0.00202228
2334	0.00156267
2346	0.00147075
2358	0.00321727
2370	0.00174652
2382	0.00248189
2394	0.00238997
2406	0.0016546
2418	0.00128691
2430	0.000643454
2442	0.000735376
2454	0.00110306
2466	0.000643454
2478	0.000643454
2490	0.000643454
2502	0.000643454
2514	0.000551532
2526	0.000643454
2538	0.000643454
2550	9.1922e-05
2562	9.1922e-05
2574	0.000643454
2586	0.00045961
2598	9.1922e-05
2610	9.1922e-05
2622	9.1922e-05
2634	0.000643454
2646	0.000643454
2658	0.000643454
2670	0.000643454
2682	0.000551532
2694	0.00045961
2706	0.000735376
2718	0.000735376
2730	0.000643454
2742	0.000643454
2754	0.000643454
2766	0.00119499
2778	0.00128691
2790	0.00174652
2802	0.0016546
2814	0.00174652
2826	0.00174652
2838	0.00284958
2850	0.00340111
2862	0.00441226
2874	0.00799721
2886	0.0126852
2898	0.0148914
2910	0.0191198
2922	0.0214178
2934	0.0254624
2946	0.038883
2958	0.0354819
2970	0.040078
2982	0.0728022
2994	0.0859471
3006	0.0575432
3018	0.0320808
3030	0.0146156
3042	0.00671031
3054	0.00413649
3066	0.00312535
3078	0.00202228
3090	0.00128691
3102	0.00119499
3114	0.00174652
3126	0.00119499
3138	0.00137883
3150	0.00119499
3162	0.00119499
3174	0.00128691
3186	0.00128691
3198	0.00128691
3210	0.00128691
3222	0.00137883
3234	0.00137883
3246	0.00091922
3258	0.000827298
3270	0.00101114
3282	0.00045961
3294	0.000551532
3306	0.00156267
3318	0.00045961
3330	0.00101114
3342	0.00101114
3354	0.00156267
3366	0.00110306
3378	0.000551532
3390	0.00110306
3402	0.00101114
3414	0.00128691
3426	0.00110306
3438	0.000275766
3450	0.00101114
3462	0.000643454
3474	0.00045961
3486	0.000735376
3498	0.00128691
3510	0.00110306
3522	0.00101114
3534	0.000735376
3546	0.000735376
3558	0.000643454
3570	0.00147075
3582	0.00137883
3594	0.000827298
3606	0.00091922
3618	0.00101114
3630	0.00174652
3642	0.00156267
3654	0.00128691
3666	0.00101114
3678	0.00183844
3690	0.00119499
3702	0.00147075
3714	0.000827298
3726	0.00128691
3738	0.00128691
3750	0.00110306
3762	0.00211421
3774	0.00156267
3786	0.00110306
3798	0.00137883
3810	0.00183844
3822	0.00174652
3834	0.0016546
3846	0.00156267
3858	0.00183844
3870	0.00119499
3882	0.00110306
3894	0.0016546
3906	0.00110306
3918	0.00248189
3930	0.00211421
3942	0.00101114
3954	0.00119499
3966	0.00119499
