Infrared Spectrum: 1-Butanol, 3-methyl-, propanoate
Formula: C 8 H 16 O 2
CAS: 105-68-0
Origin: Sadtler Research Labs Under US-EPA Contract
1/CM	ABSORBANCE
450	0.00458786
462	0.00416599
474	0.00432419
486	0.00105468
498	0.00026367
510	0.00448239
522	0.00595894
534	0.00210936
546	0.00458786
558	0.00390232
570	0.00395505
582	0.00833197
594	0.0108632
606	0.00938665
618	0.00706636
630	0.0106523
642	0.00780463
654	0.00864838
666	0.00537887
678	0.00801557
690	0.00943939
702	0.00817377
714	0.00622261
726	0.00727729
738	0.00701362
750	0.0107577
762	0.0121816
774	0.0167167
786	0.015662
798	0.0168749
810	0.020619
822	0.0209881
834	0.0194588
846	0.0191424
858	0.0167694
870	0.0168749
882	0.0153456
894	0.0151874
906	0.018035
918	0.0202499
930	0.0196698
942	0.0234666
954	0.0298474
966	0.03549
978	0.0342771
990	0.0363865
1002	0.0585875
1014	0.0901751
1026	0.0915462
1038	0.0669722
1050	0.0736167
1062	0.110689
1074	0.138427
1086	0.138005
1098	0.0916517
1110	0.0716655
1122	0.0706636
1134	0.0709272
1146	0.0883295
1158	0.147972
1170	0.300847
1182	0.49744
1194	0.458048
1206	0.305172
1218	0.214575
1230	0.155302
1242	0.128196
1254	0.113009
1266	0.10879
1278	0.111691
1290	0.0839525
1302	0.0506246
1314	0.0448239
1326	0.0721928
1338	0.103306
1350	0.123661
1362	0.0923372
1374	0.0707163
1386	0.0840053
1398	0.0605914
1410	0.0314822
1422	0.0287928
1434	0.0403942
1446	0.0494118
1458	0.0762006
1470	0.1167
1482	0.0632808
1494	0.0255233
1506	0.0145019
1518	0.0111796
1530	0.00933392
1542	0.00696089
1554	0.00717182
1566	0.00680269
1578	0.00632808
1590	0.00680269
1602	0.00680269
1614	0.00669722
1626	0.00659175
1638	0.00653902
1650	0.00764643
1662	0.00854291
1674	0.00986126
1686	0.0116015
1698	0.0166112
1710	0.0288455
1722	0.0492536
1734	0.10204
1746	0.294941
1758	0.519113
1770	0.266412
1782	0.0816322
1794	0.0348572
1806	0.0187206
1818	0.0116015
1830	0.00812104
1842	0.00653902
1854	0.00574801
1866	0.00574801
1878	0.00516793
1890	0.00458786
1902	0.00474606
1914	0.00406052
1926	0.00458786
1938	0.00453512
1950	0.00453512
1962	0.00400778
1974	0.00437692
1986	0.00432419
1998	0.00490426
2010	0.00474606
2022	0.00464059
2034	0.00453512
2046	0.00432419
2058	0.00437692
2070	0.00400778
2082	0.00348044
2094	0.00342771
2106	0.00337498
2118	0.00321677
2130	0.0027949
2142	0.00274217
2154	0.00268943
2166	0.00242576
2178	0.00205663
2190	0.00258397
2202	0.00205663
2214	0.00200389
2226	0.00163475
2238	0.00189842
2250	0.00184569
2262	0.00174022
2274	0.00226756
2286	0.00216209
2298	0.00258397
2310	0.00485153
2322	0.00669722
2334	0.0077519
2346	0.0079101
2358	0.010705
2370	0.00638081
2382	0.0027949
2394	0.00216209
2406	0.00174022
2418	0.00210936
2430	0.00163475
2442	0.00126562
2454	0.00110741
2466	0.00105468
2478	0.00079101
2490	0.000474606
2502	0.000896478
2514	0.000369138
2526	0.000210936
2538	0.00052734
2550	0.00052734
2562	0.000632808
2574	0.00116015
2586	0.00147655
2598	0.00168749
2610	0.00174022
2622	0.00174022
2634	0.00179296
2646	0.00221483
2658	0.00168749
2670	0.00179296
2682	0.00179296
2694	0.00284764
2706	0.0026367
2718	0.00363865
2730	0.0052734
2742	0.00674995
2754	0.00664448
2766	0.00733003
2778	0.00674995
2790	0.00680269
2802	0.00785737
2814	0.0100195
2826	0.0129726
2838	0.018035
2850	0.0272635
2862	0.0442966
2874	0.0855345
2886	0.137372
2898	0.138163
2910	0.133786
2922	0.156936
2934	0.194114
2946	0.231344
2958	0.273742
2970	0.380265
2982	0.30359
2994	0.154774
3006	0.0669722
3018	0.0371775
3030	0.0213045
3042	0.01408
3054	0.0109159
3066	0.00938665
3078	0.00764643
3090	0.00611714
3102	0.00564254
3114	0.00516793
3126	0.00469333
3138	0.00469333
3150	0.00442966
3162	0.00464059
3174	0.00479879
3186	0.004957
3198	0.00427145
3210	0.00326951
3222	0.00226756
3234	0.00147655
3246	0.00131835
3258	0.00079101
3270	0.00131835
3282	0.000421872
3294	0.000896478
3306	0.00121288
3318	0.00131835
3330	0.000896478
3342	0.00163475
3354	0.00142382
3366	0.00142382
3378	0.00147655
3390	0.00147655
3402	0.000896478
3414	0.00100195
3426	0.00147655
3438	0.00147655
3450	0.00152929
3462	0.00195116
3474	0.00242576
3486	0.00500973
3498	0.00553707
3510	0.00300584
3522	0.00210936
3534	0.00152929
3546	0.00110741
3558	0.00052734
3570	0.000316404
3582	0.00121288
3594	0.000738276
3606	0.00110741
3618	0.00110741
3630	0.000896478
3642	0.00158202
3654	0.00126562
3666	0.00216209
3678	0.00131835
3690	0.00195116
3702	0.00179296
3714	0.00131835
3726	0.00158202
3738	0.000632808
3750	0.000949212
3762	0.00184569
3774	0.00147655
3786	0.00184569
3798	0.00184569
3810	0.00184569
3822	0.00137108
3834	0.00195116
3846	0.00237303
3858	0.00147655
3870	0.0024785
3882	0.00242576
3894	0.00189842
3906	0.00195116
3918	0.00147655
3930	0.00253123
3942	0.00200389
3954	0
3966	0.000210936
