Infrared Spectrum: 2-Butenedioic acid (E)-, dibutyl ester
Formula: C 12 H 20 O 4
CAS: 105-75-9
Origin: Sadtler Research Labs Under US-EPA Contract
1/CM	ABSORBANCE
450	0
462	0.0053867
474	0.00577146
486	0.000384764
498	0.00836862
510	0.00971529
522	0.00981148
534	0.00913815
546	0.00413621
558	0.00307811
570	0.0042324
582	0.00163525
594	0.00404002
606	0.00548289
618	0.00740671
630	0.00663718
642	0.0155829
654	0.0366488
666	0.0461717
678	0.0172182
690	0.0122163
702	0.00952291
714	0.0109658
726	0.0113505
738	0.0169296
750	0.0227973
762	0.0307811
774	0.0386688
786	0.0298192
798	0.0228935
810	0.0221239
822	0.0237592
834	0.0286649
846	0.0305887
858	0.0274144
870	0.0288573
882	0.0308773
894	0.0346288
906	0.0357831
918	0.0371297
930	0.0379954
942	0.0469412
954	0.0760871
966	0.127261
978	0.185841
990	0.127742
1002	0.115718
1014	0.19017
1026	0.220085
1038	0.125722
1050	0.0895538
1062	0.152655
1074	0.126299
1086	0.08561
1098	0.070508
1110	0.0703156
1122	0.092151
1134	0.130435
1146	0.418142
1158	0.587727
1170	0.47249
1182	0.213448
1194	0.127549
1206	0.161793
1218	0.3283
1230	0.334071
1242	0.448731
1254	0.800309
1266	0.535399
1278	0.396595
1290	0.777319
1302	0.539343
1314	0.21239
1326	0.118026
1338	0.0753176
1350	0.0608889
1362	0.0535784
1374	0.0547327
1386	0.090131
1398	0.0665642
1410	0.038284
1422	0.0300116
1434	0.0334745
1446	0.0454022
1458	0.0629089
1470	0.0782995
1482	0.0475184
1494	0.0232782
1506	0.012601
1518	0.0129858
1530	0.0126972
1542	0.00529051
1554	0.00942672
1566	0.00923434
1578	0.00654099
1590	0.00913815
1602	0.0111582
1614	0.0126972
1626	0.0170258
1638	0.0334745
1650	0.0490574
1662	0.0279916
1674	0.0237592
1686	0.0263563
1698	0.0481917
1710	0.08157
1722	0.155926
1734	0.510678
1746	0.906696
1758	0.260293
1770	0.101385
1782	0.0583879
1794	0.034244
1806	0.0208734
1818	0.0136591
1830	0.00875338
1842	0.00865719
1854	0.00875338
1866	0.00827243
1878	0.00711813
1890	0.00606003
1902	0.00606003
1914	0.00557908
1926	0.00461717
1938	0.00452098
1950	0.00442479
1962	0.00365526
1974	0.00365526
1986	0.00375145
1998	0.00278954
2010	0.00307811
2022	0.00355907
2034	0.00346288
2046	0.00365526
2058	0.00346288
2070	0.00355907
2082	0.00384764
2094	0.00442479
2106	0.00442479
2118	0.0042324
2130	0.00346288
2142	0.00336668
2154	0.00288573
2166	0.00230858
2178	0.00230858
2190	0.00221239
2202	0.00173144
2214	0.00182763
2226	0.00182763
2238	0.00182763
2250	0.00173144
2262	0.00221239
2274	0.00221239
2286	0.00221239
2298	0.00259716
2310	0.00250097
2322	0.00230858
2334	0.00327049
2346	0.00298192
2358	0.00259716
2370	0.0010581
2382	0.00153906
2394	0.0010581
2406	0.0010581
2418	0.00096191
2430	0.00096191
2442	0.0010581
2454	0.000865719
2466	0.00096191
2478	0.000865719
2490	0.00144286
2502	0.00134667
2514	0.000865719
2526	0.000769528
2538	0.000288573
2550	0.000288573
2562	0.000769528
2574	0.000865719
2586	0.000769528
2598	0.000769528
2610	0.000769528
2622	0.000769528
2634	0.000769528
2646	0.000769528
2658	0.00134667
2670	0.00202001
2682	0.00269335
2694	0.00240478
2706	0.00327049
2718	0.0031743
2730	0.0042324
2742	0.00529051
2754	0.00702194
2766	0.00711813
2778	0.00682956
2790	0.00788766
2802	0.00923434
2814	0.0114467
2826	0.0143325
2838	0.0203925
2850	0.034244
2862	0.0556946
2874	0.0908043
2886	0.132166
2898	0.110235
2910	0.118796
2922	0.152463
2934	0.192093
2946	0.264044
2958	0.26366
2970	0.394672
2982	0.243844
2994	0.106387
3006	0.0540593
3018	0.032224
3030	0.0235668
3042	0.0170258
3054	0.0125048
3066	0.0101962
3078	0.00913815
3090	0.00808004
3102	0.00711813
3114	0.00606003
3126	0.00615622
3138	0.00586765
3150	0.00500193
3162	0.00509812
3174	0.0053867
3186	0.00548289
3198	0.00480955
3210	0.0042324
3222	0.00336668
3234	0.00327049
3246	0.00336668
3258	0.00336668
3270	0.00288573
3282	0.00298192
3294	0.00298192
3306	0.00327049
3318	0.00346288
3330	0.00307811
3342	0.00298192
3354	0.00336668
3366	0.00307811
3378	0.00365526
3390	0.00442479
3402	0.00327049
3414	0.00394383
3426	0.00384764
3438	0.0043286
3450	0.00519431
3462	0.00884957
3474	0.0115429
3486	0.00654099
3498	0.00365526
3510	0.00327049
3522	0.00278954
3534	0.00250097
3546	0.0021162
3558	0.00240478
3570	0.00259716
3582	0.00884957
3594	0.00336668
3606	0.00278954
3618	0.00240478
3630	0.000384764
3642	0.00375145
3654	0.00240478
3666	0.00442479
3678	0.00221239
3690	0.00336668
3702	0.00548289
3714	0.00471336
3726	0.00721432
3738	0.00548289
3750	0.00567527
3762	0.00971529
3774	0.0108696
3786	0.0119277
3798	0.0116391
3810	0.012601
3822	0.0123124
3834	0.0133705
3846	0.0140439
3858	0.0136591
3870	0.0138515
3882	0.0145248
3894	0.0155829
3906	0.0158715
3918	0.0174106
3930	0.0175068
3942	0.0165449
3954	0.00269335
3966	0.00404002
