Infrared Spectrum: Phenol, 2,4-dimethyl-
Formula: C 8 H 10 O
CAS: 105-67-9
Origin: Sadtler Research Labs Under US-EPA Contract
1/CM	ABSORBANCE
450	0.0754706
462	0.0204244
474	0.025655
486	0.0303045
498	0.0147786
510	0.0201753
522	0.00988009
534	0.0359503
546	0.0625186
558	0.0729799
570	0.0588654
582	0.0402676
594	0.0249078
606	0.0111255
618	0.00979707
630	0.0117067
642	0.0130351
654	0.0103783
666	0.00747234
678	0.00871773
690	0.0102122
702	0.0177676
714	0.0308026
726	0.0273986
738	0.0129521
750	0.0358672
762	0.124871
774	0.141808
786	0.124705
798	0.262943
810	0.23513
822	0.123211
834	0.0491514
846	0.0251569
858	0.038441
870	0.0685795
882	0.0434226
894	0.0262362
906	0.0207565
918	0.0355351
930	0.0489853
942	0.0338746
954	0.0207565
966	0.0248248
978	0.035203
990	0.0441698
1002	0.0592806
1014	0.0545481
1026	0.0334595
1038	0.0330443
1050	0.0439208
1062	0.0473248
1074	0.0557935
1086	0.10619
1098	0.196356
1110	0.333183
1122	0.283949
1134	0.12072
1146	0.134502
1158	0.155674
1170	0.450416
1182	0.792234
1194	0.466108
1206	0.192288
1218	0.199013
1230	0.315001
1242	0.306781
1254	0.399853
1266	0.493424
1278	0.23679
1290	0.0999633
1302	0.106605
1314	0.23322
1326	0.215702
1338	0.0650094
1350	0.0376938
1362	0.0386071
1374	0.0435886
1386	0.054133
1398	0.0528045
1410	0.0831921
1422	0.105858
1434	0.0846035
1446	0.0772972
1458	0.0837732
1470	0.114161
1482	0.163229
1494	0.355102
1506	0.77347
1518	0.648848
1530	0.154927
1542	0.0553783
1554	0.0410979
1566	0.0342897
1578	0.0419281
1590	0.0666699
1602	0.0772972
1614	0.0736441
1626	0.057537
1638	0.0265683
1650	0.00738931
1662	0.00680813
1674	0.00581182
1686	0.00514761
1698	0.00357012
1710	0.0108764
1722	0.0144465
1734	0.0136163
1746	0.0180166
1758	0.012786
1770	0.00714024
1782	0.00705721
1794	0.00880076
1806	0.0100461
1818	0.00630998
1830	0.00738931
1842	0.0121218
1854	0.0132011
1866	0.012703
1878	0.012786
1890	0.00772142
1902	0.00514761
1914	0.00340407
1926	0.00357012
1938	0.00431735
1950	0.00423433
1962	0.00357012
1974	0.00348709
1986	0.00406827
1998	0.00398525
2010	0.00473248
2022	0.00664208
2034	0.00846865
2046	0.00464946
2058	0.00182657
2070	0.000581182
2082	0.000996312
2094	0.00174355
2106	0.00182657
2118	0.000747234
2130	0.000664208
2142	0.00107934
2154	0.00132842
2166	0.00174355
2178	0.00199262
2190	0.00157749
2202	0.00116236
2214	0.00083026
2226	0.000996312
2238	0.00132842
2250	0.00257381
2262	0.00406827
2274	0.00589485
2286	0.00581182
2298	0.00440038
2310	0.00315499
2322	0.0022417
2334	0.00332104
2346	0.006393
2358	0.00664208
2370	0.00821957
2382	0.00772142
2394	0.00672511
2406	0.00730629
2418	0.00821957
2430	0.00805352
2442	0.00755537
2454	0.0079705
2466	0.00780444
2478	0.0079705
2490	0.00896681
2502	0.00913286
2514	0.0083026
2526	0.00763839
2538	0.00630998
2550	0.00456643
2562	0.00456643
2574	0.00390222
2586	0.00390222
2598	0.00481551
2610	0.00539669
2622	0.00581182
2634	0.00597787
2646	0.00539669
2658	0.00456643
2670	0.00390222
2682	0.0041513
2694	0.00440038
2706	0.00523064
2718	0.00630998
2730	0.0105443
2742	0.0220019
2754	0.0203414
2766	0.00921589
2778	0.00821957
2790	0.00996312
2802	0.0122048
2814	0.0156919
2826	0.0211716
2838	0.0322141
2850	0.0585333
2862	0.121882
2874	0.199761
2886	0.199678
2898	0.167962
2910	0.191458
2922	0.292501
2934	0.390388
2946	0.290425
2958	0.166218
2970	0.136329
2982	0.145545
2994	0.153183
3006	0.209059
3018	0.287519
3030	0.26286
3042	0.190379
3054	0.15393
3066	0.108349
3078	0.0601108
3090	0.0330443
3102	0.0232473
3114	0.0193451
3126	0.0172694
3138	0.0139484
3150	0.0083026
3162	0.00456643
3174	0.00373617
3186	0.00323801
3198	0.00273986
3210	0.00290591
3222	0.00357012
3234	0.00207565
3246	0.0019096
3258	0.0022417
3270	0.0019096
3282	0.0022417
3294	0.00199262
3306	0.00199262
3318	0.00166052
3330	0.00282288
3342	0.00390222
3354	0.00481551
3366	0.00531366
3378	0.00581182
3390	0.00581182
3402	0.00572879
3414	0.00564577
3426	0.00539669
3438	0.00464946
3450	0.00431735
3462	0.00481551
3474	0.00406827
3486	0.00282288
3498	0.00373617
3510	0.00365314
3522	0.00240775
3534	0.0022417
3546	0.000996312
3558	0.000664208
3570	0.00132842
3582	0.00365314
3594	0.00332104
3606	0.00531366
3618	0.0113746
3630	0.0405167
3642	0.20167
3654	0.418451
3666	0.289678
3678	0.0349539
3690	0.00132842
3702	0.000498156
3714	0.00041513
3726	0.00041513
3738	0.00174355
3750	0.00041513
3762	0.000747234
3774	0.00157749
3786	0.00174355
3798	0.000498156
3810	0.00041513
3822	0.00041513
3834	0.00041513
3846	0.00157749
3858	0.00323801
3870	0.0022417
3882	0.00141144
3894	0.00307196
3906	0.00323801
3918	0.00705721
3930	0.00481551
3942	0.00473248
3954	0.00539669
3966	0.00705721
