Infrared Spectrum: Pentanedioic acid, 3-oxo-, diethyl ester
Formula: C 9 H 14 O 5
CAS: 105-50-0
Origin: Sadtler Research Labs Under US-EPA Contract
1/CM	ABSORBANCE
450	0.0149037
462	0.004295
474	0.00519695
486	0.00579825
498	0.0079887
510	0.0100503
522	0.012069
534	0.0134433
546	0.0156338
558	0.0105228
570	0.00803165
582	0.00674315
594	0.0067861
606	0.00614185
618	0.00562645
630	0.0062707
642	0.00476745
654	0.00193275
666	0.00201865
678	0.0012885
690	0.0012885
702	0.00064425
714	0.0012026
726	0.0066143
738	0.010308
750	0.00631365
762	0.0045527
774	0.0071297
786	0.0116824
798	0.018898
810	0.024052
822	0.0252546
834	0.0226776
846	0.0224628
858	0.0211744
870	0.0177813
882	0.0136151
894	0.0114247
906	0.0110382
918	0.0124555
930	0.0194993
942	0.0195423
954	0.0128421
966	0.0092772
978	0.0101791
990	0.015462
1002	0.0230212
1014	0.0438949
1026	0.0997299
1038	0.192373
1050	0.195122
1062	0.135722
1074	0.0892501
1086	0.0831941
1098	0.10789
1110	0.105872
1122	0.117125
1134	0.208222
1146	0.369542
1158	0.312118
1170	0.285532
1182	0.273677
1194	0.231415
1206	0.187992
1218	0.208136
1230	0.324831
1242	0.405706
1254	0.272045
1266	0.193275
1278	0.166947
1290	0.156123
1302	0.178414
1314	0.218787
1326	0.212774
1338	0.108449
1350	0.0771382
1362	0.0949625
1374	0.13817
1386	0.0944471
1398	0.0789421
1410	0.0837525
1422	0.0909251
1434	0.0694072
1446	0.0540311
1458	0.0522702
1470	0.0491777
1482	0.0361209
1494	0.0152902
1506	0.007731
1518	0.00450975
1530	0.0039514
1542	0.00528285
1554	0.0048104
1566	0.0053258
1578	0.0066143
1590	0.0103509
1602	0.0175236
1614	0.0328138
1626	0.083323
1638	0.197527
1650	0.138041
1662	0.0852987
1674	0.0841391
1686	0.063566
1698	0.0556203
1710	0.0837096
1722	0.187563
1734	0.344244
1746	0.386035
1758	0.4295
1770	0.320879
1782	0.131771
1794	0.046429
1806	0.019757
1818	0.0100932
1830	0.0055835
1842	0.00304945
1854	0.0011167
1866	0.0012885
1878	0.00133145
1890	0.0014603
1902	0.00158915
1914	0.00115965
1926	0.0007731
1938	0.00064425
1950	0.0005154
1962	0.0002577
1974	0.00030065
1986	8.59e-05
1998	8.59e-05
2010	0.00021475
2022	0.0005154
2034	0.00073015
2046	0.00047245
2058	0.0004295
2070	0.0007731
2082	0.00141735
2094	0.00176095
2106	0.0014603
2118	0.0012885
2130	0.0012026
2142	0.0007731
2154	0.0007731
2166	0.0006872
2178	0.0003436
2190	0.00012885
2202	0.00038655
2214	0.0004295
2226	0.0003436
2238	0.0005154
2250	0.0007731
2262	0.0007731
2274	0.00073015
2286	0.00081605
2298	0.0018039
2310	0.0032642
2322	0.006013
2334	0.00648545
2346	0.0067002
2358	0.0071297
2370	0.00768805
2382	0.00502515
2394	0.00261995
2406	0.00296355
2418	0.0030924
2430	0.0032642
2442	0.0030924
2454	0.0029206
2466	0.00313535
2478	0.00347895
2490	0.0033501
2502	0.00339305
2514	0.00347895
2526	0.00365075
2538	0.00373665
2550	0.0036937
2562	0.0038655
2574	0.0040373
2586	0.0037796
2598	0.00365075
2610	0.00356485
2622	0.0039514
2634	0.00382255
2646	0.00339305
2658	0.00399435
2670	0.00416615
2682	0.00416615
2694	0.004295
2706	0.0045527
2718	0.005154
2730	0.00579825
2742	0.0063566
2754	0.00708675
2766	0.00811755
2778	0.00932015
2790	0.00992145
2802	0.0102221
2814	0.0116824
2826	0.0139588
2838	0.0163639
2850	0.0207448
2862	0.0272303
2874	0.0359062
2886	0.0512394
2898	0.0548471
2910	0.063523
2922	0.0683764
2934	0.075635
2946	0.104841
2958	0.0907963
2970	0.10162
2982	0.147533
2994	0.174205
3006	0.104884
3018	0.0603877
3030	0.0328997
3042	0.0195423
3054	0.0133574
3066	0.0110382
3078	0.0104368
3090	0.0095349
3102	0.00871885
3114	0.00777395
3126	0.0070438
3138	0.0058412
3150	0.00536875
3162	0.00476745
3174	0.0045527
3186	0.00382255
3198	0.0033501
3210	0.0029206
3222	0.00244815
3234	0.00193275
3246	0.00107375
3258	0.0003436
3270	0.0006013
3282	0.000859
3294	0.00107375
3306	0.0012026
3318	0.00176095
3330	0.00184685
3342	0.001718
3354	0.0018039
3366	0.0022334
3378	0.0016321
3390	0.0021475
3402	0.00219045
3414	0.00287765
3426	0.0021475
3438	0.0032642
3450	0.0041232
3462	0.0045527
3474	0.00511105
3486	0.0047245
3498	0.0042091
3510	0.00279175
3522	0.00244815
3534	0.00219045
3546	0.00227635
3558	0.0024052
3570	0.0027488
3582	0.00210455
3594	0.0021475
3606	0.0026629
3618	0.00425205
3630	0.00459565
3642	0.00639955
3654	0.00846115
3666	0.0095349
3678	0.0104798
3690	0.00949195
3702	0.00871885
3714	0.00536875
3726	0.00442385
3738	0.0048104
3750	0.0049822
3762	0.00433795
3774	0.0042091
3786	0.00433795
3798	0.00390845
3810	0.00468155
3822	0.00450975
3834	0.00502515
3846	0.005154
3858	0.00528285
3870	0.004295
3882	0.0056694
3894	0.0052399
3906	0.00459565
3918	0.00382255
3930	0.0046386
3942	0.00493925
3954	0.00519695
3966	0.0040373
