Infrared Spectrum: Propanoic acid, ethyl ester
Formula: C 5 H 10 O 2
CAS: 105-37-3
Origin: Sadtler Research Labs Under US-EPA Contract
1/CM	ABSORBANCE
450	0.0453421
462	0.0311727
474	0.0257073
486	0.0141694
498	0.0204444
510	0.0121452
522	0.0129549
534	0.00667986
546	0.0147767
558	0.00465566
570	0.0113355
582	0.0204444
594	0.0242904
606	0.0325896
618	0.0291485
630	0.0194323
642	0.0149791
654	0.0111331
666	0.0135621
678	0.010121
690	0.0070847
702	0.00667986
714	0.00890648
726	0.00688228
738	0.00080968
750	0.016396
762	0.0204444
774	0.0269219
786	0.0479735
798	0.0564752
810	0.0657865
822	0.0540461
834	0.0465566
846	0.064572
858	0.0900769
870	0.0775269
882	0.0536413
894	0.0414961
906	0.0212541
918	0.00870406
930	0.00627502
942	0.00587018
954	0.010121
966	0.0228735
978	0.0455445
990	0.0578921
1002	0.0593091
1014	0.0890648
1026	0.244726
1038	0.404435
1050	0.408281
1062	0.428118
1074	0.535603
1086	0.530138
1098	0.528519
1110	0.452611
1122	0.313144
1134	0.239868
1146	0.252215
1158	0.437834
1170	1.05258
1182	1.91388
1194	2.0242
1206	1.32403
1218	0.931334
1230	0.651388
1242	0.510706
1254	0.426094
1266	0.390671
1278	0.388646
1290	0.293914
1302	0.212946
1314	0.205456
1326	0.27934
1338	0.409698
1350	0.409091
1362	0.327718
1374	0.342899
1386	0.279542
1398	0.134609
1410	0.101817
1422	0.109712
1434	0.141694
1446	0.174486
1458	0.213553
1470	0.259502
1482	0.197157
1494	0.0870406
1506	0.038055
1518	0.0180154
1530	0.0103234
1542	0.00344114
1554	0.00850164
1566	0.00627502
1578	0.0040484
1590	0.00323872
1602	0.00384598
1614	0.00323872
1626	0.00263146
1638	0.00445324
1650	0.00566776
1662	0.0135621
1674	0.0145742
1686	0.0224686
1698	0.0412937
1710	0.0880527
1722	0.199789
1734	0.560906
1746	1.36188
1758	1.7562
1770	1.43354
1782	0.4935
1794	0.140277
1806	0.0593091
1818	0.0301606
1830	0.0147767
1842	0.0080968
1854	0.00546534
1866	0.00364356
1878	0.00485808
1890	0.00688228
1902	0.00789438
1914	0.00850164
1926	0.0105258
1938	0.0103234
1950	0.00850164
1962	0.00647744
1974	0.00445324
1986	0.00364356
1998	0.0030363
2010	0.00323872
2022	0.00425082
2034	0.00890648
2046	0.0121452
2058	0.0111331
2070	0.00789438
2082	0.00546534
2094	0.00344114
2106	0.00161936
2118	0.00040484
2130	0
2142	0.00020242
2154	0
2166	0
2178	0.00080968
2190	0.0010121
2202	0.0010121
2214	0.00080968
2226	0.0020242
2238	0.00182178
2250	0.00161936
2262	0.00121452
2274	0.00161936
2286	0.0020242
2298	0.00141694
2310	0.00060726
2322	0
2334	0.00020242
2346	0.00283388
2358	0.00384598
2370	0.00485808
2382	0.00587018
2394	0.00445324
2406	0.00323872
2418	0.00323872
2430	0.0030363
2442	0.00222662
2454	0.00161936
2466	0.00242904
2478	0.00242904
2490	0.00141694
2502	0.00060726
2514	0
2526	0.00020242
2538	0.00080968
2550	0.00080968
2562	0.00040484
2574	0.00020242
2586	0.00040484
2598	0.00121452
2610	0.00161936
2622	0.00242904
2634	0.00242904
2646	0.00263146
2658	0.00182178
2670	0.00161936
2682	0.00141694
2694	0.00121452
2706	0.00222662
2718	0.00425082
2730	0.00667986
2742	0.00870406
2754	0.0113355
2766	0.0135621
2778	0.0143718
2790	0.0153839
2802	0.0165984
2814	0.0206468
2826	0.026517
2838	0.034209
2850	0.0433179
2862	0.0558679
2874	0.0884575
2886	0.159709
2898	0.213553
2910	0.224686
2922	0.226306
2934	0.302618
2946	0.452814
2958	0.490464
2970	0.493905
2982	0.747942
2994	0.815955
3006	0.481962
3018	0.258086
3030	0.122869
3042	0.0623454
3054	0.0368404
3066	0.0257073
3078	0.0214565
3090	0.0192299
3102	0.0188251
3114	0.0182178
3126	0.0161936
3138	0.013967
3150	0.01255
3162	0.01255
3174	0.0123476
3186	0.0115379
3198	0.010121
3210	0.0080968
3222	0.00647744
3234	0.00546534
3246	0.00364356
3258	0.00242904
3270	0.00182178
3282	0.00141694
3294	0.0020242
3306	0.00121452
3318	0.00182178
3330	0.00141694
3342	0.00222662
3354	0.00222662
3366	0.00182178
3378	0.00182178
3390	0.00182178
3402	0.00141694
3414	0.0020242
3426	0.00283388
3438	0.00283388
3450	0.0030363
3462	0.0050605
3474	0.00971616
3486	0.0174081
3498	0.0212541
3510	0.0165984
3522	0.00667986
3534	0.00364356
3546	0.0020242
3558	0.0020242
3570	0.00263146
3582	0.00121452
3594	0.00283388
3606	0
3618	0.00080968
3630	0.0020242
3642	0.00080968
3654	0.0030363
3666	0.00242904
3678	0.00263146
3690	0.00121452
3702	0.00161936
3714	0.0020242
3726	0.00222662
3738	0.00242904
3750	0.00283388
3762	0.00283388
3774	0.00161936
3786	0.00323872
3798	0.00161936
3810	0.00222662
3822	0.00080968
3834	0.00121452
3846	0.00121452
3858	0.00141694
3870	0
3882	0.0010121
3894	0.00222662
3906	0.00161936
3918	0.00141694
3930	0.00040484
3942	0.00141694
3954	0.00020242
3966	0.0030363
