Infrared Spectrum: Ethane, 1,1-diethoxy-
Formula: C 6 H 14 O 2
CAS: 105-57-7
Origin: Sadtler Research Labs Under US-EPA Contract
1/CM	ABSORBANCE
450	0.00532209
462	0.00493267
474	0.0036346
486	0.00246633
498	0.00298556
510	0.0092163
522	0.0297258
534	0.0325816
546	0.0144086
558	0.00726919
570	0.00532209
582	0.00441344
594	0.00155768
606	0.000908649
618	0.000649035
630	0.000129807
642	0.00220672
654	0.00428363
666	0.00272595
678	0.000649035
690	0.00103846
702	0.00116826
714	0.00103846
726	0.000908649
738	0.00285575
750	0.00493267
762	0.00778842
774	0.0146682
786	0.0223268
798	0.030245
810	0.0386825
822	0.0421873
834	0.0652929
846	0.121499
858	0.137595
870	0.0703554
882	0.0303748
894	0.0285575
906	0.0549084
918	0.0919034
930	0.140062
942	0.271946
954	0.380335
966	0.249619
978	0.0777544
990	0.0447834
1002	0.0503651
1014	0.0950187
1026	0.203148
1038	0.323998
1050	0.568035
1062	0.801558
1074	0.765342
1086	0.989389
1098	1.28366
1110	1.24848
1122	0.992894
1134	1.10284
1146	1.25316
1158	0.897745
1170	0.526108
1182	0.373455
1194	0.271167
1206	0.171735
1218	0.107221
1230	0.0748986
1242	0.0576343
1254	0.0491969
1266	0.0494565
1278	0.0554276
1290	0.0619179
1302	0.0730813
1314	0.0803505
1326	0.102677
1338	0.242609
1350	0.273244
1362	0.142528
1374	0.36969
1386	0.492618
1398	0.30933
1410	0.16148
1422	0.0865813
1434	0.0803505
1446	0.116826
1458	0.108519
1470	0.0751583
1482	0.0563362
1494	0.0401104
1506	0.0194711
1518	0.0133701
1530	0.0105144
1542	0.00454325
1554	0.00454325
1566	0.00350479
1578	0.000389421
1590	0.00428363
1602	0.00662016
1614	0.00804803
1626	0.0109038
1638	0.00817784
1650	0.0109038
1662	0.00571151
1674	0.00532209
1686	0.00155768
1698	0.00246633
1710	0.00467305
1722	0.00830765
1734	0.00973553
1746	0.0158365
1758	0.0194711
1770	0.0198605
1782	0.0138893
1794	0.00973553
1806	0.00908649
1818	0.00506247
1830	0.00311537
1842	0.00311537
1854	0.00220672
1866	0.00402402
1878	0.00519228
1890	0.00752881
1902	0.0102548
1914	0.0124615
1926	0.0125913
1938	0.0125913
1950	0.0128509
1962	0.0127211
1974	0.0125913
1986	0.0122019
1998	0.0110336
2010	0.00752881
2022	0.00428363
2034	0.00168749
2046	0.00142788
2058	0.00103846
2070	0.00116826
2082	0.00155768
2094	0.0018173
2106	0.00142788
2118	0.00116826
2130	0.00129807
2142	0.00220672
2154	0.00259614
2166	0.00246633
2178	0.00285575
2190	0.0036346
2202	0.0037644
2214	0.00324518
2226	0.00272595
2238	0.00233653
2250	0.00194711
2262	0.0018173
2274	0.00207691
2286	0.00272595
2298	0.00285575
2310	0.00194711
2322	0.000778842
2334	0.000649035
2346	0.00116826
2358	0.000389421
2370	0.000519228
2382	0.000649035
2394	0.000129807
2406	0.00103846
2418	0.00220672
2430	0.00298556
2442	0.00259614
2454	0.00142788
2466	0.000908649
2478	0.000649035
2490	0.000129807
2502	0.000259614
2514	0.000129807
2526	0.000649035
2538	0.000908649
2550	0.00116826
2562	0.00116826
2574	0.00155768
2586	0.00246633
2598	0.0055817
2610	0.00973553
2622	0.0134999
2634	0.0206393
2646	0.0284277
2658	0.0264806
2670	0.0229758
2682	0.0185624
2694	0.0183028
2706	0.0224566
2718	0.0282979
2730	0.0332306
2742	0.0389421
2754	0.0468603
2766	0.0567257
2778	0.0615285
2790	0.0681487
2802	0.074639
2814	0.0812592
2826	0.0986533
2838	0.13435
2850	0.198345
2862	0.295051
2874	0.429921
2886	0.51767
2898	0.529093
2910	0.580497
2922	0.495733
2934	0.480805
2946	0.51793
2958	0.389161
2970	0.449522
2982	0.891385
2994	0.903846
3006	0.427065
3018	0.14785
3030	0.0772352
3042	0.049067
3054	0.0308941
3066	0.0225864
3078	0.0186922
3090	0.015447
3102	0.0134999
3114	0.0124615
3126	0.0118124
3138	0.0101249
3150	0.00856726
3162	0.00882688
3174	0.00947591
3186	0.0101249
3198	0.00973553
3210	0.00908649
3222	0.007399
3234	0.00402402
3246	0.00207691
3258	0.00116826
3270	0.000908649
3282	0.000778842
3294	0.000519228
3306	0.000129807
3318	0.000778842
3330	0.00116826
3342	0.0018173
3354	0.00116826
3366	0.00103846
3378	0.000649035
3390	0.000908649
3402	0.00103846
3414	0.00129807
3426	0.000908649
3438	0.00155768
3450	0.00142788
3462	0.000649035
3474	0.00103846
3486	0.00155768
3498	0.000908649
3510	0.000389421
3522	0.00129807
3534	0.000778842
3546	0.0018173
3558	0.00311537
3570	0.00259614
3582	0.00142788
3594	0.00168749
3606	0.00168749
3618	0.00220672
3630	0.000778842
3642	0.0036346
3654	0.00415382
3666	0.00441344
3678	0.00207691
3690	0.00415382
3702	0.00454325
3714	0.00454325
3726	0.00584132
3738	0.00402402
3750	0.00415382
3762	0.00298556
3774	0.00311537
3786	0.00415382
3798	0.0036346
3810	0.00467305
3822	0.00207691
3834	0.00246633
3846	0.00415382
3858	0.00480286
3870	0.00298556
3882	0.00441344
3894	0.00285575
3906	0.00259614
3918	0.00337498
3930	0.00311537
3942	0.00298556
3954	0.00493267
3966	0.00285575
