Infrared Spectrum: 2-Pentanone, 4-methyl-, oxime
Formula: C 6 H 13 N O
CAS: 105-44-2
Origin: Sadtler Research Labs Under US-EPA Contract
1/CM	ABSORBANCE
450	0.0127325
462	0.030095
474	0.00983875
486	0.0062505
498	0.0144687
510	0.0280115
522	0.0206035
534	0.0204877
546	0.0131955
558	0.0085655
570	0.0173625
582	0.0320628
594	0.0325257
606	0.026391
618	0.0280115
630	0.0869282
642	0.171078
654	0.102439
666	0.0450267
678	0.0353038
690	0.0424802
702	0.048152
714	0.0530135
726	0.0461842
738	0.0206035
750	0.0123852
762	0.008334
774	0.0099545
786	0.0155105
798	0.013427
810	0.0118065
822	0.0278958
834	0.0174783
846	0.0210665
858	0.0835715
870	0.166101
882	0.107532
894	0.0630837
906	0.169574
918	0.450962
930	0.48453
942	0.236014
954	0.222471
966	0.190524
978	0.0950307
990	0.080562
1002	0.103365
1014	0.093526
1026	0.0450267
1038	0.0135427
1050	0.006945
1062	0.00428275
1074	0.00706075
1086	0.0214137
1098	0.0804462
1110	0.161703
1122	0.110194
1134	0.0341462
1146	0.0149317
1158	0.0303265
1170	0.0480362
1182	0.0298635
1194	0.0468787
1206	0.137279
1218	0.148391
1230	0.081488
1242	0.105796
1254	0.155105
1266	0.0817195
1278	0.0704917
1290	0.114129
1302	0.0637782
1314	0.0635467
1326	0.200016
1338	0.330003
1350	0.234625
1362	0.222934
1374	0.260206
1386	0.205919
1398	0.113203
1410	0.050467
1422	0.0517402
1434	0.0806777
1446	0.114477
1458	0.153947
1470	0.170963
1482	0.105448
1494	0.0383133
1506	0.019446
1518	0.0163207
1530	0.0113435
1542	0.00983875
1554	0.0067135
1566	0.00463
1578	0.00358825
1590	0.00104175
1602	0.000926
1614	0.00243075
1626	0.00474575
1638	0.0147002
1650	0.0313683
1662	0.0348407
1674	0.020835
1686	0.008797
1698	0.0043985
1710	0.0034725
1722	0.0062505
1734	0.005556
1746	0.00335675
1758	0.0016205
1770	0.0011575
1782	0.00173625
1794	0.00289375
1806	0.00266225
1818	0.002778
1830	0.0039355
1842	0.00335675
1854	0.00266225
1866	0.00243075
1878	0.00266225
1890	0.00243075
1902	0.00219925
1914	0.00173625
1926	0.00196775
1938	0.00173625
1950	0.0011575
1962	0.001389
1974	0.00173625
1986	0.0016205
1998	0.0016205
2010	0.00127325
2022	0.0011575
2034	0.001852
2046	0.0011575
2058	0.00104175
2070	0.00104175
2082	0.0011575
2094	0.001389
2106	0.00081025
2118	0.00104175
2130	0.00150475
2142	0.00219925
2154	0.00289375
2166	0.00312525
2178	0.004167
2190	0.003704
2202	0.0034725
2214	0.00266225
2226	0.0025465
2238	0.0020835
2250	0.002315
2262	0.00266225
2274	0.0025465
2286	0.00219925
2298	0.0020835
2310	0.001389
2322	0.0030095
2334	0.00463
2346	0.004167
2358	0.00463
2370	0.00358825
2382	0.00335675
2394	0.00381975
2406	0.00428275
2418	0.00428275
2430	0.00474575
2442	0.0053245
2454	0.00544025
2466	0.00520875
2478	0.00428275
2490	0.00474575
2502	0.00520875
2514	0.0053245
2526	0.0053245
2538	0.0067135
2550	0.008797
2562	0.0108805
2574	0.0122695
2586	0.0113435
2598	0.011575
2610	0.012501
2622	0.0136585
2634	0.014353
2646	0.0158578
2658	0.0159735
2670	0.0158578
2682	0.014816
2694	0.0142372
2706	0.0135427
2718	0.0158578
2730	0.020835
2742	0.0215295
2754	0.0174783
2766	0.0168995
2778	0.0167838
2790	0.0186357
2802	0.0214137
2814	0.029169
2826	0.0438692
2838	0.0684082
2850	0.102207
2862	0.131608
2874	0.273517
2886	0.390309
2898	0.377461
2910	0.410565
2922	0.423298
2934	0.521917
2946	0.607572
2958	0.855277
2970	1.1575
2982	0.596112
2994	0.17293
3006	0.0937575
3018	0.0603057
3030	0.043985
3042	0.037966
3054	0.0335675
3066	0.0288218
3078	0.0232657
3090	0.019909
3102	0.017594
3114	0.015742
3126	0.014353
3138	0.014353
3150	0.0145845
3162	0.0147002
3174	0.0155105
3186	0.0164365
3198	0.0159735
3210	0.0131955
3222	0.0112277
3234	0.00960725
3246	0.00821825
3258	0.00926
3270	0.0116907
3282	0.015742
3294	0.0150475
3306	0.0122695
3318	0.0105332
3330	0.00926
3342	0.0085655
3354	0.008797
3366	0.00891275
3378	0.0081025
3390	0.008334
3402	0.00775525
3414	0.005556
3426	0.006019
3438	0.0043985
3450	0.00451425
3462	0.00405125
3474	0.00381975
3486	0.003704
3498	0.00381975
3510	0.0030095
3522	0.00405125
3534	0.00474575
3546	0.0030095
3558	0.00289375
3570	0.00405125
3582	0.00868125
3594	0.0094915
3606	0.0140057
3618	0.0297477
3630	0.121422
3642	0.519602
3654	0.692764
3666	0.223976
3678	0.0284745
3690	0.00914425
3702	0.00659775
3714	0.00381975
3726	0.00312525
3738	0.005093
3750	0.002778
3762	0.00358825
3774	0.0030095
3786	0.00497725
3798	0.005093
3810	0.00613475
3822	0.00590325
3834	0.0062505
3846	0.004167
3858	0.00659775
3870	0.005556
3882	0.00463
3894	0.0057875
3906	0.0043985
3918	0.005093
3930	0.0053245
3942	0.008334
3954	0.0048615
3966	0.006019
