Infrared Spectrum: Acetic acid, 1-methylpropyl ester
Formula: C 6 H 12 O 2
CAS: 105-46-4
Origin: Sadtler Research Labs Under US-EPA Contract
1/CM	ABSORBANCE
450	0.00201396
462	0.00427353
474	0.00319287
486	0.00225957
498	0.00368407
510	0.00167011
522	0.00176836
534	0.00132627
546	0.00103154
558	0.000245605
570	0.00324199
582	0.00157187
594	0.00451913
606	0.010561
618	0.0146872
630	0.0119855
642	0.0067787
654	0.00309462
666	0.00152275
678	0.00250517
690	0.00402792
702	0.00201396
714	0.00250517
726	0.00343847
738	0.00245605
750	0.00221045
762	0.00314374
774	0.00535419
786	0.00437177
798	0.00427353
810	0.00501034
822	0.00525595
834	0.00633661
846	0.010561
858	0.0149819
870	0.0157187
882	0.00874354
894	0.0102663
906	0.0139012
918	0.0159643
930	0.0234307
942	0.0341391
954	0.0256903
966	0.021908
978	0.0313883
990	0.0424405
1002	0.0605662
1014	0.0747622
1026	0.0850776
1038	0.0677379
1050	0.035711
1062	0.0291288
1074	0.0313883
1086	0.0424405
1098	0.0697518
1110	0.0744183
1122	0.0819338
1134	0.0717658
1146	0.0369881
1158	0.0262797
1170	0.0242658
1182	0.022743
1194	0.0214659
1206	0.0354162
1218	0.083211
1230	0.262896
1242	0.49121
1254	0.32189
1266	0.107035
1278	0.0451422
1290	0.0266727
1302	0.0183713
1314	0.0151293
1326	0.0135574
1338	0.015424
1350	0.0267709
1362	0.0670502
1374	0.115533
1386	0.0983402
1398	0.0472544
1410	0.0210238
1422	0.0164555
1434	0.0185677
1446	0.0275078
1458	0.0383635
1470	0.0364478
1482	0.0232834
1494	0.0136065
1506	0.0107084
1518	0.00835057
1530	0.00682782
1542	0.00869442
1554	0.00614012
1566	0.00663134
1578	0.0070243
1590	0.00510858
1602	0.00407704
1614	0.00378232
1626	0.00412616
1638	0.00515771
1650	0.00614012
1662	0.006091
1674	0.00731903
1686	0.00913651
1698	0.0114943
1710	0.0167011
1722	0.0245114
1734	0.0534928
1746	0.165931
1758	0.302634
1770	0.16318
1782	0.0406231
1794	0.0201887
1806	0.0138521
1818	0.00820321
1830	0.00555067
1842	0.00456825
1854	0.00378232
1866	0.00427353
1878	0.00476474
1890	0.00427353
1902	0.00284902
1914	0.00216132
1926	0.0021122
1938	0.00221045
1950	0.00216132
1962	0.00162099
1974	0.00157187
1986	0.00157187
1998	0.00191572
2010	0.00152275
2022	0.00152275
2034	0.00103154
2046	0.00098242
2058	0.000933299
2070	0.00152275
2082	0.00196484
2094	0.00245605
2106	0.00275078
2118	0.00196484
2130	0.00137539
2142	0.000835057
2154	0.00122802
2166	0.00132627
2178	0.00171923
2190	0.00127715
2202	0.00127715
2214	0.000736815
2226	0.00108066
2238	0.000736815
2250	0.00122802
2262	0.000638573
2274	0.000687694
2286	0.000589452
2298	0.000589452
2310	0.00108066
2322	0.00142451
2334	0.00103154
2346	0.00162099
2358	0.00152275
2370	0.0027999
2382	0.00152275
2394	0.000442089
2406	0.00098242
2418	0.000343847
2430	0.000933299
2442	0.000933299
2454	0.000884178
2466	0.00137539
2478	0.00191572
2490	0.00132627
2502	0.000835057
2514	0.000835057
2526	0.000294726
2538	0.000294726
2550	0.000294726
2562	0.000196484
2574	0.000245605
2586	0.000687694
2598	0.00127715
2610	0.00132627
2622	0.00127715
2634	0.00127715
2646	0.00132627
2658	0.00137539
2670	0.00137539
2682	0.00142451
2694	0.0018666
2706	0.00191572
2718	0.00235781
2730	0.00294726
2742	0.00338935
2754	0.0037332
2766	0.00343847
2778	0.00294726
2790	0.00343847
2802	0.00407704
2814	0.00530507
2826	0.00692606
2838	0.00952947
2850	0.0147854
2862	0.0241675
2874	0.0376758
2886	0.0533454
2898	0.053984
2910	0.0459281
2922	0.057226
2934	0.0861091
2946	0.10114
2958	0.098635
2970	0.131841
2982	0.177769
2994	0.118332
3006	0.03856
3018	0.0132627
3030	0.00952947
3042	0.00884178
3054	0.00776112
3066	0.00731903
3078	0.00663134
3090	0.00594364
3102	0.00486298
3114	0.00392968
3126	0.00299638
3138	0.00265253
3150	0.00240693
3162	0.00240693
3174	0.00250517
3186	0.00245605
3198	0.00201396
3210	0.00152275
3222	0.00152275
3234	0.00103154
3246	0.00122802
3258	0.000589452
3270	0.000540331
3282	0.000589452
3294	0.000589452
3306	0.000589452
3318	0.000687694
3330	0.000638573
3342	0.000196484
3354	0.000442089
3366	0.000589452
3378	0.000736815
3390	0.000785936
3402	0.000785936
3414	0.000638573
3426	0.00132627
3438	0.000785936
3450	0.00132627
3462	0.00108066
3474	0.00167011
3486	0.00334023
3498	0.00334023
3510	0.00235781
3522	0.00112978
3534	0.00098242
3546	0.00147363
3558	0.00098242
3570	0.00230869
3582	0.000933299
3594	0.00147363
3606	0.00103154
3618	0.00250517
3630	0.00422441
3642	0.00451913
3654	0.00653309
3666	0.00555067
3678	0.00520683
3690	0.0030455
3702	0.00162099
3714	0.0021122
3726	0.00167011
3738	0.00235781
3750	0.0021122
3762	0.00122802
3774	0.00108066
3786	0.00132627
3798	0.00127715
3810	0.00127715
3822	0.00181748
3834	0.00176836
3846	0.00171923
3858	0.00235781
3870	0.00235781
3882	0.00230869
3894	0.00240693
3906	0.00240693
3918	0.00235781
3930	0.00245605
3942	0.00240693
3954	0
3966	0.000196484
