Infrared Spectrum: Propanedioic acid, diethyl ester
Formula: C 7 H 12 O 4
CAS: 105-53-3
Origin: Sadtler Research Labs Under US-EPA Contract
1/CM	ABSORBANCE
450	0.00288238
462	0.0365101
474	0.0281832
486	0.0323467
498	0.0334676
510	0.0406735
522	0.0393925
534	0.0403533
546	0.0377912
558	0.0499612
570	0.0517226
582	0.0693372
594	0.0864713
606	0.0624515
618	0.0515625
630	0.054605
642	0.050922
654	0.0304251
666	0.0249806
678	0.0464383
690	0.0211374
702	0.00496409
714	0.00176145
726	0.00464383
738	0.00416343
750	0.0110491
762	0.0185753
774	0.0236995
786	0.0265819
798	0.0232191
810	0.0212976
822	0.0211374
834	0.0296244
846	0.0480396
858	0.0530037
870	0.0413141
882	0.0249806
894	0.0180949
906	0.0179348
918	0.0288238
930	0.0501213
942	0.0608502
954	0.053324
966	0.0345885
978	0.025461
990	0.0248205
1002	0.0392323
1014	0.0850301
1026	0.240198
1038	0.615227
1050	0.516105
1062	0.189116
1074	0.118818
1086	0.143318
1098	0.261816
1110	0.307774
1122	0.367503
1134	0.547491
1146	0.834608
1158	0.790251
1170	0.656701
1182	0.650296
1194	0.602417
1206	0.541727
1218	0.54557
1230	0.528756
1242	0.537083
1254	0.587044
1266	0.59425
1278	0.525233
1290	0.456376
1302	0.466785
1314	0.53324
1326	0.65478
1338	0.444046
1350	0.162694
1362	0.17006
1374	0.30313
1386	0.164456
1398	0.123942
1410	0.132429
1422	0.126504
1434	0.0930367
1446	0.0826281
1458	0.0898341
1470	0.10905
1482	0.0827882
1494	0.0406735
1506	0.0233793
1518	0.0179348
1530	0.0155328
1542	0.0131308
1554	0.0102484
1566	0.0102484
1578	0.00768634
1590	0.008487
1602	0.00912752
1614	0.008487
1626	0.00896739
1638	0.00864713
1650	0.0124903
1662	0.0129707
1674	0.0187354
1686	0.0253009
1698	0.0422748
1710	0.082468
1722	0.148763
1734	0.275267
1746	0.750218
1758	1.458
1770	1.43062
1782	0.823719
1794	0.345885
1806	0.19456
1818	0.100563
1830	0.0547651
1842	0.0325068
1854	0.0224185
1866	0.0190557
1878	0.0171341
1890	0.0161733
1902	0.0137714
1914	0.0104086
1926	0.00784647
1938	0.00688568
1950	0.00736607
1962	0.00816673
1974	0.008487
1986	0.00832686
1998	0.00880726
2010	0.0080066
2022	0.00720594
2034	0.00592488
2046	0.00608502
2058	0.00576475
2070	0.00560462
2082	0.00608502
2094	0.00656541
2106	0.00624515
2118	0.00560462
2130	0.00496409
2142	0.00416343
2154	0.00336277
2166	0.00192158
2178	0.00112092
2190	0.00128106
2202	0.00176145
2214	0.00192158
2226	0.00208172
2238	0.00272224
2250	0.00288238
2262	0.00320264
2274	0.00240198
2286	0.00272224
2298	0.00496409
2310	0.00784647
2322	0.00928766
2334	0.00960792
2346	0.008487
2358	0.00736607
2370	0.00784647
2382	0.00688568
2394	0.00208172
2406	0.00208172
2418	0.00272224
2430	0.00256211
2442	0.00240198
2454	0.00320264
2466	0.00288238
2478	0.00288238
2490	0.00288238
2502	0.00224185
2514	0.00208172
2526	0.00192158
2538	0.00176145
2550	0.00112092
2562	0.00160132
2574	0.00144119
2586	0.00144119
2598	0.00224185
2610	0.00176145
2622	0.00192158
2634	0.00112092
2646	0
2658	0.00080066
2670	0.00144119
2682	0.00208172
2694	0.00256211
2706	0.0035229
2718	0.00496409
2730	0.00544449
2742	0.00560462
2754	0.00624515
2766	0.00608502
2778	0.00768634
2790	0.00784647
2802	0.0080066
2814	0.00880726
2826	0.0120099
2838	0.0140916
2850	0.018255
2862	0.0251407
2874	0.0392323
2886	0.0662946
2898	0.0726999
2910	0.0901543
2922	0.0991217
2934	0.114174
2946	0.175345
2958	0.160292
2970	0.184792
2982	0.325068
2994	0.383036
3006	0.220982
3018	0.117537
3030	0.0536442
3042	0.0304251
3054	0.018255
3066	0.0147321
3078	0.0100883
3090	0.00960792
3102	0.00944779
3114	0.00864713
3126	0.00768634
3138	0.008487
3150	0.0080066
3162	0.00640528
3174	0.0075262
3186	0.00640528
3198	0.00560462
3210	0.00528436
3222	0.00304251
3234	0.0044837
3246	0.00320264
3258	0.00192158
3270	0.00528436
3282	0.00608502
3294	0.00688568
3306	0.00912752
3318	0.0104086
3330	0.00992818
3342	0.00720594
3354	0.00832686
3366	0.00720594
3378	0.00688568
3390	0.00688568
3402	0.00592488
3414	0.00688568
3426	0.00624515
3438	0.00528436
3450	0.00560462
3462	0.00576475
3474	0.00640528
3486	0.0107288
3498	0.0160132
3510	0.020657
3522	0.0124903
3534	0.00912752
3546	0.0075262
3558	0.00816673
3570	0.0273826
3582	0.040033
3594	0.0163335
3606	0.0080066
3618	0.00544449
3630	0.00368304
3642	0.00672554
3654	0.00672554
3666	0.00592488
3678	0.00496409
3690	0.00592488
3702	0.0044837
3714	0.00512422
3726	0.00592488
3738	0.00672554
3750	0.00320264
3762	0.00432356
3774	0.00464383
3786	0.00624515
3798	0.00496409
3810	0.00560462
3822	0.00320264
3834	0.00480396
3846	0.00816673
3858	0.00384317
3870	0.00672554
3882	0.00736607
3894	0.0075262
3906	0.00672554
3918	0.00576475
3930	0.00576475
3942	0.00608502
3954	0.00656541
3966	0.00768634
