Infrared Spectrum: 1,3-Propanediamine, N-(3-aminopropyl)-N-methyl-
Formula: C 7 H 19 N 3
CAS: 105-83-9
Origin: Sadtler Research Labs Under US-EPA Contract
1/CM	ABSORBANCE
450	0.0375125
462	0.0122704
474	0.0177921
486	0.0103422
498	0.0179674
510	0.0212103
522	0.0211227
534	0.0152504
546	0.00333055
558	0.019808
570	0.011394
582	0.0219991
594	0.0182304
606	0.0223497
618	0.0114816
630	0.0204215
642	0.0233138
654	0.0316402
666	0.0220868
678	0.0526752
690	0.054954
702	0.0671368
714	0.115342
726	0.172049
738	0.251807
750	0.326657
762	0.382399
774	0.421314
786	0.419824
798	0.288618
810	0.192295
822	0.149436
834	0.1277
846	0.108856
858	0.10798
870	0.0978129
882	0.0821243
894	0.0691527
906	0.0666986
918	0.060651
930	0.0681009
942	0.0575834
954	0.0569699
966	0.0646827
978	0.0530258
990	0.0460141
1002	0.0546911
1014	0.0587228
1026	0.0737103
1038	0.0934306
1050	0.12288
1062	0.149787
1074	0.194311
1086	0.187212
1098	0.127174
1110	0.120075
1122	0.118322
1134	0.10351
1146	0.0787061
1158	0.0638063
1170	0.0601252
1182	0.0692403
1194	0.0695033
1206	0.0766903
1218	0.0806343
1230	0.0659974
1242	0.0557429
1254	0.0638939
1266	0.0646827
1278	0.060651
1290	0.0623163
1302	0.0710809
1314	0.0714315
1326	0.0602128
1338	0.0694156
1350	0.106052
1362	0.11578
1374	0.127525
1386	0.11841
1398	0.0725709
1410	0.0291861
1422	0.0306761
1434	0.0494323
1446	0.0932553
1458	0.162408
1470	0.177308
1482	0.0761644
1494	0.0260309
1506	0.0147245
1518	0.0136728
1530	0.0122704
1542	0.0121828
1554	0.0139357
1566	0.0192821
1578	0.0264691
1590	0.0372495
1602	0.0598622
1614	0.103773
1626	0.133134
1638	0.079232
1650	0.0369866
1662	0.0173539
1674	0.0146369
1686	0.00946577
1698	0.00622287
1710	0.00683639
1722	0.00797579
1734	0.00420701
1746	0.00376878
1758	0.0032429
1770	0.00508347
1782	0.00403172
1794	0.00482053
1806	0.00578464
1818	0.00604757
1830	0.00780049
1842	0.00631051
1854	0.0064858
1866	0.00639816
1878	0.00411936
1890	0.00455759
1902	0.00455759
1914	0.00341819
1926	0.00394407
1938	0.00341819
1950	0.00306761
1962	0.00359349
1974	0.0032429
1986	0.00394407
1998	0.00464524
2010	0.00464524
2022	0.00525876
2034	0.00604757
2046	0.00604757
2058	0.00595993
2070	0.00622287
2082	0.00657345
2094	0.00657345
2106	0.00622287
2118	0.00639816
2130	0.00657345
2142	0.00525876
2154	0.0043823
2166	0.00376878
2178	0.00289232
2190	0.00236644
2202	0.00166527
2214	0.00157763
2226	0.00043823
2238	0.000788814
2250	0.000525876
2262	0.00157763
2274	0.00236644
2286	0.00333055
2298	0.00473288
2310	0.00683639
2322	0.00578464
2334	0.00674874
2346	0.00815108
2358	0.00219115
2370	0.00473288
2382	0.0055217
2394	0.00473288
2406	0.00508347
2418	0.00534641
2430	0.00587228
2442	0.00569699
2454	0.00613522
2466	0.00543405
2478	0.00622287
2490	0.00692403
2502	0.00832637
2514	0.00964106
2526	0.00929048
2538	0.00981635
2550	0.0101669
2562	0.011394
2574	0.0124457
2586	0.015338
2598	0.0188439
2610	0.0212103
2622	0.0242779
2634	0.0273456
2646	0.0323414
2658	0.0394407
2670	0.0492571
2682	0.0619657
2694	0.0745867
2706	0.0887854
2718	0.107542
2730	0.128226
2742	0.150576
2754	0.195801
2766	0.319382
2778	0.43078
2790	0.510626
2802	0.572241
2814	0.414916
2826	0.301239
2838	0.358122
2850	0.47846
2862	0.484858
2874	0.429027
2886	0.368551
2898	0.367412
2910	0.45313
2922	0.598096
2934	0.802399
2946	0.856652
2958	0.662779
2970	0.40212
2982	0.295542
2994	0.152153
3006	0.0565317
3018	0.0328673
3030	0.0226127
3042	0.0171786
3054	0.0149875
3066	0.0129716
3078	0.0116569
3090	0.0102546
3102	0.00955341
3114	0.00867695
3126	0.00867695
3138	0.00937812
3150	0.00946577
3162	0.0101669
3174	0.0108681
3186	0.0107805
3198	0.0100793
3210	0.00929048
3222	0.00964106
3234	0.0110434
3246	0.0109557
3258	0.0120951
3270	0.0132345
3282	0.0139357
3294	0.014111
3306	0.0142863
3318	0.019808
3330	0.0291861
3342	0.031202
3354	0.025505
3366	0.0169157
3378	0.0131469
3390	0.0134098
3402	0.0201586
3414	0.0159516
3426	0.00946577
3438	0.00674874
3450	0.00560934
3462	0.00482053
3474	0.00385642
3486	0.0043823
3498	0.00341819
3510	0.0032429
3522	0.00315526
3534	0.00359349
3546	0.00140234
3558	0.00087646
3570	0.00464524
3582	0.00219115
3594	0.00157763
3606	0.00166527
3618	0.0021035
3630	0.00306761
3642	0.00148998
3654	0.00341819
3666	0.0032429
3678	0.00219115
3690	0.00157763
3702	0.00140234
3714	0.00105175
3726	8.7646e-05
3738	0.00140234
3750	0.00245409
3762	0.000613522
3774	0.00148998
3786	0.0021035
3798	0.000964106
3810	0.0011394
3822	0.00219115
3834	0.00271703
3846	0.00192821
3858	0.00315526
3870	0.00289232
3882	0.00604757
3894	0.00087646
3906	0.00184057
3918	0.00271703
3930	0.00271703
3942	0.00411936
3954	0.00692403
3966	0.00403172
