Infrared Spectrum: Hexanoic acid, 2-methylpropyl ester
Formula: C 10 H 20 O 2
CAS: 105-79-3
Origin: Sadtler Research Labs Under US-EPA Contract
1/CM	ABSORBANCE
450	0.00720289
462	0.00874138
474	0.00692317
486	0.00636372
498	0.00622386
510	0.00741269
522	0.00300703
534	0.000979034
546	0.00328676
558	0.00384621
570	0.00678331
582	0.00517489
594	0.00881131
606	0.00888124
618	0.0113988
630	0.0102799
642	0.00650358
654	0.0058742
666	0
678	0.00300703
690	0.00524483
702	0.00552455
714	0.00972041
726	0.012168
738	0.0155946
750	0.0113988
762	0.00643365
774	0.00643365
786	0.00615393
798	0.00832179
810	0.00972041
822	0.0106994
834	0.0118883
846	0.0130771
858	0.013217
870	0.0155946
882	0.0162939
894	0.0197205
906	0.0252451
918	0.028392
930	0.0281822
942	0.0301403
954	0.0302102
966	0.0303501
978	0.0358746
990	0.0674135
1002	0.13175
1014	0.163918
1026	0.124757
1038	0.0818892
1050	0.0508398
1062	0.0521685
1074	0.0676233
1086	0.102029
1098	0.17238
1110	0.187135
1122	0.138393
1134	0.123428
1146	0.19231
1158	0.420845
1170	0.591966
1182	0.398467
1194	0.241821
1206	0.219863
1218	0.254409
1230	0.285738
1242	0.302102
1254	0.222451
1266	0.147554
1278	0.13217
1290	0.138743
1302	0.116085
1314	0.108323
1326	0.087134
1338	0.096295
1350	0.120701
1362	0.105106
1374	0.129582
1386	0.154897
1398	0.0696513
1410	0.041539
1422	0.0426579
1434	0.057763
1446	0.0672736
1458	0.104687
1470	0.129652
1482	0.0779031
1494	0.0291612
1506	0.0153848
1518	0.0103498
1530	0.00860151
1542	0.006084
1554	0.00503503
1566	0.00475531
1578	0.00475531
1590	0.00573434
1602	0.00559448
1614	0.00489517
1626	0.0058742
1638	0.00601407
1650	0.00629379
1662	0.00713296
1674	0.00965048
1686	0.0136365
1698	0.0207695
1710	0.0383222
1722	0.0639169
1734	0.135806
1746	0.44616
1758	0.685743
1770	0.266367
1782	0.0888124
1794	0.0419586
1806	0.0224479
1818	0.013147
1830	0.00853158
1842	0.0058742
1854	0.00475531
1866	0.004056
1878	0.00384621
1890	0.0029371
1902	0.00321683
1914	0.0029371
1926	0.004056
1938	0.00307696
1950	0.00335669
1962	0.00279724
1974	0.00272731
1986	0.00251752
1998	0.00307696
2010	0.00307696
2022	0.00363641
2034	0.004056
2046	0.00363641
2058	0.00356648
2070	0.00419586
2082	0.0031469
2094	0.00349655
2106	0.00279724
2118	0.00216786
2130	0.002028
2142	0.002028
2154	0.00209793
2166	0.00104897
2178	0.00146855
2190	0.002028
2202	0.00146855
2214	0.00146855
2226	0.00153848
2238	0.00153848
2250	0.00195807
2262	0.00104897
2274	0.00167834
2286	0.00195807
2298	0.00279724
2310	0.00265738
2322	0.00104897
2334	0.00125876
2346	0.00251752
2358	0
2370	0.00181821
2382	0.00258745
2394	0.00167834
2406	0.00181821
2418	0.00167834
2430	0.00069931
2442	0.00125876
2454	0.00069931
2466	0.000769241
2478	0.00069931
2490	0.000979034
2502	0.00069931
2514	0.00118883
2526	0.00125876
2538	0.00153848
2550	0.00216786
2562	0.00181821
2574	0.00223779
2586	0.00251752
2598	0.00300703
2610	0.00244759
2622	0.00300703
2634	0.00307696
2646	0.00440565
2658	0.0049651
2670	0.00552455
2682	0.006084
2694	0.006084
2706	0.00650358
2718	0.00657351
2730	0.00916096
2742	0.0116785
2754	0.0106994
2766	0.00923089
2778	0.0102799
2790	0.0127974
2802	0.0146156
2814	0.0190212
2826	0.0261542
2838	0.0362243
2850	0.058812
2862	0.119652
2874	0.20259
2886	0.266577
2898	0.216926
2910	0.219793
2922	0.295319
2934	0.420495
2946	0.509867
2958	0.498678
2970	0.694834
2982	0.482314
2994	0.134687
3006	0.0534273
3018	0.031469
3030	0.0218884
3042	0.0162939
3054	0.0134268
3066	0.0113988
3078	0.00951062
3090	0.00965048
3102	0.008112
3114	0.00706303
3126	0.00657351
3138	0.0069931
3150	0.00671338
3162	0.00762248
3174	0.00748262
3186	0.00769241
3198	0.00594414
3210	0.00468538
3222	0.00384621
3234	0.00216786
3246	0.00195807
3258	0.00216786
3270	0.000489517
3282	0.00188814
3294	0.00125876
3306	0.00286717
3318	0.00104897
3330	0.0011189
3342	0.00153848
3354	0.00195807
3366	0.00244759
3378	0.00167834
3390	0.00321683
3402	0.0011189
3414	0.00167834
3426	0.00181821
3438	0.00272731
3450	0.00167834
3462	0.00321683
3474	0.00258745
3486	0.00629379
3498	0.00615393
3510	0.00167834
3522	0.002028
3534	0.000839172
3546	0.00244759
3558	0.00174828
3570	0.00475531
3582	0.00580427
3594	0.002028
3606	0.002028
3618	0.000559448
3630	0.00188814
3642	0.00216786
3654	0.00265738
3666	0.00167834
3678	0.00349655
3690	0.00265738
3702	0.00209793
3714	0.00328676
3726	0.002028
3738	0.00167834
3750	0.00272731
3762	0.00223779
3774	0.0031469
3786	0.00265738
3798	0.00230772
3810	0.00454551
3822	0.00244759
3834	0.00391614
3846	0.00419586
3858	0.00594414
3870	0.00552455
3882	0.00433572
3894	0.00517489
3906	0.0058742
3918	0.00454551
3930	0.00468538
3942	0.00552455
3954	0.00230772
3966	0.00482524
