Infrared Spectrum: Acetic acid, cyano-, ethyl ester
Formula: C 5 H 7 N O 2
CAS: 105-56-6
Origin: Sadtler Research Labs Under US-EPA Contract
1/CM	ABSORBANCE
450	0.00411008
462	0.00695552
474	0.00309837
486	0.00411008
498	0.00575411
510	0.00151757
522	0.000758784
534	0.00290867
546	0.00259251
558	0.00588058
570	0.011445
582	0.0121405
594	0.0171991
606	0.0173888
618	0.0177682
630	0.0092951
642	0.00708198
654	0.0102436
666	0.013089
678	0.0173256
690	0.0144169
702	0.0151757
714	0.0146066
726	0.015808
738	0.0136581
750	0.0151124
762	0.0125832
774	0.0171359
786	0.0184005
798	0.0176417
810	0.0135316
822	0.0147963
834	0.0227003
846	0.0371172
858	0.0365481
870	0.017705
882	0.0129626
894	0.0135949
906	0.0175153
918	0.0266839
930	0.0286441
942	0.0246605
954	0.0192225
966	0.0196652
978	0.0157448
990	0.0154918
1002	0.0254825
1014	0.060766
1026	0.160799
1038	0.204429
1050	0.096745
1062	0.0426816
1074	0.0309837
1086	0.0358525
1098	0.0548221
1110	0.0480563
1122	0.037054
1134	0.0491945
1146	0.106736
1158	0.239965
1170	0.315591
1182	0.309837
1194	0.286567
1206	0.198928
1218	0.140754
1230	0.142082
1242	0.208223
1254	0.375472
1266	0.457357
1278	0.320017
1290	0.179326
1302	0.169082
1314	0.152832
1326	0.142715
1338	0.122038
1350	0.0519767
1362	0.0509018
1374	0.0828339
1386	0.0576044
1398	0.0452741
1410	0.0531149
1422	0.0467284
1434	0.0371172
1446	0.0347144
1458	0.0325012
1470	0.041986
1482	0.0345247
1494	0.0196652
1506	0.00961126
1518	0.00847309
1530	0.00961126
1542	0.00518502
1554	0.00701875
1566	0.00739814
1578	0.00739814
1590	0.00796723
1602	0.00701875
1614	0.00803046
1626	0.00758784
1638	0.00670259
1650	0.00733491
1662	0.00859955
1674	0.00853632
1686	0.00859955
1698	0.0126464
1710	0.0192858
1722	0.0295293
1734	0.0495739
1746	0.124314
1758	0.376736
1770	0.587172
1782	0.486823
1794	0.196715
1806	0.0661407
1818	0.0285809
1830	0.017705
1842	0.0126464
1854	0.0108127
1866	0.0103068
1878	0.0108127
1890	0.00961126
1902	0.00765107
1914	0.00708198
1926	0.00657613
1938	0.00588058
1950	0.00531149
1962	0.00550118
1974	0.00550118
1986	0.00499533
1998	0.00537472
2010	0.00537472
2022	0.00537472
2034	0.00531149
2046	0.00581734
2058	0.00512179
2070	0.00423654
2082	0.0047424
2094	0.00575411
2106	0.00556442
2118	0.00467917
2130	0.00461594
2142	0.00411008
2154	0.00354099
2166	0.0031616
2178	0.00284544
2190	0.00284544
2202	0.00284544
2214	0.00309837
2226	0.00354099
2238	0.00322483
2250	0.00385715
2262	0.00562765
2274	0.00543795
2286	0.00379392
2298	0.00411008
2310	0.00638643
2322	0.00733491
2334	0.00543795
2346	0.00777754
2358	0.00834662
2370	0.00411008
2382	0.00518502
2394	0.00278221
2406	0.00227635
2418	0.00164403
2430	0.00189696
2442	0.00221312
2454	0.00214989
2466	0.0015808
2478	0.00196019
2490	0.00259251
2502	0.00259251
2514	0.00196019
2526	0.00145434
2538	0.00183373
2550	0.00189696
2562	0.00183373
2574	0.0017705
2586	0.00126464
2598	0.00120141
2610	0.00202342
2622	0.00214989
2634	0.00094848
2646	0.000822016
2658	0.00107494
2670	0.00120141
2682	0.00120141
2694	0.00113818
2706	0.00126464
2718	0.0013911
2730	0.00183373
2742	0.00196019
2754	0.0017705
2766	0.00196019
2778	0.00246605
2790	0.00360422
2802	0.00347776
2814	0.00341453
2826	0.00398362
2838	0.00569088
2850	0.00562765
2862	0.00689229
2874	0.0110024
2886	0.0181476
2898	0.0213092
2910	0.0249766
2922	0.028075
2934	0.0319322
2946	0.0471711
2958	0.0476769
2970	0.0471078
2982	0.0837192
2994	0.113754
3006	0.0822648
3018	0.0484989
3030	0.0227003
3042	0.0101804
3054	0.0065129
3066	0.00461594
3078	0.00392038
3090	0.00303514
3102	0.00322483
3114	0.00271898
3126	0.0029719
3138	0.00404685
3150	0.0029719
3162	0.00240282
3174	0.00360422
3186	0.00404685
3198	0.00290867
3210	0.00252928
3222	0.00259251
3234	0.0031616
3246	0.00290867
3258	0.00214989
3270	0.00170726
3282	0.0017705
3294	0.00233958
3306	0.00278221
3318	0.00252928
3330	0.00183373
3342	0.00120141
3354	0.00259251
3366	0.00341453
3378	0.00120141
3390	0.00126464
3402	0.00189696
3414	0.00240282
3426	0.00240282
3438	0.00183373
3450	0.00183373
3462	0.0017705
3474	0.00240282
3486	0.0029719
3498	0.00290867
3510	0.00505856
3522	0.00708198
3534	0.00733491
3546	0.00467917
3558	0.00252928
3570	0.00145434
3582	0.00303514
3594	0.0029719
3606	0.00183373
3618	0.00094848
3630	0.000822016
3642	0.0029719
3654	0.00309837
3666	0.00303514
3678	0.00183373
3690	0.00164403
3702	0.00373069
3714	0.00284544
3726	0.00221312
3738	0.00183373
3750	0.00132787
3762	0.00347776
3774	0.00392038
3786	0.00347776
3798	0.00303514
3810	0.00373069
3822	0.00271898
3834	0.00328806
3846	0.0029719
3858	0.00309837
3870	0.00341453
3882	0.00392038
3894	0.00404685
3906	0.00354099
3918	0.00347776
3930	0.00411008
3942	0.0045527
3954	0
3966	0.000442624
