Infrared Spectrum: 2,6-Octadien-1-ol, 3,7-dimethyl-, propanoate, (Z)-
Formula: C 13 H 22 O 2
CAS: 105-91-9
Origin: Sadtler Research Labs Under US-EPA Contract
1/CM	ABSORBANCE
450	0.0092302
462	0.0136106
474	0.0163745
486	0.00881301
498	0.0150708
510	0.0176782
522	0.00516265
534	0.0121505
546	0.0143407
558	0.00797864
570	0.0111075
582	0.0210156
594	0.0124634
606	0.015488
618	0.0180954
630	0.0108989
642	0.0108468
654	0.0135063
666	0.00808294
678	0.0113161
690	0.0151751
702	0.0111597
714	0.0155923
726	0.0183561
738	0.0280556
750	0.0233102
762	0.0232059
774	0.0216414
786	0.0289943
798	0.0281078
810	0.0346263
822	0.0421877
834	0.0435957
846	0.0346784
858	0.0293072
870	0.0279513
882	0.0266998
894	0.0368165
906	0.0275341
918	0.0315495
930	0.0415098
942	0.0700869
954	0.0626297
966	0.0540253
978	0.0523044
990	0.0663844
1002	0.103044
1014	0.113109
1026	0.0758753
1038	0.0631512
1050	0.0777527
1062	0.111127
1074	0.130839
1086	0.132873
1098	0.0999156
1110	0.0913111
1122	0.0815073
1134	0.0774398
1146	0.0949615
1158	0.144241
1170	0.32629
1182	0.506253
1194	0.379481
1206	0.284519
1218	0.208279
1230	0.152846
1242	0.126302
1254	0.111388
1266	0.114308
1278	0.127502
1290	0.0862528
1302	0.053191
1314	0.0520437
1326	0.0851577
1338	0.101793
1350	0.120723
1362	0.0992898
1374	0.0915197
1386	0.117281
1398	0.0682617
1410	0.041927
1422	0.0447951
1434	0.068366
1446	0.0916762
1458	0.0972039
1470	0.108155
1482	0.0528259
1494	0.032071
1506	0.0278992
1518	0.0213807
1530	0.0187211
1542	0.0139235
1554	0.0137671
1566	0.013402
1578	0.0135585
1590	0.0128284
1602	0.0153837
1614	0.0164266
1626	0.0141321
1638	0.0166352
1650	0.0207028
1662	0.0260219
1674	0.0330618
1686	0.017626
1698	0.0212764
1710	0.0351478
1722	0.0574671
1734	0.109876
1746	0.297348
1758	0.507765
1770	0.188984
1782	0.0774398
1794	0.040154
1806	0.0228408
1818	0.0160616
1830	0.0123591
1842	0.0100646
1854	0.0107425
1866	0.00829153
1878	0.00818724
1890	0.00677924
1902	0.00703998
1914	0.00448473
1926	0.0065185
1938	0.00589272
1950	0.00672709
1962	0.00735287
1974	0.00777005
1986	0.00657065
1998	0.00740502
2010	0.00688354
2022	0.00557984
2034	0.00693568
2046	0.00573628
2058	0.00599702
2070	0.00636206
2082	0.00630991
2094	0.00563198
2106	0.00615346
2118	0.00557984
2130	0.00438043
2142	0.00427614
2154	0.00396325
2166	0.00344177
2178	0.00365036
2190	0.00359821
2202	0.00448473
2214	0.00432828
2226	0.00370251
2238	0.00281599
2250	0.00375466
2262	0.00208592
2274	0.00312888
2286	0.00359821
2298	0.0025031
2310	0.00224236
2322	0.00302458
2334	0.00302458
2346	0.000417184
2358	0.0039111
2370	0.000469332
2382	0.00354606
2394	0.00297244
2406	0.00297244
2418	0.00292029
2430	0.00458902
2442	0.00359821
2454	0.00396325
2466	0.00443258
2478	0.00406754
2490	0.00370251
2502	0.0038068
2514	0.00349392
2526	0.00312888
2538	0.00422399
2550	0.00328532
2562	0.00490191
2574	0.00448473
2586	0.00484976
2598	0.00542339
2610	0.00484976
2622	0.0040154
2634	0.00573628
2646	0.00542339
2658	0.00516265
2670	0.00599702
2682	0.00667494
2694	0.00547554
2706	0.00766576
2718	0.00766576
2730	0.0101167
2742	0.0139757
2754	0.0126198
2766	0.00975168
2778	0.0113683
2790	0.0122548
2802	0.0146014
2814	0.020077
2826	0.0265433
2838	0.0431264
2850	0.0765533
2862	0.13376
2874	0.150395
2886	0.156235
2898	0.176834
2910	0.213442
2922	0.280296
2934	0.304701
2946	0.268562
2958	0.249841
2970	0.259436
2982	0.239359
2994	0.202334
3006	0.116238
3018	0.0784827
3030	0.0595009
3042	0.0443258
3054	0.0336876
3066	0.0295158
3078	0.0219022
3090	0.0187733
3102	0.0146536
3114	0.0108989
3126	0.00886516
3138	0.00891731
3150	0.00594487
3162	0.00526695
3174	0.00552769
3186	0.00490191
3198	0.00406754
3210	0.00542339
3222	0.00229451
3234	0.00318103
3246	0.00213807
3258	0.00219022
3270	0.00177303
3282	0.00161659
3294	0.00156444
3306	0.00239881
3318	0.00417184
3330	0.0027117
3342	0.00657065
3354	0.00505836
3366	0.00474547
3378	0.0039111
3390	0.00458902
3402	0.00052148
3414	0.00359821
3426	0.00292029
3438	0.00198162
3450	0.00375466
3462	0.00464117
3474	0.00406754
3486	0.00750931
3498	0.00740502
3510	0.00234666
3522	0.00338962
3534	0.0025031
3546	0.00245096
3558	0.00354606
3570	0.00365036
3582	0.00411969
3594	0.00495406
3606	0.00370251
3618	0.00344177
3630	0.00219022
3642	0.0025031
3654	0.001408
3666	0.00422399
3678	0.00125155
3690	0.0027117
3702	0.0038068
3714	0.00192948
3726	0.00135585
3738	0.00224236
3750	0.000417184
3762	0.000417184
3774	0.000417184
3786	0.000417184
3798	0.000990812
3810	0.00292029
3822	0.00349392
3834	0.00438043
3846	0.00688354
3858	0.0039111
3870	0.00495406
3882	0.00307673
3894	0.00125155
3906	0.000365036
3918	0.00281599
3930	0.00318103
3942	0.00547554
3954	0
3966	0.000417184
