Infrared Spectrum: 6-Octen-1-ol, 3,7-dimethyl-, formate
Formula: C 11 H 20 O 2
CAS: 105-85-1
Origin: Sadtler Research Labs Under US-EPA Contract
1/CM	ABSORBANCE
450	0.0121267
462	0.00283815
474	0.00412822
486	0.00116106
498	0.00167709
510	0.00877248
522	0.00748241
534	0.00425723
546	0.00632134
558	0.00890148
570	0.00722439
582	0.00657936
594	0.00632134
606	0.0055473
618	0.00387021
630	0.00438624
642	0.00503127
654	0.00258014
666	0.00283815
678	0.0018061
690	0.00270915
702	0.00490227
714	0.00503127
726	0.00838545
738	0.0158679
750	0.017803
762	0.0145778
774	0.0163839
786	0.0220602
798	0.0232213
810	0.0278655
822	0.037154
834	0.0399922
846	0.0273495
858	0.0227052
870	0.0212862
882	0.0263174
894	0.0402502
906	0.0482486
918	0.0654065
930	0.0642455
942	0.0473456
954	0.0347029
966	0.0303166
978	0.0305747
990	0.0318647
1002	0.0305747
1014	0.0305747
1026	0.0326388
1038	0.036767
1050	0.0401212
1062	0.0384441
1074	0.0389601
1086	0.0514738
1098	0.0596012
1110	0.0815324
1122	0.1143
1134	0.165258
1146	0.345481
1158	0.813905
1170	1.23408
1182	0.893631
1194	0.362897
1206	0.160098
1218	0.105657
1230	0.0866927
1242	0.0755981
1254	0.0709538
1266	0.0675997
1278	0.0655356
1290	0.0492807
1302	0.0437334
1314	0.0428303
1326	0.036638
1338	0.0343159
1350	0.0439914
1362	0.0506998
1374	0.0894019
1386	0.134167
1398	0.0584402
1410	0.0326388
1422	0.0335418
1434	0.055344
1446	0.092756
1458	0.113397
1470	0.122557
1482	0.0695348
1494	0.0272205
1506	0.0117396
1518	0.0104496
1530	0.0092885
1542	0.00322517
1554	0.00954652
1566	0.0130297
1578	0.00851446
1590	0.0118686
1602	0.0135457
1614	0.0108366
1626	0.00980453
1638	0.0122557
1650	0.0118686
1662	0.0202541
1674	0.0227052
1686	0.0149648
1698	0.0318647
1710	0.0882408
1722	0.16242
1734	0.379926
1746	1.29007
1758	0.58466
1770	0.201122
1782	0.110688
1794	0.0530219
1806	0.0234793
1818	0.0126427
1830	0.00683737
1842	0.00490227
1854	0.00632134
1866	0.00438624
1878	0.00503127
1890	0.00387021
1902	0.00541829
1914	0.00438624
1926	0.00490227
1938	0.00567631
1950	0.00606333
1962	0.0073534
1974	0.00722439
1986	0.00632134
1998	0.00516028
2010	0.00464425
2022	0.00425723
2034	0.00567631
2046	0.00619234
2058	0.00748241
2070	0.0091595
2082	0.0091595
2094	0.00670836
2106	0.00477326
2118	0.0037412
2130	0.00296716
2142	0.00258014
2154	0.00154808
2166	0.00154808
2178	0.00141908
2190	0.000903049
2202	0.00103206
2214	0.000516028
2226	0.000129007
2238	0.000387021
2250	0.000903049
2262	0.00103206
2274	0.00232213
2286	0.00399922
2298	0.00632134
2310	0.00954652
2322	0.0103206
2334	0.00709538
2346	0.00812744
2358	0.0055473
2370	0.00245113
2382	0.00399922
2394	0.0037412
2406	0.00477326
2418	0.00464425
2430	0.00451524
2442	0.00464425
2454	0.00490227
2466	0.00516028
2478	0.00567631
2490	0.0055473
2502	0.00606333
2514	0.00645035
2526	0.00606333
2538	0.00645035
2550	0.0073534
2562	0.00825645
2574	0.0091595
2586	0.0092885
2598	0.00851446
2610	0.00748241
2622	0.00812744
2634	0.00890148
2646	0.00864347
2658	0.00851446
2670	0.0130297
2682	0.0149648
2694	0.0153518
2706	0.0161259
2718	0.0199961
2730	0.0259304
2742	0.0270915
2754	0.0216732
2766	0.0194801
2778	0.018319
2790	0.0207701
2802	0.0259304
2814	0.0330258
2826	0.0428303
2838	0.0657936
2850	0.133006
2862	0.238405
2874	0.290008
2886	0.311294
2898	0.330387
2910	0.467779
2922	0.700121
2934	0.72618
2946	0.482099
2958	0.42224
2970	0.593174
2982	0.377345
2994	0.213636
3006	0.117525
3018	0.0753401
3030	0.0605043
3042	0.0497967
3054	0.0406372
3066	0.0345739
3078	0.0313487
3090	0.0258014
3102	0.0211571
3114	0.0236083
3126	0.018448
3138	0.0139328
3150	0.0113526
3162	0.00954652
3174	0.00838545
3186	0.00761141
3198	0.0073534
3210	0.00438624
3222	0.00258014
3234	0.00219312
3246	0.00219312
3258	0.000903049
3270	0.00103206
3282	0.00167709
3294	0.00283815
3306	0.00348319
3318	0.00296716
3330	0.0036122
3342	0.00283815
3354	0.0036122
3366	0.00309617
3378	0.00270915
3390	0.00387021
3402	0.00296716
3414	0.00399922
3426	0.0036122
3438	0.00438624
3450	0.00503127
3462	0.00825645
3474	0.0157389
3486	0.0103206
3498	0.00528929
3510	0.00567631
3522	0.00451524
3534	0.0037412
3546	0.00748241
3558	0.00761141
3570	0.0091595
3582	0.00864347
3594	0.0092885
3606	0.00851446
3618	0.0103206
3630	0.00967552
3642	0.0103206
3654	0.0117396
3666	0.0127717
3678	0.0126427
3690	0.0109656
3702	0.0101916
3714	0.0100625
3726	0.0110946
3738	0.00851446
3750	0.00709538
3762	0.0107076
3774	0.00851446
3786	0.0117396
3798	0.00838545
3810	0.00864347
3822	0.0105786
3834	0.00954652
3846	0.0113526
3858	0.0108366
3870	0.0118686
3882	0.00903049
3894	0.00696638
3906	0.00825645
3918	0.00890148
3930	0.0101916
3942	0.0130297
3954	0.00980453
3966	0.0112236
