Infrared Spectrum: Butanoic acid, 3-oxo-, methyl ester
Formula: C 5 H 8 O 3
CAS: 105-45-3
Origin: Sadtler Research Labs Under US-EPA Contract
1/CM	ABSORBANCE
450	0
462	0.000461151
474	0.00261319
486	0.0069685
498	0.00835196
510	0.0112726
522	0.0181898
534	0.0302822
546	0.0281302
558	0.0180361
570	0.00968417
582	0.00958169
594	0.00855691
606	0.0101453
618	0.0127585
630	0.0135271
642	0.0102478
654	0.00619992
666	0.00645611
678	0.00773709
690	0.00850567
702	0.0109651
714	0.0130147
726	0.018651
738	0.0263368
750	0.0142444
762	0.010504
774	0.0114775
786	0.0214691
798	0.0389929
810	0.0390954
822	0.0406325
834	0.0417085
846	0.0375582
858	0.0284889
870	0.0247997
882	0.0287963
894	0.0296674
906	0.0256195
918	0.0182923
930	0.0120412
942	0.0103503
954	0.0120412
966	0.0154229
978	0.0221352
990	0.0341252
1002	0.0565166
1014	0.0555943
1026	0.0593348
1038	0.0926401
1050	0.103656
1062	0.0529811
1074	0.0309996
1086	0.0237237
1098	0.027003
1110	0.0366871
1122	0.0596422
1134	0.111394
1146	0.233957
1158	0.319219
1170	0.267263
1182	0.250354
1194	0.239081
1206	0.212437
1218	0.197116
1230	0.277869
1242	0.484055
1254	0.450852
1266	0.216638
1278	0.185075
1290	0.182206
1302	0.199166
1314	0.235751
1326	0.207518
1338	0.124357
1350	0.100787
1362	0.119489
1374	0.118003
1386	0.0805989
1398	0.0750651
1410	0.090898
1422	0.0759874
1434	0.11288
1446	0.160327
1458	0.125023
1470	0.0658421
1482	0.0363285
1494	0.0254658
1506	0.0214179
1518	0.018856
1530	0.0180361
1542	0.0200344
1554	0.0207518
1566	0.0207518
1578	0.0238261
1590	0.028079
1602	0.0314095
1614	0.0428358
1626	0.0976103
1638	0.200396
1650	0.183589
1662	0.137935
1674	0.128046
1686	0.112111
1698	0.0969442
1710	0.106475
1722	0.18815
1734	0.356623
1746	0.449007
1758	0.39823
1770	0.364104
1782	0.251071
1794	0.102529
1806	0.0367896
1818	0.017575
1830	0.0113238
1842	0.00758337
1854	0.00625116
1866	0.00553381
1878	0.00548257
1890	0.00522638
1902	0.00502142
1914	0.00445779
1926	0.00440655
1938	0.0039454
1950	0.00379169
1962	0.00399664
1974	0.00338177
1986	0.00461151
1998	0.00445779
2010	0.00532886
2022	0.00563629
2034	0.00558505
2046	0.00584125
2058	0.00497018
2070	0.00507266
2082	0.00404788
2094	0.00497018
2106	0.00456027
2118	0.00404788
2130	0.00343301
2142	0.00384293
2154	0.00363797
2166	0.00343301
2178	0.00333053
2190	0.00425284
2202	0.00317682
2214	0.00138345
2226	0.000666107
2238	0.0011785
2250	0.000666107
2262	0.00199832
2274	0.00102478
2286	0.00169089
2298	0.00230576
2310	0.00379169
2322	0.00445779
2334	0.00251071
2346	0.00476523
2358	0.00266443
2370	0.0011785
2382	0.00374045
2394	0.00307434
2406	0.00317682
2418	0.0021008
2430	0.00235699
2442	0.00266443
2454	0.00266443
2466	0.00225452
2478	0.00348425
2490	0.00169089
2502	0.00266443
2514	0.00220328
2526	0.00220328
2538	0.00317682
2550	0.00317682
2562	0.00368921
2574	0.00271567
2586	0.00333053
2598	0.00430408
2610	0.00379169
2622	0.00425284
2634	0.00409912
2646	0.00384293
2658	0.00430408
2670	0.0032793
2682	0.00363797
2694	0.00368921
2706	0.00409912
2718	0.00435532
2730	0.0032793
2742	0.00389416
2754	0.00456027
2766	0.00527762
2778	0.00619992
2790	0.00640487
2802	0.00773709
2814	0.00901806
2826	0.010709
2838	0.0146544
2850	0.0241848
2862	0.024236
2874	0.0191634
2886	0.0195221
2898	0.0206493
2910	0.0262344
2922	0.0312046
2934	0.0397615
2946	0.048677
2958	0.101914
2970	0.111291
2982	0.0503167
2994	0.0481647
3006	0.0567216
3018	0.0567216
3030	0.0490357
3042	0.0369946
3054	0.0251583
3066	0.0226476
3078	0.0198295
3090	0.0196758
3102	0.0184973
3114	0.0164477
3126	0.0141932
3138	0.0118874
3150	0.0112213
3162	0.0110676
3174	0.00999161
3186	0.00994037
3198	0.00922302
3210	0.00794205
3222	0.00712222
3234	0.00671231
3246	0.00543133
3258	0.00435532
3270	0.00476523
3282	0.00471399
3294	0.00430408
3306	0.0048677
3318	0.00476523
3330	0.00389416
3342	0.00471399
3354	0.00307434
3366	0.00430408
3378	0.00297186
3390	0.0030231
3402	0.00261319
3414	0.00235699
3426	0.00240823
3438	0.0039454
3450	0.00389416
3462	0.00753213
3474	0.00579001
3486	0.00548257
3498	0.00558505
3510	0.00409912
3522	0.00440655
3534	0.00204956
3546	0.00102478
3558	0.00112726
3570	0.00174213
3582	0.0021008
3594	0.00169089
3606	0.0011785
3618	0.00179337
3630	0.000768585
3642	0.00133221
3654	0.00256195
3666	0.00122974
3678	0.00220328
3690	0.0011785
3702	0.00128097
3714	0.00107602
3726	0.000819824
3738	0.00245947
3750	0.000871063
3762	0.00138345
3774	0.0011785
3786	0.000307434
3798	0.000307434
3810	0.00153717
3822	0.00148593
3834	0.00153717
3846	0.000307434
3858	0.00107602
3870	0.00051239
3882	0.000563629
3894	0.000717346
3906	0.00153717
3918	0.000717346
3930	0.000307434
3942	0.000307434
3954	0.00215204
3966	0.00286938
