Infrared Spectrum: Butanoic acid, ethyl ester
Formula: C 6 H 12 O 2
CAS: 105-54-4
Origin: Sadtler Research Labs Under US-EPA Contract
1/CM	ABSORBANCE
450	0.00896057
462	0.00918838
474	0.00622683
486	0.00250592
498	0.0020503
510	0.00303748
522	0.00151874
534	0.00136687
546	0.00174655
558	0.00372091
570	0.00804932
582	0.00880869
594	0.0129852
606	0.0118462
618	0.0100237
630	0.0115424
642	0.00599902
654	0.00432841
666	0.00235405
678	0.0026578
690	0.00326529
702	0.00599902
714	0.00622683
726	0.00653058
738	0.00835307
750	0.0121499
762	0.0153393
774	0.0191361
786	0.0207308
798	0.0221736
810	0.0193639
822	0.0147318
834	0.0161746
846	0.0233886
858	0.0243758
870	0.0187564
882	0.0130612
894	0.0121499
906	0.0159468
918	0.0287042
930	0.0389557
942	0.0293876
954	0.0139724
966	0.00744183
978	0.00744183
990	0.0103274
1002	0.0190602
1014	0.0502703
1026	0.120892
1038	0.14747
1050	0.135092
1062	0.121879
1074	0.117247
1086	0.167365
1098	0.237607
1110	0.229102
1122	0.143065
1134	0.0945416
1146	0.12036
1158	0.245808
1170	0.547126
1182	0.75937
1194	0.572869
1206	0.348779
1218	0.223483
1230	0.202828
1242	0.232367
1254	0.283321
1266	0.244289
1278	0.154836
1290	0.148001
1302	0.169112
1314	0.123398
1326	0.0817841
1338	0.0951491
1350	0.123398
1362	0.12522
1374	0.155063
1386	0.120132
1398	0.0660652
1410	0.0484478
1422	0.0501944
1434	0.068723
1446	0.0757851
1458	0.0884666
1470	0.0924913
1482	0.060294
1494	0.032501
1506	0.018073
1518	0.0107831
1530	0.00926431
1542	0.00455622
1554	0.00668246
1566	0.00531559
1578	0.00387279
1590	0.00577121
1602	0.00485997
1614	0.00516372
1626	0.00653058
1638	0.00485997
1650	0.00713808
1662	0.00728995
1674	0.0107071
1686	0.0135927
1698	0.022857
1710	0.0406263
1722	0.0801895
1734	0.219154
1746	0.568768
1758	0.734615
1770	0.419552
1782	0.114209
1794	0.0358423
1806	0.0184527
1818	0.0123018
1830	0.00926431
1842	0.00766964
1854	0.00569528
1866	0.00592309
1878	0.00584715
1890	0.0055434
1902	0.00432841
1914	0.0041006
1926	0.00402466
1938	0.00485997
1950	0.00455622
1962	0.00470809
1974	0.00425247
1986	0.00303748
1998	0.00235405
2010	0.0026578
2022	0.00334123
2034	0.00417654
2046	0.00425247
2058	0.0041006
2070	0.00334123
2082	0.00334123
2094	0.00235405
2106	0.00212624
2118	0.00235405
2130	0.00189843
2142	0.000835307
2154	0.000379685
2166	0.00075937
2178	0.000455622
2190	0
2202	7.5937e-05
2214	0.00075937
2226	0.000531559
2238	0.000531559
2250	0.000987181
2262	0.00121499
2274	0.00159468
2286	0.00159468
2298	0.00113905
2310	0.00167061
2322	0.00174655
2334	0.000835307
2346	0.00129093
2358	0.00151874
2370	0.00197436
2382	0.0014428
2394	0.00075937
2406	0.00136687
2418	0.00220217
2430	0.00189843
2442	0.00113905
2454	0.000835307
2466	0.00136687
2478	0.00121499
2490	0.000911244
2502	0.0014428
2514	0.00151874
2526	0.00106312
2538	0.000987181
2550	0.000987181
2562	0.00151874
2574	0.00106312
2586	0.000607496
2598	0.000683433
2610	0.00159468
2622	0.00121499
2634	0.00113905
2646	0.00151874
2658	0.00212624
2670	0.00273373
2682	0.00273373
2694	0.00235405
2706	0.0026578
2718	0.00341717
2730	0.00440435
2742	0.0055434
2754	0.00675839
2766	0.00668246
2778	0.00691027
2790	0.00751776
2802	0.00873276
2814	0.0115424
2826	0.0142002
2838	0.0183008
2850	0.0234645
2862	0.0345513
2874	0.0689508
2886	0.1256
2898	0.120664
2910	0.112007
2922	0.129397
2934	0.179059
2946	0.258034
2958	0.266994
2970	0.335034
2982	0.412186
2994	0.303672
3006	0.151722
3018	0.0730514
3030	0.0347791
3042	0.0205789
3054	0.0150355
3066	0.012074
3078	0.00987181
3090	0.00911244
3102	0.00873276
3114	0.00782151
3126	0.00622683
3138	0.00645465
3150	0.00691027
3162	0.00660652
3174	0.0055434
3186	0.00531559
3198	0.0055434
3210	0.00478403
3222	0.00326529
3234	0.00250592
3246	0.00235405
3258	0.00258186
3270	0.00159468
3282	0.00167061
3294	0.00227811
3306	0.00197436
3318	0.00159468
3330	0.00129093
3342	0.00189843
3354	0.00235405
3366	0.00197436
3378	0.0014428
3390	0.00151874
3402	0.00197436
3414	0.00129093
3426	0.00159468
3438	0.00167061
3450	0.00227811
3462	0.00326529
3474	0.00448028
3486	0.00865682
3498	0.00926431
3510	0.00516372
3522	0.00212624
3534	0.00189843
3546	0.00242998
3558	0.00311342
3570	0.00197436
3582	0.00212624
3594	0.00235405
3606	0.00197436
3618	0.00106312
3630	0.000683433
3642	0.00250592
3654	0.0020503
3666	0.00197436
3678	0.000911244
3690	0.0020503
3702	0.00288561
3714	0.00288561
3726	0.00288561
3738	0.0020503
3750	0.0026578
3762	0.00311342
3774	0.00326529
3786	0.00379685
3798	0.00311342
3810	0.00296154
3822	0.00250592
3834	0.00227811
3846	0.00311342
3858	0.00280967
3870	0.00174655
3882	0.00258186
3894	0.00197436
3906	0.00227811
3918	0.00220217
3930	0.00288561
3942	0.00311342
3954	0.0026578
3966	0.00242998
