Infrared Spectrum: 2-Butenedioic acid (Z)-, dibutyl ester
Formula: C 12 H 20 O 4
CAS: 105-76-0
Origin: Sadtler Research Labs Under US-EPA Contract
1/CM	ABSORBANCE
450	0.00282293
462	0.00509354
474	0.00472534
486	0.00582996
498	0.00650501
510	0.00705732
522	0.00490944
534	0.00386618
546	0.000368208
558	0.00245472
570	0.00294566
582	0.00546175
594	0.00601406
606	0.00908246
618	0.00705732
630	0.00497081
642	0.00447986
654	0.00540038
666	0.00349798
678	0.00490944
690	0.00503218
702	0.00656638
714	0.00675048
726	0.00828468
738	0.0108621
750	0.0122736
762	0.0124577
774	0.0130714
786	0.0147283
798	0.0257132
810	0.0350411
822	0.0279838
834	0.0409938
846	0.039521
858	0.028843
870	0.020006
882	0.0178581
894	0.0178581
906	0.0174285
918	0.0161398
930	0.0181649
942	0.0302544
954	0.0486648
966	0.059036
978	0.0616748
990	0.053022
1002	0.0660933
1014	0.0882472
1026	0.0784897
1038	0.0415461
1050	0.0363912
1062	0.065541
1074	0.0526537
1086	0.0296407
1098	0.0287202
1110	0.0365753
1122	0.0558449
1134	0.0877562
1146	0.197605
1158	0.452405
1170	0.418039
1182	0.283643
1194	0.319114
1206	0.381586
1218	0.284625
1230	0.211167
1242	0.193432
1254	0.182877
1266	0.168517
1278	0.178274
1290	0.179072
1302	0.107578
1314	0.0605088
1326	0.0393983
1338	0.0285361
1350	0.0273701
1362	0.0362071
1374	0.074378
1386	0.0681185
1398	0.0945067
1410	0.102791
1422	0.0344274
1434	0.0262655
1446	0.0330774
1458	0.0490944
1470	0.0567654
1482	0.0339979
1494	0.015342
1506	0.0101871
1518	0.00742553
1530	0.00601406
1542	0.00570722
1554	0.00576859
1566	0.00540038
1578	0.00656638
1590	0.00711869
1602	0.00945067
1614	0.0133782
1626	0.0242404
1638	0.0467624
1650	0.0463942
1662	0.0263882
1674	0.0174285
1686	0.0201287
1698	0.0277383
1710	0.0457192
1722	0.0803307
1734	0.210554
1746	0.578148
1758	0.42215
1770	0.133966
1782	0.0539425
1794	0.03185
1806	0.0216629
1818	0.0144828
1830	0.00853015
1842	0.00638227
1854	0.00552312
1866	0.00466397
1878	0.00447986
1890	0.00411166
1902	0.00386618
1914	0.00374345
1926	0.00374345
1938	0.00331387
1950	0.00337524
1962	0.00343661
1974	0.00337524
1986	0.00337524
1998	0.00331387
2010	0.00374345
2022	0.00368208
2034	0.00331387
2046	0.00380482
2058	0.00331387
2070	0.0032525
2082	0.00263882
2094	0.00270019
2106	0.00270019
2118	0.00263882
2130	0.00263882
2142	0.00257746
2154	0.00257746
2166	0.00202514
2178	0.00214788
2190	0.00208651
2202	0.00159557
2214	0.00159557
2226	0.00092052
2238	0.00104326
2250	0.000981888
2262	0.00104326
2274	0.00104326
2286	0.00141146
2298	0.00220925
2310	0.00233198
2322	0.00270019
2334	0.00251609
2346	0.00245472
2358	0.00227062
2370	0.00147283
2382	0.00251609
2394	0.00227062
2406	0.00227062
2418	0.0017183
2430	0.00147283
2442	0.00128873
2454	0.00122736
2466	0.000736416
2478	0.000736416
2490	0.00061368
2502	0.000675048
2514	0.000122736
2526	0.000122736
2538	0.000429576
2550	0.000122736
2562	0.000675048
2574	0.000675048
2586	0.00122736
2598	0.00116599
2610	0.00116599
2622	0.00122736
2634	0.0013501
2646	0.00128873
2658	0.00159557
2670	0.00177967
2682	0.0017183
2694	0.00227062
2706	0.00257746
2718	0.00270019
2730	0.0032525
2742	0.00429576
2754	0.00509354
2766	0.00484807
2778	0.00490944
2790	0.00540038
2802	0.00601406
2814	0.00736416
2826	0.00981888
2838	0.0137464
2850	0.024179
2862	0.0384777
2874	0.0661547
2886	0.0997844
2898	0.0795329
2910	0.0847492
2922	0.107149
2934	0.132248
2946	0.178581
2958	0.19245
2970	0.285484
2982	0.171217
2994	0.0712482
3006	0.0328932
3018	0.0189627
3030	0.0134396
3042	0.0107394
3054	0.00914383
3066	0.0106167
3078	0.00699595
3090	0.00466397
3102	0.00386618
3114	0.00331387
3126	0.00282293
3138	0.00257746
3150	0.00239335
3162	0.00196378
3174	0.00190241
3186	0.00190241
3198	0.00233198
3210	0.00208651
3222	0.00104326
3234	0.0015342
3246	0.00128873
3258	0.00061368
3270	0.00110462
3282	0.00061368
3294	0.000552312
3306	0.00122736
3318	0.00110462
3330	0.000736416
3342	0.000675048
3354	0.000429576
3366	0.00116599
3378	0.000797784
3390	0.00030684
3402	0.000859152
3414	0.00104326
3426	0.00165694
3438	0.00177967
3450	0.00190241
3462	0.00276156
3474	0.0047867
3486	0.00472534
3498	0.0032525
3510	0.00177967
3522	0.00061368
3534	0.00092052
3546	0.00128873
3558	0.00030684
3570	0.0013501
3582	0.000981888
3594	0.000368208
3606	0.000981888
3618	0.000736416
3630	0.00220925
3642	0.00208651
3654	0.000736416
3666	0.00159557
3678	0.00220925
3690	0.0017183
3702	0.00245472
3714	0.00257746
3726	0.00165694
3738	0.00245472
3750	0.00104326
3762	0.00147283
3774	0.00159557
3786	0.00141146
3798	0.00184104
3810	0.00263882
3822	0.00202514
3834	0.00147283
3846	0.00227062
3858	0.00233198
3870	0.00122736
3882	0.00202514
3894	0.00239335
3906	0.00147283
3918	0.0017183
3930	0.00233198
3942	0.0030684
3954	0.00257746
3966	0.00177967
