Infrared Spectrum: Acetic acid, chloro-, ethyl ester
Formula: C 4 H 7 Cl O 2
CAS: 105-39-5
Origin: Sadtler Research Labs Under US-EPA Contract
1/CM	ABSORBANCE
450	0.0357955
462	0.0109375
474	0.0117661
486	0.00381156
498	0.00928032
510	0.0119318
522	0.008286
534	0.013589
546	0.0185606
558	0.0299953
570	0.0616478
582	0.085843
594	0.0805399
606	0.0618136
618	0.0450758
630	0.0280067
642	0.0182292
654	0.0192235
666	0.0316525
678	0.0560134
690	0.0977748
702	0.106227
714	0.0783856
726	0.0540247
738	0.0442472
750	0.0462359
762	0.0636365
774	0.100758
786	0.176823
798	0.184778
810	0.0906488
822	0.0382813
834	0.0243608
846	0.0258523
858	0.0409328
870	0.0454073
882	0.0215436
894	0.0099432
906	0.0238637
918	0.0860087
930	0.138873
942	0.114513
954	0.0553505
966	0.0140862
978	0.0104404
990	0.019555
1002	0.0503789
1014	0.158097
1026	0.482245
1038	0.723202
1050	0.389111
1062	0.133736
1074	0.095289
1086	0.129262
1098	0.23814
1110	0.305422
1122	0.439158
1134	0.655423
1146	0.722871
1158	0.911129
1170	1.21506
1182	0.929523
1194	0.516384
1206	0.379665
1218	0.359944
1230	0.412643
1242	0.62377
1254	0.973605
1266	0.874504
1278	0.962005
1290	1.29676
1302	1.12391
1314	0.74342
1326	0.312714
1338	0.134896
1350	0.0904831
1362	0.137216
1374	0.205824
1386	0.126942
1398	0.0962833
1410	0.101586
1422	0.17268
1434	0.205659
1446	0.13357
1458	0.118158
1470	0.126444
1482	0.0971119
1494	0.0510418
1506	0.0273438
1518	0.016572
1530	0.0104404
1542	0.0104404
1554	0.00646308
1566	0.00232008
1578	0.00182292
1590	0.0016572
1602	0.00049716
1614	0.00364584
1626	0.00613164
1638	0.00513732
1650	0.0099432
1662	0.00712596
1674	0.00861744
1686	0.021875
1698	0.034304
1710	0.0682766
1722	0.137216
1734	0.302936
1746	0.900522
1758	1.50523
1770	1.4421
1782	1.0858
1794	0.672823
1806	0.310559
1818	0.139205
1830	0.0697681
1842	0.04027
1854	0.0240294
1866	0.0175663
1878	0.0164063
1890	0.013589
1902	0.00944604
1914	0.00613164
1926	0.00348012
1938	0.0049716
1950	0.00712596
1962	0.0074574
1974	0.00778884
1986	0.00679452
1998	0.00513732
2010	0.00480588
2022	0.00464016
2034	0.00546876
2046	0.00712596
2058	0.00546876
2070	0.00447444
2082	0.00530304
2094	0.00546876
2106	0.00546876
2118	0.00513732
2130	0.004143
2142	0.0049716
2154	0.00397728
2166	0.0024858
2178	0.00232008
2190	0.0016572
2202	0.0016572
2214	0.00314868
2226	0.00381156
2238	0.00314868
2250	0.00198864
2262	0.00066288
2274	0.00049716
2286	0.0008286
2298	0
2310	0.00049716
2322	0.00265152
2334	0.00364584
2346	0.00314868
2358	0.00182292
2370	0.00215436
2382	0.00182292
2394	0.0016572
2406	0.00215436
2418	0.00348012
2430	0.00364584
2442	0.00281724
2454	0.00298296
2466	0.00298296
2478	0.00314868
2490	0.0033144
2502	0.00265152
2514	0.00298296
2526	0.00314868
2538	0.00281724
2550	0.0033144
2562	0.00281724
2574	0.00198864
2586	0.00215436
2598	0.0016572
2610	0.00132576
2622	0.00232008
2634	0.00132576
2646	0.00116004
2658	0.00198864
2670	0.00298296
2682	0.00447444
2694	0.0049716
2706	0.00447444
2718	0.004143
2730	0.00530304
2742	0.00563448
2754	0.00613164
2766	0.0074574
2778	0.00928032
2790	0.0104404
2802	0.0099432
2814	0.0116004
2826	0.0169034
2838	0.0203836
2850	0.023698
2862	0.0313211
2874	0.0460702
2886	0.0739111
2898	0.0876659
2910	0.103409
2922	0.114513
2934	0.135393
2946	0.206487
2958	0.230517
2970	0.265483
2982	0.415626
2994	0.470479
3006	0.304096
3018	0.177486
3030	0.0821971
3042	0.04027
3054	0.0246923
3066	0.0170692
3078	0.0127604
3090	0.0114347
3102	0.0102746
3114	0.00977748
3126	0.00961176
3138	0.00894888
3150	0.00812028
3162	0.00762312
3174	0.0074574
3186	0.0066288
3198	0.00646308
3210	0.00513732
3222	0.004143
3234	0.004143
3246	0.00314868
3258	0.0024858
3270	0.0016572
3282	0.0016572
3294	0.00198864
3306	0.0016572
3318	0.00099432
3330	0.00132576
3342	0.00182292
3354	0.0008286
3366	0.0016572
3378	0.00099432
3390	0.0008286
3402	0.00116004
3414	0.00099432
3426	0.00132576
3438	0.00116004
3450	0.00049716
3462	0.00198864
3474	0.00381156
3486	0.008286
3498	0.0116004
3510	0.0111032
3522	0.0102746
3534	0.0109375
3546	0.0119318
3558	0.0125947
3570	0.0394414
3582	0.0468988
3594	0.0371213
3606	0.00480588
3618	0.00116004
3630	0.00116004
3642	0.00182292
3654	0.00182292
3666	0.00198864
3678	0.004143
3690	0.00198864
3702	0.00132576
3714	0.00066288
3726	0.00049716
3738	0.00099432
3750	0.00215436
3762	0.00033144
3774	0.00198864
3786	0.00215436
3798	0.00049716
3810	0.00132576
3822	0.00232008
3834	0.00132576
3846	0.0024858
3858	0.00298296
3870	0.00182292
3882	0.0024858
3894	0.00198864
3906	0.00198864
3918	0.00099432
3930	0.00066288
3942	0.0016572
3954	0.0016572
3966	0.0008286
