Infrared Spectrum: Propanoic acid, ethenyl ester
Formula: C 5 H 8 O 2
CAS: 105-38-4
Origin: Sadtler Research Labs Under US-EPA Contract
1/CM	ABSORBANCE
450	0.00615955
462	0.00709518
474	0.00647143
486	0.00576971
498	0.00499002
510	0.00514595
522	0.00888847
534	0
546	0.00951222
558	0.00966816
570	0.0138785
582	0.0143463
594	0.0196482
606	0.0180888
618	0.0141124
630	0.010058
642	0.00865456
654	0.00834268
666	0.00756299
678	0.010058
690	0.0120852
702	0.0123191
714	0.00935628
726	0.00748502
738	0.00795284
750	0.00896644
762	0.0104478
774	0.0113055
786	0.0127869
798	0.0152819
810	0.0197262
822	0.0221432
834	0.0256518
846	0.0454559
858	0.0722773
870	0.108845
882	0.0787487
894	0.0481848
906	0.0237805
918	0.0261976
930	0.0459237
942	0.0626091
954	0.0644804
966	0.0417134
978	0.0292384
990	0.0383607
1002	0.0732909
1014	0.090522
1026	0.0646363
1038	0.0463916
1050	0.0697823
1062	0.102841
1074	0.103387
1086	0.080386
1098	0.0693924
1110	0.083037
1122	0.137615
1134	0.309615
1146	0.577516
1158	0.755442
1170	0.7655
1182	0.579544
1194	0.385089
1206	0.275231
1218	0.158199
1230	0.109313
1242	0.0856879
1254	0.0763317
1266	0.0863897
1278	0.0840506
1290	0.0769554
1302	0.0632329
1314	0.0522392
1326	0.0778131
1338	0.111106
1350	0.145802
1362	0.130832
1374	0.0661957
1386	0.0445203
1398	0.0304859
1410	0.022611
1422	0.0274451
1434	0.0341504
1446	0.0356318
1458	0.0434287
1470	0.0516934
1482	0.0389065
1494	0.017699
1506	0.0130988
1518	0.0107597
1530	0.0106038
1542	0.0116954
1554	0.0143463
1566	0.0174651
1578	0.0172311
1590	0.0140344
1602	0.01497
1614	0.0224551
1626	0.045222
1638	0.13512
1650	0.228293
1662	0.160304
1674	0.0261196
1686	0.0146582
1698	0.0160616
1710	0.0182447
1722	0.0237805
1734	0.0386726
1746	0.0923153
1758	0.243653
1770	0.477014
1782	0.490113
1794	0.288017
1806	0.0881829
1818	0.0271332
1830	0.0156718
1842	0.0129429
1854	0.0116174
1866	0.0130208
1878	0.0127089
1890	0.0121632
1902	0.0103699
1914	0.00888847
1926	0.00787487
1938	0.00764096
1950	0.00686127
1962	0.00608158
1974	0.00615955
1986	0.00701721
1998	0.0090444
2010	0.0113835
2022	0.0129429
2034	0.0118513
2046	0.00951222
2058	0.00849862
2070	0.00842065
2082	0.00896644
2094	0.00725112
2106	0.00522392
2118	0.0042883
2130	0.00444423
2142	0.00444423
2154	0.00499002
2166	0.00467814
2178	0.0042883
2190	0.0042883
2202	0.0042883
2214	0.0042883
2226	0.00421033
2238	0.00421033
2250	0.00467814
2262	0.00522392
2274	0.00662736
2286	0.00803081
2298	0.00896644
2310	0.00818675
2322	0.00693924
2334	0.00483408
2346	0.00335267
2358	0.0042883
2370	0.00148141
2382	0.00241704
2394	0.00343064
2406	0.00382048
2418	0.00335267
2430	0.0032747
2442	0.0032747
2454	0.00319673
2466	0.0032747
2478	0.00272892
2490	0.00265095
2502	0.00265095
2514	0.00257298
2526	0.00249501
2538	0.00257298
2550	0.00257298
2562	0.00249501
2574	0.00296282
2586	0.00280688
2598	0.00233907
2610	0.00179329
2622	0.00171532
2634	0.00218313
2646	0.00218313
2658	0.00257298
2670	0.00265095
2682	0.00265095
2694	0.00311876
2706	0.0035086
2718	0.00319673
2730	0.00319673
2742	0.00421033
2754	0.00358657
2766	0.00413236
2778	0.00413236
2790	0.00506798
2802	0.00514595
2814	0.00537986
2826	0.00584768
2838	0.00701721
2850	0.00756299
2862	0.00849862
2874	0.0102919
2886	0.0189465
2898	0.027601
2910	0.027679
2922	0.0243263
2934	0.0329809
2946	0.0534867
2958	0.0607379
2970	0.0530189
2982	0.065338
2994	0.0816335
3006	0.0620633
3018	0.0336826
3030	0.0194922
3042	0.0147361
3054	0.0142683
3066	0.012631
3078	0.0103699
3090	0.0196482
3102	0.0224551
3114	0.01497
3126	0.0157497
3138	0.015048
3150	0.00623752
3162	0.0042883
3174	0.0042883
3186	0.00366454
3198	0.00421033
3210	0.00319673
3222	0.00311876
3234	0.00280688
3246	0.00233907
3258	0.00202719
3270	0.00265095
3282	0.00202719
3294	0.00257298
3306	0.00311876
3318	0.00233907
3330	0.00194922
3342	0.00241704
3354	0.00296282
3366	0.00233907
3378	0.00233907
3390	0.00202719
3402	0.00202719
3414	0.00249501
3426	0.00319673
3438	0.00179329
3450	0.0022611
3462	0.00319673
3474	0.00265095
3486	0.00304079
3498	0.00304079
3510	0.00304079
3522	0.00631549
3534	0.00803081
3546	0.00740706
3558	0.00561377
3570	0.00647143
3582	0.00740706
3594	0.00576971
3606	0.00280688
3618	0.00194922
3630	0.00179329
3642	0.0022611
3654	0.00132547
3666	0.00311876
3678	0.00218313
3690	0.00257298
3702	0.00249501
3714	0.00210516
3726	0.0032747
3738	0.00265095
3750	0.00233907
3762	0.00241704
3774	0.00288485
3786	0.00272892
3798	0.00319673
3810	0.00319673
3822	0.00296282
3834	0.00374251
3846	0.0032747
3858	0.00382048
3870	0.00366454
3882	0.0035086
3894	0.00444423
3906	0.0035086
3918	0.00280688
3930	0.00257298
3942	0.00296282
3954	0.0022611
3966	0.00483408
