Infrared Spectrum: Caprolactam
Formula: C 6 H 11 N O
CAS: 105-60-2
Origin: Sadtler Research Labs Under US-EPA Contract
1/CM	ABSORBANCE
450	0.00627128
462	0.0182651
474	0.0430367
486	0.0546385
498	0.0569119
510	0.0515029
522	0.0373141
534	0.0250067
546	0.019049
558	0.0243012
570	0.0355111
582	0.0359031
594	0.0216359
606	0.0149727
618	0.0105828
630	0.00658484
642	0.0052522
654	0.00564415
666	0.00634967
678	0.0145807
690	0.0225766
702	0.0235173
714	0.0191274
726	0.0129345
738	0.0110531
750	0.00666323
762	0.00290047
774	0.00156782
786	0.00517381
798	0.00407633
810	0.00572254
822	0.00627128
834	0.00932853
846	0.0120722
858	0.0155214
870	0.0177164
882	0.0134049
894	0.00838784
906	0.00650645
918	0.00486024
930	0.00925014
942	0.0186571
954	0.0245364
966	0.0206952
978	0.017638
990	0.0166189
1002	0.0183435
1014	0.0214007
1026	0.0177948
1038	0.00987727
1050	0.010818
1062	0.0157566
1074	0.0224198
1086	0.0243012
1098	0.0166973
1110	0.0241444
1122	0.0423311
1134	0.0332378
1146	0.0137968
1158	0.0191274
1170	0.025869
1182	0.0373925
1194	0.0529923
1206	0.0463291
1218	0.0388819
1230	0.0440557
1242	0.0399794
1254	0.0387252
1266	0.038098
1278	0.0278288
1290	0.0401362
1302	0.0717278
1314	0.0743147
1326	0.0562063
1338	0.0645158
1350	0.0970481
1362	0.104182
1374	0.0753338
1386	0.0505622
1398	0.0467994
1410	0.0445261
1422	0.0824673
1434	0.115078
1446	0.111158
1458	0.10622
1470	0.096029
1482	0.0570686
1494	0.0181083
1506	0.012621
1518	0.0087014
1530	0.00634967
1542	0.0107396
1554	0.00666323
1566	0.00423311
1578	0.00478185
1590	0.00509541
1602	0.00776071
1614	0.0112099
1626	0.0141104
1638	0.0170892
1650	0.0200681
1662	0.0320619
1674	0.0666324
1686	0.161721
1698	0.401675
1710	0.737346
1722	0.66162
1734	0.179672
1746	0.054325
1758	0.0271233
1770	0.019441
1782	0.0163053
1794	0.0164621
1806	0.00987727
1818	0.00595772
1830	0.00603611
1842	0.00180299
1854	0.00266529
1866	0.00290047
1878	0.00219495
1890	0.00219495
1902	0.00078391
1914	0.000470346
1926	0.00101908
1938	0.000548737
1950	0.000548737
1962	0.000548737
1974	0.000156782
1986	0.00101908
1998	0.000548737
2010	0.000548737
2022	0.000470346
2034	0.000627128
2046	0.000548737
2058	0.000313564
2070	0.000548737
2082	0.000470346
2094	0.000548737
2106	0.000548737
2118	0.000470346
2130	0.000470346
2142	0.000391955
2154	0.000470346
2166	0.000862301
2178	0.000391955
2190	0.00141104
2202	0.00125426
2214	0.000627128
2226	0.00101908
2238	0.00078391
2250	0.00078391
2262	0.00101908
2274	0.000705519
2286	0.00078391
2298	0.00156782
2310	0.00219495
2322	0.00384116
2334	0.00235173
2346	0.00337081
2358	0.00470346
2370	0.00274369
2382	0.00274369
2394	0.000940692
2406	0.000940692
2418	0.000391955
2430	0.000470346
2442	0.000470346
2454	0.000627128
2466	0.000627128
2478	0.000627128
2490	0.000705519
2502	0.00117587
2514	0.00117587
2526	0.00125426
2538	0.00141104
2550	0.00101908
2562	0.00125426
2574	0.00125426
2586	0.00078391
2598	0.000940692
2610	0.000862301
2622	0.00133265
2634	0.00235173
2646	0.00313564
2658	0.00274369
2670	0.00290047
2682	0.0043899
2694	0.00517381
2706	0.00462507
2718	0.00454668
2730	0.00329242
2742	0.00423311
2754	0.00391955
2766	0.00454668
2778	0.00478185
2790	0.0069768
2802	0.0087014
2814	0.00964209
2826	0.0107396
2838	0.0186571
2850	0.0428015
2862	0.0844271
2874	0.100027
2886	0.0762744
2898	0.0614585
2910	0.076588
2922	0.170579
2934	0.310664
2946	0.302276
2958	0.168697
2970	0.0891306
2982	0.0705519
2994	0.0295534
3006	0.0108963
3018	0.00854462
3030	0.00446829
3042	0.00337081
3054	0.00274369
3066	0.00305725
3078	0.00243012
3090	0.00337081
3102	0.0025869
3114	0.00274369
3126	0.00486024
3138	0.00407633
3150	0.00360599
3162	0.00282208
3174	0.00243012
3186	0.00243012
3198	0.00180299
3210	0.00195977
3222	0.00141104
3234	0.00180299
3246	0.00180299
3258	0.00164621
3270	0.000940692
3282	0.00141104
3294	0.00078391
3306	0.00117587
3318	0.000940692
3330	7.8391e-05
3342	0.00148943
3354	0.000862301
3366	0.00274369
3378	0.00188138
3390	0.00587933
3402	0.00901496
3414	0.0095637
3426	0.0188922
3438	0.0367654
3450	0.0402146
3462	0.0245364
3474	0.00666323
3486	0.0017246
3498	0.00164621
3510	0.00117587
3522	0.00360599
3534	0.00243012
3546	0.00180299
3558	0.00250851
3570	0.00125426
3582	0.00313564
3594	0.0025869
3606	0.00227334
3618	0.00235173
3630	0.00407633
3642	0.00203817
3654	0.000548737
3666	0.00313564
3678	0.00125426
3690	0.00305725
3702	0.00243012
3714	0.00156782
3726	0.00478185
3738	0.00470346
3750	0.0052522
3762	0.00243012
3774	0.00141104
3786	0.00329242
3798	0.00337081
3810	0.00211656
3822	0.00329242
3834	0.00368438
3846	0.00274369
3858	0.00407633
3870	0.00493863
3882	0.00227334
3894	0.0052522
3906	0.00243012
3918	0.0034492
3930	0.00305725
3942	0.00219495
3954	0.00329242
3966	0.00290047
