Infrared Spectrum: Acetic acid, bromo-, ethyl ester
Formula: C 4 H 7 Br O 2
CAS: 105-36-2
Origin: Sadtler Research Labs Under US-EPA Contract
1/CM	ABSORBANCE
450	0
462	0.0356169
474	0.0299581
486	0.0321772
498	0.0258527
510	0.0270733
522	0.0335087
534	0.0348402
546	0.0588067
558	0.0642435
570	0.0440495
582	0.0408318
594	0.0410537
606	0.0392784
618	0.0447153
630	0.0420523
642	0.0325101
654	0.0424961
666	0.0805541
678	0.0689037
690	0.0442714
702	0.0362826
714	0.0373922
726	0.0292924
738	0.0210816
750	0.0139805
762	0.0139805
774	0.0160886
786	0.017642
798	0.0214145
810	0.0157558
822	0.0183077
834	0.0218583
846	0.0287376
858	0.030291
870	0.0260747
882	0.0239665
894	0.0257418
906	0.0307348
918	0.0430509
930	0.0532589
942	0.0438276
954	0.0275171
966	0.0180858
978	0.0154229
990	0.0213036
1002	0.0330649
1014	0.0717885
1026	0.208597
1038	0.307237
1050	0.137696
1062	0.0760049
1074	0.0821074
1086	0.134922
1098	0.259415
1110	0.436723
1122	0.421855
1134	0.299692
1146	0.334754
1158	0.336086
1170	0.253867
1182	0.206267
1194	0.191843
1206	0.243437
1218	0.267737
1230	0.145907
1242	0.153563
1254	0.314227
1266	0.792115
1278	1.09891
1290	0.541798
1302	0.261079
1314	0.198833
1326	0.11373
1338	0.0704571
1350	0.0518165
1362	0.0683489
1374	0.103522
1386	0.0593615
1398	0.0572533
1410	0.0699023
1422	0.122052
1434	0.105297
1446	0.068127
1458	0.065575
1470	0.0733419
1482	0.05803
1494	0.0329539
1506	0.0216364
1518	0.0174201
1530	0.0161996
1542	0.0174201
1554	0.0157558
1566	0.0161996
1578	0.0167544
1590	0.0157558
1602	0.0155338
1614	0.0157558
1626	0.0148681
1638	0.0159777
1650	0.0164215
1662	0.0168653
1674	0.0191954
1686	0.0244103
1698	0.0346183
1710	0.0542575
1722	0.0848813
1734	0.178084
1746	0.487541
1758	0.812642
1770	0.710118
1782	0.388568
1794	0.222134
1806	0.103078
1818	0.0581409
1830	0.0351731
1842	0.0269623
1854	0.0233008
1866	0.0216364
1878	0.0224131
1890	0.0207488
1902	0.0191954
1914	0.0185297
1926	0.0179749
1938	0.0195283
1950	0.0199721
1962	0.0197502
1974	0.0186406
1986	0.0174201
1998	0.0163105
2010	0.0161996
2022	0.0164215
2034	0.0163105
2046	0.0164215
2058	0.0160886
2070	0.0148681
2082	0.0153119
2094	0.0163105
2106	0.017642
2118	0.0180858
2130	0.017642
2142	0.0166434
2154	0.0159777
2166	0.0154229
2178	0.0158667
2190	0.0168653
2202	0.0171982
2214	0.0169763
2226	0.0168653
2238	0.0157558
2250	0.0153119
2262	0.0154229
2274	0.0156448
2286	0.0160886
2298	0.0154229
2310	0.0134257
2322	0.0128709
2334	0.0143133
2346	0.0153119
2358	0.0128709
2370	0.0186406
2382	0.0181968
2394	0.0171982
2406	0.0166434
2418	0.0180858
2430	0.0180858
2442	0.0168653
2454	0.0168653
2466	0.0173091
2478	0.0169763
2490	0.0167544
2502	0.0168653
2514	0.0157558
2526	0.0166434
2538	0.0167544
2550	0.0165324
2562	0.0164215
2574	0.0167544
2586	0.0163105
2598	0.0164215
2610	0.0171982
2622	0.0178639
2634	0.0188625
2646	0.0183077
2658	0.017753
2670	0.017642
2682	0.0166434
2694	0.0164215
2706	0.0161996
2718	0.0164215
2730	0.017753
2742	0.017753
2754	0.0181968
2766	0.0185297
2778	0.0204159
2790	0.0196392
2802	0.0199721
2814	0.0207488
2826	0.0225241
2838	0.0236336
2850	0.0250761
2862	0.027628
2874	0.0348402
2886	0.0489316
2898	0.0519274
2910	0.060582
2922	0.0664626
2934	0.0726762
2946	0.104632
2958	0.100193
2970	0.114618
2982	0.196614
2994	0.239887
3006	0.143355
3018	0.0868785
3030	0.047822
3042	0.0330649
3054	0.025298
3066	0.0219693
3078	0.0214145
3090	0.0216364
3102	0.0188625
3114	0.0194173
3126	0.0190844
3138	0.020194
3150	0.0180858
3162	0.0179749
3174	0.0187516
3186	0.0194173
3198	0.017642
3210	0.0170872
3222	0.0181968
3234	0.0168653
3246	0.0156448
3258	0.0168653
3270	0.0160886
3282	0.0156448
3294	0.01509
3306	0.0153119
3318	0.0146462
3330	0.0155338
3342	0.0154229
3354	0.0154229
3366	0.0148681
3378	0.0138695
3390	0.0179749
3402	0.0139805
3414	0.0143133
3426	0.0158667
3438	0.0207488
3450	0.012649
3462	0.0168653
3474	0.017642
3486	0.0196392
3498	0.0224131
3510	0.0228569
3522	0.0196392
3534	0.0190844
3546	0.0181968
3558	0.0188625
3570	0.0349511
3582	0.0449372
3594	0.032732
3606	0.017753
3618	0.0168653
3630	0.0173091
3642	0.017753
3654	0.0180858
3666	0.0171982
3678	0.0158667
3690	0.0154229
3702	0.0155338
3714	0.0148681
3726	0.0166434
3738	0.020194
3750	0.0158667
3762	0.0166434
3774	0.0169763
3786	0.0159777
3798	0.0174201
3810	0.0157558
3822	0.0174201
3834	0.0181968
3846	0.0161996
3858	0.0158667
3870	0.0128709
3882	0.0147571
3894	0.0170872
3906	0.0183077
3918	0.017753
3930	0.0156448
3942	0.0161996
3954	0.0147571
3966	0.0128709
