Infrared Spectrum: Pyrazole-3,4-dicarboxylic acid, 1-methyl-, diethyl ester
Formula: C 10 H 14 N 2 O 4
CAS: 10514-60-0
Origin: Sadtler Research Labs Under US-EPA Contract
1/CM	ABSORBANCE
450	0.027405
462	0.0163468
474	0.00833368
486	0.00416684
498	0.00464763
510	0.00144237
522	0.003045
534	0.00288473
546	0.00913499
558	0.0118595
570	0.0115389
582	0.00528868
594	0.00256421
606	0.00256421
618	0.00576947
630	0.0012821
642	0.00112184
654	0.003045
666	0.00769262
678	0.00705157
690	0.00705157
702	0.00897473
714	0.0126608
726	0.0105774
738	0.0129813
750	0.031091
762	0.113947
774	0.169077
786	0.0967989
798	0.0623423
810	0.058496
822	0.0818944
834	0.0931128
846	0.064586
858	0.067631
870	0.0447134
882	0.0233984
894	0.0102568
906	0.00785289
918	0.00833368
930	0.00929525
942	0.0123403
954	0.0142634
966	0.0179495
978	0.0245202
990	0.0403863
1002	0.0831765
1014	0.149365
1026	0.220201
1038	0.173405
1050	0.177571
1062	0.392644
1074	1.0454
1086	0.801636
1098	0.425979
1110	0.230939
1122	0.186226
1134	0.324372
1146	0.319885
1158	0.223086
1170	0.288634
1182	0.516528
1194	0.900838
1206	1.28355
1218	1.5225
1230	0.681919
1242	0.37149
1254	0.428383
1266	0.823431
1278	0.894588
1290	0.418767
1302	0.311872
1314	0.20722
1326	0.0961578
1338	0.059137
1350	0.0628231
1362	0.136063
1374	0.173084
1386	0.113306
1398	0.111543
1410	0.104652
1422	0.10946
1434	0.114909
1446	0.172764
1458	0.216996
1470	0.262831
1482	0.232061
1494	0.130454
1506	0.0788494
1518	0.0908691
1530	0.18911
1542	0.391683
1554	0.296006
1566	0.0884652
1578	0.0447134
1590	0.0358989
1602	0.0386234
1614	0.031091
1626	0.0232381
1638	0.0235587
1650	0.0320526
1662	0.04263
1674	0.0370208
1686	0.0565728
1698	0.0947154
1710	0.169719
1722	0.38415
1734	0.96879
1746	1.04011
1758	1.08033
1770	0.592813
1782	0.233503
1794	0.107857
1806	0.0583357
1818	0.0333347
1830	0.0201931
1842	0.0150647
1854	0.01218
1866	0.00913499
1878	0.00833368
1890	0.00705157
1902	0.00625026
1914	0.0056092
1926	0.00592973
1938	0.00721184
1950	0.00641052
1962	0.00416684
1974	0.00256421
1986	0.00224368
1998	0.00240395
2010	0.00288473
2022	0.00240395
2034	0.00240395
2046	0.00288473
2058	0.0043271
2070	0.00512842
2082	0.00496815
2094	0.00352579
2106	0.00208342
2118	0.00192316
2130	0.00192316
2142	0.00192316
2154	0.00112184
2166	0.000641052
2178	0
2190	0.000320526
2202	0.000320526
2214	0.000480789
2226	0.000480789
2238	0.000641052
2250	0.000961578
2262	0.00176289
2274	0.00272447
2286	0.00368605
2298	0.00480789
2310	0.00528868
2322	0.00400658
2334	0.00320526
2346	0.00416684
2358	0.00336552
2370	0.00384631
2382	0.00512842
2394	0.00192316
2406	0.00240395
2418	0.003045
2430	0.00256421
2442	0.00176289
2454	0.00160263
2466	0.00160263
2478	0.00160263
2490	0.00112184
2502	0.000961578
2514	0.000961578
2526	0.00144237
2538	0.0012821
2550	0.00160263
2562	0.00240395
2574	0.00256421
2586	0.00336552
2598	0.00400658
2610	0.00384631
2622	0.00288473
2634	0.00224368
2646	0.00208342
2658	0.00208342
2670	0.003045
2682	0.00256421
2694	0.00288473
2706	0.00400658
2718	0.00657078
2730	0.00769262
2742	0.00721184
2754	0.00849394
2766	0.0100966
2778	0.0112184
2790	0.0115389
2802	0.0150647
2814	0.0224368
2826	0.0264434
2838	0.0262831
2850	0.0331744
2862	0.0397452
2874	0.0536881
2886	0.0846189
2898	0.0913499
2910	0.114268
2922	0.122601
2934	0.163629
2946	0.263953
2958	0.246164
2970	0.24969
2982	0.32886
2994	0.300653
3006	0.17052
3018	0.0942346
3030	0.0514444
3042	0.0328539
3054	0.0258023
3066	0.0224368
3078	0.0193918
3090	0.0153852
3102	0.0123403
3114	0.0110581
3126	0.0100966
3138	0.0108979
3150	0.00913499
3162	0.00657078
3174	0.00544894
3186	0.00496815
3198	0.00448736
3210	0.00368605
3222	0.00288473
3234	0.00256421
3246	0.00192316
3258	0.0012821
3270	0.00208342
3282	0.00272447
3294	0.00240395
3306	0.0012821
3318	0.0012821
3330	0.00160263
3342	0.000961578
3354	0.00112184
3366	0.00160263
3378	0.000801315
3390	0.00208342
3402	0.00208342
3414	0.00224368
3426	0.00240395
3438	0.00448736
3450	0.00496815
3462	0.00625026
3474	0.00753236
3486	0.00801315
3498	0.00721184
3510	0.00544894
3522	0.00272447
3534	0.00112184
3546	0.000641052
3558	0.000641052
3570	0.00112184
3582	0.000961578
3594	0.000801315
3606	0.000961578
3618	0.000480789
3630	0.00240395
3642	0.0012821
3654	0.00144237
3666	0.00160263
3678	0.00144237
3690	0.00176289
3702	0.00144237
3714	0.00160263
3726	0.00192316
3738	0.00288473
3750	0.00144237
3762	0.0012821
3774	0.0012821
3786	0.00192316
3798	0.00192316
3810	0.00208342
3822	0.00240395
3834	0.0012821
3846	0.00272447
3858	0.00160263
3870	0.00160263
3882	0.000801315
3894	0.000801315
3906	0.00240395
3918	0.000801315
3930	0.000801315
3942	0.00112184
3954	0.00144237
3966	0.003045
