Infrared Spectrum: 4-Acetoxy-meta-anisic acid
Formula: C 10 H 10 O 5
CAS: 10543-12-1
Origin: Sadtler Research Labs Under US-EPA Contract
1/CM	ABSORBANCE
450	0.0370969
462	0.0209317
474	0.0210975
486	0.0227969
498	0.0232529
510	0.0343612
522	0.0355632
534	0.065821
546	0.0324546
558	0.0347757
570	0.0396252
582	0.0489513
594	0.056039
606	0.0597695
618	0.0401641
630	0.0335737
642	0.0472933
654	0.087789
666	0.0295117
678	0.015875
690	0.00120202
702	0.0116057
714	0.0373041
726	0.0169941
738	0.00878719
750	0.0131808
762	0.0315012
774	0.017077
786	0.00957472
798	0.00435214
810	0.000373041
822	0.00306723
834	0.011813
846	0.00596866
858	0.00704633
870	0.00940892
882	0.0287242
894	0.0401226
906	0.00924313
918	0.0147144
930	0.00762662
942	0.0082069
954	0.0117301
966	0.0122689
978	0.0289729
990	0.0392522
1002	0.0539251
1014	0.0553759
1026	0.0485782
1038	0.0630025
1050	0.0425267
1062	0.0370969
1074	0.0725772
1086	0.0911878
1098	0.062588
1110	0.0732404
1122	0.11871
1134	0.0906904
1146	0.166459
1158	0.342161
1170	0.240321
1182	0.250725
1194	0.349705
1206	0.243057
1218	0.0911464
1230	0.0571582
1242	0.0589405
1254	0.0850533
1266	0.160573
1278	0.126461
1290	0.0920997
1302	0.0666085
1314	0.0459669
1326	0.038589
1338	0.049573
1350	0.0697587
1362	0.0738207
1374	0.082525
1386	0.0533449
1398	0.0518113
1410	0.0751056
1422	0.073572
1434	0.0257398
1446	0.019937
1458	0.030921
1470	0.0325789
1482	0.0134709
1494	0.0351488
1506	0.0836855
1518	0.0544225
1530	0.0135953
1542	0.00650749
1554	0.00468374
1566	0.00857994
1578	0.012186
1590	0.0254911
1602	0.0431899
1614	0.0294702
1626	0.0101136
1638	0.00613445
1650	0.0062588
1662	0.00650749
1674	0.00799966
1686	0.00816545
1698	0.0144657
1710	0.0218851
1722	0.0237917
1734	0.0356461
1746	0.11498
1758	0.369145
1770	0.286578
1782	0.219472
1794	0.25802
1806	0.215203
1818	0.0908148
1830	0.0273149
1842	0.0114814
1854	0.00808255
1866	0.00480808
1878	0.00323302
1890	0.00410345
1902	0.00360606
1914	0.00273563
1926	0.0021968
1938	0.00157506
1950	0.00136782
1962	0.00165796
1974	0.00182376
1986	0.00215535
1998	0.00256984
2010	0.0021139
2022	0.00215535
2034	0.00256984
2046	0.00281853
2058	0.00298433
2070	0.00261129
2082	0.00215535
2094	0.00136782
2106	0.00116057
2118	0.00111912
2130	0.0019481
2142	0.00145071
2154	0.00178231
2166	0.00227969
2178	0.00157506
2190	0.000953327
2202	0.00107767
2214	0.000580286
2226	0.000911878
2238	0.000953327
2250	0.000746082
2262	0.00103622
2274	0.000994776
2286	0.00149216
2298	0.00298433
2310	0.00319157
2322	0.00240404
2334	0.00223825
2346	0.00310867
2358	0.00261129
2370	0.00256984
2382	0.00298433
2394	0.000787531
2406	0.000746082
2418	0.000746082
2430	0.00111912
2442	0.000870429
2454	0.000787531
2466	0.000580286
2478	0.000455939
2490	0.000621735
2502	0.000911878
2514	0.000663184
2526	0.00120202
2538	0.00111912
2550	0.000373041
2562	0.000497388
2574	0.00082898
2586	0.000580286
2598	0.000994776
2610	0.00124347
2622	0.00116057
2634	0.00128492
2646	0.000994776
2658	0.000953327
2670	0.000497388
2682	0.000497388
2694	0.000497388
2706	0.000248694
2718	0.000621735
2730	0
2742	0.000663184
2754	0.00041449
2766	0.00082898
2778	0.000787531
2790	0.00111912
2802	0.00124347
2814	0.00178231
2826	0.00306723
2838	0.00630025
2850	0.00936747
2862	0.00779241
2874	0.00708778
2886	0.00692198
2898	0.00605155
2910	0.0061759
2922	0.00969907
2934	0.011813
2946	0.0213048
2958	0.0224654
2970	0.0172428
2982	0.011813
2994	0.0102379
3006	0.0144657
3018	0.0171184
3030	0.00692198
3042	0.00476663
3054	0.00489098
3066	0.00265274
3078	0.00128492
3090	0.00542982
3102	0.00385476
3114	0.00368896
3126	0.00331592
3138	0.00352317
3150	0.00331592
3162	0.00319157
3174	0.00290143
3186	0.0021968
3198	0.00252839
3210	0.00227969
3222	0.00281853
3234	0.00248694
3246	0.00174086
3258	0.00281853
3270	0.00281853
3282	0.00265274
3294	0.00248694
3306	0.00294288
3318	0.00232114
3330	0.00281853
3342	0.00269418
3354	0.00294288
3366	0.00339882
3378	0.00223825
3390	0.00215535
3402	0.00319157
3414	0.00273563
3426	0.00306723
3438	0.00385476
3450	0.00327447
3462	0.00327447
3474	0.00393765
3486	0.00331592
3498	0.00464229
3510	0.00402055
3522	0.00426925
3534	0.00538837
3546	0.0125176
3558	0.0303407
3570	0.0473348
3582	0.152947
3594	0.0802867
3606	0.0249523
3618	0.00758517
3630	0.00418635
3642	0.00385476
3654	0.00460084
3666	0.00472519
3678	0.00315012
3690	0.00402055
3702	0.00534692
3714	0.00352317
3726	0.00455939
3738	0.00331592
3750	0.00443504
3762	0.00708778
3774	0.00551272
3786	0.00526402
3798	0.00493243
3810	0.0061759
3822	0.00493243
3834	0.00638315
3846	0.00596866
3858	0.0063417
3870	0.00692198
3882	0.00559561
3894	0.00704633
3906	0.00509823
3918	0.00584431
3930	0.00563706
3942	0.00559561
3954	0.00576141
3966	0.00472519
