Infrared Spectrum: (Z)-2,5-Dimethyl-3-hexene
Formula: C 8 H 16
CAS: 10557-44-5
Origin: Sadtler Research Labs Under US-EPA Contract
1/CM	ABSORBANCE
450	0.000537768
462	0.00194941
474	0.00168052
486	0.00342827
498	0.00282328
510	0.00517602
522	0.00564656
534	0.00611711
546	0.00275606
558	0.0041677
570	0.00564656
582	0.0041677
594	0.00598267
606	0.00591545
618	0.00625155
630	0.0104865
642	0.00773042
654	0.00571378
666	0.0038316
678	0.00517602
690	0.00483991
702	0.00524324
714	0.00551212
726	0.016133
738	0.0500796
750	0.0883956
762	0.0633894
774	0.019763
786	0.00873873
798	0.00873873
810	0.00699098
822	0.00517602
834	0.00470547
846	0.00786486
858	0.00826818
870	0.0051088
882	0.00604989
894	0.00652044
906	0.0083354
918	0.0113603
930	0.0196958
942	0.0379799
954	0.0349549
966	0.0141836
978	0.00846985
990	0.00712543
1002	0.00699098
1014	0.00611711
1026	0.00557934
1038	0.00604989
1050	0.00752875
1062	0.0100159
1074	0.014587
1086	0.0264179
1098	0.0362321
1110	0.0320644
1122	0.024939
1134	0.0242668
1146	0.0275606
1158	0.0341483
1170	0.0311905
1182	0.0225863
1194	0.0150575
1206	0.0119653
1218	0.0119653
1230	0.0122342
1242	0.010352
1254	0.0102848
1266	0.0133098
1278	0.0201663
1290	0.0375093
1302	0.0315939
1314	0.0198974
1326	0.0106209
1338	0.010957
1350	0.0178808
1362	0.0438281
1374	0.0633222
1386	0.0410048
1398	0.0227207
1410	0.0213091
1422	0.0154608
1434	0.0174775
1446	0.0316611
1458	0.0622466
1470	0.0794552
1482	0.0426181
1494	0.0156625
1506	0.00692376
1518	0.00564656
1530	0.00477269
1542	0.00168052
1554	0.00356271
1566	0.00262162
1578	0.00107554
1590	0.00329383
1602	0.00302494
1614	0.00336105
1626	0.00423492
1638	0.00336105
1650	0.00685654
1662	0.00652044
1674	0.0054449
1686	0.00396604
1698	0.00793208
1710	0.0134442
1722	0.0168725
1734	0.0160658
1746	0.0187547
1758	0.0162675
1770	0.0145197
1782	0.013377
1794	0.0112931
1806	0.00880595
1818	0.00450381
1830	0.00275606
1842	0.00228551
1854	0.00248718
1866	0.00241996
1878	0.00201663
1890	0.00194941
1902	0.00194941
1914	0.00215107
1926	0.00147886
1938	0.00188219
1950	0.00194941
1962	0.0012772
1974	0.00120998
1986	0.00120998
1998	0.000941094
2010	0.000806652
2022	0.0012772
2034	0.00154608
2046	0.00208385
2058	0.00201663
2070	0.00248718
2082	0.00309217
2094	0.00194941
2106	0.00114276
2118	0.000604989
2130	0.000941094
2142	0.000941094
2154	0.00107554
2166	0.0012772
2178	0.000941094
2190	0.000941094
2202	0.000873873
2214	0.00134442
2226	0.00134442
2238	0.00134442
2250	0.00141164
2262	0.00141164
2274	0.00141164
2286	0.00201663
2298	0.0025544
2310	0.00356271
2322	0.00315939
2334	0.00181497
2346	0.0012772
2358	0.00268884
2370	0
2382	0.00067221
2394	0.00208385
2406	0.00248718
2418	0.00208385
2430	0.00215107
2442	0.00208385
2454	0.00208385
2466	0.00309217
2478	0.00362993
2490	0.0028905
2502	0.00268884
2514	0.00215107
2526	0.00282328
2538	0.00248718
2550	0.00275606
2562	0.00329383
2574	0.00477269
2586	0.00537768
2598	0.00524324
2610	0.00430214
2622	0.00423492
2634	0.0041677
2646	0.00336105
2658	0.00436937
2670	0.00625155
2682	0.00685654
2694	0.00578101
2706	0.00631877
2718	0.00974704
2730	0.0108226
2742	0.00880595
2754	0.00941094
2766	0.00914206
2778	0.0079993
2790	0.00894039
2802	0.0100159
2814	0.0132425
2826	0.0148558
2838	0.0198302
2850	0.0270901
2862	0.0561295
2874	0.163414
2886	0.174707
2898	0.118645
2910	0.145197
2922	0.171817
2934	0.213964
2946	0.257188
2958	0.397747
2970	0.63302
2982	0.342558
2994	0.147281
3006	0.135786
3018	0.0635911
3030	0.0196285
3042	0.0120326
3054	0.0114276
3066	0.0114276
3078	0.010957
3090	0.00907483
3102	0.00900761
3114	0.00860429
3126	0.00840263
3138	0.00867151
3150	0.00759597
3162	0.00813374
3174	0.00880595
3186	0.00914206
3198	0.00826818
3210	0.00611711
3222	0.00410048
3234	0.00228551
3246	0.00147886
3258	0.00141164
3270	0.0028905
3282	0.00329383
3294	0.00309217
3306	0.00389882
3318	0.00430214
3330	0.00443659
3342	0.00336105
3354	0.00362993
3366	0.00322661
3378	0.00315939
3390	0.00275606
3402	0.00349549
3414	0.0028905
3426	0.0025544
3438	0.00349549
3450	0.00302494
3462	0.00342827
3474	0.00376438
3486	0.00490713
3498	0.00389882
3510	0.0038316
3522	0.00463825
3534	0.00483991
3546	0.00557934
3558	0.00490713
3570	0.00557934
3582	0.00625155
3594	0.00578101
3606	0.00423492
3618	0.00470547
3630	0.00336105
3642	0.00302494
3654	0.00369716
3666	0.00423492
3678	0.00208385
3690	0.00295772
3702	0.00436937
3714	0.00423492
3726	0.00531046
3738	0.00450381
3750	0.00423492
3762	0.00483991
3774	0.00504157
3786	0.00557934
3798	0.00571378
3810	0.00497435
3822	0.00524324
3834	0.00625155
3846	0.0051088
3858	0.00423492
3870	0.00524324
3882	0.00537768
3894	0.00497435
3906	0.00564656
3918	0.00578101
3930	0.00557934
3942	0.00604989
3954	0.00611711
3966	0.00625155
