Infrared Spectrum: 5-Acetoxymethyl-2-furaldehyde
Formula: C 8 H 8 O 4
CAS: 10551-58-3
Origin: Sadtler Research Labs Under US-EPA Contract
1/CM	ABSORBANCE
450	0.0329429
462	0.0360569
474	0.0214702
486	0.0152422
498	0.0129477
510	0.00852254
522	0.00295011
534	0.00606412
546	0.00409738
558	0.00786696
570	0.00262232
582	0.00770307
594	0.0163895
606	0.0319595
618	0.0345818
630	0.0257315
642	0.0114727
654	0.00901423
666	0.00229453
678	0.000491685
690	0.0063919
702	0.00753917
714	0.021798
726	0.0476934
738	0.0906339
750	0.230436
762	0.239123
774	0.166026
786	0.138491
798	0.195363
810	0.166517
822	0.071786
834	0.048349
846	0.0290094
858	0.0170451
870	0.0147505
882	0.0209786
894	0.0299928
906	0.0329429
918	0.0245843
930	0.0196674
942	0.0521186
954	0.109974
966	0.114399
978	0.120463
990	0.150456
1002	0.244531
1014	0.379089
1026	0.414163
1038	0.324676
1050	0.197002
1062	0.145211
1074	0.118168
1086	0.0909617
1098	0.05933
1110	0.0339263
1122	0.0165534
1134	0.0118004
1146	0.0142589
1158	0.0252398
1170	0.0512991
1182	0.137836
1194	0.39597
1206	0.847501
1218	1.54914
1230	1.42851
1242	0.620015
1254	0.2365
1266	0.16914
1278	0.131935
1290	0.0601495
1302	0.0232731
1314	0.0142589
1326	0.0160617
1338	0.0378597
1350	0.088995
1362	0.218308
1374	0.222078
1386	0.1557
1398	0.0966981
1410	0.0752278
1422	0.0422849
1434	0.0493324
1446	0.0644107
1458	0.0457267
1470	0.0263871
1482	0.0245843
1494	0.0411376
1506	0.0960425
1518	0.324184
1530	0.362044
1542	0.0821114
1554	0.0224536
1566	0.0175368
1578	0.0381875
1590	0.092109
1602	0.0571994
1614	0.0152422
1626	0.00590022
1638	0.00376959
1650	0.00868643
1662	0.0216341
1674	0.0486768
1686	0.126035
1698	0.543312
1710	1.17218
1722	0.622309
1734	0.245679
1746	0.232567
1758	0.48644
1770	0.878641
1782	0.517089
1794	0.214375
1806	0.0832587
1818	0.0401543
1830	0.0272066
1842	0.0181923
1854	0.00966981
1866	0.00606412
1878	0.00278621
1890	0.000819475
1902	0.00032779
1914	0.000491685
1926	0.00147506
1938	0.00295011
1950	0.00442517
1962	0.00426127
1974	0.00442517
1986	0.00426127
1998	0.00491685
2010	0.00475295
2022	0.00590022
2034	0.00704749
2046	0.00704749
2058	0.00426127
2070	0.00229453
2082	0.00131116
2094	0.000819475
2106	0.00245843
2118	0.00213064
2130	0.00229453
2142	0.00213064
2154	0.00180284
2166	0.00213064
2178	0.00229453
2190	0.00262232
2202	0.00458906
2214	0.00491685
2226	0.00295011
2238	0.00163895
2250	0.00147506
2262	0.00163895
2274	0.00213064
2286	0.00147506
2298	0.00163895
2310	0.00245843
2322	0.00196674
2334	0.00147506
2346	0.00213064
2358	0.00278621
2370	0.00213064
2382	0.00295011
2394	0.00131116
2406	0.00245843
2418	0.00278621
2430	0.00278621
2442	0.00245843
2454	0.00196674
2466	0.00213064
2478	0.00131116
2490	0.000819475
2502	0.000491685
2514	0
2526	0.000163895
2538	0.00065558
2550	0.000819475
2562	0.00114726
2574	0.00163895
2586	0.00196674
2598	0.00229453
2610	0.00262232
2622	0.00196674
2634	0.00196674
2646	0.00278621
2658	0.00376959
2670	0.00590022
2682	0.00819475
2694	0.0145867
2706	0.0404821
2718	0.0409738
2730	0.0380236
2742	0.0435961
2754	0.0447433
2766	0.0363847
2778	0.0408099
2790	0.0629357
2802	0.123577
2814	0.154881
2826	0.104401
2838	0.111612
2850	0.0578549
2862	0.0263871
2874	0.0219619
2886	0.0214702
2898	0.0188479
2910	0.0157339
2922	0.0162256
2934	0.0231092
2946	0.0417932
2958	0.0601495
2970	0.0581827
2982	0.0413015
2994	0.0278621
3006	0.0199952
3018	0.01557
3030	0.0139311
3042	0.0137672
3054	0.0129477
3066	0.012456
3078	0.0127838
3090	0.00950591
3102	0.00819475
3114	0.00721138
3126	0.00885033
3138	0.00737527
3150	0.00376959
3162	0.00278621
3174	0.00245843
3186	0.00213064
3198	0.00180284
3210	0.00229453
3222	0.00262232
3234	0.0032779
3246	0.00295011
3258	0.00180284
3270	0.00147506
3282	0.000819475
3294	0.00180284
3306	0.00213064
3318	0.00196674
3330	0.00098337
3342	0.00163895
3354	0.00245843
3366	0.00278621
3378	0.00540853
3390	0.0147505
3402	0.0173729
3414	0.00917812
3426	0.00409738
3438	0.00278621
3450	0.00131116
3462	0.00229453
3474	0.00180284
3486	0.00262232
3498	0.0032779
3510	0.0067197
3522	0.00852254
3534	0.00606412
3546	0.00360569
3558	0.00278621
3570	0.00278621
3582	0.00360569
3594	0.00393348
3606	0.0032779
3618	0.000819475
3630	0.00278621
3642	0.00180284
3654	0.00229453
3666	0
3678	0.00131116
3690	0.00131116
3702	0.00295011
3714	0.00131116
3726	0.00131116
3738	0.00180284
3750	0.00163895
3762	0.00180284
3774	0.00213064
3786	0.00213064
3798	0.00147506
3810	0.00163895
3822	0.00213064
3834	0.00229453
3846	0.00131116
3858	0.00245843
3870	0.00147506
3882	0.00163895
3894	0.00360569
3906	0.00295011
3918	0.003114
3930	0.00196674
3942	0.00196674
3954	0.00180284
3966	0.00114726
