Infrared Spectrum: Piperazine, 1-(3-chloropropyl)-4-phenyl-,
Formula: C 13 H 19 Cl N 2
CAS: 10599-17-4
Origin: Sadtler Research Labs Under US-EPA Contract
1/CM	ABSORBANCE
450	0
462	0.026881
474	0.0275671
486	0.0314963
498	0.0324319
510	0.0416625
522	0.0717243
534	0.0556331
546	0.0357998
558	0.0257584
570	0.0182117
582	0.0177752
594	0.0192097
606	0.0183989
618	0.0228894
630	0.0252594
642	0.0375461
654	0.0643648
666	0.0951751
678	0.100102
690	0.19983
702	0.114759
714	0.0702275
726	0.0802065
738	0.127482
750	0.236379
762	0.242615
774	0.0962354
786	0.0546352
798	0.0459036
810	0.0450304
822	0.0408517
834	0.0307479
846	0.0267563
858	0.0301866
870	0.0424109
882	0.0412259
894	0.0324319
906	0.0455294
918	0.111516
930	0.10846
942	0.063554
954	0.0976075
966	0.0943019
978	0.0618077
990	0.0921814
1002	0.158667
1014	0.251472
1026	0.148625
1038	0.0701651
1050	0.0619948
1062	0.0601861
1074	0.0528889
1086	0.0401656
1098	0.0473381
1110	0.0784602
1122	0.129852
1134	0.262262
1146	0.272365
1158	0.171515
1170	0.131224
1182	0.105279
1194	0.102597
1206	0.160725
1218	0.330743
1230	0.62369
1242	0.388309
1254	0.184986
1266	0.188978
1278	0.15692
1290	0.185922
1302	0.243239
1314	0.165964
1326	0.165465
1338	0.192034
1350	0.178937
1362	0.197398
1374	0.257709
1386	0.221722
1398	0.0983559
1410	0.0644272
1422	0.0588763
1434	0.0907469
1446	0.199144
1458	0.287646
1470	0.148875
1482	0.1548
1494	0.445814
1506	0.450554
1518	0.117129
1530	0.0598742
1542	0.0507684
1554	0.0514544
1566	0.0691672
1578	0.121931
1590	0.265941
1602	0.556394
1614	0.131536
1626	0.0468391
1638	0.0334922
1650	0.026881
1662	0.0205818
1674	0.022141
1686	0.0247605
1698	0.0240744
1710	0.0211431
1722	0.0211431
1734	0.0239497
1746	0.020457
1758	0.0206441
1770	0.0217044
1782	0.0162159
1794	0.015717
1806	0.0146567
1818	0.0155299
1830	0.0186483
1842	0.018586
1854	0.0161536
1866	0.0153428
1878	0.014532
1890	0.0168396
1902	0.0197086
1914	0.0252594
1926	0.0260079
1938	0.0255089
1950	0.0191473
1962	0.0187107
1974	0.0193344
1986	0.0175881
1998	0.0163407
2010	0.0154051
2022	0.0157794
2034	0.0151557
2046	0.0149062
2058	0.0159041
2070	0.0175881
2082	0.0174633
2094	0.0170267
2106	0.016902
2118	0.0162783
2130	0.0159041
2142	0.015218
2154	0.015218
2166	0.0144072
2178	0.014532
2190	0.0147191
2202	0.0149686
2214	0.0156546
2226	0.0167773
2238	0.0177752
2250	0.0175257
2262	0.017401
2274	0.0174633
2286	0.019771
2298	0.023326
2310	0.0266316
2322	0.0265068
2334	0.0243863
2346	0.0274424
2358	0.0242615
2370	0.0239497
2382	0.0237002
2394	0.0195839
2406	0.0195215
2418	0.0198333
2430	0.0199581
2442	0.0206441
2454	0.0213302
2466	0.021642
2478	0.0211431
2490	0.0215173
2502	0.0235131
2514	0.0231389
2526	0.0234507
2538	0.0239497
2550	0.0270058
2562	0.0291263
2574	0.0288768
2586	0.0277542
2598	0.0276918
2610	0.0282532
2622	0.0293758
2634	0.0319953
2646	0.036174
2658	0.0427228
2670	0.0533879
2682	0.0657993
2694	0.0717867
2706	0.0730965
2718	0.0736578
2730	0.0830131
2742	0.101287
2754	0.125362
2766	0.156421
2778	0.186421
2790	0.21324
2802	0.315213
2814	0.473817
2826	0.561009
2838	0.372967
2850	0.184986
2862	0.136339
2874	0.147939
2886	0.186546
2898	0.178438
2910	0.193219
2922	0.226649
2934	0.264944
2946	0.387062
2958	0.388559
2970	0.288893
2982	0.162409
2994	0.109894
3006	0.0957364
3018	0.0793334
3030	0.0974204
3042	0.137087
3054	0.100414
3066	0.128917
3078	0.141328
3090	0.0874413
3102	0.078772
3114	0.0513921
3126	0.0287521
3138	0.0220163
3150	0.0195215
3162	0.0185236
3174	0.0172762
3186	0.0172762
3198	0.0172138
3210	0.0174633
3222	0.0172138
3234	0.0165902
3246	0.016403
3258	0.0160912
3270	0.0160288
3282	0.015717
3294	0.0157794
3306	0.0157794
3318	0.0163407
3330	0.0159665
3342	0.0165278
3354	0.0156546
3366	0.0154675
3378	0.0152804
3390	0.0158417
3402	0.0159041
3414	0.0161536
3426	0.0162783
3438	0.0167773
3450	0.0164654
3462	0.016403
3474	0.0159665
3486	0.015717
3498	0.0162783
3510	0.0162783
3522	0.0157794
3534	0.0161536
3546	0.0160912
3558	0.0162783
3570	0.0170267
3582	0.016403
3594	0.0154675
3606	0.0167149
3618	0.0165278
3630	0.0169644
3642	0.0160288
3654	0.0169644
3666	0.0175881
3678	0.0172138
3690	0.0156546
3702	0.0166525
3714	0.0180246
3726	0.0162783
3738	0.0159041
3750	0.0167149
3762	0.0174633
3774	0.015717
3786	0.0163407
3798	0.0158417
3810	0.0170267
3822	0.0167773
3834	0.0165278
3846	0.016902
3858	0.017401
3870	0.016902
3882	0.0178999
3894	0.0154051
3906	0.0177752
3918	0.0176504
3930	0.0156546
3942	0.0160912
3954	0.0184612
3966	0.0172138
