Infrared Spectrum: 6-Octenal, 3,7-dimethyl-
Formula: C 10 H 18 O
CAS: 106-23-0
Origin: Sadtler Research Labs Under US-EPA Contract
1/CM	ABSORBANCE
450	0.00551511
462	0.0103562
474	0.0109077
486	0.00373802
498	0.0109689
510	0.015381
522	0.0238375
534	0.0178322
546	0.0140942
558	0.0128073
570	0.00484104
582	0.00533127
594	0.010111
606	0.00674069
618	0.00913057
630	0.00913057
642	0.00576023
654	0.0087629
666	0.00753732
678	0.0192416
690	0.0150134
702	0.0138491
714	0.00765987
726	0.0176484
738	0.00625046
750	0.023286
762	0.00980464
774	0.0109077
786	0.0139716
798	0.0164228
810	0.0204059
822	0.0328455
834	0.0344388
846	0.0327843
858	0.0223056
870	0.024389
882	0.0250018
894	0.0328455
906	0.0365223
918	0.024818
930	0.0248793
942	0.0284947
954	0.0281271
966	0.0324166
978	0.034929
990	0.0382994
1002	0.0407505
1014	0.0492683
1026	0.0426502
1038	0.0348678
1050	0.0323553
1062	0.0341324
1074	0.0439983
1086	0.0526387
1098	0.0579699
1110	0.0696129
1122	0.0746991
1134	0.0609113
1146	0.0449175
1158	0.0406893
1170	0.0416084
1182	0.0422825
1194	0.0381768
1206	0.041302
1218	0.0441209
1230	0.0411795
1242	0.0408731
1254	0.0346839
1266	0.0334583
1278	0.037564
1290	0.0359708
1302	0.0359095
1314	0.0348065
1326	0.0404441
1338	0.0508616
1350	0.0670392
1362	0.0773954
1374	0.10828
1386	0.158835
1398	0.0916121
1410	0.0587666
1422	0.0682035
1434	0.0728607
1446	0.096637
1458	0.131627
1470	0.10062
1482	0.0449788
1494	0.0213251
1506	0.0236537
1518	0.0159325
1530	0.0132363
1542	0.0212025
1554	0.0132975
1566	0.0109689
1578	0.0126848
1590	0.00772115
1602	0.0110302
1614	0.0113979
1626	0.0133588
1638	0.0215089
1650	0.0241439
1662	0.02108
1674	0.0294139
1686	0.0406893
1698	0.0528838
1710	0.0799691
1722	0.164412
1734	0.425521
1746	0.565176
1758	0.191129
1770	0.100252
1782	0.0722479
1794	0.0446111
1806	0.0267789
1818	0.0167904
1830	0.0132975
1842	0.00906929
1854	0.00661813
1866	0.00606662
1878	0.00422825
1890	0.0046572
1902	0.00367674
1914	0.00312523
1926	0.00312523
1938	0.00269628
1950	0.0034929
1962	0.00306395
1974	0.00312523
1986	0.0023286
1998	0.00238988
2010	0.00177709
2022	0.002635
2034	0.00171581
2046	0.0014707
2058	0.00153197
2070	0.00122558
2082	0.00208349
2094	0.0023286
2106	0.00153197
2118	0.00251244
2130	0.00214476
2142	0.00171581
2154	0.00214476
2166	0.00226732
2178	0.002635
2190	0.00257372
2202	0.00226732
2214	0.00214476
2226	0.00153197
2238	0.0011643
2250	0.00165453
2262	0.000551511
2274	0.00110302
2286	0.00110302
2298	0.00153197
2310	0.000674069
2322	6.1279e-05
2334	0
2346	0
2358	0
2370	0
2382	0.000183837
2394	0.00177709
2406	0.00183837
2418	0.00140942
2430	0.00275755
2442	0.002635
2454	0.00288011
2466	0.00245116
2478	0.00251244
2490	0.00251244
2502	0.00208349
2514	0.00257372
2526	0.00275755
2538	0.002635
2550	0.00306395
2562	0.00422825
2574	0.00520871
2586	0.00637302
2598	0.00753732
2610	0.00870162
2622	0.0108464
2634	0.0140329
2646	0.0189965
2658	0.0234699
2670	0.0294139
2682	0.0438145
2694	0.0911832
2706	0.195174
2718	0.163309
2730	0.0833394
2742	0.0693065
2754	0.0583989
2766	0.0517808
2778	0.0528838
2790	0.0708385
2802	0.108525
2814	0.135181
2826	0.103929
2838	0.0904478
2850	0.141432
2862	0.247506
2874	0.307988
2886	0.34065
2898	0.32533
2910	0.370983
2922	0.537417
2934	0.580619
2946	0.441699
2958	0.398068
2970	0.50929
2982	0.369267
2994	0.185798
3006	0.101049
3018	0.0636076
3030	0.052271
3042	0.0438145
3054	0.0356644
3066	0.030088
3078	0.0272692
3090	0.0213864
3102	0.0151359
3114	0.013175
3126	0.0112753
3138	0.00919185
3150	0.00637302
3162	0.00643429
3174	0.00631174
3186	0.00477976
3198	0.00398313
3210	0.00306395
3222	0.00214476
3234	0.00202221
3246	0.00122558
3258	0.00165453
3270	0.00128686
3282	0.00134814
3294	0.00196093
3306	0.000919185
3318	0.000490232
3330	0.0014707
3342	0.000919185
3354	0.00171581
3366	0.00196093
3378	0.00159325
3390	0.00122558
3402	0.0023286
3414	0.00196093
3426	0.00275755
3438	0.00318651
3450	0.00649557
3462	0.01054
3474	0.00606662
3486	0.00288011
3498	0.00134814
3510	0.00104174
3522	0.00171581
3534	0.000183837
3546	0.00061279
3558	0.00159325
3570	0.00931441
3582	0.00906929
3594	0.00416697
3606	0.00514744
3618	0.0061279
3630	0.00704708
3642	0.00318651
3654	0.00435081
3666	0.00275755
3678	0.00508616
3690	0.00477976
3702	0.00392186
3714	0.00428953
3726	0.00398313
3738	0.00686325
3750	0.00790499
3762	0.00606662
3774	0.0046572
3786	0.00508616
3798	0.00686325
3810	0.00821139
3822	0.00821139
3834	0.0087629
3846	0.0084565
3858	0.010111
3870	0.00986592
3882	0.00753732
3894	0.00815011
3906	0.00864034
3918	0.00747604
3930	0.00600534
3942	0.00704708
3954	0.000183837
3966	0.000735348
