Infrared Spectrum: Phenol, 4-bromo-
Formula: C 6 H 5 Br O
CAS: 106-41-2
Origin: Sadtler Research Labs Under US-EPA Contract
1/CM	ABSORBANCE
450	0.00315708
462	0.0290183
474	0.0222339
486	0.0685154
498	0.109356
510	0.0669033
522	0.0508492
534	0.00953842
546	0.012091
558	0.0212264
570	0.0368774
582	0.0321754
594	0.0447366
606	0.113789
618	0.0452739
630	0.018338
642	0.0146435
654	0.00826216
666	0.0180693
678	0.0244506
690	0.0315037
702	0.0227041
714	0.0172632
726	0.0225026
738	0.0255925
750	0.0350638
762	0.0274733
774	0.0235774
786	0.0387582
798	0.0887342
810	0.140322
822	0.183044
834	0.103042
846	0.0340562
858	0.017196
870	0.015248
882	0.0139718
894	0.0141733
906	0.0088667
918	0.0108147
930	0.0156511
942	0.0133672
954	0.0120238
966	0.0161885
978	0.0123596
990	0.0188753
1002	0.0415795
1014	0.0750983
1026	0.0310335
1038	0.025794
1050	0.0274733
1062	0.0689185
1074	0.144487
1086	0.078121
1098	0.0671048
1110	0.0447366
1122	0.0496401
1134	0.0396987
1146	0.0392284
1158	0.126955
1170	0.650023
1182	0.463084
1194	0.153354
1206	0.0779195
1218	0.0583725
1230	0.073016
1242	0.128366
1254	0.412772
1266	0.307513
1278	0.0427886
1290	0.0252567
1302	0.0343249
1314	0.0799347
1326	0.0772478
1338	0.0417138
1350	0.0235774
1362	0.0186738
1374	0.0177334
1386	0.0202188
1398	0.0244506
1410	0.0462815
1422	0.104788
1434	0.0493714
1446	0.0259956
1458	0.0365416
1470	0.0853084
1482	0.348354
1494	0.511045
1506	0.101766
1518	0.0396987
1530	0.026936
1542	0.0260627
1554	0.0181364
1566	0.0223683
1578	0.060522
1590	0.131388
1602	0.100624
1614	0.0458785
1626	0.0188082
1638	0.0137703
1650	0.0120238
1662	0.0100758
1674	0.0124268
1686	0.0103445
1698	0.00947125
1710	0.00745609
1722	0.00691872
1734	0.00900105
1746	0.00947125
1758	0.00691872
1770	0.0067172
1782	0.00523942
1794	0.00685154
1806	0.00483638
1818	0.00537376
1830	0.00819498
1842	0.0102773
1854	0.0108147
1866	0.0136359
1878	0.0124268
1890	0.00745609
1902	0.00523942
1914	0.00342577
1926	0.0038288
1938	0.00376163
1950	0.00282122
1962	0.00349294
1974	0.00376163
1986	0.00396315
1998	0.00470204
2010	0.00356012
2022	0.00275405
2034	0.00315708
2046	0.0038288
2058	0.00544093
2070	0.00678437
2082	0.00651568
2094	0.00389598
2106	0.00248536
2118	0.00248536
2130	0.00241819
2142	0.00241819
2154	0.00188082
2166	0.00235102
2178	0.00261971
2190	0.00275405
2202	0.00241819
2214	0.00248536
2226	0.00248536
2238	0.00302274
2250	0.00403032
2262	0.00490356
2274	0.00517224
2286	0.00725458
2298	0.0107475
2310	0.0147107
2322	0.010949
2334	0.00947125
2346	0.012494
2358	0.00846367
2370	0.00752326
2382	0.00846367
2394	0.00429901
2406	0.00544093
2418	0.00859802
2430	0.0114192
2442	0.006247
2454	0.00349294
2466	0.00342577
2478	0.0038288
2490	0.00423184
2502	0.00544093
2514	0.00644851
2526	0.00356012
2538	0.00275405
2550	0.00255254
2562	0.00329143
2574	0.00295557
2586	0.00369446
2598	0.00329143
2610	0.00255254
2622	0.00255254
2634	0.00201516
2646	0.00261971
2658	0.00329143
2670	0.00268688
2682	0.00228385
2694	0.00208233
2706	0.00134344
2718	0.00141061
2730	0.00194799
2742	0.00194799
2754	0.0028884
2766	0.00308991
2778	0.00235102
2790	0.00255254
2802	0.00221668
2814	0.00174647
2826	0.00235102
2838	0.00268688
2850	0.00436618
2862	0.00389598
2874	0.0038288
2886	0.00356012
2898	0.00376163
2910	0.00362729
2922	0.00429901
2934	0.00443335
2946	0.00362729
2958	0.00396315
2970	0.00570962
2982	0.00497073
2994	0.00785912
3006	0.0121581
3018	0.0156511
3030	0.0325784
3042	0.042184
3054	0.0216966
3066	0.0242491
3078	0.0268016
3090	0.0222339
3102	0.018338
3114	0.0121581
3126	0.00738892
3138	0.00476921
3150	0.00470204
3162	0.00611265
3174	0.00423184
3186	0.0055081
3198	0.00510507
3210	0.00450052
3222	0.0050379
3234	0.00490356
3246	0.0055081
3258	0.00510507
3270	0.00523942
3282	0.00537376
3294	0.00463487
3306	0.00476921
3318	0.00557528
3330	0.00644851
3342	0.00725458
3354	0.00846367
3366	0.00806064
3378	0.00873236
3390	0.00785912
3402	0.00738892
3414	0.00651568
3426	0.00617982
3438	0.0083965
3450	0.0071874
3462	0.00604548
3474	0.00698589
3486	0.00644851
3498	0.00853084
3510	0.00799347
3522	0.00799347
3534	0.00698589
3546	0.0083965
3558	0.0262643
3570	0.0140389
3582	0.0096056
3594	0.00423184
3606	0.00832933
3618	0.0115536
3630	0.0212264
3642	0.117618
3654	0.243969
3666	0.109087
3678	0.0229728
3690	0.00235102
3702	0.00517224
3714	0.00329143
3726	0.00987428
3738	0.00846367
3750	0
3762	0.0106803
3774	0.0118223
3786	0.0088667
3798	0.00396315
3810	0.0118894
3822	0.00658286
3834	0.0083965
3846	0.00651568
3858	0.0102773
3870	0.012494
3882	0.00712023
3894	0.0135687
3906	0.00705306
3918	0.00859802
3930	0.00947125
3942	0.0141733
3954	0.00584396
3966	0.00906822
