Infrared Spectrum: 3-Heptanone
Formula: C 7 H 14 O
CAS: 106-35-4
Origin: Sadtler Research Labs Under US-EPA Contract
1/CM	ABSORBANCE
450	0.0189958
462	0.0140163
474	0.00178278
486	0.00829913
498	0.00731553
510	0.00842208
522	0.0138319
534	0.0141393
546	0.0088524
558	0.0116803
570	0.00928273
582	0.0139548
594	0.0114344
606	0.0171515
618	0.014877
630	0.0162294
642	0.0118647
654	0.00497948
666	0.00725405
678	0.00473358
690	0.0056557
702	0.0127868
714	0.0133401
726	0.0150614
738	0.0210859
750	0.0238523
762	0.02084
774	0.0217622
786	0.0209015
798	0.0201638
810	0.0204712
822	0.0196105
834	0.0120491
846	0.00866797
858	0.0113114
870	0.013586
882	0.019795
894	0.0193646
906	0.0195491
918	0.0253277
930	0.0293236
942	0.044262
954	0.0509628
966	0.0505324
978	0.041803
990	0.0361473
1002	0.0394055
1014	0.0558808
1026	0.0860035
1038	0.0764134
1050	0.0461677
1062	0.0377457
1074	0.0352252
1086	0.0490571
1098	0.0870486
1110	0.112868
1122	0.119753
1134	0.124733
1146	0.106659
1158	0.108872
1170	0.0953477
1182	0.0587701
1194	0.0428481
1206	0.044139
1218	0.0472128
1230	0.0461677
1242	0.050471
1254	0.0513931
1266	0.0459833
1278	0.0374998
1290	0.036885
1302	0.040635
1314	0.0495489
1326	0.0703889
1338	0.10586
1350	0.147601
1362	0.147171
1374	0.115327
1386	0.0988518
1398	0.0738315
1410	0.0755528
1422	0.091106
1434	0.0916592
1446	0.0995895
1458	0.132725
1470	0.131188
1482	0.0721102
1494	0.0362088
1506	0.0240367
1518	0.0173359
1530	0.0137089
1542	0.0153688
1554	0.011127
1566	0.0102663
1578	0.0109426
1590	0.00946715
1602	0.00940568
1614	0.00915978
1626	0.0110655
1638	0.0134015
1650	0.0150614
1662	0.0151843
1674	0.0225613
1686	0.0410038
1698	0.0793642
1710	0.204958
1722	0.457743
1734	0.546328
1746	0.296801
1758	0.0979297
1770	0.0438932
1782	0.0259425
1794	0.0199179
1806	0.0126639
1818	0.00952863
1830	0.00749995
1842	0.00547128
1854	0.00473358
1866	0.00461063
1878	0.00461063
1890	0.00405735
1902	0.00301228
1914	0.00350408
1926	0.00338113
1938	0.00338113
1950	0.00350408
1962	0.00338113
1974	0.0036885
1986	0.00331965
1998	0.00301228
2010	0.00288933
2022	0.00258195
2034	0.00331965
2046	0.00313523
2058	0.00307375
2070	0.0029508
2082	0.00331965
2094	0.00282785
2106	0.00282785
2118	0.00227458
2130	0.0027049
2142	0.00313523
2154	0.0031967
2166	0.002459
2178	0.00258195
2190	0.002459
2202	0.00301228
2214	0.00209015
2226	0.0017213
2238	0.00227458
2250	0.00184425
2262	0.0017213
2274	0.00165983
2286	0.00202868
2298	0.00209015
2310	0.000676225
2322	0.000553275
2334	0.000553275
2346	0.000553275
2358	0.000553275
2370	0.000553275
2382	0.00252048
2394	0.00301228
2406	0.00258195
2418	0.00258195
2430	0.0029508
2442	0.00184425
2454	0.00264343
2466	0.00215163
2478	0.0022131
2490	0.00215163
2502	0.0017213
2514	0.0022131
2526	0.00215163
2538	0.0019672
2550	0.00233605
2562	0.00276638
2574	0.00282785
2586	0.00331965
2598	0.00362703
2610	0.0031967
2622	0.00331965
2634	0.0041803
2646	0.00448767
2658	0.00522537
2670	0.0059016
2682	0.00682373
2694	0.00608603
2706	0.0071311
2718	0.007377
2730	0.0093442
2742	0.0123565
2754	0.0137704
2766	0.0127253
2778	0.0136475
2790	0.0167212
2802	0.0227458
2814	0.0310449
2826	0.0390366
2838	0.0511472
2850	0.0764134
2862	0.13377
2874	0.218113
2886	0.293789
2898	0.297232
2910	0.311555
2922	0.365346
2934	0.442374
2946	0.547681
2958	0.556472
2970	0.61475
2982	0.49432
2994	0.267416
3006	0.120307
3018	0.0638725
3030	0.0422333
3042	0.0322129
3054	0.0229302
3066	0.0178892
3078	0.0155532
3090	0.0132786
3102	0.0131557
3114	0.011127
3126	0.00903683
3138	0.00848355
3150	0.00756143
3162	0.00829913
3174	0.00872945
3186	0.0083606
3198	0.00645488
3210	0.00547128
3222	0.00381145
3234	0.0031967
3246	0.00313523
3258	0.00258195
3270	0.00239753
3282	0.0014754
3294	0.00165983
3306	0.00116803
3318	0.00184425
3330	0.0009836
3342	0.00202868
3354	0.00086065
3366	0.00239753
3378	0.00159835
3390	0.00215163
3402	0.00307375
3414	0.00454915
3426	0.0083606
3438	0.0114958
3450	0.00915978
3462	0.0071311
3474	0.002459
3486	0.00307375
3498	0.00159835
3510	0.0022131
3522	0.00215163
3534	0.00184425
3546	0.0022131
3558	0.00129097
3570	0.0044262
3582	0.0036885
3594	0.00282785
3606	0.00135245
3618	0.00313523
3630	0.0051639
3642	0.00227458
3654	0.00325818
3666	0.002459
3678	0.00331965
3690	0.00405735
3702	0.00227458
3714	0.0039344
3726	0.00338113
3738	0.00504095
3750	0.00288933
3762	0.00338113
3774	0.0019672
3786	0.00190573
3798	0.00264343
3810	0.00387293
3822	0.0044262
3834	0.00399588
3846	0.00374998
3858	0.0046721
3870	0.004918
3882	0.00553275
3894	0.0051639
3906	0.0061475
3918	0.00504095
3930	0.00356555
3942	0.00633193
3954	0
3966	0.000553275
