Infrared Spectrum: Heptanoic acid, ethyl ester
Formula: C 9 H 18 O 2
CAS: 106-30-9
Origin: Sadtler Research Labs Under US-EPA Contract
1/CM	ABSORBANCE
450	0.0265127
462	0.0247024
474	0.0315349
486	0.0131395
498	0.023476
510	0.0174026
522	0.0311261
534	0.0158259
546	0.0283814
558	0.0108036
570	0.0133147
582	0.0157091
594	0.0119132
606	0.0140155
618	0.011154
630	0.00998606
642	0.0118548
654	0.0113876
666	0.0156507
678	0.0100445
690	0.0274471
702	0.0274471
714	0.0288486
726	0.0262791
738	0.0195049
750	0.0282062
762	0.0258119
774	0.0276223
786	0.0293742
798	0.0269799
810	0.028031
822	0.0258703
834	0.0310093
846	0.0402362
858	0.0390099
870	0.0401194
882	0.0362652
894	0.039477
906	0.0450249
918	0.0510399
930	0.0530254
942	0.0491127
954	0.0442657
966	0.0426889
978	0.0444409
990	0.0425137
1002	0.0468352
1014	0.059566
1026	0.0957143
1038	0.154988
1050	0.136651
1062	0.0961231
1074	0.0822244
1086	0.0996854
1098	0.156507
1110	0.194465
1122	0.162872
1134	0.134199
1146	0.171106
1158	0.326678
1170	0.464264
1182	0.364871
1194	0.267463
1206	0.258937
1218	0.245739
1230	0.256484
1242	0.252513
1254	0.203342
1266	0.16112
1278	0.125439
1290	0.107394
1302	0.10646
1314	0.106401
1326	0.0908089
1338	0.0871298
1350	0.0955391
1362	0.0819908
1374	0.134023
1386	0.0915097
1398	0.0546021
1410	0.040353
1422	0.0463096
1434	0.0645882
1446	0.0690264
1458	0.0911593
1470	0.0969991
1482	0.0561205
1494	0.0320021
1506	0.023184
1518	0.0204393
1530	0.0174026
1542	0.0185706
1554	0.0166434
1566	0.0154171
1578	0.0157091
1590	0.0158259
1602	0.016585
1614	0.016293
1626	0.0155339
1638	0.0161178
1650	0.0159427
1662	0.0133731
1674	0.0157675
1686	0.0202057
1698	0.0270383
1710	0.0386011
1722	0.062953
1734	0.139688
1746	0.4068
1758	0.580184
1770	0.256893
1782	0.0755086
1794	0.0326445
1806	0.0204393
1818	0.0150667
1830	0.0116796
1842	0.0088181
1854	0.0088181
1866	0.00724135
1878	0.00800053
1890	0.00835091
1902	0.00788373
1914	0.00712456
1926	0.00677417
1938	0.00782533
1950	0.00776693
1962	0.00823412
1974	0.00741655
1986	0.00677417
1998	0.00700776
2010	0.00735815
2022	0.00776693
2034	0.00770854
2046	0.00759174
2058	0.00712456
2070	0.00729975
2082	0.00724135
2094	0.00729975
2106	0.00654058
2118	0.00659897
2130	0.00654058
2142	0.00613179
2154	0.00648218
2166	0.0059566
2178	0.00642378
2190	0.00648218
2202	0.00619019
2214	0.00624859
2226	0.00630698
2238	0.00648218
2250	0.00642378
2262	0.00636538
2274	0.00624859
2286	0.00554781
2298	0.00432145
2310	0.0030367
2322	0.00221912
2334	0.00402946
2346	0.00461344
2358	0.00327029
2370	0.00741655
2382	0.00729975
2394	0.00741655
2406	0.00694936
2418	0.00747494
2430	0.00712456
2442	0.00683257
2454	0.00706616
2466	0.00735815
2478	0.00718295
2490	0.00700776
2502	0.00735815
2514	0.00741655
2526	0.00800053
2538	0.00817572
2550	0.00893489
2562	0.0088765
2574	0.00986926
2586	0.00975247
2598	0.01057
2610	0.0109204
2622	0.0112708
2634	0.01203
2646	0.0123804
2658	0.0135483
2670	0.0144243
2682	0.0146579
2694	0.0147747
2706	0.0147163
2718	0.0146579
2730	0.0164682
2742	0.017461
2754	0.0181618
2766	0.018337
2778	0.018921
2790	0.0207897
2802	0.0226
2814	0.0267463
2826	0.0328197
2838	0.0426305
2850	0.0707784
2862	0.148506
2874	0.192538
2886	0.181034
2898	0.140681
2910	0.185005
2922	0.288603
2934	0.425488
2946	0.442657
2958	0.343731
2970	0.396114
2982	0.28615
2994	0.191545
3006	0.106343
3018	0.0612595
3030	0.0390683
3042	0.0295494
3054	0.0253447
3066	0.0214905
3078	0.0190961
3090	0.0168186
3102	0.0165266
3114	0.0143659
3126	0.0139571
3138	0.0130812
3150	0.0119716
3162	0.0125556
3174	0.0109204
3186	0.0108036
3198	0.00957727
3210	0.0086429
3222	0.00788373
3234	0.00729975
3246	0.00694936
3258	0.00537262
3270	0.00508063
3282	0.005723
3294	0.00478864
3306	0.00432145
3318	0.00420466
3330	0.00315349
3342	0.00408786
3354	0.00362068
3366	0.00402946
3378	0.00362068
3390	0.00350388
3402	0.00391267
3414	0.00315349
3426	0.00391267
3438	0.00233592
3450	0.00362068
3462	0.00484703
3474	0.00513902
3486	0.00765014
3498	0.0086429
3510	0.00496383
3522	0.00344548
3534	0.00397106
3546	0.0028031
3558	0.00321189
3570	0.00385427
3582	0.00420466
3594	0.00502223
3606	0.00373747
3618	0.00385427
3630	0.00519742
3642	0.00367907
3654	0.00665737
3666	0.00414626
3678	0.00391267
3690	0.00560621
3702	0.00426305
3714	0.00449665
3726	0.00239432
3738	0.00356228
3750	0.00700776
3762	0.00379587
3774	0.00385427
3786	0.00397106
3798	0.00443825
3810	0.00379587
3822	0.00648218
3834	0.00473024
3846	0.00408786
3858	0.00607339
3870	0.00677417
3882	0.00648218
3894	0.00636538
3906	0.0029783
3918	0.00729975
3930	0.00630698
3942	0.00350388
3954	0.00788373
3966	0.00473024
