Infrared Spectrum: Dodecanoic acid, ethyl ester
Formula: C 14 H 28 O 2
CAS: 106-33-2
Origin: Sadtler Research Labs Under US-EPA Contract
1/CM	ABSORBANCE
450	0.0107986
462	0.0276445
474	0.0215253
486	0.0169179
498	0.00662317
510	0.0182857
522	0.0169899
534	0.00892688
546	0.0173498
558	0.0165579
570	0.01591
582	0.00971878
594	0.0132463
606	0.0190056
618	0.0105827
630	0.00302362
642	0.0100067
654	0.00943082
666	0.00388751
678	0.00950281
690	0.0102947
702	0.0164139
714	0.0182137
726	0.016054
738	0.0131024
750	0.0175658
762	0.0149741
774	0.0144702
786	0.0116625
798	0.0125264
810	0.0172778
822	0.00662317
834	0.0126704
846	0.0179258
858	0.0139663
870	0.0095748
882	0.0146862
894	0.00892688
906	0.00727109
918	0.0134623
930	0.0136783
942	0.00842295
954	0.00885489
966	0.00590326
978	0.00943082
990	0.0126704
1002	0.0115906
1014	0.023685
1026	0.0505377
1038	0.0783262
1050	0.072207
1062	0.0614803
1074	0.0565129
1086	0.0526974
1098	0.0784702
1110	0.0984117
1122	0.0976918
1134	0.0904207
1146	0.138871
1158	0.21079
1170	0.232027
1182	0.227204
1194	0.188976
1206	0.156724
1218	0.141822
1230	0.14607
1242	0.155213
1254	0.139663
1266	0.103163
1278	0.0761665
1290	0.0692553
1302	0.072279
1314	0.0695433
1326	0.0580247
1338	0.0582407
1350	0.0702632
1362	0.0607604
1374	0.0865332
1386	0.0529134
1398	0.032324
1410	0.0231091
1422	0.0259168
1434	0.040099
1446	0.0516895
1458	0.0749426
1470	0.0774623
1482	0.0346277
1494	0.0155501
1506	0.00871091
1518	0.00741507
1530	0.00647919
1542	0.00143982
1554	0.00352756
1566	0.0040315
1578	0.00417548
1590	0.00251968
1602	0.00323959
1614	0.00431946
1626	0.00431946
1638	0.00287964
1650	0.00230371
1662	0.00424747
1674	0.00604724
1686	0.00633521
1698	0.0127424
1710	0.0253408
1722	0.0429786
1734	0.102659
1746	0.269606
1758	0.368378
1770	0.157228
1782	0.055721
1794	0.023829
1806	0.0123825
1818	0.00763105
1830	0.00525534
1842	0.00374353
1854	0.00302362
1866	0.00295163
1878	0.00287964
1890	0.00302362
1902	0.00331159
1914	0.0023757
1926	0.00280765
1938	0.00266367
1950	0.00295163
1962	0.0023757
1974	0.00273566
1986	0.0031676
1998	0.00251968
2010	0.00266367
2022	0.00331159
2034	0.00359955
2046	0.00323959
2058	0.00287964
2070	0.00273566
2082	0.00251968
2094	0.00215973
2106	0.00208774
2118	0.00151181
2130	0.00165579
2142	0.00143982
2154	0.00187177
2166	0.0015838
2178	0.00187177
2190	0.00187177
2202	0.00136783
2214	0.00136783
2226	0.00136783
2238	0.00194376
2250	0.00215973
2262	0.00187177
2274	0.00136783
2286	0.00151181
2298	0.00115186
2310	0.00172778
2322	0.00201575
2334	0.0015838
2346	0.00489539
2358	0.00439145
2370	0.00187177
2382	0.0023757
2394	0.00295163
2406	0.00230371
2418	0.00194376
2430	0.00187177
2442	0.00187177
2454	0.00194376
2466	0.00201575
2478	0.00194376
2490	0.00230371
2502	0.0015838
2514	0.00230371
2526	0.00187177
2538	0.0023757
2550	0.00280765
2562	0.00287964
2574	0.00352756
2586	0.00388751
2598	0.00345557
2610	0.00460742
2622	0.00511136
2634	0.00439145
2646	0.00525534
2658	0.00626322
2670	0.00691114
2682	0.007991
2694	0.0071991
2706	0.00633521
2718	0.00655118
2730	0.00705512
2742	0.00827896
2754	0.00863892
2766	0.00899887
2778	0.0105107
2790	0.0125984
2802	0.015982
2814	0.0199415
2826	0.0284364
2838	0.0425467
2850	0.0916445
2862	0.260463
2874	0.221228
2886	0.156436
2898	0.14355
2910	0.226628
2922	0.417332
2934	0.71991
2946	0.507681
2958	0.286884
2970	0.281989
2982	0.182209
2994	0.122169
3006	0.0691114
3018	0.039667
3030	0.023829
3042	0.0166299
3054	0.0115906
3066	0.0100067
3078	0.0087829
3090	0.00741507
3102	0.00611923
3114	0.00518335
3126	0.00496738
3138	0.00453543
3150	0.00417548
3162	0.0040315
3174	0.00424747
3186	0.00417548
3198	0.00359955
3210	0.00251968
3222	0.00273566
3234	0.00259168
3246	0.00280765
3258	0.00273566
3270	0.00295163
3282	0.00251968
3294	0.00230371
3306	0.00259168
3318	0.00287964
3330	0.00331159
3342	0.0031676
3354	0.00431946
3366	0.0040315
3378	0.00359955
3390	0.0039595
3402	0.00439145
3414	0.00467942
3426	0.0048234
3438	0.00431946
3450	0.00439145
3462	0.00410349
3474	0.00575928
3486	0.00619123
3498	0.00619123
3510	0.00352756
3522	0.00417548
3534	0.00381552
3546	0.00345557
3558	0.00273566
3570	0.00511136
3582	0.00669516
3594	0.00460742
3606	0.00611923
3618	0.00345557
3630	0.00496738
3642	0.00323959
3654	0.00460742
3666	0.00460742
3678	0.000647919
3690	0.00388751
3702	0.00431946
3714	0.00439145
3726	0.00259168
3738	0.00295163
3750	0.00655118
3762	0.00302362
3774	0.00388751
3786	0.00532733
3798	0.00539932
3810	0.00453543
3822	0.00388751
3834	0.00503937
3846	0.00727109
3858	0.00352756
3870	0.00597525
3882	0.00532733
3894	0.00410349
3906	0.00417548
3918	0.00784702
3930	0.00273566
3942	0.0071991
3954	0.00338358
3966	0.00187177
