Infrared Spectrum: p-Xylene
Formula: C 8 H 10
CAS: 106-42-3
Origin: Sadtler Research Labs Under US-EPA Contract
1/CM	ABSORBANCE
450	0.0246273
462	0.061025
474	0.132372
486	0.234261
498	0.108891
510	0.0281886
522	0.00694151
534	0
546	0.00368202
558	0.00543249
570	0.0060361
582	0.00525141
594	0.00470816
606	0.00404419
618	0.00229372
630	0.002173
642	0.00338022
654	0.00265588
666	0.00102614
678	0.00344058
690	0.00452708
702	0.00621718
714	0.00597574
726	0.00416491
738	0.00476852
750	0.00724332
762	0.0216696
774	0.125853
786	0.287137
798	0.383775
810	0.21235
822	0.0539024
834	0.0179876
846	0.00633791
858	0.00531177
870	0.00627754
882	0.00507032
894	0.00597574
906	0.00718296
918	0.00881271
930	0.00917487
942	0.00917487
954	0.0103821
966	0.0121326
978	0.01171
990	0.0114082
1002	0.0122533
1014	0.0343454
1026	0.0462365
1038	0.034949
1050	0.0415887
1062	0.0352508
1074	0.0274643
1086	0.0292751
1098	0.0383292
1110	0.0618097
1122	0.0496771
1134	0.0383292
1146	0.0144866
1158	0.0085109
1170	0.0085109
1182	0.00887307
1194	0.00772621
1206	0.0143056
1218	0.0255931
1230	0.0354923
1242	0.0278264
1254	0.0141848
1266	0.0100199
1278	0.00935596
1290	0.00923523
1302	0.0118911
1314	0.0154524
1326	0.0197984
1338	0.0211263
1350	0.0248687
1362	0.021911
1374	0.0298183
1386	0.0464176
1398	0.0395365
1410	0.0465383
1422	0.0623529
1434	0.0647674
1446	0.0583087
1458	0.0565583
1470	0.075572
1482	0.0756323
1494	0.0895757
1506	0.198527
1518	0.370737
1530	0.263114
1542	0.0452104
1554	0.0316895
1566	0.0288526
1578	0.0218507
1590	0.0198588
1602	0.024748
1614	0.0328364
1626	0.0315084
1638	0.0221525
1650	0.00694151
1662	0.00760549
1674	0.00301805
1686	0.000845054
1698	0.000965776
1710	0.00434599
1722	0.00651899
1734	0.00543249
1746	0.00639827
1758	0.00881271
1770	0.0105028
1782	0.0209453
1794	0.0172029
1806	0.00627754
1818	0.00440635
1830	0.00579466
1842	0.00857126
1854	0.00947668
1866	0.0146677
1878	0.0333193
1890	0.0325346
1902	0.0220921
1914	0.00995957
1926	0.00579466
1938	0.00404419
1950	0.00362166
1962	0.00325949
1974	0.0038631
1986	0.0038631
1998	0.00344058
2010	0.00325949
2022	0.00193155
2034	0.00181083
2046	0.00187119
2058	0.000965776
2070	0.0013883
2082	0.00150902
2094	0.00313877
2106	0.00374238
2118	0.00175047
2130	0.000422527
2142	0.00060361
2154	0.000663971
2166	0.00060361
2178	0.000845054
2190	0.000422527
2202	0.00156939
2214	0.00181083
2226	0.000543249
2238	0.000362166
2250	0.000181083
2262	0.000482888
2274	0.00144866
2286	0.002173
2298	0.00434599
2310	0.00531177
2322	0.00482888
2334	0.00446671
2346	0.00428563
2358	0.00253516
2370	0.00253516
2382	0.0024748
2394	0.002173
2406	0.00259552
2418	0.00331986
2430	0.00362166
2442	0.00301805
2454	0.00229372
2466	0.00223336
2478	0.00229372
2490	0.002173
2502	0.00175047
2514	0.00175047
2526	0.00144866
2538	0.00150902
2550	0.00126758
2562	0.0013883
2574	0.00338022
2586	0.00651899
2598	0.00621718
2610	0.00380274
2622	0.00211263
2634	0.00229372
2646	0.00181083
2658	0.00120722
2670	0.00144866
2682	0.0013883
2694	0.00235408
2706	0.00428563
2718	0.00633791
2730	0.013038
2742	0.0260156
2754	0.0204624
2766	0.00645863
2778	0.00597574
2790	0.00766585
2802	0.0114082
2814	0.0164786
2826	0.0248084
2838	0.0362166
2850	0.0600592
2862	0.132191
2874	0.256655
2886	0.288888
2898	0.238607
2910	0.225992
2922	0.351724
2934	0.530573
2946	0.414258
2958	0.191224
2970	0.147402
2982	0.190922
2994	0.268365
3006	0.353897
3018	0.442024
3030	0.450776
3042	0.348766
3054	0.301624
3066	0.236253
3078	0.118368
3090	0.0773224
3102	0.0628962
3114	0.0433996
3126	0.0240237
3138	0.0212471
3150	0.0155128
3162	0.00531177
3174	0.00283697
3186	0.00187119
3198	0.0013883
3210	0.00126758
3222	0.000965776
3234	0.00187119
3246	0.00193155
3258	0.00187119
3270	0.00241444
3282	0.00259552
3294	0.00259552
3306	0.00277661
3318	0.00241444
3330	0.0024748
3342	0.00271624
3354	0.00205227
3366	0.00223336
3378	0.00277661
3390	0.00313877
3402	0.00301805
3414	0.00241444
3426	0.00229372
3438	0.00319913
3450	0.00241444
3462	0.00205227
3474	0.00169011
3486	0.00156939
3498	0.00150902
3510	0.000845054
3522	0.00120722
3534	0.00126758
3546	0.00144866
3558	0.00060361
3570	0.000241444
3582	0.000482888
3594	0.000905415
3606	0.000845054
3618	0.0013883
3630	0.00144866
3642	0.00253516
3654	0.00301805
3666	0.00319913
3678	0.00380274
3690	0.00289733
3702	0.00235408
3714	0.00223336
3726	0.00114686
3738	0.0013883
3750	0.0013883
3762	0.00253516
3774	0.00162975
3786	0.000845054
3798	0.00114686
3810	0.00223336
3822	0.00181083
3834	0.0024748
3846	0.00331986
3858	0.00428563
3870	0.00289733
3882	0.00422527
3894	0.00392347
3906	0.00368202
3918	0.00422527
3930	0.0035613
3942	0.00229372
3954	0.00295769
3966	0.00253516
