Infrared Spectrum: Benzenethiol, 4-methyl-
Formula: C 7 H 8 S
CAS: 106-45-6
Origin: Sadtler Research Labs Under US-EPA Contract
1/CM	ABSORBANCE
450	0.128911
462	0.190088
474	0.280401
486	0.230264
498	0.109073
510	0.0359425
522	0.0171827
534	0.0126172
546	0.0170996
558	0.0122852
570	0.0166846
582	0.0218311
594	0.020503
606	0.0166846
618	0.0488087
630	0.041255
642	0.0239893
654	0.0253174
666	0.02125
678	0.0239063
690	0.031294
702	0.0151905
714	0.0229932
726	0.0195069
738	0.0345313
750	0.0356104
762	0.0815139
774	0.209014
786	0.465343
798	0.781935
810	0.439195
822	0.147671
834	0.0575245
846	0.0398438
858	0.0374366
870	0.0282227
882	0.0289698
894	0.0346973
906	0.0444923
918	0.0567775
930	0.0563624
942	0.041338
954	0.0332862
966	0.0386817
978	0.0407569
990	0.0471485
1002	0.0562794
1014	0.191582
1026	0.186934
1038	0.0555324
1050	0.0579396
1062	0.0429981
1074	0.0436622
1086	0.0802687
1098	0.372457
1110	0.360172
1122	0.0987795
1134	0.0484767
1146	0.0288868
1158	0.0263965
1170	0.0292188
1182	0.0402589
1194	0.0385157
1206	0.082925
1218	0.101519
1230	0.0746242
1242	0.0471485
1254	0.031377
1266	0.0305469
1278	0.0297999
1290	0.0355274
1302	0.0487257
1314	0.0477296
1326	0.0403419
1338	0.0356104
1350	0.0337012
1362	0.0362745
1374	0.0464015
1386	0.0713869
1398	0.110733
1410	0.130323
1422	0.116792
1434	0.0846682
1446	0.0659084
1458	0.082925
1470	0.132979
1482	0.293682
1494	0.809992
1506	0.66755
1518	0.0897316
1530	0.0486427
1542	0.0498878
1554	0.0443263
1566	0.0385987
1578	0.041338
1590	0.0371046
1602	0.0465675
1614	0.0579396
1626	0.0557814
1638	0.0420851
1650	0.0273926
1662	0.0229102
1674	0.02125
1686	0.0225782
1698	0.0234083
1710	0.021167
1722	0.0270606
1734	0.0332862
1746	0.0231592
1758	0.0229102
1770	0.0319581
1782	0.041172
1794	0.0234913
1806	0.0136133
1818	0.0141944
1830	0.0158545
1842	0.0186768
1854	0.0178467
1866	0.0268946
1878	0.0474806
1890	0.0576906
1902	0.041255
1914	0.0189258
1926	0.010874
1938	0.0093799
1950	0.0092969
1962	0.00863283
1974	0.0092969
1986	0.00805178
1998	0.00987795
2010	0.010376
2022	0.00763674
2034	0.00639162
2046	0.00564454
2058	0.00639162
2070	0.00664064
2082	0.00473146
2094	0.00589357
2106	0.00672365
2118	0.00597658
2130	0.00489747
2142	0.00356934
2154	0.00506349
2166	0.00680666
2178	0.00747072
2190	0.00688966
2202	0.00697267
2214	0.0051465
2226	0.00581056
2238	0.00506349
2250	0.00547853
2262	0.00489747
2274	0.00448243
2286	0.00854982
2298	0.0139453
2310	0.0174317
2322	0.0186768
2334	0.0201709
2346	0.0173487
2358	0.0302979
2370	0.0170996
2382	0.00755373
2394	0.00747072
2406	0.00780275
2418	0.00879885
2430	0.00572755
2442	0.00456544
2454	0.00439942
2466	0.00473146
2478	0.00373536
2490	0.00448243
2502	0.00348634
2514	0.00340333
2526	0.00423341
2538	0.0030713
2550	0.00390138
2562	0.00655763
2574	0.0126172
2586	0.0249854
2598	0.0199219
2610	0.00871584
2622	0.00805178
2634	0.0052295
2646	0.00647462
2658	0.00456544
2670	0.00547853
2682	0.00564454
2694	0.00821779
2706	0.00954592
2718	0.00688966
2730	0.0110401
2742	0.0235743
2754	0.0213331
2766	0.0083008
2778	0.010542
2790	0.01021
2802	0.0139453
2814	0.0159375
2826	0.0195069
2838	0.0274756
2850	0.0442433
2862	0.0920559
2874	0.178301
2886	0.20146
2898	0.167012
2910	0.151407
2922	0.230098
2934	0.404332
2946	0.326138
2958	0.143106
2970	0.126919
2982	0.152237
2994	0.172657
3006	0.20063
3018	0.259566
3030	0.430064
3042	0.326387
3054	0.239976
3066	0.216983
3078	0.213746
3090	0.177056
3102	0.093467
3114	0.0500538
3126	0.0183448
3138	0.010127
3150	0.00954592
3162	0.00771974
3174	0.00630861
3186	0.00589357
3198	0.0041504
3210	0.0052295
3222	0.00581056
3234	0.00630861
3246	0.00356934
3258	0.0030713
3270	0.00688966
3282	0.00423341
3294	0.00431642
3306	0.00738771
3318	0.00481446
3330	0.00647462
3342	0.00398438
3354	0.00373536
3366	0.00498048
3378	0.00481446
3390	0.00531251
3402	0.00639162
3414	0.00680666
3426	0.00672365
3438	0.00531251
3450	0.00581056
3462	0.00340333
3474	0.00614259
3486	0.0051465
3498	0.00863283
3510	0.00904787
3522	0.00581056
3534	0.00323731
3546	0.0073047
3558	0.00439942
3570	0.00448243
3582	0.00747072
3594	0.00771974
3606	0.00796877
3618	0.00879885
3630	0.010376
3642	0.00796877
3654	0.0113721
3666	0.0143604
3678	0.0163526
3690	0.0156055
3702	0.0144434
3714	0.0127832
3726	0.0146094
3738	0.0186768
3750	0.020918
3762	0.0137793
3774	0.0172657
3786	0.0173487
3798	0.0170996
3810	0.020503
3822	0.0222461
3834	0.0222461
3846	0.0218311
3858	0.020669
3870	0.0229102
3882	0.0219971
3894	0.0229102
3906	0.02042
3918	0.020752
3930	0.021001
3942	0.0239893
3954	0
3966	0.00174317
