Infrared Spectrum: Hexanedioic acid, bis(2-methoxyethyl) ester
Formula: C 12 H 22 O 6
CAS: 106-00-3
Origin: Sadtler Research Labs Under US-EPA Contract
1/CM	ABSORBANCE
450	0.0809472
462	0.0131491
474	0.040666
486	0.0417564
498	0.029826
510	0.0449635
522	0.051955
534	0.0466954
546	0.0282866
558	0.0365609
570	0.0190502
582	0.0282225
594	0.0317503
606	0.023925
618	0.0250795
630	0.0217441
642	0.0186653
654	0.0208461
666	0.0215517
678	0.0205254
690	0.0254644
702	0.0266831
714	0.0320069
726	0.030724
738	0.0342518
750	0.0434241
762	0.0561243
774	0.0313654
786	0.0280301
798	0.0322634
810	0.0407943
822	0.0427827
834	0.054649
846	0.0604218
858	0.062346
870	0.0592031
882	0.0572147
894	0.0577278
906	0.0669642
918	0.0811396
930	0.0869766
942	0.0922362
954	0.0959564
966	0.0900554
978	0.0835129
990	0.0867841
1002	0.0906968
1014	0.105385
1026	0.127258
1038	0.145025
1050	0.147206
1062	0.160227
1074	0.178443
1086	0.188898
1098	0.201278
1110	0.248037
1122	0.364968
1134	0.557651
1146	0.51769
1158	0.455665
1170	0.438988
1182	0.387225
1194	0.345341
1206	0.321287
1218	0.29717
1230	0.301339
1242	0.293257
1254	0.264008
1266	0.215261
1278	0.188257
1290	0.172863
1302	0.136815
1314	0.109234
1326	0.0863351
1338	0.0987145
1350	0.112441
1362	0.0982014
1374	0.101473
1386	0.0799209
1398	0.0760083
1410	0.0615122
1422	0.0551621
1434	0.0744047
1446	0.0898629
1458	0.109747
1470	0.0803699
1482	0.0567015
1494	0.0540717
1506	0.0310447
1518	0.0232194
1530	0.0187936
1542	0.0192426
1554	0.0196275
1566	0.0178956
1578	0.0200123
1590	0.0193067
1602	0.0173183
1614	0.0162279
1626	0.0151375
1638	0.0148809
1650	0.0166128
1662	0.0162921
1674	0.0187295
1686	0.0230911
1698	0.0323917
1710	0.0481706
1722	0.0779325
1734	0.152273
1746	0.388957
1758	0.64142
1770	0.298581
1782	0.1118
1794	0.0538793
1806	0.0301467
1818	0.020333
1830	0.0160355
1842	0.0132774
1854	0.011289
1866	0.0110966
1878	0.0103269
1890	0.0105834
1902	0.0110324
1914	0.0105834
1926	0.00936473
1938	0.0105193
1950	0.0105193
1962	0.0116097
1974	0.0127643
1986	0.0111607
1998	0.0132133
2010	0.0128284
2022	0.010391
2034	0.0110324
2046	0.00955716
2058	0.00917231
2070	0.00788947
2082	0.00846674
2094	0.00788947
2106	0.00660663
2118	0.00660663
2130	0.00622177
2142	0.00635006
2154	0.00628592
2166	0.00570864
2178	0.00513136
2190	0.00455408
2202	0.00416923
2214	0.00384852
2226	0.0039768
2238	0.00359195
2250	0.00404095
2262	0.00359195
2274	0.00333538
2286	0.00327124
2298	0.00436166
2310	0.00493893
2322	0.00596521
2334	0.0032071
2346	0.000192426
2358	0.00917231
2370	0.000192426
2382	0.000192426
2394	0.00218083
2406	0.00211669
2418	0.00147527
2430	0.000897988
2442	0.00032071
2454	0.00064142
2466	0.00064142
2478	0.000577278
2490	0.000705562
2502	0.000769704
2514	0.000705562
2526	0.000897988
2538	0.000833846
2550	0.00115456
2562	0.00166769
2574	0.00141112
2586	0.00269396
2598	0.00352781
2610	0.00352781
2622	0.00295053
2634	0.00314296
2646	0.00275811
2658	0.00218083
2670	0.00166769
2682	0.00141112
2694	0.00211669
2706	0.00493893
2718	0.00737633
2730	0.00930059
2742	0.0116097
2754	0.0122511
2766	0.012187
2778	0.0154582
2790	0.0213593
2802	0.0323917
2814	0.0552263
2826	0.0939039
2838	0.0982655
2850	0.0969827
2862	0.112249
2874	0.132197
2886	0.158238
2898	0.149451
2910	0.141241
2922	0.157084
2934	0.192875
2946	0.204934
2958	0.214812
2970	0.168629
2982	0.140086
2994	0.127899
3006	0.077227
3018	0.0372024
3030	0.0245022
3042	0.0174466
3054	0.0156506
3066	0.0132774
3078	0.0110966
3090	0.00853089
3102	0.00654248
3114	0.00532379
3126	0.00410509
3138	0.00359195
3150	0.00275811
3162	0.00205254
3174	0.00262982
3186	0.00288639
3198	0.00250154
3210	0.00211669
3222	0.00346367
3234	0.00352781
3246	0.00391266
3258	0.00384852
3270	0.00468237
3282	0.0051955
3294	0.00365609
3306	0.00455408
3318	0.00339953
3330	0.00307882
3342	0.00378438
3354	0.00346367
3366	0.00359195
3378	0.00391266
3390	0.00275811
3402	0.00288639
3414	0.00301467
3426	0.00250154
3438	0.00352781
3450	0.00384852
3462	0.00365609
3474	0.00583692
3486	0.00923645
3498	0.00782532
3510	0.00551621
3522	0.00474651
3534	0.00468237
3546	0.00378438
3558	0.00327124
3570	0.00102627
3582	0.00384852
3594	0.00250154
3606	0.00423337
3618	0.0024374
3630	0.00288639
3642	0.00404095
3654	0.00205254
3666	0.00583692
3678	0.000833846
3690	0.00359195
3702	0.00288639
3714	0.000769704
3726	0.0012187
3738	0
3750	0.000192426
3762	0.000192426
3774	0.000192426
3786	0.000192426
3798	0.000513136
3810	0.000192426
3822	0.000192426
3834	0.00102627
3846	0.000128284
3858	0.000192426
3870	0.000769704
3882	6.4142e-05
3894	0.000384852
3906	0.000897988
3918	0.00141112
3930	0.000577278
3942	0.00391266
3954	0.000192426
3966	0.000384852
