Infrared Spectrum: 1,4-Benzenediamine
Formula: C 6 H 8 N 2
CAS: 106-50-3
Origin: Sadtler Research Labs Under US-EPA Contract
1/CM	ABSORBANCE
450	0.104116
462	0.209249
474	0.22102
486	0.217605
498	0.181495
510	0.122498
522	0.0855888
534	0.079631
546	0.0401061
558	0.0802122
570	0.0554365
582	0.0672068
594	0.0760708
606	0.0736732
618	0.0743271
630	0.102518
642	0.188179
654	0.232499
666	0.170814
678	0.171032
690	0.149962
702	0.121626
714	0.0925637
726	0.0789771
738	0.0628474
750	0.0432303
762	0.0280452
774	0.0168562
786	0.0433756
798	0.105932
810	0.204381
822	0.177281
834	0.101646
846	0.0473717
858	0.0221601
870	0.0097359
882	0.00886403
894	0.0100992
906	0.00835544
918	0.00653904
930	0.00559451
942	0.00682966
954	0.00457733
966	0.00799216
978	0.00377811
990	0.00915466
1002	0.0119156
1014	0.0161296
1026	0.0140953
1038	0.0145312
1050	0.0212156
1062	0.0338577
1074	0.0502053
1086	0.0495514
1098	0.0362553
1110	0.0421405
1122	0.0560178
1134	0.0472991
1146	0.0162749
1158	0.00719294
1170	0.00595779
1182	0.00755622
1194	0.00305155
1206	0.00624842
1218	0.0176554
1230	0.0350928
1242	0.0965598
1254	0.322302
1266	0.358848
1278	0.113634
1290	0.0369092
1302	0.03611
1314	0.0392342
1326	0.0300069
1338	0.0153304
1350	0.00624842
1362	0.00130781
1374	0.0011625
1386	0.00443202
1398	0.00799216
1410	0.0114796
1422	0.0104625
1434	0.009082
1446	0.0130054
1458	0.0118429
1470	0.0236132
1482	0.0310241
1494	0.0757076
1506	0.350129
1518	0.72656
1530	0.484398
1542	0.0465725
1554	0.0132234
1566	0.0156937
1578	0.0226687
1590	0.0449741
1602	0.101646
1614	0.233662
1626	0.239474
1638	0.102154
1650	0.034003
1662	0.0196898
1674	0.00900934
1686	0.00174374
1698	0
1710	0.0054492
1722	0.00966325
1734	0.016057
1746	0.00668435
1758	0.0047953
1770	0.00508592
1782	0.00806482
1794	0.00733826
1806	0.00871872
1818	0.0106804
1830	0.013732
1842	0.0142406
1854	0.0105351
1866	0.00523123
1878	0.00145312
1890	0.0018164
1902	0.00326952
1914	0.00530389
1926	0.00646638
1938	0.00639373
1950	0.00603045
1962	0.00566717
1974	0.00508592
1986	0.00450467
1998	0.00385077
2010	0.00319686
2022	0.00435936
2034	0.00377811
2046	0.00203437
2058	0.00196171
2070	0.00101718
2082	0.00254296
2094	0.00370546
2106	0.00385077
2118	0.00356014
2130	0.00210702
2142	0.00283358
2154	0.00356014
2166	0.00261562
2178	0.00312421
2190	0.00254296
2202	0.000944528
2214	0.00152578
2226	0.00167109
2238	0.00196171
2250	0.00239765
2262	0.00232499
2274	0.00319686
2286	0.00385077
2298	0.00581248
2310	0.00573982
2322	0.00334218
2334	0.00443202
2346	0.00915466
2358	0.00239765
2370	0.00959059
2382	0.00733826
2394	0.00370546
2406	0.00268827
2418	0.00203437
2430	0.00225234
2442	0.00217968
2454	0.00268827
2466	0.00276093
2478	0.00232499
2490	0.00326952
2502	0.00334218
2514	0.00450467
2526	0.00486795
2538	0.00305155
2550	0.00196171
2562	0.00232499
2574	0.00348749
2586	0.00392342
2598	0.0042867
2610	0.0047953
2622	0.00435936
2634	0.00450467
2646	0.00501326
2658	0.00581248
2670	0.00523123
2682	0.00515858
2694	0.00443202
2706	0.00494061
2718	0.00530389
2730	0.0047953
2742	0.00399608
2754	0.00392342
2766	0.00421405
2778	0.0042867
2790	0.0036328
2802	0.00290624
2814	0.00370546
2826	0.00356014
2838	0.00334218
2850	0.00464998
2862	0.00573982
2874	0.00770154
2886	0.00828278
2898	0.00806482
2910	0.00951794
2922	0.00770154
2934	0.00835544
2946	0.00624842
2958	0.00639373
2970	0.00668435
2982	0.00559451
2994	0.0135867
3006	0.0601592
3018	0.132815
3030	0.134995
3042	0.106368
3054	0.072656
3066	0.0361827
3078	0.0215062
3090	0.015839
3102	0.0130781
3114	0.0114796
3126	0.00893669
3138	0.00639373
3150	0.0042867
3162	0.00254296
3174	0.00203437
3186	0.00101718
3198	0.00392342
3210	0.00457733
3222	0.00581248
3234	0.00421405
3246	0.00472264
3258	0.0072656
3270	0.00719294
3282	0.00603045
3294	0.00399608
3306	0.00319686
3318	0.00356014
3330	0.00472264
3342	0.00377811
3354	0.00559451
3366	0.00813747
3378	0.0132234
3390	0.025139
3402	0.0311694
3414	0.0180187
3426	0.009082
3438	0.011189
3450	0.0182367
3462	0.0262288
3474	0.0323319
3486	0.0300796
3498	0.0185273
3510	0.00893669
3522	0.00697498
3534	0.0066117
3546	0.00559451
3558	0.00450467
3570	0.00719294
3582	0.0054492
3594	0.00624842
3606	0.00443202
3618	0.00305155
3630	0.00457733
3642	0.0047953
3654	0.00573982
3666	0.00559451
3678	0.00203437
3690	0.00312421
3702	0.00639373
3714	0.00385077
3726	0.00145312
3738	0.00341483
3750	0.00486795
3762	0.00356014
3774	0.00290624
3786	0.00254296
3798	0.00392342
3810	0.0011625
3822	0.00312421
3834	0.00348749
3846	0.00515858
3858	0.00138046
3870	0.0042867
3882	0.0047953
3894	0.00457733
3906	0.00508592
3918	0.00486795
3930	0.00174374
3942	0.00268827
3954	0.0054492
3966	0.00421405
