Infrared Spectrum: 7-Oxabicyclo[4.1.0]heptane, 3-ethenyl-
Formula: C 8 H 12 O
CAS: 106-86-5
Origin: Sadtler Research Labs Under US-EPA Contract
1/CM	ABSORBANCE
450	0.0030006
462	0.0190038
474	0.0382577
486	0.0426752
498	0.025005
510	0.00391745
522	0.00758485
534	0.0445923
546	0.0444256
558	0.0277556
570	0.00791825
582	0.0175869
594	0.0303394
606	0.0376742
618	0.0321731
630	0.0445923
642	0.0591785
654	0.0815163
666	0.0701807
678	0.0381743
690	0.0211709
702	0.021421
714	0.0255885
726	0.0273388
738	0.0349237
750	0.0504268
762	0.0715976
774	0.0825999
786	0.147363
798	0.179453
810	0.125859
822	0.0832667
834	0.0531773
846	0.0818497
858	0.101604
870	0.0843502
882	0.0761819
894	0.110272
906	0.243132
918	0.330983
930	0.222628
942	0.122024
954	0.0889345
966	0.106271
978	0.164116
990	0.234214
1002	0.193372
1014	0.106355
1026	0.0778489
1038	0.0769321
1050	0.0713476
1062	0.0661799
1074	0.0625125
1086	0.0568447
1098	0.0495933
1110	0.0495099
1122	0.0590952
1134	0.0555111
1146	0.0520104
1158	0.0487598
1170	0.0571781
1182	0.0601787
1194	0.05001
1206	0.0452591
1218	0.0491765
1230	0.0723478
1242	0.0862673
1254	0.0891012
1266	0.08335
1278	0.0513436
1290	0.0434254
1302	0.0484264
1314	0.0426752
1326	0.0418417
1338	0.0556778
1350	0.0769321
1362	0.0742649
1374	0.0605121
1386	0.0468427
1398	0.0498433
1410	0.079766
1422	0.138278
1434	0.186204
1446	0.187704
1458	0.134277
1470	0.0604288
1482	0.0339235
1494	0.0308395
1506	0.0274222
1518	0.0237548
1530	0.0226712
1542	0.0360906
1554	0.0298393
1566	0.0300894
1578	0.0320898
1590	0.026422
1602	0.0215043
1614	0.0284224
1626	0.0478429
1638	0.117524
1650	0.114273
1662	0.0384244
1674	0.0273388
1686	0.038091
1698	0.0549277
1710	0.0472595
1722	0.0413416
1734	0.0470928
1746	0.0467594
1758	0.0412583
1770	0.0380076
1782	0.0235047
1794	0.0205041
1806	0.0151697
1818	0.0145029
1830	0.0355905
1842	0.0335901
1854	0.0128359
1866	0.00841835
1878	0.00658465
1890	0.0076682
1902	0.0088351
1914	0.00825165
1926	0.00925185
1938	0.0061679
1950	0.0118357
1962	0.0110022
1974	0.0104188
1986	0.00841835
1998	0.006668
2010	0.0070014
2022	0.0061679
2034	0.00541775
2046	0.00341735
2058	0.00575115
2070	0.00658465
2082	0.008335
2094	0.0076682
2106	0.0055011
2118	0.00775155
2130	0.0085017
2142	0.00891845
2154	0.0076682
2166	0.00625125
2178	0.00591785
2190	0.00825165
2202	0.0076682
2214	0.00575115
2226	0.0038341
2238	0.0025005
2250	0.0065013
2262	0.0061679
2274	0.0055011
2286	0.00458425
2298	0.00575115
2310	0.00708475
2322	0.00325065
2334	8.335e-05
2346	0.00191705
2358	0.0008335
2370	0.0121691
2382	0.0123358
2394	0.0065013
2406	0.0026672
2418	0.0025005
2430	0.00325065
2442	0.0041675
2454	0.0011669
2466	0.00058345
2478	0.00341735
2490	0.00441755
2502	0.00425085
2514	0.0045009
2526	0.0021671
2538	0.00491765
2550	0.00625125
2562	0.00691805
2574	0.00558445
2586	0.0036674
2598	0.00591785
2610	0.00808495
2622	0.006668
2634	0.00675135
2646	0.00508435
2658	0.00625125
2670	0.0135027
2682	0.015003
2694	0.0151697
2706	0.0154198
2718	0.0175035
2730	0.0200874
2742	0.0175035
2754	0.0160866
2766	0.0150864
2778	0.0170868
2790	0.0195039
2802	0.021671
2814	0.0221711
2826	0.0337568
2838	0.0757652
2850	0.168117
2862	0.224045
2874	0.19779
2886	0.169117
2898	0.189038
2910	0.288474
2922	0.533107
2934	0.766903
2946	0.771654
2958	0.438338
2970	0.242215
2982	0.445006
2994	0.788241
3006	0.633543
3018	0.190705
3030	0.0596786
3042	0.0454258
3054	0.0398413
3066	0.0487598
3078	0.103854
3090	0.169534
3102	0.0904348
3114	0.0220044
3126	0.0126692
3138	0.0151697
3150	0.0148363
3162	0.0110856
3174	0.0060012
3186	0.00525105
3198	0.0063346
3210	0.00858505
3222	0.00525105
3234	0.00225045
3246	0.00575115
3258	0.0095019
3270	0.0142529
3282	0.00841835
3294	0.00641795
3306	0.0119191
3318	0.0167534
3330	0.019754
3342	0.0113356
3354	0.0055011
3366	0.00658465
3378	0.00941855
3390	0.00975195
3402	0.0040008
3414	0
3426	0.0038341
3438	0.0105021
3450	0.0095019
3462	0.0075015
3474	0.00575115
3486	0.00625125
3498	0.0112523
3510	0.0111689
3522	0.0131693
3534	0.00875175
3546	0.00741815
3558	0.0124192
3570	0.015003
3582	0.00608455
3594	0.00391745
3606	0.0058345
3618	0.0149197
3630	0.0200874
3642	0.0124192
3654	0.0159199
3666	0.0140028
3678	0.0236714
3690	0.0234214
3702	0.0160032
3714	0.0179203
3726	0.0203374
3738	0.0265053
3750	0.031673
3762	0.0194206
3774	0.0168367
3786	0.0149197
3798	0.0220044
3810	0.0210876
3822	0.01667
3834	0.0110856
3846	0.0169201
3858	0.0315897
3870	0.0344236
3882	0.026422
3894	0.021421
3906	0.0288391
3918	0.0403414
3930	0.039758
3942	0.0295893
3954	0.00508435
3966	0.0060012
