Infrared Spectrum: Benzene, 1-bromo-4-methyl-
Formula: C 7 H 7 Br
CAS: 106-38-7
Origin: Sadtler Research Labs Under US-EPA Contract
1/CM	ABSORBANCE
450	0.0878563
462	0.123769
474	0.193807
486	0.117165
498	0.0489161
510	0.0114894
522	0.0153422
534	0.010939
546	0.0179565
558	0.00963186
570	0.0388714
582	0.0515305
594	0.100653
606	0.0754037
618	0.015755
630	0.0066047
642	0.0190573
654	0.0262812
666	0.0237357
678	0.0209149
690	0.0142414
702	0.0200893
714	0.0197453
726	0.016787
738	0.00550392
750	0.0346059
762	0.0518056
774	0.0886819
786	0.279049
798	0.425728
810	0.343307
822	0.1409
834	0.02979
846	0.0152046
858	0.0202957
870	0.0119022
882	0.0141726
894	0.0244236
906	0.0195389
918	0.0154798
930	0.0160302
942	0.0261436
954	0.0271756
966	0.0250428
978	0.0179565
990	0.0168558
1002	0.0932226
1014	0.399447
1026	0.0904019
1038	0.0363947
1050	0.0447881
1062	0.167938
1074	0.422839
1086	0.147161
1098	0.0658406
1110	0.0642583
1122	0.0456825
1134	0.0302028
1146	0.0166494
1158	0.0213277
1170	0.0279324
1182	0.0392154
1194	0.0460265
1206	0.0611623
1218	0.0610247
1230	0.0519432
1242	0.0283452
1254	0.0257308
1266	0.0198141
1278	0.0214653
1290	0.0241484
1302	0.0224285
1314	0.0276572
1326	0.0249052
1338	0.0215341
1350	0.0224285
1362	0.0223597
1374	0.0341243
1386	0.0555896
1398	0.0622631
1410	0.0736837
1422	0.0575848
1434	0.0496729
1446	0.041761
1458	0.0546264
1470	0.157137
1482	0.449808
1494	0.68799
1506	0.182937
1518	0.0446506
1530	0.030822
1542	0.0156174
1554	0.0212589
1566	0.02463
1578	0.029446
1590	0.0473337
1602	0.0403162
1614	0.0453385
1626	0.0367387
1638	0.024974
1650	0.0137598
1662	0.0148606
1674	0.0165118
1686	0.00598551
1698	0.00921907
1710	0.0110766
1722	0.015411
1734	0.0117646
1746	0.0106638
1758	0.0104574
1770	0.0226349
1782	0.0200893
1794	0.00536632
1806	0.00598551
1818	0.00605431
1830	0.00419674
1842	0.0068111
1854	0.0117646
1866	0.0163054
1878	0.0315099
1890	0.0324043
1902	0.0205709
1914	0.00804948
1926	0.00550392
1938	0.00488473
1950	0.00598551
1962	0.00619191
1974	0.00619191
1986	0.00605431
1998	0.00584792
2010	0.00550392
2022	0.00495353
2034	0.00330235
2046	0.00337115
2058	0.00426554
2070	0.00261436
2082	0.00447193
2094	0.00405914
2106	0.00254556
2118	0.00247676
2130	0.00385274
2142	0.00419674
2154	0.00460953
2166	0.00488473
2178	0.00447193
2190	0.00454073
2202	0.00536632
2214	0.00275196
2226	0.00309596
2238	0.00330235
2250	0.00454073
2262	0.00419674
2274	0.00736149
2286	0.0121774
2298	0.0175437
2310	0.0219469
2322	0.0186445
2334	0.015755
2346	0.0192637
2358	0.0215341
2370	0.0216717
2382	0.0176813
2394	0.00646711
2406	0.00619191
2418	0.0068111
2430	0.00605431
2442	0.00577912
2454	0.00632951
2466	0.00639831
2478	0.00619191
2490	0.00653591
2502	0.00474713
2514	0.0067423
2526	0.0067423
2538	0.0070863
2550	0.00749909
2562	0.00990706
2574	0.00901267
2586	0.00963186
2598	0.0103886
2610	0.00880627
2622	0.00619191
2634	0.0072239
2646	0.0070175
2658	0.00770549
2670	0.00756789
2682	0.00743029
2694	0.00839348
2706	0.0066047
2718	0.00770549
2730	0.00928787
2742	0.0158238
2754	0.0158926
2766	0.00956306
2778	0.0102511
2790	0.0115582
2802	0.0125214
2814	0.0148606
2826	0.0167182
2838	0.0225661
2850	0.0298588
2862	0.0535944
2874	0.098245
2886	0.11228
2898	0.0950802
2910	0.0875123
2922	0.124045
2934	0.225386
2946	0.184381
2958	0.0841412
2970	0.0714134
2982	0.070863
2994	0.0825588
3006	0.0972818
3018	0.114206
3030	0.204471
3042	0.183212
3054	0.129205
3066	0.0959746
3078	0.083178
3090	0.084554
3102	0.0675606
3114	0.0317851
3126	0.0141726
3138	0.0113518
3150	0.00990706
3162	0.00887507
3174	0.0118334
3186	0.00756789
3198	0.00832468
3210	0.0102511
3222	0.0070863
3234	0.00942546
3246	0.00770549
3258	0.00756789
3270	0.0069487
3282	0.0071551
3294	0.00798068
3306	0.0067423
3318	0.010939
3330	0.00859987
3342	0.00798068
3354	0.00887507
3366	0.00743029
3378	0.00495353
3390	0.00846228
3402	0.00460953
3414	0.00474713
3426	0.0068799
3438	0.00632951
3450	0.00811828
3462	0.00515993
3474	0.00378395
3486	0.00529752
3498	0.00467833
3510	0.00447193
3522	0.00653591
3534	0.00426554
3546	0.00337115
3558	0.00536632
3570	0.00316475
3582	0.00763669
3594	0.00557272
3606	0.00467833
3618	0.00467833
3630	0.00433434
3642	0.0070863
3654	0.00935666
3666	0.00997586
3678	0.00509113
3690	0.00749909
3702	0.00901267
3714	0.00976946
3726	0.0112142
3738	0.0071551
3750	0.0120398
3762	0.0118334
3774	0.0125902
3786	0.012315
3798	0.0178877
3810	0.0159614
3822	0.0130718
3834	0.0130718
3846	0.0147918
3858	0.0160302
3870	0.0153422
3882	0.0187821
3894	0.0168558
3906	0.0141038
3918	0.013691
3930	0.0141038
3942	0.0127966
3954	0
3966	0.00123838
