Infrared Spectrum: Parachlorophenol
Formula: C 6 H 5 Cl O
CAS: 106-48-9
Origin: Sadtler Research Labs Under US-EPA Contract
1/CM	ABSORBANCE
450	0.0215707
462	0.00784053
474	0.0137669
486	0.0321719
498	0.0517549
510	0.0343069
522	0.0159387
534	0.00677304
546	0.0055215
558	0.00802458
570	0.0101227
582	0.00629451
594	0.00401229
606	0.0040491
618	0.00743562
630	0.0378775
642	0.0973993
654	0.0503929
666	0.00279756
678	0.00360738
690	0.00353376
702	0.00327609
714	0.00323928
726	0.00287118
738	0.00290799
750	0.0047853
762	0.00357057
774	0.00607365
786	0.0138774
798	0.0340124
810	0.0680249
822	0.115547
834	0.0712274
846	0.0287118
858	0.00511659
870	0.00250308
882	0.00320247
894	0.00139878
906	0.00346014
918	0.00265032
930	0.00217179
942	0.00327609
954	0.00242946
966	0.00312885
978	0.00364419
990	0.00460125
1002	0.0160124
1014	0.0205768
1026	0.00820863
1038	0.00489573
1050	0.00640494
1062	0.00732519
1074	0.0150553
1086	0.0764912
1098	0.131338
1110	0.0436567
1122	0.0258038
1134	0.0159755
1146	0.0173007
1158	0.0934974
1170	0.354296
1182	0.305707
1194	0.0723685
1206	0.029448
1218	0.0270922
1230	0.0357425
1242	0.0801354
1254	0.201608
1266	0.146467
1278	0.017632
1290	0.0156443
1302	0.0172639
1314	0.0417793
1326	0.0396444
1338	0.0217915
1350	0.0128099
1362	0.00765648
1374	0.00467487
1386	0.00456444
1398	0.00725157
1410	0.0257302
1422	0.0562825
1434	0.0355953
1446	0.00979146
1458	0.0165645
1470	0.0237425
1482	0.13005
1494	0.340824
1506	0.209228
1518	0.0260247
1530	0.0169326
1542	0.0167486
1554	0.00706752
1566	0.0104172
1578	0.0255093
1590	0.0452395
1602	0.0516812
1614	0.0308468
1626	0.00979146
1638	0.00857673
1650	0.00611046
1662	0.00371781
1674	0.007362
1686	0.00813501
1698	0.00831906
1710	0.00463806
1722	0.00633132
1734	0.0121473
1746	0.00971784
1758	0.00541107
1770	0.00485892
1782	0.00460125
1794	0.003681
1806	0.00276075
1818	0.00327609
1830	0.00489573
1842	0.007362
1854	0.0062577
1866	0.00824544
1878	0.00721476
1890	0.00507978
1902	0.00338652
1914	0.00320247
1926	0.00143559
1938	0.00132516
1950	0.00173007
1962	0.00117792
1974	0.00169326
1986	0.00169326
1998	0.00180369
2010	0.00154602
2022	0.00154602
2034	0.00095706
2046	0.00173007
2058	0.00235584
2070	0.00287118
2082	0.00316566
2094	0.00231903
2106	0.00128835
2118	0.00103068
2130	0.00092025
2142	0.0007362
2154	0.00095706
2166	0.00080982
2178	0.00103068
2190	0.00117792
2202	0.00066258
2214	0.00099387
2226	0.0011043
2238	0.00169326
2250	0.00224541
2262	0.00235584
2274	0.00209817
2286	0.00217179
2298	0.00327609
2310	0.00312885
2322	0.0022086
2334	0.00202455
2346	0.00357057
2358	0.00253989
2370	0.00173007
2382	0.00231903
2394	0.00228222
2406	0.00309204
2418	0.00511659
2430	0.00647856
2442	0.00320247
2454	0.00180369
2466	0.00169326
2478	0.00202455
2490	0.0022086
2502	0.00261351
2514	0.00239265
2526	0.00173007
2538	0.00169326
2550	0.00088344
2562	0.00132516
2574	0.00125154
2586	0.00235584
2598	0.00176688
2610	0.00103068
2622	0.00092025
2634	0.00088344
2646	0.00066258
2658	0.00136197
2670	0.0014724
2682	0.00150921
2694	0.00121473
2706	0.00132516
2718	0.00069939
2730	0.00114111
2742	0.0007362
2754	0.00092025
2766	0.00150921
2778	0.00117792
2790	0.00139878
2802	0.00088344
2814	0.00139878
2826	0.00092025
2838	0.00169326
2850	0.00143559
2862	0.00228222
2874	0.0025767
2886	0.00191412
2898	0.00191412
2910	0.00195093
2922	0.00209817
2934	0.00250308
2946	0.00180369
2958	0.00132516
2970	0.00139878
2982	0.00209817
2994	0.00357057
3006	0.00622089
3018	0.00872397
3030	0.0156074
3042	0.022086
3054	0.0128835
3066	0.00990189
3078	0.0109326
3090	0.00971784
3102	0.00949698
3114	0.00747243
3126	0.00371781
3138	0.00242946
3150	0.00224541
3162	0.00202455
3174	0.00202455
3186	0.00198774
3198	0.00139878
3210	0.00202455
3222	0.00239265
3234	0.00209817
3246	0.00265032
3258	0.00213498
3270	0.00283437
3282	0.00246627
3294	0.00217179
3306	0.00309204
3318	0.00279756
3330	0.0029448
3342	0.00386505
3354	0.00467487
3366	0.00445401
3378	0.00504297
3390	0.00519021
3402	0.00474849
3414	0.00522702
3426	0.00386505
3438	0.00452763
3450	0.00379143
3462	0.00316566
3474	0.00298161
3486	0.00287118
3498	0.00426996
3510	0.00408591
3522	0.00272394
3534	0.00323928
3546	0.00253989
3558	0.00397548
3570	0.00242946
3582	0.00390186
3594	0.00253989
3606	0.00555831
3618	0.00603684
3630	0.0114847
3642	0.0717427
3654	0.137817
3666	0.0816446
3678	0.00754605
3690	0.00500616
3702	0.00309204
3714	0.00084663
3726	0.00213498
3738	0.00485892
3750	3.681e-05
3762	0.0029448
3774	0.00544788
3786	0.00577917
3798	0.00471168
3810	0.00224541
3822	0.00132516
3834	0.00474849
3846	0.00360738
3858	0.00434358
3870	0.00393867
3882	0.00309204
3894	0.00644175
3906	0.00364419
3918	0.0066258
3930	0.00658899
3942	0.00415953
3954	0.00585279
3966	0.00353376
