Infrared Spectrum: 2-Propenoic acid, 2-methylpropyl ester
Formula: C 7 H 12 O 2
CAS: 106-63-8
Origin: Sadtler Research Labs Under US-EPA Contract
1/CM	ABSORBANCE
450	0.0311792
462	0.00915041
474	0.0133867
486	0.00610027
498	0.00796424
510	0.00796424
522	0.00999767
534	0.0135562
546	0.00525301
558	0.00965876
570	0.0135562
582	0.00491411
594	0.00593082
606	0.0128784
618	0.00542246
630	0.0116922
642	0.0118616
654	0.0140645
666	0.0255873
678	0.0183008
690	0.00440575
702	0.00542246
714	0.00271123
726	0.00152507
738	0.0038974
750	0.0038974
762	0.00525301
774	0.0137256
786	0.0250789
798	0.072356
810	0.130986
822	0.0967571
834	0.0560886
846	0.0386351
858	0.0291457
870	0.0286374
882	0.0293152
894	0.0340599
906	0.0433797
918	0.0474466
930	0.0559192
942	0.0848955
954	0.14217
966	0.199784
978	0.208426
990	0.260109
1002	0.304675
1014	0.227743
1026	0.0615111
1038	0.0901485
1050	0.295185
1062	0.513101
1074	0.253839
1086	0.0840482
1098	0.0555803
1110	0.0542246
1122	0.0526996
1134	0.06185
1146	0.0960793
1158	0.217915
1170	0.589862
1182	1.37883
1194	1.66893
1206	0.765754
1218	0.200631
1230	0.141831
1242	0.205206
1254	0.535468
1266	0.780835
1278	0.48226
1290	0.402957
1302	0.373642
1314	0.153015
1326	0.0674419
1338	0.059986
1350	0.059986
1362	0.0643918
1374	0.0998072
1386	0.147423
1398	0.271123
1410	0.487344
1422	0.243333
1434	0.0754061
1446	0.0725255
1458	0.114211
1470	0.156404
1482	0.120311
1494	0.0542246
1506	0.0291457
1518	0.0208426
1530	0.0171147
1542	0.0140645
1554	0.0120311
1566	0.0108449
1578	0.0108449
1590	0.0164368
1602	0.0276207
1614	0.0511745
1626	0.082862
1638	0.111161
1650	0.0589693
1662	0.0218593
1674	0.0223677
1686	0.0294846
1698	0.0491411
1710	0.0904874
1722	0.193175
1734	0.57207
1746	1.1477
1758	0.844888
1770	0.246214
1782	0.0745589
1794	0.0384656
1806	0.0279596
1818	0.0191481
1830	0.014234
1842	0.0122005
1854	0.0118616
1866	0.0111838
1878	0.00965876
1890	0.00982822
1902	0.0118616
1914	0.0166063
1926	0.0254178
1938	0.022876
1950	0.01237
1962	0.00982822
1974	0.00796424
1986	0.00711698
1998	0.00948931
2010	0.0108449
2022	0.00999767
2034	0.0106755
2046	0.00931986
2058	0.00830315
2070	0.00728644
2082	0.00864205
2094	0.00965876
2106	0.00898096
2118	0.00711698
2130	0.00610027
2142	0.00559192
2154	0.0045752
2166	0.00474466
2178	0.0038974
2190	0.00321959
2202	0.00271123
2214	0.00203342
2226	0.00203342
2238	0.00271123
2250	0.00237233
2262	0.00237233
2274	0.00203342
2286	0.00237233
2298	0.00406685
2310	0.0045752
2322	0.00321959
2334	0.00203342
2346	0.00372794
2358	0.0045752
2370	0.0045752
2382	0.00728644
2394	0.0045752
2406	0.00237233
2418	0.00118616
2430	0.00101671
2442	0.000677808
2454	0.00152507
2466	0.00152507
2478	0.00271123
2490	0.00220288
2502	0.00203342
2514	0.00203342
2526	0.00169452
2538	0.00135562
2550	0.00169452
2562	0.00169452
2574	0.00220288
2586	0.00220288
2598	0.00220288
2610	0.00169452
2622	0.00135562
2634	0.00305014
2646	0.00338904
2658	0.00355849
2670	0.00406685
2682	0.00288068
2694	0.0038974
2706	0.00474466
2718	0.00593082
2730	0.00948931
2742	0.0113533
2754	0.0088115
2766	0.00745589
2778	0.00660863
2790	0.00864205
2802	0.00915041
2814	0.01237
2826	0.0159285
2838	0.0184703
2850	0.0244011
2862	0.0379572
2874	0.0987905
2886	0.203342
2898	0.203342
2910	0.183517
2922	0.179958
2934	0.221643
2946	0.316706
2958	0.433289
2970	0.673741
2982	0.574781
2994	0.16691
3006	0.0571053
3018	0.0284679
3030	0.0301625
3042	0.0410074
3054	0.0327042
3066	0.0160979
3078	0.0179619
3090	0.0171147
3102	0.0221982
3114	0.0369405
3126	0.0125394
3138	0.00559192
3150	0.00491411
3162	0.00626972
3174	0.00576137
3186	0.00643918
3198	0.00525301
3210	0.00271123
3222	0.00152507
3234	0.00135562
3246	0.00084726
3258	0.00118616
3270	0.00271123
3282	0.00203342
3294	0.000677808
3306	0.00186397
3318	0.00406685
3330	0.00355849
3342	0.00440575
3354	0.00508356
3366	0.00542246
3378	0.00898096
3390	0.00745589
3402	0.00593082
3414	0.00694753
3426	0.00559192
3438	0.00576137
3450	0.00762534
3462	0.0108449
3474	0.0160979
3486	0.0133867
3498	0.00745589
3510	0.00508356
3522	0.00440575
3534	0.00610027
3546	0.00508356
3558	0.00491411
3570	0.00321959
3582	0.00593082
3594	0.00338904
3606	0.00338904
3618	0.0042363
3630	0.00152507
3642	0.00254178
3654	0.00288068
3666	0.0042363
3678	0.00186397
3690	0.00169452
3702	0.000169452
3714	0.00169452
3726	0.00169452
3738	0.00203342
3750	0.00118616
3762	0.00152507
3774	0.000169452
3786	0.00305014
3798	0.000169452
3810	0.000508356
3822	0.00338904
3834	0.000677808
3846	0.00338904
3858	0.00254178
3870	0.00220288
3882	0.00288068
3894	0.00203342
3906	0.00254178
3918	0.00491411
3930	0.00135562
3942	0.00491411
3954	0.00288068
3966	0.00372794
