Infrared Spectrum: Benzene, 1-bromo-4-chloro-
Formula: C 6 H 4 Br Cl
CAS: 106-39-8
Origin: Sadtler Research Labs Under US-EPA Contract
1/CM	ABSORBANCE
450	0.040194
462	0.0822805
474	0.139147
486	0.194661
498	0.271535
510	0.0330744
522	0.0293794
534	0.0196464
546	0.0085615
558	0.00757016
570	0.00910222
582	0.0177538
594	0.0328942
606	0.0282079
618	0.0109046
630	0.0145996
642	0.0105442
654	0.0117157
666	0.0117157
678	0.00865162
690	0.0173032
702	0.00919234
714	0.00603811
726	0.0127071
738	0.0187452
750	0.0352373
762	0.025324
774	0.0234315
786	0.0356879
798	0.115265
810	0.261171
822	0.281989
834	0.130766
846	0.0218994
858	0.00612823
870	0.00630847
882	0.00648871
894	0.0055875
906	0.00549738
918	0.00090121
930	0.00243327
942	0.00198266
954	0.00693932
966	0.00477641
978	0.00630847
990	0.0136984
1002	0.168797
1014	0.635263
1026	0.0234315
1038	0.00748004
1050	0.0231611
1062	0.180693
1074	0.400498
1086	0.25306
1098	0.728718
1110	0.0671401
1122	0.0157712
1134	0.0105442
1146	0.0112651
1158	0.0153206
1170	0.0182044
1182	0.0146897
1194	0.0136984
1206	0.0251438
1218	0.0441593
1230	0.0373101
1242	0.0303708
1254	0.0292893
1266	0.0277573
1278	0.0273968
1290	0.0301004
1302	0.028298
1314	0.0235216
1326	0.0194661
1338	0.020097
1350	0.0199167
1362	0.0241524
1374	0.0407347
1386	0.0607416
1398	0.0646168
1410	0.0836323
1422	0.0419964
1434	0.0355978
1446	0.0474036
1458	0.100485
1470	0.765758
1482	0.604712
1494	0.0869668
1506	0.0590293
1518	0.0265857
1530	0.0157712
1542	0.0130675
1554	0.0198266
1566	0.0250536
1578	0.0318127
1590	0.0471333
1602	0.0316325
1614	0.0257746
1626	0.0392928
1638	0.0248734
1650	0.0107244
1662	0.0155008
1674	0.00468629
1686	0.00693932
1698	0.00405545
1710	0.00630847
1722	0.00585787
1734	0.0124367
1746	0.0124367
1758	0.0164921
1770	0.0120762
1782	0.00648871
1794	0.00468629
1806	0.00838125
1818	0.0101837
1830	0.00693932
1842	0.0090121
1854	0.0100034
1866	0.0155008
1878	0.027577
1890	0.029019
1902	0.0170329
1914	0.00946271
1926	0.00648871
1938	0.00603811
1950	0.00675907
1962	0.00612823
1974	0.00567762
1986	0.00531714
1998	0.0051369
2010	0.00441593
2022	0.00504678
2034	0.00495665
2046	0.00522702
2058	0.00549738
2070	0.00504678
2082	0.0051369
2094	0.00522702
2106	0.00459617
2118	0.00459617
2130	0.00405545
2142	0.0038752
2154	0.0038752
2166	0.00360484
2178	0.00369496
2190	0.00360484
2202	0.00378508
2214	0.00378508
2226	0.00288387
2238	0.0034246
2250	0.0038752
2262	0.00504678
2274	0.00657883
2286	0.00675907
2298	0.00540726
2310	0.00288387
2322	0
2334	0
2346	0
2358	0
2370	0.00180242
2382	0.00432581
2394	0.00270363
2406	0.00207278
2418	0.00144194
2430	0.00126169
2442	0.0017123
2454	0.00198266
2466	0.00234315
2478	0.00243327
2490	0.00270363
2502	0.00261351
2514	0.00306411
2526	0.00351472
2538	0.00468629
2550	0.00486653
2562	0.0051369
2574	0.00531714
2586	0.00423569
2598	0.00288387
2610	0.0034246
2622	0.00414557
2634	0.00432581
2646	0.00594799
2658	0.00531714
2670	0.00468629
2682	0.00396532
2694	0.0038752
2706	0.0034246
2718	0.00396532
2730	0.00396532
2742	0.00450605
2754	0.00441593
2766	0.00477641
2778	0.00495665
2790	0.00585787
2802	0.00720968
2814	0.00937258
2826	0.00693932
2838	0.00378508
2850	0.00468629
2862	0.00531714
2874	0.00459617
2886	0.00468629
2898	0.00468629
2910	0.0051369
2922	0.00468629
2934	0.00351472
2946	0.00432581
2958	0.00423569
2970	0.00567762
2982	0.00531714
2994	0.00576774
3006	0.00693932
3018	0.00964295
3030	0.00973307
3042	0.0090121
3054	0.0085615
3066	0.00865162
3078	0.0161317
3090	0.0289288
3102	0.0209081
3114	0.00829113
3126	0.00414557
3138	0.0051369
3150	0.00495665
3162	0.00531714
3174	0.00504678
3186	0.00567762
3198	0.00495665
3210	0.00549738
3222	0.00621835
3234	0.00540726
3246	0.00576774
3258	0.00504678
3270	0.00720968
3282	0.00748004
3294	0.00675907
3306	0.00766029
3318	0.0085615
3330	0.00910222
3342	0.0103639
3354	0.0105442
3366	0.0106343
3378	0.0129774
3390	0.0122565
3402	0.0115355
3414	0.00847137
3426	0.00648871
3438	0.00666895
3450	0.00748004
3462	0.00955283
3474	0.00802077
3486	0.00910222
3498	0.00711956
3510	0.00820101
3522	0.00838125
3534	0.0068492
3546	0.00919234
3558	0.00928246
3570	0.00937258
3582	0.00711956
3594	0.0109948
3606	0.00612823
3618	0.00522702
3630	0.00820101
3642	0.00748004
3654	0.0110849
3666	0.00594799
3678	0.00495665
3690	0.0110849
3702	0.00693932
3714	0.0119861
3726	0.0112651
3738	0.00666895
3750	0.0136083
3762	0.00549738
3774	0.00874174
3786	0.00766029
3798	0.00937258
3810	0.00324436
3822	0.00748004
3834	0.00793065
3846	0.0085615
3858	0.00874174
3870	0.00459617
3882	0.0112651
3894	0.00360484
3906	0.0136083
3918	0.00928246
3930	0.00838125
3942	0.00720968
3954	0.00883186
3966	0.00793065
