Infrared Spectrum: Hexanoic acid, methyl ester
Formula: C 7 H 14 O 2
CAS: 106-70-7
Origin: Sadtler Research Labs Under US-EPA Contract
1/CM	ABSORBANCE
450	0.00284628
462	0.0074902
474	0.00576745
486	0.00674118
498	0.00157294
510	0.0132577
522	0.00584236
534	0.0127333
546	0.00644157
558	0.0182761
570	0.00988706
582	0.0233694
594	0.0156545
606	0.0194745
618	0.0179016
630	0.0212722
642	0.018351
654	0.0216467
666	0.0188004
678	0.0170777
690	0.0232196
702	0.0211973
714	0.0289122
726	0.0271894
738	0.0293616
750	0.0368518
762	0.0283879
774	0.0255416
786	0.0323577
798	0.0286875
810	0.0312341
822	0.0360279
834	0.0384996
846	0.0459898
858	0.0525812
870	0.0483118
882	0.035953
894	0.0337059
906	0.0289871
918	0.0260659
930	0.0232945
942	0.0220212
954	0.0224706
966	0.0284628
978	0.0352039
990	0.0453157
1002	0.0636667
1014	0.093253
1026	0.0980467
1038	0.0781977
1050	0.0551279
1062	0.0519071
1074	0.063442
1086	0.0862122
1098	0.135573
1110	0.170102
1122	0.14516
1134	0.124188
1146	0.162238
1158	0.319981
1170	0.560492
1182	0.488211
1194	0.35159
1206	0.307098
1218	0.317959
1230	0.314963
1242	0.332939
1254	0.3056
1266	0.210624
1278	0.160365
1290	0.140142
1302	0.131228
1314	0.127633
1326	0.115274
1338	0.116023
1350	0.137071
1362	0.144711
1374	0.111978
1386	0.0763251
1398	0.0472632
1410	0.0441173
1422	0.058873
1434	0.144561
1446	0.183585
1458	0.11812
1470	0.109582
1482	0.0648651
1494	0.0373761
1506	0.0222459
1518	0.0214969
1530	0.0212722
1542	0.0115349
1554	0.0177518
1566	0.018351
1578	0.0154298
1590	0.0182761
1602	0.0172275
1614	0.0155047
1626	0.0140816
1638	0.0110855
1650	0.0128831
1662	0.0146808
1674	0.0149055
1686	0.0138569
1698	0.022171
1710	0.0424694
1722	0.0760255
1734	0.16411
1746	0.403946
1758	0.720482
1770	0.596295
1782	0.243956
1794	0.0796957
1806	0.0326573
1818	0.0193996
1830	0.0134824
1842	0.0125086
1854	0.0118345
1866	0.0111604
1878	0.0111604
1890	0.00996197
1902	0.00988706
1914	0.00981216
1926	0.00958746
1938	0.0109357
1950	0.0106361
1962	0.0107859
1974	0.0110855
1986	0.0116847
1998	0.0121341
2010	0.0123588
2022	0.0142314
2034	0.0140816
2046	0.0137071
2058	0.0133326
2070	0.0117596
2082	0.0106361
2094	0.00958746
2106	0.00831412
2118	0.00778981
2130	0.00726549
2142	0.00651647
2154	0.00636667
2166	0.00584236
2178	0.00569255
2190	0.00509334
2202	0.00501843
2214	0.00486863
2226	0.00419451
2238	0.00471883
2250	0.00404471
2262	0.00396981
2274	0.00441922
2286	0.00426941
2298	0.00404471
2310	0.00254667
2322	0.00157294
2334	0.000599216
2346	0.000674118
2358	0.000599216
2370	0.000599216
2382	0.00239686
2394	0.0036702
2406	0.00307098
2418	0.00247177
2430	0.0037451
2442	0.00307098
2454	0.00262157
2466	0.00194745
2478	0.00172275
2490	0.00202235
2502	0.00119843
2514	0.00112353
2526	0.00104863
2538	0.00142314
2550	0.00202235
2562	0.00172275
2574	0.00284628
2586	0.00322079
2598	0.00382
2610	0.00396981
2622	0.00411961
2634	0.00449412
2646	0.00501843
2658	0.00569255
2670	0.00591726
2682	0.00651647
2694	0.00569255
2706	0.00576745
2718	0.00591726
2730	0.00666628
2742	0.00823922
2754	0.00883844
2766	0.00868863
2778	0.00883844
2790	0.0109357
2802	0.0141565
2814	0.0171526
2826	0.0255416
2838	0.0433683
2850	0.0858377
2862	0.138943
2874	0.190626
2886	0.194296
2898	0.152875
2910	0.178716
2922	0.273767
2934	0.398029
2946	0.458325
2958	0.503416
2970	0.51937
2982	0.276838
2994	0.132352
3006	0.0919797
3018	0.0694342
3030	0.0598467
3042	0.04202
3054	0.0281632
3066	0.0217216
3078	0.0190251
3090	0.0182012
3102	0.0155796
3114	0.012958
3126	0.01146
3138	0.00958746
3150	0.00846393
3162	0.00778981
3174	0.00778981
3186	0.00711569
3198	0.00689098
3210	0.00651647
3222	0.00471883
3234	0.00501843
3246	0.00434432
3258	0.00419451
3270	0.00441922
3282	0.00494353
3294	0.00426941
3306	0.00486863
3318	0.00501843
3330	0.00524314
3342	0.00524314
3354	0.00382
3366	0.00434432
3378	0.00591726
3390	0.00584236
3402	0.00614196
3414	0.00606706
3426	0.00614196
3438	0.00629177
3450	0.00591726
3462	0.00651647
3474	0.00711569
3486	0.0100369
3498	0.0123588
3510	0.0124337
3522	0.00898824
3534	0.00786471
3546	0.00771491
3558	0.00584236
3570	0.00479373
3582	0.00606706
3594	0.00404471
3606	0.00509334
3618	0.00524314
3630	0.00247177
3642	0.00576745
3654	0.00344549
3666	0.00479373
3678	0.00157294
3690	0.00307098
3702	0.0036702
3714	0.00292118
3726	0.00382
3738	0.000973726
3750	0.000599216
3762	0.00344549
3774	0.00307098
3786	0.00449412
3798	0.00277137
3810	0.00262157
3822	0.00179765
3834	0.00232196
3846	0.00217216
3858	0.00217216
3870	0.00149804
3882	0.00307098
3894	0.00337059
3906	0.00449412
3918	0.00419451
3930	0.00479373
3942	0.00554275
3954	0
3966	0.000599216
