Infrared Spectrum: 1,2,3-Propanetriol, 1-acetate
Formula: C 5 H 10 O 4
CAS: 106-61-6
Origin: Sadtler Research Labs Under US-EPA Contract
1/CM	ABSORBANCE
450	0.0231062
462	0.0211851
474	0.0213986
486	0.0286559
498	0.0291362
510	0.0303635
522	0.0190506
534	0.0326582
546	0.0194775
558	0.0208649
570	0.022786
582	0.0290295
594	0.0300434
606	0.031751
618	0.026468
630	0.0251873
642	0.0334586
654	0.0337788
666	0.0154753
678	0.0154219
690	0.00976543
702	0.00405559
714	0.00176098
726	0
738	0.000480267
750	0.000640356
762	0.00128071
774	0.0018677
786	0.00346859
798	0.00474931
810	0.00875153
822	0.0144614
834	0.0205981
846	0.0243335
858	0.0243335
870	0.0240667
882	0.0215053
894	0.0235864
906	0.0267349
918	0.0307371
930	0.0336721
942	0.034686
954	0.0387415
966	0.0473863
978	0.0558177
990	0.05998
1002	0.0740678
1014	0.102884
1026	0.150857
1038	0.210624
1050	0.248778
1062	0.217934
1074	0.1563
1086	0.118359
1098	0.104912
1110	0.092318
1122	0.0714531
1134	0.0544303
1146	0.0540567
1158	0.0681979
1170	0.0870884
1182	0.103631
1194	0.127858
1206	0.218628
1218	0.442059
1230	0.521997
1242	0.367351
1254	0.212385
1266	0.136663
1278	0.0937588
1290	0.0664903
1302	0.0497343
1314	0.043811
1326	0.0419433
1338	0.0452518
1350	0.0542168
1362	0.0949328
1374	0.15011
1386	0.130899
1398	0.0941857
1410	0.0606204
1422	0.0438644
1434	0.0360734
1446	0.0382613
1458	0.0435976
1470	0.0336187
1482	0.024547
1494	0.0153685
1506	0.0127538
1518	0.0102457
1530	0.007204
1542	0.007204
1554	0.0063502
1566	0.00554975
1578	0.00688383
1590	0.00554975
1602	0.0057632
1614	0.00458922
1626	0.0038955
1638	0.00549639
1650	0.00352196
1662	0.00683046
1674	0.00629683
1686	0.00976543
1698	0.0116331
1710	0.0197443
1722	0.0347393
1734	0.0730539
1746	0.146161
1758	0.265161
1770	0.373915
1782	0.240454
1794	0.134368
1806	0.10251
1818	0.046746
1830	0.0156887
1842	0.007791
1854	0.0057632
1866	0.00421568
1878	0.00416231
1890	0.0038955
1902	0.00314842
1914	0.00229461
1926	0.0028816
1938	0.00256142
1950	0.0024547
1962	0.00240133
1974	0.00181434
1986	0.00202779
1998	0.00213452
2010	0.00341523
2022	0.00357532
2034	0.0049094
2046	0.00517621
2058	0.00442913
2070	0.00480267
2082	0.00421568
2094	0.00272151
2106	0.00277488
2118	0.00277488
2130	0.00272151
2142	0.00218788
2154	0.00176098
2166	0.00176098
2178	0.00112062
2190	0.00160089
2202	0.00122735
2214	0.00160089
2226	0.00165425
2238	0.00154753
2250	0.00149416
2262	0.00128071
2274	0.00160089
2286	0.00122735
2298	0.00197443
2310	0.00138744
2322	0.000426904
2334	0.000960534
2346	0.00256142
2358	0.00106726
2370	0.00474931
2382	0.0038955
2394	0.00176098
2406	0.00213452
2418	0.00202779
2430	0.00256142
2442	0.0028816
2454	0.0024547
2466	0.00282824
2478	0.00261479
2490	0.00224125
2502	0.00234797
2514	0.00218788
2526	0.00229461
2538	0.00202779
2550	0.00240133
2562	0.00197443
2574	0.00240133
2586	0.00272151
2598	0.00229461
2610	0.00133407
2622	0.000640356
2634	0.000640356
2646	0.000640356
2658	0
2670	0.00197443
2682	0.00309505
2694	0.00320178
2706	0.00405559
2718	0.00469594
2730	0.00469594
2742	0.00538966
2754	0.00581657
2766	0.00581657
2778	0.00683046
2790	0.00693719
2802	0.00811118
2814	0.00949861
2826	0.00992552
2838	0.0124336
2850	0.0156354
2862	0.0241734
2874	0.0379945
2886	0.0544303
2898	0.0594997
2910	0.0526693
2922	0.0522424
2934	0.0658499
2946	0.0816988
2958	0.0879422
2970	0.0702791
2982	0.0427438
2994	0.0262012
3006	0.0172362
3018	0.0118466
3030	0.0100856
3042	0.0088049
3054	0.00816454
3066	0.00768427
3078	0.00704392
3090	0.00597666
3102	0.0038955
3114	0.00378877
3126	0.00272151
3138	0.00250806
3150	0.0024547
3162	0.0014408
3174	0.0014408
3186	0.000960534
3198	0.000747082
3210	0.000853808
3222	0.000960534
3234	0.00128071
3246	0.000373541
3258	0.000853808
3270	0.000960534
3282	0.0010139
3294	0.00261479
3306	0.00197443
3318	0.00304169
3330	0.00240133
3342	0.00341523
3354	0.00256142
3366	0.00240133
3378	0.00282824
3390	0.00293496
3402	0.00336187
3414	0.00266815
3426	0.00304169
3438	0.00410895
3450	0.00416231
3462	0.00613674
3474	0.00603002
3486	0.0063502
3498	0.00891162
3510	0.0130206
3522	0.0152085
3534	0.0170228
3546	0.0226793
3558	0.0310573
3570	0.0394886
3582	0.046746
3594	0.0439177
3606	0.0433841
3618	0.0434375
3630	0.0475464
3642	0.0437043
3654	0.04205
3666	0.034259
3678	0.0314842
3690	0.0226259
3702	0.0161156
3714	0.0131273
3726	0.0111529
3738	0.013821
3750	0.0105125
3762	0.0109928
3774	0.00949861
3786	0.00955198
3798	0.00939189
3810	0.0102457
3822	0.0107793
3834	0.0107793
3846	0.0110461
3858	0.0117399
3870	0.0131807
3882	0.0113663
3894	0.0136609
3906	0.0123802
3918	0.0106726
3930	0.0121134
3942	0.0104058
3954	0.0108327
3966	0.0106192
