Infrared Spectrum: Benzene, 1-chloro-4-methyl-
Formula: C 7 H 7 Cl
CAS: 106-43-4
Origin: Sadtler Research Labs Under US-EPA Contract
1/CM	ABSORBANCE
450	0.0448394
462	0.0761025
474	0.133148
486	0.112597
498	0.0602219
510	0.0117704
522	0.00473305
534	0.00386117
546	0.00604087
558	0.00666364
570	0.0101512
582	0.00660136
594	0.0070373
606	0.00803373
618	0.0379267
630	0.141742
642	0.0938514
654	0.00062277
666	0.0054181
678	0.00803373
690	0.00890561
702	0.00454622
714	0.00448394
726	0.00467078
738	0.00797146
750	0.00959066
762	0.0135764
774	0.0528732
786	0.155257
798	0.317301
810	0.400317
822	0.195861
834	0.0323218
846	0.00890561
858	0.00952838
870	0.0110853
882	0.00591632
894	0.00653909
906	0.00734869
918	0.00952838
930	0.011023
942	0.0094661
954	0.0113967
966	0.0153824
978	0.0126422
990	0.0168148
1002	0.05306
1014	0.174749
1026	0.137944
1038	0.0215478
1050	0.0279001
1062	0.0257204
1074	0.0334427
1086	0.308956
1098	0.564043
1110	0.148406
1122	0.0391722
1134	0.0158806
1146	0.0113344
1158	0.0124554
1170	0.019119
1182	0.0236653
1194	0.0170639
1206	0.0330691
1218	0.0376153
1230	0.0330068
1242	0.0146351
1254	0.0102757
1266	0.00971521
1278	0.00915472
1290	0.00884333
1302	0.0094661
1314	0.0102757
1326	0.0108362
1338	0.0133896
1350	0.0132027
1362	0.0136387
1374	0.0171885
1386	0.0313876
1398	0.0437185
1410	0.0562984
1422	0.056423
1434	0.0403555
1446	0.0303289
1458	0.0409783
1470	0.0722413
1482	0.260567
1494	0.61729
1506	0.375219
1518	0.0578553
1530	0.0219215
1542	0.022482
1554	0.0180603
1566	0.0196795
1578	0.0274642
1590	0.0324463
1602	0.0376153
1614	0.0290211
1626	0.031699
1638	0.0280869
1650	0.0136387
1662	0.00828284
1674	0.00709958
1686	0.0094661
1698	0.00815829
1710	0.0086565
1722	0.0177489
1734	0.0245371
1746	0.0134518
1758	0.0105871
1770	0.0196173
1782	0.0160052
1794	0.00697502
1806	0.00435939
1818	0.0046085
1830	0.00566721
1842	0.00566721
1854	0.00803373
1866	0.01395
1878	0.0286474
1890	0.0296439
1902	0.018434
1914	0.00709958
1926	0.0054181
1938	0.00392345
1950	0.00317613
1962	0.0032384
1974	0.00373662
1986	0.00404801
1998	0.00435939
2010	0.00448394
2022	0.00386117
2034	0.00286474
2046	0.00249108
2058	0.00261563
2070	0.00236653
2082	0.00292702
2094	0.00261563
2106	0.00224197
2118	0.00193059
2130	0.00199286
2142	0.00249108
2154	0.00174376
2166	0.00267791
2178	0.0032384
2190	0.00305157
2202	0.0016192
2214	0.00236653
2226	0.00249108
2238	0.0021797
2250	0.00211742
2262	0.00255336
2274	0.00373662
2286	0.00579176
2298	0.00709958
2310	0.00566721
2322	0.00473305
2334	0.00479533
2346	0.00442167
2358	0.00280247
2370	0.00280247
2382	0.00342523
2394	0.0032384
2406	0.00435939
2418	0.00423484
2430	0.00249108
2442	0.00186831
2454	0.00143237
2466	0.00199286
2478	0.00211742
2490	0.00261563
2502	0.00211742
2514	0.00149465
2526	0.00118326
2538	0.000996432
2550	0.000934155
2562	0.00193059
2574	0.00367434
2586	0.00485761
2598	0.0037989
2610	0.0021797
2622	0.00105871
2634	0.000186831
2646	0.000747324
2658	0.00137009
2670	0.00137009
2682	0.00236653
2694	0.00317613
2706	0.00186831
2718	0.00168148
2730	0.00367434
2742	0.00983977
2754	0.009217
2766	0.00373662
2778	0.00354979
2790	0.00361207
2802	0.00523127
2814	0.00722413
2826	0.00896789
2838	0.0131404
2850	0.0208628
2862	0.0395459
2874	0.0779085
2886	0.0919831
2898	0.0774103
2910	0.0670101
2922	0.100141
2934	0.181102
2946	0.156502
2958	0.0682556
2970	0.054181
2982	0.061156
2994	0.0716186
3006	0.0833266
3018	0.084759
3030	0.153015
3042	0.176991
3054	0.109608
3066	0.0686915
3078	0.0566721
3090	0.0638962
3102	0.0609069
3114	0.0326331
3126	0.00983977
3138	0.00442167
3150	0.00454622
3162	0.0037989
3174	0.00373662
3186	0.00354979
3198	0.0032384
3210	0.00211742
3222	0.00174376
3234	0.00261563
3246	0.00429711
3258	0.00354979
3270	0.00398573
3282	0.00230425
3294	0.00230425
3306	0.00230425
3318	0.00398573
3330	0.00373662
3342	0.00330068
3354	0.00398573
3366	0.00404801
3378	0.00348751
3390	0.00193059
3402	0.0037989
3414	0.00342523
3426	0.00361207
3438	0.00473305
3450	0.00249108
3462	0.00137009
3474	0.00224197
3486	0.00130782
3498	0.00317613
3510	0.00193059
3522	0.0024288
3534	0.000809601
3546	0.00311385
3558	0.0021797
3570	0.00174376
3582	0.00292702
3594	0.00423484
3606	0.00411028
3618	0.00292702
3630	0.0046085
3642	0.00155693
3654	0.0029893
3666	0.00479533
3678	0.00809601
3690	0.00473305
3702	0.00354979
3714	0.00504444
3726	0.00317613
3738	0.00666364
3750	0.00516899
3762	0.00404801
3774	0.00317613
3786	0.00411028
3798	0.00367434
3810	0.00342523
3822	0.00741096
3834	0.00641453
3846	0.00672592
3858	0.00778462
3870	0.00747324
3882	0.00778462
3894	0.00803373
3906	0.00672592
3918	0.00815829
3930	0.00846967
3942	0.00822056
3954	0.0094661
3966	0.00878106
