Infrared Spectrum: Acetic acid, 3,4-epoxy-6-methylcyclohexyl methyl ester
Formula: C 10 H 16 O 3
CAS: 106-85-4
Origin: Sadtler Research Labs Under US-EPA Contract
1/CM	ABSORBANCE
450	0.0158114
462	0.0150711
474	0.0223158
486	0.00560539
498	0.0134847
510	0.010682
522	0.00116338
534	0.00814367
546	0.0178738
558	0.00481217
570	0.0149124
582	0.0152297
594	0.0114752
606	0.0204649
618	0.0155999
630	0.0179267
642	0.0182439
654	0.0135904
666	0.00909553
678	0.0112108
690	0.0148596
702	0.0138548
714	0.0113694
726	0.0162345
738	0.0171334
750	0.0132731
762	0.0212053
774	0.0168162
786	0.0221571
798	0.0299306
810	0.0392377
822	0.0324689
834	0.0215226
846	0.0182439
858	0.0204121
870	0.0180853
882	0.0152297
894	0.0276039
906	0.0264405
918	0.0237965
930	0.0257002
942	0.0272866
954	0.0298249
966	0.0273924
978	0.0373869
990	0.0371225
1002	0.0411414
1014	0.065308
1026	0.0839221
1038	0.0966665
1050	0.0820713
1062	0.0673175
1074	0.048862
1086	0.0403482
1098	0.0345842
1110	0.0268107
1122	0.0160758
1134	0.0159172
1146	0.0231619
1158	0.0218399
1170	0.0205178
1182	0.024907
1194	0.035113
1206	0.0760958
1218	0.209197
1230	0.513633
1242	0.377729
1254	0.139606
1266	0.087095
1278	0.0683751
1290	0.0434682
1302	0.027551
1314	0.0208351
1326	0.0182968
1338	0.0207822
1350	0.0218399
1362	0.0612362
1374	0.0983058
1386	0.0623467
1398	0.0500783
1410	0.0229504
1422	0.0244839
1434	0.0429923
1446	0.0397665
1458	0.0358533
1470	0.0373869
1482	0.0237965
1494	0.0166575
1506	0.0130087
1518	0.00994163
1530	0.0122684
1542	0.00729758
1554	0.00740334
1566	0.00856672
1578	0.00713893
1590	0.00735046
1602	0.00824944
1614	0.00941282
1626	0.00782639
1638	0.00671589
1650	0.00856672
1662	0.00856672
1674	0.00777351
1686	0.00994163
1698	0.0116338
1710	0.0176094
1722	0.027974
1734	0.0410357
1746	0.084874
1758	0.268953
1770	0.252084
1782	0.0729758
1794	0.0330506
1806	0.0179267
1818	0.0136962
1830	0.0094657
1842	0.00803791
1854	0.00824944
1866	0.00623996
1878	0.00629284
1890	0.00602843
1902	0.00534098
1914	0.00497081
1926	0.00544674
1938	0.00523522
1950	0.00518234
1962	0.00523522
1974	0.00560539
1986	0.00491793
1998	0.00465353
2010	0.00571115
2022	0.00327862
2034	0.00507658
2046	0.00438912
2058	0.00423048
2070	0.00608131
2082	0.00592267
2094	0.0041776
2106	0.00565827
2118	0.00507658
2130	0.00460065
2142	0.00497081
2154	0.0030671
2166	0.00460065
2178	0.00380743
2190	0.00322574
2202	0.00423048
2214	0.00391319
2226	0.00311998
2238	0.00343726
2250	0.00296134
2262	0.00269693
2274	0.00338438
2286	0.0030671
2298	0.00311998
2310	0.00380743
2322	0.00698029
2334	0.00629284
2346	0.00338438
2358	0.0100474
2370	0.0033315
2382	0.00190372
2394	0.00259117
2406	0.00148067
2418	0.00206236
2430	0.00375455
2442	0.00280269
2454	0.00391319
2466	0.00423048
2478	0.00232676
2490	0.00338438
2502	0.00232676
2514	0.00227388
2526	0.00232676
2538	0.002221
2550	0.00301422
2562	0.00317286
2574	0.00216812
2586	0.00285557
2598	0.00317286
2610	0.00259117
2622	0.00216812
2634	0.00253829
2646	0.00364879
2658	0.00264405
2670	0.00375455
2682	0.00470641
2694	0.00311998
2706	0.00481217
2718	0.00486505
2730	0.0030671
2742	0.00539386
2754	0.00523522
2766	0.00401896
2778	0.0061342
2790	0.00449488
2802	0.00518234
2814	0.00703317
2826	0.00682165
2838	0.0123213
2850	0.0268107
2862	0.0312527
2874	0.0292961
2886	0.0401367
2898	0.0499197
2910	0.0774178
2922	0.113906
2934	0.123689
2946	0.0886814
2958	0.087095
2970	0.103858
2982	0.092436
2994	0.125434
3006	0.109199
3018	0.0204121
3030	0.0132202
3042	0.00935994
3054	0.0072447
3066	0.00872536
3078	0.00523522
3090	0.00502369
3102	0.00719182
3114	0.00327862
3126	0.004442
3138	0.00507658
3150	0.00407184
3162	0.00364879
3174	0.00327862
3186	0.00296134
3198	0.00327862
3210	0.00327862
3222	0.00158643
3234	0.00349015
3246	0.00290845
3258	0.00454777
3270	0.00253829
3282	0.00359591
3294	0.00311998
3306	0.00264405
3318	0.004442
3330	0.00148067
3342	0.00380743
3354	0.00486505
3366	0.00232676
3378	0.00502369
3390	0.00475929
3402	0.00116338
3414	0.00481217
3426	0.00380743
3438	0.00137491
3450	0.00497081
3462	0.00386031
3474	0.00491793
3486	0.00623996
3498	0.00634572
3510	0.0061342
3522	0.00586979
3534	0.00338438
3546	0.00327862
3558	0.0033315
3570	0.00364879
3582	0.00486505
3594	0.00322574
3606	0.00565827
3618	0.00327862
3630	0.00317286
3642	0.00359591
3654	0.00163931
3666	0.00460065
3678	0.00132202
3690	0.0019566
3702	0.00449488
3714	0.00216812
3726	0.00237964
3738	0.00465353
3750	0.000634572
3762	0.00248541
3774	0.00211524
3786	0.000740334
3798	0.00280269
3810	0.00243253
3822	0.00248541
3834	0.00285557
3846	0.00391319
3858	0.00290845
3870	0.00190372
3882	0.00121626
3894	0.00142779
3906	0.00052881
3918	0.00243253
3930	0.00296134
3942	0.004442
3954	0
3966	0.00052881
