Infrared Spectrum: p-Chloroaniline
Formula: C 6 H 6 Cl N
CAS: 106-47-8
Origin: Sadtler Research Labs Under US-EPA Contract
1/CM	ABSORBANCE
450	0.0452561
462	0.0844708
474	0.0979817
486	0.140272
498	0.14906
510	0.0906221
522	0.0579982
534	0.0298778
546	0.0313058
558	0.0221887
570	0.0422903
582	0.0525059
594	0.0525059
606	0.0771112
618	0.186517
630	0.424441
642	0.400824
654	0.168173
666	0.126651
678	0.180585
690	0.142139
702	0.103804
714	0.0620624
726	0.0460251
738	0.0392147
750	0.0387753
762	0.0337224
774	0.0493204
786	0.0824936
798	0.18443
810	0.307456
822	0.351284
834	0.203982
846	0.0808459
858	0.036139
870	0.0231773
882	0.0107648
894	0.0104353
906	0.00692024
918	0.00472334
930	0.00593163
942	0.00735961
954	0.0102156
966	0.0135109
978	0.012083
990	0.0143897
1002	0.0522862
1014	0.0750241
1026	0.0325141
1038	0.017685
1050	0.02834
1062	0.0366882
1074	0.0422903
1086	0.186187
1098	0.407525
1110	0.180256
1122	0.0723879
1134	0.0497598
1146	0.0140602
1158	0.0135109
1170	0.115337
1182	0.0998491
1194	0.00483318
1206	0.00450364
1218	0.00571194
1230	0.0131814
1242	0.0514075
1254	0.192668
1266	0.413237
1278	0.444762
1290	0.19168
1302	0.0352602
1314	0.0173555
1326	0.00823838
1338	0.0065907
1350	0.00065907
1362	0.00241659
1374	0.00373473
1386	0.00450364
1398	0.0117534
1410	0.0336126
1422	0.0456955
1434	0.0322944
1446	0.0208706
1458	0.0372375
1470	0.0908418
1482	0.363257
1494	1.08626
1506	0.789017
1518	0.128738
1530	0.0682137
1542	0.0387753
1554	0.0286695
1566	0.0511878
1578	0.0586572
1590	0.0766718
1602	0.140602
1614	0.335137
1626	0.529782
1638	0.285048
1650	0.080077
1662	0.0400934
1674	0.0350406
1686	0.0329535
1698	0.031196
1710	0.0242757
1722	0.021969
1734	0.0282302
1746	0.0212001
1758	0.00966636
1770	0.00681039
1782	0.0056021
1794	0.00757931
1806	0.00615132
1818	0.00670055
1830	0.0115337
1842	0.0215296
1854	0.0329535
1866	0.034711
1878	0.023397
1890	0.0151586
1902	0.0109845
1914	0.011314
1926	0.0101057
1938	0.00834822
1950	0.00801868
1962	0.00648085
1974	0.0056021
1986	0.0053824
1998	0.00604148
2010	0.00648085
2022	0.00757931
2034	0.00823838
2046	0.00900729
2058	0.010655
2070	0.0107648
2082	0.00911714
2094	0.00845807
2106	0.00856791
2118	0.00670055
2130	0.00472334
2142	0.00494303
2154	0.00494303
2166	0.0056021
2178	0.00670055
2190	0.00549225
2202	0.00483318
2214	0.00571194
2226	0.00626116
2238	0.00724977
2250	0.007799
2262	0.00900729
2274	0.00911714
2286	0.0104353
2298	0.0129617
2310	0.0142799
2322	0.0117534
2334	0.00988605
2346	0.0105451
2358	0.00834822
2370	0.00648085
2382	0.007799
2394	0.00692024
2406	0.007799
2418	0.00713993
2430	0.007799
2442	0.00757931
2454	0.00692024
2466	0.0053824
2478	0.00494303
2490	0.00494303
2502	0.00527256
2514	0.00593163
2526	0.00790884
2538	0.0097762
2550	0.0097762
2562	0.00834822
2574	0.00823838
2586	0.00966636
2598	0.0087876
2610	0.00735961
2622	0.00637101
2634	0.00670055
2646	0.00713993
2658	0.00735961
2670	0.00757931
2682	0.00724977
2694	0.00834822
2706	0.00823838
2718	0.00735961
2730	0.00703008
2742	0.00713993
2754	0.00735961
2766	0.00681039
2778	0.0065907
2790	0.00670055
2802	0.00615132
2814	0.00692024
2826	0.00812853
2838	0.0117534
2850	0.015598
2862	0.018454
2874	0.0216395
2886	0.023397
2898	0.0241659
2910	0.0231773
2922	0.0259234
2934	0.0295483
2946	0.0302074
2958	0.0329535
2970	0.0329535
2982	0.033283
2994	0.0398737
3006	0.0491007
3018	0.0436085
3030	0.0877662
3042	0.135549
3054	0.0823838
3066	0.0536044
3078	0.0449266
3090	0.0463546
3102	0.0481121
3114	0.0310861
3126	0.0125223
3138	0.00670055
3150	0.00703008
3162	0.00648085
3174	0.00681039
3186	0.00593163
3198	0.00790884
3210	0.0123026
3222	0.0139503
3234	0.0143897
3246	0.0136208
3258	0.0105451
3270	0.00834822
3282	0.00692024
3294	0.00713993
3306	0.00757931
3318	0.0065907
3330	0.00692024
3342	0.00713993
3354	0.00790884
3366	0.0103254
3378	0.0151586
3390	0.0291089
3402	0.0699713
3414	0.0950159
3426	0.0700811
3438	0.0293286
3450	0.0174654
3462	0.0210902
3474	0.0342716
3486	0.0520665
3498	0.0589868
3510	0.0478924
3522	0.0337224
3534	0.0187835
3546	0.0107648
3558	0.00933682
3570	0.00703008
3582	0.00812853
3594	0.00757931
3606	0.00703008
3618	0.0065907
3630	0.00461349
3642	0.00757931
3654	0.00626116
3666	0.00845807
3678	0.00571194
3690	0.00637101
3702	0.007799
3714	0.00713993
3726	0.0101057
3738	0.00801868
3750	0.00428395
3762	0.0053824
3774	0.00604148
3786	0.00615132
3798	0.00450364
3810	0.00703008
3822	0.00428395
3834	0.00461349
3846	0.0114239
3858	0.0138405
3870	0.0107648
3882	0.00845807
3894	0.00900729
3906	0.00483318
3918	0.00713993
3930	0.00593163
3942	0.0101057
3954	0.00867776
3966	0.00109845
