Infrared Spectrum: 1-Pentanol, 2-ethyl-4-methyl-
Formula: C 8 H 18 O
CAS: 106-67-2
Origin: Sadtler Research Labs Under US-EPA Contract
1/CM	ABSORBANCE
450	0.0547114
462	0.0251029
474	0.0289649
486	0.0362061
498	0.0389417
510	0.0154479
522	0.0202754
534	0.0275166
546	0.0194708
558	0.0231719
570	0.0131951
582	0.00836763
594	0.0165743
606	0.015287
618	0.0146434
630	0.0156089
642	0.0123905
654	0.0139997
666	0.0157698
678	0.00836763
690	0.0117469
702	0.0117469
714	0.0136779
726	0.0120687
738	0.0143215
750	0.0181835
762	0.0360452
774	0.0386198
786	0.0279994
798	0.0273557
810	0.0215627
822	0.0252638
834	0.0233328
846	0.0223673
858	0.0255856
870	0.0302522
882	0.0434473
894	0.0453783
906	0.0419991
918	0.0481139
930	0.0561597
942	0.0698375
954	0.0830327
966	0.0852855
978	0.0867337
990	0.0833545
1002	0.114733
1014	0.168318
1026	0.276936
1038	0.516379
1050	0.441393
1062	0.202432
1074	0.114572
1086	0.0912394
1098	0.0748259
1110	0.0701594
1122	0.0679066
1134	0.0619527
1146	0.0658146
1158	0.0791707
1170	0.0910785
1182	0.0740214
1194	0.0687111
1206	0.0717685
1218	0.0696766
1230	0.0653319
1242	0.0654928
1254	0.065171
1266	0.0650101
1278	0.0645273
1290	0.0635618
1302	0.0611481
1314	0.0609872
1326	0.0695157
1338	0.0817453
1350	0.0848027
1362	0.118917
1374	0.189076
1386	0.212248
1398	0.13179
1410	0.0558379
1422	0.0416772
1434	0.0452174
1446	0.0836763
1458	0.180065
1470	0.25473
1482	0.168479
1494	0.0564815
1506	0.026873
1518	0.0175398
1530	0.0122296
1542	0.0123905
1554	0.0102986
1566	0.0090113
1578	0.00949404
1590	0.0080458
1602	0.00756305
1614	0.00836763
1626	0.00579298
1638	0.00724122
1650	0.00531023
1662	0.0049884
1674	0.00563206
1686	0.00659756
1698	0.00547114
1710	0.00531023
1722	0.00434473
1734	0.00434473
1746	0.00450565
1758	0.00337924
1770	0.00354015
1782	0.0030574
1794	0.00257466
1806	0.00354015
1818	0.00241374
1830	0.00209191
1842	0.00241374
1854	0.00112641
1866	0.00160916
1878	0.00177008
1890	0.00160916
1902	0.00177008
1914	0.00128733
1926	0.00112641
1938	0.00144824
1950	0.000965496
1962	0.00128733
1974	0.00177008
1986	0.00112641
1998	0.00128733
2010	0.00177008
2022	0.00177008
2034	0.00273557
2046	0.00321832
2058	0.00450565
2070	0.00354015
2082	0.0030574
2094	0.00289649
2106	0.00177008
2118	0.000643664
2130	0.00112641
2142	0.00128733
2154	0.00112641
2166	0.00128733
2178	0.000482748
2190	0.000643664
2202	0.000482748
2214	0.000321832
2226	0.000160916
2238	0.000643664
2250	0.000643664
2262	0.00112641
2274	0.00128733
2286	0.00193099
2298	0.00450565
2310	0.00514931
2322	0.00595389
2334	0.00418382
2346	0.00144824
2358	0.00675847
2370	0
2382	0.000160916
2394	0.00386198
2406	0.00450565
2418	0.00386198
2430	0.00386198
2442	0.00354015
2454	0.00354015
2466	0.00337924
2478	0.00257466
2490	0.00257466
2502	0.00273557
2514	0.00209191
2526	0.00257466
2538	0.00337924
2550	0.0040229
2562	0.00595389
2574	0.00691939
2586	0.00868946
2598	0.00997679
2610	0.0101377
2622	0.011425
2634	0.0127124
2646	0.0130342
2658	0.0157698
2670	0.0156089
2682	0.017218
2694	0.0207582
2706	0.0223673
2718	0.0276776
2730	0.0350797
2742	0.0392635
2754	0.0399072
2766	0.0415163
2778	0.0450565
2790	0.0495621
2802	0.0550333
2814	0.0643664
2826	0.080458
2838	0.117147
2850	0.20903
2862	0.359647
2874	0.627411
2886	0.782856
2898	0.715754
2910	0.860418
2922	1.00122
2934	1.00122
2946	0.900808
2958	1.20816
2970	1.53981
2982	0.619688
2994	0.16864
3006	0.0854464
3018	0.0537459
3030	0.0400681
3042	0.0326659
3054	0.0276776
3066	0.0231719
3078	0.0212409
3090	0.019149
3102	0.0170571
3114	0.0167353
3126	0.0157698
3138	0.0141606
3150	0.0149652
3162	0.0146434
3174	0.0160916
3186	0.0144824
3198	0.0127124
3210	0.0090113
3222	0.00724122
3234	0.00547114
3246	0.00418382
3258	0.00370107
3270	0.00337924
3282	0.00354015
3294	0.00514931
3306	0.00450565
3318	0.00563206
3330	0.00289649
3342	0.00418382
3354	0.00386198
3366	0.00321832
3378	0.00434473
3390	0.00595389
3402	0.00354015
3414	0.00579298
3426	0.00563206
3438	0.00354015
3450	0.00434473
3462	0.00482748
3474	0.00466656
3486	0.00354015
3498	0.00482748
3510	0.00466656
3522	0.00289649
3534	0.00434473
3546	0.00225282
3558	0.0040229
3570	0.00128733
3582	0.00257466
3594	0.00177008
3606	0.00337924
3618	0.00627572
3630	0.0070803
3642	0.0207582
3654	0.0551942
3666	0.110871
3678	0.0978369
3690	0.0376543
3702	0.0112641
3714	0.00675847
3726	0.00434473
3738	0.0040229
3750	0.0040229
3762	0.00257466
3774	0.00418382
3786	0.00128733
3798	0.00434473
3810	0.00531023
3822	0.00482748
3834	0.0090113
3846	0.00772397
3858	0.00595389
3870	0.00868946
3882	0.00482748
3894	0.00514931
3906	0.00579298
3918	0.00531023
3930	0.00740214
3942	0.00740214
3954	0.00885038
3966	0.00885038
