Infrared Spectrum: Oxirane, [(2-propenyloxy)methyl]-
Formula: C 6 H 10 O 2
CAS: 106-92-3
Origin: Sadtler Research Labs Under US-EPA Contract
1/CM	ABSORBANCE
450	0
462	0.0241139
474	0.030451
486	0.0226325
498	0.0224679
510	0.027159
522	0.0321793
534	0.0118512
546	0.0333315
558	0.0347306
570	0.0190113
582	0.0162954
594	0.0199989
606	0.02469
618	0.0267475
630	0.0289696
642	0.0330023
654	0.0252661
666	0.0175299
678	0.0158839
690	0.0112751
702	0.0120158
714	0.0119335
726	0.0125096
738	0.0204927
750	0.0327554
762	0.0619719
774	0.0874849
786	0.0599967
798	0.0529189
810	0.0802425
822	0.111599
834	0.157358
846	0.222457
858	0.17785
870	0.0991715
882	0.0850159
894	0.123203
906	0.202869
918	0.333233
930	0.400801
942	0.256611
954	0.193158
966	0.194969
978	0.222951
990	0.255624
1002	0.235707
1014	0.179332
1026	0.139416
1038	0.136618
1050	0.158592
1062	0.215297
1074	0.289202
1086	0.432569
1098	0.713129
1110	0.823
1122	0.667124
1134	0.542768
1146	0.450099
1158	0.38286
1170	0.272989
1182	0.167645
1194	0.123861
1206	0.0734939
1218	0.064194
1230	0.0805717
1242	0.122215
1254	0.168303
1266	0.17069
1278	0.119335
1290	0.0827115
1302	0.0611489
1314	0.0447712
1326	0.0815593
1338	0.164929
1350	0.17892
1362	0.122792
1374	0.0843575
1386	0.0695435
1398	0.0820531
1410	0.120899
1422	0.141721
1434	0.11094
1446	0.0820531
1458	0.100488
1470	0.0934105
1482	0.0718479
1494	0.0549764
1506	0.0349775
1518	0.0318501
1530	0.0294634
1542	0.0233732
1554	0.0232086
1566	0.0182706
1578	0.0168715
1590	0.0158839
1602	0.0192582
1614	0.022221
1626	0.0290519
1638	0.0390102
1650	0.0472402
1662	0.0327554
1674	0.0207396
1686	0.0220564
1698	0.0391748
1710	0.0671568
1722	0.0605728
1734	0.0943981
1746	0.0967025
1758	0.0917645
1770	0.0495446
1782	0.0252661
1794	0.0182706
1806	0.0165423
1818	0.0158016
1830	0.0179414
1842	0.0240316
1854	0.0315209
1866	0.0273236
1878	0.0177768
1890	0.0157193
1902	0.0149786
1914	0.0154724
1926	0.0155547
1938	0.0163777
1950	0.0157193
1962	0.0167069
1974	0.0180237
1986	0.0194228
1998	0.0192582
2010	0.0192582
2022	0.019752
2034	0.0191759
2046	0.0198343
2058	0.0200812
2070	0.0203281
2082	0.0204104
2094	0.019752
2106	0.0192582
2118	0.018106
2130	0.0172007
2142	0.0167069
2154	0.0161308
2166	0.0153901
2178	0.0160485
2190	0.0159662
2202	0.015637
2214	0.0153078
2226	0.0153901
2238	0.0162954
2250	0.0186821
2262	0.0185998
2274	0.0168715
2286	0.0184352
2298	0.0209865
2310	0.0236201
2322	0.0240316
2334	0.0204104
2346	0.0185175
2358	0.0227148
2370	0.0100406
2382	0.0116866
2394	0.0125919
2406	0.0138264
2418	0.0133326
2430	0.0127565
2442	0.0125919
2454	0.0120158
2466	0.0116043
2478	0.0107813
2490	0.0110282
2502	0.0103698
2514	0.0102875
2526	0.0105344
2538	0.0117689
2550	0.0114397
2562	0.0120981
2574	0.0137441
2586	0.0135795
2598	0.0147317
2610	0.0155547
2622	0.0155547
2634	0.0148963
2646	0.0160485
2658	0.0177768
2670	0.0206573
2682	0.0243608
2694	0.0269121
2706	0.0322616
2718	0.0356359
2730	0.0393394
2742	0.0438659
2754	0.0457588
2766	0.0504499
2778	0.0544003
2790	0.0609843
2802	0.0736585
2814	0.096291
2826	0.128306
2838	0.190113
2850	0.28089
2862	0.350269
2874	0.337512
2886	0.286898
2898	0.25908
2910	0.24797
2922	0.264512
2934	0.290354
2946	0.26945
2958	0.204515
2970	0.166822
2982	0.206079
2994	0.272331
3006	0.290684
3018	0.234802
3030	0.16781
3042	0.160073
3054	0.206079
3066	0.164929
3078	0.124438
3090	0.125014
3102	0.106167
3114	0.0565401
3126	0.0280643
3138	0.023044
3150	0.0182706
3162	0.017283
3174	0.0158839
3186	0.0144025
3198	0.0152255
3210	0.0144025
3222	0.0137441
3234	0.013168
3246	0.0129211
3258	0.0144025
3270	0.0142379
3282	0.0147317
3294	0.0142379
3306	0.0151432
3318	0.0143202
3330	0.0133326
3342	0.0134972
3354	0.0116866
3366	0.0130857
3378	0.013168
3390	0.0130034
3402	0.0139087
3414	0.0157193
3426	0.0142379
3438	0.0132503
3450	0.0147317
3462	0.0134972
3474	0.0121804
3486	0.0132503
3498	0.0129211
3510	0.0149786
3522	0.0153901
3534	0.0135795
3546	0.0136618
3558	0.0141556
3570	0.0140733
3582	0.0154724
3594	0.0152255
3606	0.0190113
3618	0.0203281
3630	0.0218095
3642	0.0167069
3654	0.0154724
3666	0.018106
3678	0.0195874
3690	0.0170361
3702	0.0210688
3714	0.0195051
3726	0.0216449
3738	0.0194228
3750	0.0191759
3762	0.0211511
3774	0.021398
3786	0.0202458
3798	0.0232909
3810	0.0187644
3822	0.0211511
3834	0.0255953
3846	0.0223033
3858	0.0223033
3870	0.0242785
3882	0.0210688
3894	0.0187644
3906	0.0190936
3918	0.0316855
3930	0.0198343
3942	0.0281466
3954	0.0319324
3966	0.0210688
