Infrared Spectrum: Benzene, 1,4-dichloro-
Formula: C 6 H 4 Cl 2
CAS: 106-46-7
Origin: Sadtler Research Labs Under US-EPA Contract
1/CM	ABSORBANCE
450	0.0164227
462	0.0406491
474	0.109485
486	0.159917
498	0.0953914
510	0.0245758
522	0.0285359
534	0.130217
546	0.310517
558	0.138486
570	0.0195675
582	0.0121132
594	0.0195675
606	0.00640601
618	0.00454245
630	0.00477539
642	0.00419303
654	0.00198004
666	0.00396008
678	0.00454245
690	0.00768722
702	0.00221299
714	0.00314477
726	0.0043095
738	0.00687191
750	0.00628954
762	0.0123461
774	0.0303995
786	0.0420468
798	0.10832
810	0.267306
822	0.432814
834	0.251116
846	0.0612648
858	0.00920137
870	0.00547423
882	0.00640601
894	0.0060566
906	0.00454245
918	0.00407655
930	0.00361066
942	0.00337772
954	0.0043095
966	0.00442597
978	0.00524129
990	0.00594012
1002	0.0704662
1014	0.426641
1026	0.12614
1038	0.0139768
1050	0.0073378
1062	0.0319136
1074	0.107155
1086	0.942383
1098	0.985827
1110	0.265093
1122	0.0764063
1134	0.0126956
1146	0.0060566
1158	0.00617307
1170	0.00885195
1182	0.00955079
1194	0.0060566
1206	0.0149085
1218	0.036689
1230	0.0124626
1242	0.008619
1254	0.0104826
1266	0.00873547
1278	0.00652249
1290	0.00978373
1302	0.00943431
1314	0.00489187
1326	0.00535776
1338	0.00454245
1350	0.00803664
1362	0.00931784
1374	0.0225958
1386	0.0483363
1398	0.0484528
1410	0.0635943
1422	0.0584694
1434	0.013045
1446	0.0265558
1458	0.0921301
1470	0.57922
1482	1.00376
1494	0.0488022
1506	0.0210816
1518	0.0222463
1530	0.00477539
1542	0.00198004
1554	0.00198004
1566	0.00232946
1578	0.00372714
1590	0.00803664
1602	0.0158403
1614	0.0243429
1626	0.0312148
1638	0.0288853
1650	0.0165392
1662	0.0140932
1674	0.010599
1686	0.00384361
1698	0.00174709
1710	0.00349419
1722	0.00465892
1734	0.00291182
1746	0.00850253
1758	0.0166556
1770	0.008619
1782	0.00244593
1794	0.0012812
1806	0.00256241
1818	0.00314477
1830	0.00582365
1842	0.00780369
1854	0.00780369
1866	0.0147921
1878	0.0299336
1890	0.0299336
1902	0.0144427
1914	0.00442597
1926	0.00267888
1938	0.00244593
1950	0.00244593
1962	0.00232946
1974	0.00186357
1986	0.00163062
1998	0.00151415
2010	0.00139768
2022	0.00186357
2034	0.00163062
2046	0.00163062
2058	0.00139768
2070	0.00151415
2082	0.00139768
2094	0.00139768
2106	0.00163062
2118	0.00163062
2130	0.00174709
2142	0.00163062
2154	0.00139768
2166	0.00163062
2178	0.00139768
2190	0.00139768
2202	0.00163062
2214	0.00244593
2226	0.00337772
2238	0.00232946
2250	0.00291182
2262	0.00489187
2274	0.00652249
2286	0.00698838
2298	0.00454245
2310	0.0043095
2322	0.00314477
2334	0.00396008
2346	0.00512481
2358	0.00652249
2370	0.00722133
2382	0.00512481
2394	0.00396008
2406	0.00209651
2418	0.0012812
2430	0.000698838
2442	0.0012812
2454	0.00163062
2466	0.00151415
2478	0.00116473
2490	0.0012812
2502	0.00139768
2514	0.00116473
2526	0.00209651
2538	0.00314477
2550	0.00384361
2562	0.00372714
2574	0.00396008
2586	0.00326124
2598	0.00232946
2610	0.00186357
2622	0.00163062
2634	0.00244593
2646	0.00314477
2658	0.00512481
2670	0.00465892
2682	0.00256241
2694	0.0012812
2706	0.00244593
2718	0.00186357
2730	0.00232946
2742	0.00209651
2754	0.00291182
2766	0.00337772
2778	0.00291182
2790	0.00361066
2802	0.0060566
2814	0.00815311
2826	0.00710485
2838	0.00326124
2850	0.00232946
2862	0.00291182
2874	0.00314477
2886	0.00267888
2898	0.00232946
2910	0.00232946
2922	0.00232946
2934	0.00267888
2946	0.00244593
2958	0.00186357
2970	0.00244593
2982	0.00291182
2994	0.00326124
3006	0.00244593
3018	0.00465892
3030	0.00722133
3042	0.00745427
3054	0.00617307
3066	0.00628954
3078	0.0165392
3090	0.0317971
3102	0.02609
3114	0.0100167
3126	0.00361066
3138	0.0030283
3150	0.00256241
3162	0.00186357
3174	0.00314477
3186	0.00256241
3198	0.00326124
3210	0.00291182
3222	0.00267888
3234	0.0030283
3246	0.00349419
3258	0.00256241
3270	0.00151415
3282	0.00291182
3294	0.00326124
3306	0.00267888
3318	0.00326124
3330	0.00291182
3342	0.00291182
3354	0.00326124
3366	0.00337772
3378	0.00174709
3390	0.00349419
3402	0.00244593
3414	0.0030283
3426	0.00279535
3438	0.00279535
3450	0.0043095
3462	0.00198004
3474	0.00396008
3486	0.00396008
3498	0.00279535
3510	0.00174709
3522	0.00361066
3534	0.00186357
3546	0.00361066
3558	0.00314477
3570	0.00116473
3582	0.00512481
3594	0.00209651
3606	0.0043095
3618	0.00570718
3630	0.00337772
3642	0.0030283
3654	0.00198004
3666	0.00232946
3678	0.00256241
3690	0.00582365
3702	0.00489187
3714	0.00232946
3726	0.00757074
3738	0.0060566
3750	0.00337772
3762	0.00279535
3774	0.00396008
3786	0.00512481
3798	0.000931784
3810	0.0073378
3822	0.00372714
3834	0.00570718
3846	0.00850253
3858	0.00803664
3870	0.00570718
3882	0.00722133
3894	0.00500834
3906	0.0099002
3918	0
3930	0.00803664
3942	0.00221299
3954	0.0099002
3966	0.008619
