Infrared Spectrum: Decanedioic acid, dimethyl ester
Formula: C 12 H 22 O 4
CAS: 106-79-6
Origin: Sadtler Research Labs Under US-EPA Contract
1/CM	ABSORBANCE
450	0.009773
462	0.00918325
474	0.010784
486	0.0123005
498	0.01011
510	0.009099
522	0.001011
534	0.00598175
546	0.0065715
558	0.007751
570	0.00674
582	0.0105313
594	0.0106155
606	0.0133957
618	0.0133115
630	0.0132272
642	0.0118793
654	0.0100257
666	0.0075825
678	0.00985725
690	0.0122162
702	0.0149965
714	0.0190405
726	0.0206412
738	0.0182822
750	0.0172713
762	0.0181138
774	0.0196303
786	0.021568
798	0.02359
810	0.0294875
822	0.0353007
834	0.0378283
846	0.0372385
858	0.0406927
870	0.0378283
882	0.0312567
894	0.0230845
906	0.016176
918	0.0139855
930	0.012806
942	0.0132272
954	0.0147437
966	0.0209783
978	0.028982
990	0.0476012
1002	0.0688322
1014	0.092001
1026	0.0993307
1038	0.083576
1050	0.0674842
1062	0.0698432
1074	0.0783525
1086	0.10051
1098	0.125701
1110	0.140192
1122	0.166057
1134	0.231182
1146	0.322425
1158	0.437258
1170	0.523445
1182	0.422092
1194	0.398418
1206	0.387129
1218	0.357304
1230	0.349975
1242	0.35107
1254	0.315516
1266	0.243146
1278	0.182654
1290	0.150723
1302	0.138591
1314	0.133031
1326	0.126712
1338	0.130082
1350	0.15561
1362	0.154936
1374	0.105818
1386	0.0593962
1398	0.0389235
1410	0.042799
1422	0.0678212
1434	0.156536
1446	0.16294
1458	0.122163
1470	0.0854295
1482	0.0435572
1494	0.0273812
1506	0.024601
1518	0.0180295
1530	0.015165
1542	0.0194617
1554	0.015839
1566	0.0154178
1578	0.0171027
1590	0.012806
1602	0.012132
1614	0.0112052
1626	0.0108682
1638	0.0126375
1650	0.0108682
1662	0.0132272
1674	0.015165
1686	0.0236743
1698	0.033363
1710	0.0567003
1722	0.115338
1734	0.253003
1746	0.500445
1758	0.8425
1770	0.560684
1782	0.259069
1794	0.0929278
1806	0.034711
1818	0.0180295
1830	0.011795
1842	0.00850925
1854	0.00749825
1866	0.0065715
1878	0.00648725
1890	0.006066
1902	0.0062345
1914	0.00615025
1926	0.00674
1938	0.00699275
1950	0.007077
1962	0.007414
1974	0.00817225
1986	0.00884625
1998	0.00901475
2010	0.0103628
2022	0.0115423
2034	0.0113738
2046	0.0112052
2058	0.0099415
2070	0.009436
2082	0.00732975
2094	0.005392
2106	0.004381
2118	0.004381
2130	0.00395975
2142	0.0032015
2154	0.00328575
2166	0.00294875
2178	0.00311725
2190	0.00261175
2202	0.00278025
2214	0.00210625
2226	0.00244325
2238	0.00210625
2250	0.00210625
2262	0.00210625
2274	0.00193775
2286	0.0028645
2298	0.00412825
2310	0.004718
2322	0.00530775
2334	0.004718
2346	0.00311725
2358	0.00362275
2370	0.00210625
2382	0.002022
2394	0.001685
2406	0.00160075
2418	0.001011
2430	0.0008425
2442	0.001011
2454	0.00058975
2466	8.425e-05
2478	0.00025275
2490	0.000674
2502	8.425e-05
2514	8.425e-05
2526	0.00058975
2538	0.00176925
2550	0.0011795
2562	0.00109525
2574	0.001685
2586	0.002696
2598	0.0035385
2610	0.003707
2622	0.0032015
2634	0.00362275
2646	0.004044
2658	0.00261175
2670	0.003707
2682	0.005392
2694	0.005729
2706	0.00564475
2718	0.005392
2730	0.0058975
2742	0.00513925
2754	0.00564475
2766	0.00598175
2778	0.0082565
2790	0.0100257
2802	0.01348
2814	0.0179452
2826	0.0261175
2838	0.0442312
2850	0.0912427
2862	0.177852
2874	0.174566
2886	0.110873
2898	0.108767
2910	0.171365
2922	0.300351
2934	0.468599
2946	0.481741
2958	0.403389
2970	0.239607
2982	0.131683
2994	0.093686
3006	0.0743928
3018	0.0588065
3030	0.0493705
3042	0.0347952
3054	0.0237585
3066	0.0176082
3078	0.0146595
3090	0.0126375
3102	0.012469
3114	0.00985725
3126	0.00834075
3138	0.00648725
3150	0.0055605
3162	0.00345425
3174	0.004044
3186	0.00337
3198	0.00446525
3210	0.004044
3222	0.00311725
3234	0.001685
3246	0.0032015
3258	0.0025275
3270	0.001685
3282	0.0021905
3294	0.0021905
3306	0.002022
3318	0.001685
3330	0.00126375
3342	0.00143225
3354	0.0015165
3366	0.00160075
3378	0.00176925
3390	0.001348
3402	0.00210625
3414	0.002022
3426	0.001348
3438	0.00143225
3450	0.00244325
3462	0.001348
3474	0.0035385
3486	0.00581325
3498	0.0089305
3510	0.00547625
3522	0.00345425
3534	0.0008425
3546	8.425e-05
3558	0.000674
3570	0.000337
3582	0.00092675
3594	0.0028645
3606	0.0032015
3618	0.00278025
3630	0.0025275
3642	0.0015165
3654	0.002022
3666	0.00227475
3678	0.00429675
3690	0.004044
3702	0.00193775
3714	0.00328575
3726	0.00210625
3738	0.0038755
3750	0.0038755
3762	0.00244325
3774	0.001685
3786	0.0015165
3798	0.0011795
3810	0.00176925
3822	0.00261175
3834	0.00143225
3846	0.0021905
3858	0.00337
3870	0.00261175
3882	0.00160075
3894	0.00126375
3906	0.0011795
3918	0.00126375
3930	0.00075825
3942	0.00109525
3954	0.0038755
3966	0.0042125
