Infrared Spectrum: Butanedioic acid, dimethyl ester
Formula: C 6 H 10 O 4
CAS: 106-65-0
Origin: Sadtler Research Labs Under US-EPA Contract
1/CM	ABSORBANCE
450	0.0283655
462	0.0178067
474	0.0221018
486	0.0122589
498	0.0173593
510	0.0146749
522	0.0231756
534	0.0120799
546	0.0169119
558	0.0228177
570	0.0201332
582	0.0195963
594	0.021386
606	0.0159276
618	0.0180752
630	0.018791
642	0.0286339
654	0.0201332
666	0.0120799
678	0.00644263
690	0.00912706
702	0.00474249
714	0.00599523
726	0.00393716
738	0.00626367
750	0.00626367
762	0.00671108
774	0.00590575
786	0.00984291
798	0.0116325
810	0.0142275
822	0.0227282
834	0.0419666
846	0.061026
858	0.0450089
870	0.0270233
882	0.016375
894	0.014138
906	0.0129747
918	0.0125273
930	0.0110956
942	0.00930602
954	0.0135116
966	0.0161066
978	0.0185226
990	0.0396401
1002	0.0902863
1014	0.109793
1026	0.0895705
1038	0.0981607
1050	0.082233
1062	0.0596838
1074	0.0426824
1086	0.0303341
1098	0.0315868
1110	0.0429509
1122	0.0764168
1134	0.131269
1146	0.237751
1158	0.569726
1170	0.725244
1182	0.415013
1194	0.328843
1206	0.343875
1218	0.366246
1230	0.306115
1242	0.292603
1254	0.270412
1266	0.243567
1278	0.215023
1290	0.186836
1302	0.142275
1314	0.134579
1326	0.162497
1338	0.128405
1350	0.146749
1362	0.178873
1374	0.113909
1386	0.0575363
1398	0.0405349
1410	0.0456353
1422	0.0672002
1434	0.14317
1446	0.214575
1458	0.0792802
1470	0.0507357
1482	0.0330185
1494	0.0238019
1506	0.0211175
1518	0.0195069
1530	0.0170909
1542	0.0184331
1554	0.0158381
1566	0.013959
1578	0.0140485
1590	0.0124379
1602	0.0111851
1614	0.0107377
1626	0.0104693
1638	0.0121694
1650	0.0121694
1662	0.0107377
1674	0.013959
1686	0.0182541
1698	0.0245178
1710	0.037761
1722	0.0685424
1734	0.142633
1746	0.358729
1758	0.789312
1770	0.79996
1782	0.331706
1794	0.127331
1806	0.0495725
1818	0.0248757
1830	0.0170909
1842	0.0127063
1854	0.00993239
1866	0.00966395
1878	0.00805329
1890	0.00769537
1902	0.00680056
1914	0.00697952
1926	0.00671108
1938	0.00626367
1950	0.00689004
1962	0.00832173
1974	0.00867966
1986	0.00948499
1998	0.00984291
2010	0.0101114
2022	0.00966395
2034	0.00921654
2046	0.0104693
2058	0.0110956
2070	0.0122589
2082	0.0130642
2094	0.0109167
2106	0.00814277
2118	0.00653211
2130	0.00626367
2142	0.00545834
2154	0.0051899
2166	0.00536886
2178	0.0051899
2190	0.00536886
2202	0.00590575
2214	0.0051899
2226	0.00465301
2238	0.00474249
2250	0.0037582
2262	0.00348976
2274	0.0037582
2286	0.00393716
2298	0.0033108
2310	0.00286339
2322	0.00402665
2334	0.0033108
2346	0.000715848
2358	0.00340028
2370	8.9481e-05
2382	0.000984291
2394	0.00340028
2406	0.00313184
2418	0.00304235
2430	0.00259495
2442	0.00196858
2454	0.00205806
2466	0.0018791
2478	0.0014317
2490	0.00125273
2502	0.0014317
2514	0.00178962
2526	0.00116325
2538	0.000268443
2550	0.00089481
2562	0.000715848
2574	0.00089481
2586	0.00134222
2598	0.00178962
2610	0.00205806
2622	0.00170014
2634	0.00205806
2646	0.00232651
2658	0.00196858
2670	0.0033108
2682	0.00268443
2694	0.00116325
2706	0.00116325
2718	0.000715848
2730	0.000536886
2742	0.00152118
2754	0.00205806
2766	0.00232651
2778	0.00223703
2790	0.00295287
2802	0.00340028
2814	0.00456353
2826	0.00581627
2838	0.011543
2850	0.0303341
2862	0.0283655
2874	0.0135116
2886	0.0129747
2898	0.0211175
2910	0.0307815
2922	0.0391032
2934	0.0537781
2946	0.0757904
2958	0.171177
2970	0.158023
2982	0.056731
2994	0.0566415
3006	0.0637105
3018	0.0524359
3030	0.0485882
3042	0.0342712
3054	0.0205806
3066	0.0140485
3078	0.0116325
3090	0.0121694
3102	0.00975343
3114	0.00805329
3126	0.00876914
3138	0.00608471
3150	0.00527938
3162	0.00483197
3174	0.00411613
3186	0.00447405
3198	0.00438457
3210	0.00447405
3222	0.00348976
3234	0.00250547
3246	0.0018791
3258	0.00295287
3270	0.00304235
3282	0.00340028
3294	0.00286339
3306	0.00322132
3318	0.00223703
3330	0.00340028
3342	0.00232651
3354	0.00286339
3366	0.00295287
3378	0.00125273
3390	0.00232651
3402	0.00348976
3414	0.000715848
3426	0.00178962
3438	0.00304235
3450	0.00340028
3462	0.00420561
3474	0.00357924
3486	0.00697952
3498	0.0109167
3510	0.0120799
3522	0.00859018
3534	0.00510042
3546	0.00536886
3558	0.00581627
3570	0.00697952
3582	0.0113641
3594	0.007069
3606	0.00447405
3618	0.00438457
3630	0.00554782
3642	0.00635315
3654	0.00438457
3666	0.00581627
3678	0.00689004
3690	0.00608471
3702	0.00885862
3714	0.00483197
3726	0.00796381
3738	0.00304235
3750	0.0075164
3762	0.00527938
3774	0.00689004
3786	0.00590575
3798	0.00599523
3810	0.00626367
3822	0.00617419
3834	0.00545834
3846	0.00617419
3858	0.00760589
3870	0.00554782
3882	0.00420561
3894	0.00697952
3906	0.00554782
3918	0.00957447
3930	0.0108272
3942	0.00492145
3954	0
3966	0.00680056
