Infrared Spectrum: p-Aminotoluene
Formula: C 7 H 9 N
CAS: 106-49-0
Origin: Sadtler Research Labs Under US-EPA Contract
1/CM	ABSORBANCE
450	0.106204
462	0.158921
474	0.184894
486	0.232658
498	0.283394
510	0.149896
522	0.0892554
534	0.045233
546	0.047214
558	0.0571191
570	0.0512861
582	0.0553582
594	0.0566788
606	0.0565688
618	0.0780297
630	0.155069
642	0.33402
654	0.399393
666	0.320483
678	0.246305
690	0.183904
702	0.130196
714	0.107525
726	0.0926672
738	0.0685649
750	0.0403906
762	0.0396202
774	0.0819917
786	0.208996
798	0.383105
810	0.479184
822	0.315751
834	0.151107
846	0.0561286
858	0.0224514
870	0.0122162
882	0.00605308
894	0.00297151
906	0.00154078
918	0.00121062
930	0.00286146
942	0.00429218
954	0.00902459
966	0.0179391
978	0.023552
990	0.0192598
1002	0.00847431
1014	0.0027514
1026	0.00187095
1038	0.0125464
1050	0.0349978
1062	0.0691152
1074	0.0975096
1086	0.0857336
1098	0.0633923
1110	0.0717565
1122	0.0717565
1134	0.0598705
1146	0.0162883
1158	0.00440224
1170	0.0501855
1182	0.060971
1194	0.0254229
1206	0.000770392
1218	0.00352179
1230	0.0159581
1242	0.0769291
1254	0.357902
1266	0.637334
1278	0.503616
1290	0.150557
1302	0.0644928
1314	0.0381894
1326	0.0299352
1338	0.0121062
1350	0.0151877
1362	0.00286146
1374	0.00363185
1386	0.0124363
1398	0.00792403
1410	0.0239922
1422	0.0340073
1434	0.0301553
1446	0.0449028
1458	0.0263034
1470	0.0533772
1482	0.0688951
1494	0.148576
1506	0.527058
1518	1.0058
1530	0.810452
1542	0.0641626
1554	0.0315861
1566	0.0563487
1578	0.0925571
1590	0.115999
1602	0.197991
1614	0.466307
1626	0.768631
1638	0.505047
1650	0.169706
1662	0.0655934
1674	0.0128766
1686	0.0132067
1698	0.0141972
1710	0.031476
1722	0.0276241
1734	0.0072637
1746	0.0163983
1758	0.0173888
1770	0.00473241
1782	0.00902459
1794	0.00616314
1806	0.0134268
1818	0.0152978
1830	0.0128766
1842	0.0261933
1854	0.0509559
1866	0.0454531
1878	0.0337872
1890	0.017719
1902	0.0190397
1914	0.0190397
1926	0.0194799
1938	0.0169486
1950	0.0151877
1962	0.0143073
1974	0.0115559
1986	0.0106754
1998	0.0112257
2010	0.0114458
2022	0.00913465
2034	0.0100151
2046	0.00858437
2058	0.0114458
2070	0.0129866
2082	0.0110056
2094	0.00946482
2106	0.00869442
2118	0.00583297
2130	0.0037419
2142	0.00187095
2154	0.0017609
2166	0.0027514
2178	0.00242123
2190	0.00121062
2202	0.00165084
2214	0.00110056
2226	0.000880448
2238	0.000660336
2250	0.000660336
2262	0.00165084
2274	0.00319162
2286	0.00385196
2298	0.00517263
2310	0.0055028
2322	0.00462235
2334	0.00484246
2346	0.00803409
2358	0.00517263
2370	0.0064933
2382	0.00264134
2394	0.000770392
2406	0.00143073
2418	0.0017609
2430	0.0017609
2442	0.00319162
2454	0.00407207
2466	0.0037419
2478	0.00264134
2490	0.00154078
2502	0.00165084
2514	0.0037419
2526	0.0072637
2538	0.0072637
2550	0.00517263
2562	0.00484246
2574	0.00495252
2586	0.00561286
2598	0.00737375
2610	0.00770392
2622	0.00473241
2634	0.0027514
2646	0.00264134
2658	0.00253129
2670	0.00231118
2682	0.00308157
2694	0.00462235
2706	0.00616314
2718	0.00693353
2730	0.0102352
2742	0.0180492
2754	0.0158481
2766	0.00605308
2778	0.00539274
2790	0.00627319
2802	0.00792403
2814	0.011776
2826	0.0167285
2838	0.0268537
2850	0.0494151
2862	0.100921
2874	0.185114
2886	0.191057
2898	0.143073
2910	0.153858
2922	0.245645
2934	0.306726
2946	0.221323
2958	0.104883
2970	0.0799007
2982	0.107195
2994	0.187866
3006	0.310688
3018	0.395651
3030	0.440554
3042	0.374411
3054	0.230787
3066	0.164534
3078	0.105103
3090	0.0670241
3102	0.0527168
3114	0.0419313
3126	0.0285045
3138	0.0208006
3150	0.0132067
3162	0.0072637
3174	0.00484246
3186	0.00473241
3198	0.00627319
3210	0.00891454
3222	0.0111157
3234	0.0123263
3246	0.0116659
3258	0.00880448
3270	0.00671342
3282	0.0027514
3294	0.00363185
3306	0.0027514
3318	0.00231118
3330	0.00231118
3342	0.00330168
3354	0.00407207
3366	0.00770392
3378	0.0129866
3390	0.0368688
3402	0.0737375
3414	0.072637
3426	0.0367587
3438	0.0182693
3450	0.0181592
3462	0.0270738
3474	0.0477643
3486	0.0578895
3498	0.055028
3510	0.0352179
3522	0.0162883
3534	0.00858437
3546	0.00484246
3558	0.00319162
3570	0.00187095
3582	0.000220112
3594	0.000330168
3606	0.000880448
3618	0.00110056
3630	0.000330168
3642	0.00220112
3654	0.00308157
3666	0.00165084
3678	0.00385196
3690	0.00363185
3702	0.00330168
3714	0.00242123
3726	0.0027514
3738	0.00473241
3750	0.00121062
3762	0.00154078
3774	0.00517263
3786	0.00363185
3798	0.0037419
3810	0.00209106
3822	0.00462235
3834	0.00242123
3846	0.00429218
3858	0.0055028
3870	0.00748381
3882	0.00385196
3894	0.00495252
3906	0.00308157
3918	0.00165084
3930	0.00242123
3942	0.00385196
3954	0.00407207
3966	0.00440224
