Infrared Spectrum: Heptanoic acid, methyl ester
Formula: C 8 H 16 O 2
CAS: 106-73-0
Origin: Sadtler Research Labs Under US-EPA Contract
1/CM	ABSORBANCE
450	0.00507216
462	0.0119808
474	0.00734588
486	0.00664628
498	0.00725843
510	0.00542196
522	0.00690863
534	0.00638392
546	0.012418
558	0.0046349
570	0.0198514
582	0.00996941
594	0.0229996
606	0.0246612
618	0.0284216
630	0.0233494
642	0.0226498
654	0.0235243
666	0.0155663
678	0.0243114
690	0.0279843
702	0.0252733
714	0.032182
726	0.0371667
738	0.0359424
750	0.0353302
762	0.0280718
774	0.0290337
786	0.0295584
798	0.0278969
810	0.0340184
822	0.0431133
834	0.0477482
846	0.0498471
858	0.0505467
870	0.0542196
882	0.0512463
894	0.033931
906	0.0242239
918	0.0192392
930	0.0221251
942	0.0187145
954	0.0244863
966	0.0314824
978	0.0369043
990	0.0512463
1002	0.0627024
1014	0.0864016
1026	0.113511
1038	0.0940098
1050	0.0717973
1062	0.0586796
1074	0.0682992
1086	0.0941847
1098	0.14718
1110	0.192392
1122	0.171666
1134	0.156362
1146	0.205073
1158	0.393442
1170	0.619678
1182	0.471361
1194	0.379188
1206	0.400088
1218	0.378663
1230	0.355751
1242	0.354351
1254	0.306078
1266	0.253083
1278	0.196852
1290	0.163883
1302	0.140971
1314	0.13826
1326	0.130564
1338	0.133013
1350	0.154876
1362	0.176389
1374	0.136773
1386	0.0932228
1398	0.0557063
1410	0.0495847
1422	0.0734588
1434	0.164233
1446	0.210844
1458	0.162571
1470	0.134237
1482	0.074071
1494	0.043638
1506	0.0412769
1518	0.0331439
1530	0.0250984
1542	0.0387408
1554	0.0251859
1566	0.0214255
1578	0.0259729
1590	0.0183647
1602	0.0176651
1614	0.0175777
1626	0.01784
1638	0.0224749
1650	0.0209882
1662	0.0186271
1674	0.0209008
1686	0.0307828
1698	0.0371667
1710	0.0485353
1722	0.0890251
1734	0.194404
1746	0.438217
1758	0.838043
1770	0.669787
1782	0.286227
1794	0.105291
1806	0.0408396
1818	0.0231745
1830	0.0174027
1842	0.0130302
1854	0.0111063
1866	0.010669
1878	0.0105816
1890	0.0108439
1902	0.00883255
1914	0.00865765
1926	0.00953216
1938	0.00944471
1950	0.00996941
1962	0.00979451
1974	0.010669
1986	0.0115435
1998	0.011631
2010	0.0118059
2022	0.0126804
2034	0.0140796
2046	0.0139047
2058	0.0130302
2070	0.0118059
2082	0.010669
2094	0.0087451
2106	0.00760824
2118	0.00638392
2130	0.00577177
2142	0.00524706
2154	0.00559686
2166	0.00533451
2178	0.00533451
2190	0.00472235
2202	0.0046349
2214	0.00437255
2226	0.00437255
2238	0.00332314
2250	0.00384784
2262	0.00349804
2274	0.00376039
2286	0.00349804
2298	0.00332314
2310	0.00332314
2322	0.00524706
2334	0.00804549
2346	0.00892
2358	0.0113686
2370	0.0138173
2382	0.00612157
2394	0.00314824
2406	0.00279843
2418	0.00227373
2430	0.00253608
2442	0.00218628
2454	0.00157412
2466	0.00139922
2478	0.00122431
2490	0.00183647
2502	0.00122431
2514	0.00192392
2526	0.00209882
2538	0.00192392
2550	0.00253608
2562	0.00297333
2574	0.00358549
2586	0.00341059
2598	0.00489726
2610	0.00472235
2622	0.00524706
2634	0.00480981
2646	0.00655882
2658	0.00673373
2670	0.00743334
2682	0.0085702
2694	0.00848275
2706	0.00769569
2718	0.00717098
2730	0.00883255
2742	0.0102318
2754	0.0103192
2766	0.00970706
2778	0.0105816
2790	0.0136424
2802	0.0176651
2814	0.0233494
2826	0.0337561
2838	0.0557063
2850	0.121819
2862	0.226323
2874	0.282904
2886	0.252821
2898	0.192829
2910	0.257193
2922	0.430346
2934	0.63743
2946	0.654746
2958	0.623963
2970	0.635769
2982	0.305554
2994	0.145606
3006	0.106428
3018	0.0796679
3030	0.0687365
3042	0.0470486
3054	0.0306078
3066	0.024049
3078	0.0201137
3090	0.0182773
3102	0.0159161
3114	0.0131176
3126	0.0113686
3138	0.00953216
3150	0.00769569
3162	0.00690863
3174	0.00690863
3186	0.00559686
3198	0.00638392
3210	0.0041102
3222	0.00358549
3234	0.00262353
3246	0.00314824
3258	0.00192392
3270	0.00183647
3282	0.00236118
3294	0.00253608
3306	0.00262353
3318	0.00209882
3330	0.00166157
3342	0.00148667
3354	0.00201137
3366	0.00271098
3378	0.00183647
3390	0.00297333
3402	0.00201137
3414	0.00271098
3426	0.00314824
3438	0.00166157
3450	0.00271098
3462	0.00227373
3474	0.00332314
3486	0.00533451
3498	0.00804549
3510	0.00813294
3522	0.00384784
3534	0.00367294
3546	0.00472235
3558	0.00262353
3570	0.0101443
3582	0.0113686
3594	0.00489726
3606	0.00402275
3618	0.00612157
3630	0.011631
3642	0.00472235
3654	0.00708353
3666	0.00472235
3678	0.0104067
3690	0.00953216
3702	0.00725843
3714	0.00822039
3726	0.00664628
3738	0.0121557
3750	0.0123306
3762	0.00760824
3774	0.00647137
3786	0.00655882
3798	0.00830784
3810	0.00752079
3822	0.0114561
3834	0.010669
3846	0.0102318
3858	0.0108439
3870	0.0121557
3882	0.0111063
3894	0.0103192
3906	0.0114561
3918	0.0109314
3930	0.00996941
3942	0.00953216
3954	0
3966	0.000787059
