Infrared Spectrum: Propanoic acid, propyl ester
Formula: C 6 H 12 O 2
CAS: 106-36-5
Origin: Sadtler Research Labs Under US-EPA Contract
1/CM	ABSORBANCE
450	0
462	0.0590024
474	0.0541816
486	0.0647664
498	0.056592
510	0.0475792
522	0.054496
534	0.0485224
546	0.0494656
558	0.0479984
570	0.0498848
582	0.0477888
594	0.058164
606	0.055544
618	0.057116
630	0.0533432
642	0.0574304
654	0.0460072
666	0.0505136
678	0.0479984
690	0.048732
702	0.0449592
714	0.0489416
726	0.0484176
738	0.0431776
750	0.0604696
762	0.0600504
774	0.0584784
786	0.0564872
798	0.0585832
810	0.067072
822	0.0719976
834	0.0682248
846	0.068644
858	0.0679104
870	0.066548
882	0.0706352
894	0.0786
906	0.085936
918	0.0828968
930	0.0828968
942	0.105429
954	0.09694
966	0.0803816
978	0.0783904
990	0.0950536
1002	0.148711
1014	0.17292
1026	0.14169
1038	0.128694
1050	0.158038
1062	0.234333
1074	0.324775
1086	0.329701
1098	0.248795
1110	0.183714
1122	0.161497
1134	0.153742
1146	0.178998
1158	0.283589
1170	0.56592
1182	0.983967
1194	0.976422
1206	0.655105
1218	0.475058
1230	0.339866
1242	0.275414
1254	0.246175
1266	0.246385
1278	0.254664
1290	0.202054
1302	0.139489
1314	0.127856
1326	0.179942
1338	0.248376
1350	0.274157
1362	0.213687
1374	0.139803
1386	0.148502
1398	0.129847
1410	0.0973592
1422	0.0913856
1434	0.109621
1446	0.128694
1458	0.165689
1470	0.19933
1482	0.144519
1494	0.0892896
1506	0.0656048
1518	0.0590024
1530	0.0554392
1542	0.050828
1554	0.051876
1566	0.0490464
1578	0.0474744
1590	0.0506184
1602	0.0501992
1614	0.0477888
1626	0.0505136
1638	0.0495704
1650	0.0507232
1662	0.0543912
1674	0.055544
1686	0.0593168
1698	0.0682248
1710	0.0929576
1722	0.134563
1734	0.270174
1746	0.648293
1758	0.954728
1770	0.687593
1782	0.242298
1794	0.101132
1806	0.0719976
1818	0.0610984
1830	0.0551248
1842	0.0519808
1854	0.0507232
1866	0.0501992
1878	0.0495704
1890	0.048732
1902	0.0474744
1914	0.0481032
1926	0.0485224
1938	0.048732
1950	0.0486272
1962	0.0478936
1974	0.0475792
1986	0.0469504
1998	0.0481032
2010	0.0486272
2022	0.0488368
2034	0.048732
2046	0.0478936
2058	0.0474744
2070	0.0469504
2082	0.0468456
2094	0.0467408
2106	0.0463216
2118	0.0459024
2130	0.0449592
2142	0.0448544
2154	0.0444352
2166	0.0441208
2178	0.0442256
2190	0.0442256
2202	0.0443304
2214	0.0442256
2226	0.0442256
2238	0.0439112
2250	0.0441208
2262	0.0441208
2274	0.044016
2286	0.0443304
2298	0.0452736
2310	0.045064
2322	0.044016
2334	0.0441208
2346	0.0460072
2358	0.0454832
2370	0.0454832
2382	0.0460072
2394	0.0444352
2406	0.0444352
2418	0.0442256
2430	0.044016
2442	0.043492
2454	0.0433872
2466	0.043492
2478	0.0433872
2490	0.0430728
2502	0.0428632
2514	0.0428632
2526	0.042444
2538	0.0426536
2550	0.0428632
2562	0.0425488
2574	0.043492
2586	0.0438064
2598	0.0439112
2610	0.0442256
2622	0.0446448
2634	0.0439112
2646	0.0443304
2658	0.0433872
2670	0.0441208
2682	0.0453784
2694	0.045064
2706	0.0452736
2718	0.0462168
2730	0.0475792
2742	0.0495704
2754	0.0519808
2766	0.0526096
2778	0.0522952
2790	0.0517712
2802	0.0525048
2814	0.0549152
2826	0.058164
2838	0.0640328
2850	0.0730456
2862	0.091176
2874	0.117271
2886	0.182038
2898	0.222176
2910	0.195452
2922	0.196919
2934	0.25697
2946	0.348984
2958	0.415218
2970	0.46091
2982	0.546113
2994	0.400441
3006	0.19891
3018	0.123035
3030	0.0883464
3042	0.0697968
3054	0.0622512
3066	0.0584784
3078	0.0558584
3090	0.0538672
3102	0.0530288
3114	0.0521904
3126	0.0507232
3138	0.0498848
3150	0.0494656
3162	0.04978
3174	0.0490464
3186	0.0489416
3198	0.0478936
3210	0.0469504
3222	0.0459024
3234	0.0456928
3246	0.0448544
3258	0.0449592
3270	0.0439112
3282	0.0441208
3294	0.0447496
3306	0.0437016
3318	0.0443304
3330	0.0438064
3342	0.0449592
3354	0.04454
3366	0.0442256
3378	0.0442256
3390	0.0444352
3402	0.0443304
3414	0.0452736
3426	0.0453784
3438	0.0443304
3450	0.0452736
3462	0.0460072
3474	0.0474744
3486	0.0516664
3498	0.0540768
3510	0.0510376
3522	0.0469504
3534	0.0451688
3546	0.046112
3558	0.0463216
3570	0.0454832
3582	0.045064
3594	0.0451688
3606	0.0451688
3618	0.0457976
3630	0.0441208
3642	0.046112
3654	0.045064
3666	0.047684
3678	0.0439112
3690	0.0441208
3702	0.0467408
3714	0.0454832
3726	0.047684
3738	0.0464264
3750	0.042968
3762	0.0470552
3774	0.0460072
3786	0.04716
3798	0.0462168
3810	0.0479984
3822	0.0443304
3834	0.0453784
3846	0.0481032
3858	0.0443304
3870	0.0439112
3882	0.047684
3894	0.046636
3906	0.047684
3918	0.0464264
3930	0.0470552
3942	0.0457976
3954	0.0469504
3966	0.0469504
