Infrared Spectrum: Octanoic acid, ethyl ester
Formula: C 10 H 20 O 2
CAS: 106-32-1
Origin: Sadtler Research Labs Under US-EPA Contract
1/CM	ABSORBANCE
450	0.0174453
462	0.0434869
474	0.0129787
486	0.00311825
498	0.0261259
510	0.0366605
522	0.0331209
534	0.0282328
546	0.0407901
558	0.0176982
570	0.0268844
582	0.0386831
594	0.0449196
606	0.0394416
618	0.0424756
630	0.0450882
642	0.0247774
654	0.0411272
666	0.0336265
678	0.0339636
690	0.032868
702	0.0439926
714	0.0537687
726	0.0551172
738	0.0501448
750	0.0421385
762	0.0456781
774	0.0461838
786	0.0614379
798	0.0472794
810	0.0463524
822	0.0490492
834	0.0460152
846	0.0495549
858	0.0533473
870	0.0542744
882	0.0367448
894	0.0490492
906	0.0551172
918	0.0536002
930	0.0501448
942	0.0484593
954	0.0410429
966	0.0382618
978	0.0486278
990	0.0415486
1002	0.052336
1014	0.0765235
1026	0.131725
1038	0.203613
1050	0.196365
1062	0.139478
1074	0.110909
1086	0.128691
1098	0.205467
1110	0.269686
1122	0.217687
1134	0.181364
1146	0.26227
1158	0.497824
1170	0.601569
1182	0.478693
1194	0.407395
1206	0.361633
1218	0.338288
1230	0.330872
1242	0.319578
1254	0.311066
1266	0.239431
1278	0.176476
1290	0.155575
1302	0.171672
1314	0.160126
1326	0.13754
1338	0.137372
1350	0.158188
1362	0.132146
1374	0.203445
1386	0.137203
1398	0.0841927
1410	0.0679273
1422	0.0817487
1434	0.100121
1446	0.111583
1458	0.161222
1470	0.150097
1482	0.0851198
1494	0.0536844
1506	0.0469423
1518	0.0373347
1530	0.0314353
1542	0.047448
1554	0.0290756
1566	0.030424
1578	0.0335422
1590	0.0235133
1602	0.0237661
1614	0.0259573
1626	0.0297498
1638	0.030424
1650	0.0320253
1662	0.0274743
1674	0.032868
1686	0.0416328
1698	0.0510719
1710	0.062365
1722	0.0986884
1734	0.221901
1746	0.586399
1758	0.816728
1770	0.350002
1782	0.117651
1794	0.0587411
1806	0.0386831
1818	0.030424
1830	0.0250303
1842	0.0201422
1854	0.018878
1866	0.0207321
1878	0.0158441
1890	0.0212378
1902	0.018878
1914	0.0191309
1926	0.017951
1938	0.0161812
1950	0.0156755
1962	0.0150013
1974	0.0176982
1986	0.0156755
1998	0.0160126
2010	0.0132315
2022	0.0166026
2034	0.0146642
2046	0.0144114
2058	0.0171082
2070	0.0122202
2082	0.0132315
2094	0.0145799
2106	0.0142428
2118	0.0108717
2130	0.0114617
2142	0.0103661
2154	0.00876481
2166	0.010956
2178	0.0104503
2190	0.0106189
2202	0.00834342
2214	0.0108717
2226	0.00775348
2238	0.00792204
2250	0.00943902
2262	0.0095233
2274	0.0104503
2286	0.00935475
2298	0.0118831
2310	0.00977613
2322	0.0123887
2334	0.0162655
2346	0.0204793
2358	0.0111246
2370	0.0183724
2382	0.0105346
2394	0.00235976
2406	0.00573084
2418	0.00463524
2430	0.00556228
2442	0.00488807
2454	0.00657361
2466	0.0043824
2478	0.00396102
2490	0.00530945
2502	0.00387674
2514	0.00429813
2526	0.00101132
2538	0.00480379
2550	0.0032868
2562	0.00581511
2574	0.00699499
2586	0.00488807
2598	0.00412957
2610	0.00505662
2622	0.00893336
2634	0.00606794
2646	0.00910192
2658	0.0105346
2670	0.00943902
2682	0.0104503
2694	0.0118831
2706	0.00884909
2718	0.00792204
2730	0.0155912
2742	0.0150856
2754	0.0161812
2766	0.0141585
2778	0.0155912
2790	0.0183724
2802	0.0223334
2814	0.0317724
2826	0.0384303
2838	0.0546115
2850	0.108043
2862	0.26699
2874	0.302049
2886	0.256792
2898	0.20454
2910	0.284013
2922	0.490745
2934	0.769449
2946	0.701269
2958	0.480547
2970	0.550329
2982	0.375538
2994	0.249039
3006	0.137961
3018	0.074248
3030	0.0434869
3042	0.0294127
3054	0.0240189
3066	0.0144114
3078	0.0138214
3090	0.0120516
3102	0.0146642
3114	0.0131472
3126	0.0115459
3138	0.0127258
3150	0.00556228
3162	0.00800631
3174	0.0112088
3186	0.0117988
3198	0.00800631
3210	0.0113774
3222	0.00707927
3234	0.0029497
3246	0.00716355
3258	0.0043824
3270	0.00556228
3282	0.00337108
3294	0.00969186
3306	0.00396102
3318	0.00497234
3330	0.00851198
3342	0.00497234
3354	0.00471951
3366	0.00353963
3378	0.00809059
3390	0.0051409
3402	0.00792204
3414	0.00724782
3426	0.00632078
3438	0.00362391
3450	0.00589939
3462	0.010029
3474	0.00387674
3486	0.0166868
3498	0.0152541
3510	0.00851198
3522	0.00522517
3534	0.00707927
3546	0.00446668
3558	0.00547801
3570	0.0169397
3582	0.0095233
3594	0.00884909
3606	0.00615222
3618	0.0122202
3630	0.0160969
3642	0.00927047
3654	0.0135686
3666	0.00876481
3678	0.0171925
3690	0.0171082
3702	0.0151699
3714	0.0104503
3726	0.0107875
3738	0.0182881
3750	0.0160969
3762	0.0135686
3774	0.0142428
3786	0.0126416
3798	0.0101132
3810	0.0176139
3822	0.0123887
3834	0.0101132
3846	0.0139057
3858	0.0176139
3870	0.0185409
3882	0.0128944
3894	0.0133158
3906	0.00497234
3918	0.00303397
3930	0.00707927
3942	0.0144114
3954	0
3966	0.000674216
