Infrared Spectrum: 2,6-Octadien-1-ol, 3,7-dimethyl-, (E)-
Formula: C 10 H 18 O
CAS: 106-24-1
Origin: Sadtler Research Labs Under US-EPA Contract
1/CM	ABSORBANCE
450	0.0134885
462	0.0155916
474	0.0137061
486	0.00522137
498	0.015374
510	0.0103702
522	0.0126183
534	0.0109504
546	0.00964503
558	0.0183473
570	0.019
582	0.0133435
594	0.011603
606	0.013271
618	0.0110229
630	0.00754198
642	0.0106603
654	0.013271
666	0.00979007
678	0.00971755
690	0.0118206
702	0.0119656
714	0.0127633
726	0.0128359
738	0.0236412
750	0.0270496
762	0.0252366
774	0.0297328
786	0.0357519
798	0.044019
810	0.0504732
822	0.0720114
834	0.0811488
846	0.0562747
858	0.0427862
870	0.0373473
882	0.0411908
894	0.0454694
906	0.0443816
918	0.053374
930	0.0642518
942	0.0965228
954	0.140614
966	0.168317
978	0.224519
990	0.316836
1002	0.396244
1014	0.346858
1026	0.231626
1038	0.166141
1050	0.115523
1062	0.0831068
1074	0.0728091
1086	0.0828167
1098	0.0973205
1110	0.106095
1122	0.0691106
1134	0.0506908
1146	0.0519236
1158	0.060916
1170	0.0657022
1182	0.0699808
1194	0.0791907
1206	0.0905762
1218	0.0951449
1230	0.0894884
1242	0.0796984
1254	0.0698358
1266	0.0630915
1278	0.0577976
1290	0.0556946
1302	0.05729
1314	0.0602633
1326	0.0704885
1338	0.0910113
1350	0.103267
1362	0.11545
1374	0.183401
1386	0.292614
1398	0.215091
1410	0.120164
1422	0.0930419
1434	0.116611
1446	0.157584
1458	0.143225
1470	0.0965953
1482	0.0652671
1494	0.0416259
1506	0.0329236
1518	0.0300954
1530	0.0289351
1542	0.0284274
1554	0.026832
1566	0.0245839
1578	0.0221908
1590	0.0201603
1602	0.0200878
1614	0.0198702
1626	0.0221183
1638	0.0270496
1650	0.0387977
1662	0.0804961
1674	0.0791182
1686	0.0279198
1698	0.0184923
1710	0.0128359
1722	0.0110954
1734	0.0118931
1746	0.0129084
1758	0.0108778
1770	0.00891984
1782	0.0087748
1794	0.00862976
1806	0.00833968
1818	0.00710686
1830	0.00717938
1842	0.00652671
1854	0.00616412
1866	0.00630915
1878	0.00536641
1890	0.00601908
1902	0.00536641
1914	0.005729
1926	0.0060916
1938	0.00601908
1950	0.005729
1962	0.00681679
1974	0.00761449
1986	0.00761449
1998	0.00848472
2010	0.00862976
2022	0.00920991
2034	0.0084122
2046	0.00920991
2058	0.00565648
2070	0.00580152
2082	0.00580152
2094	0.00464122
2106	0.00442366
2118	0.00391603
2130	0.00427862
2142	0.00413358
2154	0.00435114
2166	0.00362595
2178	0.00398855
2190	0.00464122
2202	0.00398855
2214	0.00413358
2226	0.00391603
2238	0.00413358
2250	0.00427862
2262	0.0042061
2274	0.00464122
2286	0.00398855
2298	0.00369847
2310	0.000797709
2322	0.000145038
2334	0.00217557
2346	0.005729
2358	0.000145038
2370	0.0153015
2382	0.0124007
2394	0.00804961
2406	0.00703434
2418	0.00754198
2430	0.00754198
2442	0.00812213
2454	0.00746946
2466	0.00681679
2478	0.00812213
2490	0.00739694
2502	0.00710686
2514	0.0072519
2526	0.00804961
2538	0.00775953
2550	0.00645419
2562	0.00696182
2574	0.00688931
2586	0.0072519
2598	0.00754198
2610	0.0072519
2622	0.00703434
2634	0.00652671
2646	0.00703434
2658	0.00703434
2670	0.0105878
2682	0.00986258
2694	0.0111679
2706	0.0147214
2718	0.0182023
2730	0.0248015
2742	0.0349542
2754	0.0297328
2766	0.0277748
2778	0.02879
2790	0.0324885
2802	0.0396679
2814	0.0523587
2826	0.0732442
2838	0.116756
2850	0.214366
2862	0.364045
2874	0.430763
2886	0.434751
2898	0.468473
2910	0.51619
2922	0.659415
2934	0.716198
2946	0.567679
2958	0.40966
2970	0.416549
2982	0.425614
2994	0.342145
3006	0.226042
3018	0.160194
3030	0.131549
3042	0.105878
3054	0.0837594
3066	0.0628015
3078	0.0457595
3090	0.0319809
3102	0.0252366
3114	0.0213931
3126	0.0163168
3138	0.011603
3150	0.0108778
3162	0.00797709
3174	0.00623663
3186	0.00601908
3198	0.00536641
3210	0.00449618
3222	0.00478625
3234	0.00558396
3246	0.00442366
3258	0.00326335
3270	0.00391603
3282	0.00449618
3294	0.0042061
3306	0.00275572
3318	0.00261068
3330	0.00348091
3342	0.00369847
3354	0.000435114
3366	0.00217557
3378	0.00362595
3390	0.00493129
3402	0.00398855
3414	0.00326335
3426	0.0042061
3438	0.000652671
3450	0.00261068
3462	0.000652671
3474	0.00522137
3486	0.00282824
3498	0.0015229
3510	0.00297328
3522	0.00297328
3534	0.00188549
3546	0.00145038
3558	0.00159542
3570	0.000942747
3582	0.00174046
3594	0.00195801
3606	0.00297328
3618	0.00580152
3630	0.0155916
3642	0.0396679
3654	0.0624389
3666	0.0535915
3678	0.0258168
3690	0.0104427
3702	0.00717938
3714	0.000217557
3726	0.000145038
3738	0.00188549
3750	0.000145038
3762	0.000217557
3774	0.000145038
3786	7.2519e-05
3798	0.000145038
3810	0.000290076
3822	0.00130534
3834	0.000145038
3846	0.0030458
3858	0.000362595
3870	0.000145038
3882	0.00174046
3894	0.00232061
3906	0
3918	0.000145038
3930	0.000145038
3942	0.00203053
3954	0.000797709
3966	0.000870228
