Infrared Spectrum: 2-Propenoic acid, 2-methyl-, oxiranylmethyl ester
Formula: C 7 H 10 O 3
CAS: 106-91-2
Origin: Sadtler Research Labs Under US-EPA Contract
1/CM	ABSORBANCE
450	0.0653832
462	0.0437925
474	0.0456257
486	0.0399225
498	0.0505141
510	0.0366635
522	0.0282105
534	0.0340156
546	0.0419593
558	0.0425704
570	0.0304511
582	0.0424685
594	0.0448109
606	0.0399225
618	0.0364598
630	0.0362561
642	0.0388022
654	0.0429777
666	0.0366635
678	0.0187391
690	0.0274976
702	0.0202668
714	0.0190446
726	0.0218962
738	0.0226091
750	0.0303492
762	0.0451164
774	0.0561155
786	0.0372745
798	0.0543842
810	0.0938992
822	0.0932882
834	0.0853444
846	0.111314
858	0.100926
870	0.06355
882	0.0482736
894	0.0498012
906	0.0727159
918	0.100112
930	0.130054
942	0.160199
954	0.0962416
966	0.0620224
978	0.0568284
990	0.0735306
1002	0.0957324
1014	0.151542
1026	0.134636
1038	0.0602911
1050	0.0515326
1062	0.0518381
1074	0.0613095
1086	0.0708827
1098	0.0815762
1110	0.0975656
1122	0.150626
1134	0.295141
1146	0.606882
1158	0.998469
1170	0.864953
1182	0.421834
1194	0.209695
1206	0.117323
1218	0.0737343
1230	0.0574395
1242	0.0576431
1254	0.0684385
1266	0.0697625
1278	0.096649
1290	0.261737
1302	0.309094
1314	0.302677
1326	0.213565
1338	0.0880942
1350	0.0912513
1362	0.0678274
1374	0.0586616
1386	0.0656887
1398	0.0728177
1410	0.0980748
1422	0.0795394
1434	0.0760767
1446	0.0921679
1458	0.116407
1470	0.0918624
1482	0.0571339
1494	0.0424685
1506	0.0310621
1518	0.0231184
1530	0.0190446
1542	0.0197575
1554	0.0179244
1566	0.0190446
1578	0.0229147
1590	0.0230165
1602	0.0258681
1614	0.035645
1626	0.0459312
1638	0.075262
1650	0.0598837
1662	0.0281087
1674	0.0245442
1686	0.0309603
1698	0.0417556
1710	0.0723085
1722	0.171707
1734	0.464506
1746	0.641305
1758	0.287299
1770	0.0707809
1782	0.0341174
1794	0.0307566
1806	0.0262755
1818	0.0200631
1830	0.0154801
1842	0.0146654
1854	0.0158875
1866	0.0174152
1878	0.0206741
1890	0.0214889
1902	0.0171096
1914	0.0147672
1926	0.0147672
1938	0.0150728
1950	0.0148691
1962	0.0149709
1974	0.0153783
1986	0.0154801
1998	0.0146654
2010	0.0151746
2022	0.0138506
2034	0.0133414
2046	0.0130359
2058	0.0128322
2070	0.0122212
2082	0.012323
2094	0.0129341
2106	0.0124248
2118	0.012323
2130	0.0116101
2142	0.0114064
2154	0.0111009
2166	0.0108972
2178	0.010388
2190	0.0102861
2202	0.00987877
2214	0.00987877
2226	0.0105917
2238	0.0104898
2250	0.010999
2262	0.0115083
2274	0.0106935
2286	0.0111009
2298	0.0121193
2310	0.012323
2322	0.0117119
2334	0.0113046
2346	0.0114064
2358	0.00794375
2370	0.0125267
2382	0.00998061
2394	0.00763822
2406	0.00763822
2418	0.00712901
2430	0.00723085
2442	0.00641611
2454	0.00702717
2466	0.00692532
2478	0.00672164
2490	0.00661979
2502	0.00631427
2514	0.00661979
2526	0.00611058
2538	0.00611058
2550	0.00621242
2562	0.00590689
2574	0.00600874
2586	0.00621242
2598	0.00590689
2610	0.00580505
2622	0.00529584
2634	0.00427741
2646	0.00448109
2658	0.00387003
2670	0.00376819
2682	0.00417556
2694	0.00499031
2706	0.00458293
2718	0.00458293
2730	0.00519399
2742	0.00560136
2754	0.00702717
2766	0.00672164
2778	0.00641611
2790	0.0073327
2802	0.00824928
2814	0.0094714
2826	0.0115083
2838	0.0139525
2850	0.017517
2862	0.0251552
2874	0.0310621
2886	0.035034
2898	0.0405335
2910	0.0426722
2922	0.0479681
2934	0.0815762
2946	0.10775
2958	0.102658
2970	0.10001
2982	0.101436
2994	0.120684
3006	0.104898
3018	0.0765859
3030	0.048681
3042	0.0407372
3054	0.0640592
3066	0.0587634
3078	0.0249515
3090	0.0127304
3102	0.0143599
3114	0.0215907
3126	0.00835113
3138	0.00590689
3150	0.00509215
3162	0.00468478
3174	0.00397188
3186	0.00397188
3198	0.00427741
3210	0.00529584
3222	0.00519399
3234	0.00539768
3246	0.00437925
3258	0.00539768
3270	0.00590689
3282	0.00611058
3294	0.00651795
3306	0.00692532
3318	0.00692532
3330	0.00672164
3342	0.00774007
3354	0.00774007
3366	0.00845297
3378	0.00641611
3390	0.00763822
3402	0.00702717
3414	0.0073327
3426	0.0087585
3438	0.00753638
3450	0.00998061
3462	0.0107954
3474	0.0120175
3486	0.00926771
3498	0.00651795
3510	0.00672164
3522	0.00549952
3534	0.00661979
3546	0.00478662
3558	0.00743454
3570	0.00590689
3582	0.00468478
3594	0.00539768
3606	0.00702717
3618	0.00682348
3630	0.00814744
3642	0.00845297
3654	0.00651795
3666	0.00672164
3678	0.00835113
3690	0.00692532
3702	0.00478662
3714	0.00936956
3726	0.00539768
3738	0.00845297
3750	0.010999
3762	0.00672164
3774	0.00794375
3786	0.00458293
3798	0.00784191
3810	0.00478662
3822	0.00570321
3834	0.00998061
3846	0.00794375
3858	0.00651795
3870	0.00824928
3882	0.00376819
3894	0.00468478
3906	0.0080456
3918	0.00794375
3930	0.00631427
3942	0.00621242
3954	0.00549952
3966	0.00397188
