Infrared Spectrum: n-Butyl laurate
Formula: C 16 H 32 O 2
CAS: 106-18-3
Origin: Sadtler Research Labs Under US-EPA Contract
1/CM	ABSORBANCE
450	0.0133111
462	0.00744415
474	0.0173487
486	0.0107246
498	0.00769649
510	0.00820118
522	0.00908438
534	0.00599317
546	0.01104
558	0.0100938
570	0.0114186
582	0.0135004
594	0.0150776
606	0.0143836
618	0.0127434
630	0.0141943
642	0.0179795
654	0.0164654
666	0.0142574
678	0.0158346
690	0.0222063
702	0.0206291
714	0.0235942
726	0.0225848
738	0.0238465
750	0.0222694
762	0.020566
774	0.0202506
786	0.0223955
798	0.0173487
810	0.019809
822	0.0203137
834	0.0218278
846	0.0224586
858	0.0200613
870	0.0226479
882	0.0201875
894	0.0211969
906	0.0218908
918	0.0205029
930	0.0206291
942	0.0243512
954	0.0326785
966	0.0345711
978	0.0333725
990	0.0305336
1002	0.0350758
1014	0.0444756
1026	0.0468729
1038	0.0391764
1050	0.038167
1062	0.0581653
1074	0.0673758
1086	0.0545063
1098	0.0594901
1110	0.0835259
1122	0.0850399
1134	0.0779743
1146	0.128128
1158	0.186987
1170	0.199856
1182	0.18787
1194	0.151469
1206	0.126109
1218	0.120305
1230	0.129074
1242	0.135698
1254	0.122576
1266	0.0958907
1278	0.0783528
1290	0.0675651
1302	0.0656094
1314	0.0619505
1326	0.054254
1338	0.0576606
1350	0.0714134
1362	0.0652309
1374	0.0481346
1386	0.0481977
1398	0.0365899
1410	0.0252344
1422	0.0261807
1434	0.0394918
1446	0.0510997
1458	0.0702147
1470	0.0781636
1482	0.0382301
1494	0.0201244
1506	0.00921056
1518	0.00996759
1530	0.01104
1542	0.00340664
1554	0.00839044
1566	0.0099045
1578	0.0071918
1590	0.0108508
1602	0.010283
1614	0.010283
1626	0.00788575
1638	0.00574083
1650	0.00712872
1662	0.00876895
1674	0.0090213
1686	0.00643477
1698	0.011734
1710	0.0241619
1722	0.0377885
1734	0.066745
1746	0.216637
1758	0.324956
1770	0.0959538
1782	0.0395549
1794	0.0197459
1806	0.014636
1818	0.0114186
1830	0.00839044
1842	0.00794884
1854	0.00788575
1866	0.00775958
1878	0.00738106
1890	0.00687637
1902	0.00763341
1914	0.00706563
1926	0.00712872
1938	0.0071918
1950	0.00757032
1962	0.0067502
1974	0.0067502
1986	0.0071918
1998	0.00750723
2010	0.00693946
2022	0.00700255
2034	0.00687637
2046	0.00712872
2058	0.0067502
2070	0.00624551
2082	0.00611934
2094	0.00649786
2106	0.00624551
2118	0.005867
2130	0.0054254
2142	0.00523614
2154	0.00523614
2166	0.00447911
2178	0.00460528
2190	0.00548848
2202	0.00454219
2214	0.00492071
2226	0.00479454
2238	0.00428985
2250	0.00473145
2262	0.00473145
2274	0.00498379
2286	0.00498379
2298	0.00593008
2310	0.00927364
2322	0.0112293
2334	0.0147621
2346	0.014699
2358	0.0182319
2370	0.0149514
2382	0.00611934
2394	0.00378516
2406	0.00334356
2418	0.0040375
2430	0.00346973
2442	0.00283887
2454	0.00302813
2466	0.00296504
2478	0.00233418
2490	0.00252344
2502	0.00277578
2514	0.00277578
2526	0.00328047
2538	0.00258653
2550	0.00290196
2562	0.00353282
2574	0.0040375
2586	0.00441602
2598	0.00492071
2610	0.00473145
2622	0.00479454
2634	0.00529922
2646	0.00580391
2658	0.0067502
2670	0.00750723
2682	0.00807501
2694	0.0090213
2706	0.00788575
2718	0.00769649
2730	0.00883204
2742	0.00977833
2754	0.00984142
2766	0.0107877
2778	0.0099045
2790	0.0120494
2802	0.0147621
2814	0.018358
2826	0.0260545
2838	0.0365268
2850	0.0767757
2862	0.231021
2874	0.205282
2886	0.16333
2898	0.13778
2910	0.200424
2922	0.355427
2934	0.63086
2946	0.462168
2958	0.291836
2970	0.353408
2982	0.168755
2994	0.0704671
3006	0.0391133
3018	0.0244143
3030	0.0196197
3042	0.0159608
3054	0.0128065
3066	0.0104723
3078	0.00933673
3090	0.00794884
3102	0.00801192
3114	0.00662403
3126	0.00700255
3138	0.00725489
3150	0.0063086
3162	0.00725489
3174	0.00593008
3186	0.00643477
3198	0.00637169
3210	0.00548848
3222	0.00416368
3234	0.00441602
3246	0.00466836
3258	0.00428985
3270	0.00479454
3282	0.00384825
3294	0.00473145
3306	0.0054254
3318	0.00492071
3330	0.00561465
3342	0.00479454
3354	0.00492071
3366	0.00523614
3378	0.005867
3390	0.00529922
3402	0.00454219
3414	0.0054254
3426	0.00555157
3438	0.00517305
3450	0.00504688
3462	0.00517305
3474	0.00637169
3486	0.00788575
3498	0.00687637
3510	0.00523614
3522	0.00517305
3534	0.00498379
3546	0.00510997
3558	0.00548848
3570	0.00365899
3582	0.00473145
3594	0.00492071
3606	0.00523614
3618	0.00473145
3630	0.00258653
3642	0.00605626
3654	0.00466836
3666	0.00523614
3678	0.00195567
3690	0.00346973
3702	0.00492071
3714	0.00346973
3726	0.00479454
3738	0.00201875
3750	0.00145098
3762	0.00618243
3774	0.00687637
3786	0.00529922
3798	0.00561465
3810	0.00428985
3822	0.00441602
3834	0.00428985
3846	0.00668712
3858	0.00340664
3870	0.00365899
3882	0.00473145
3894	0.00510997
3906	0.00479454
3918	0.00580391
3930	0.00555157
3942	0.00788575
3954	0
3966	0.00063086
