Infrared Spectrum: Benzene, 1,4-dibromo-
Formula: C 6 H 4 Br 2
CAS: 106-37-6
Origin: Sadtler Research Labs Under US-EPA Contract
1/CM	ABSORBANCE
450	0
462	0.111318
474	0.142549
486	0.0964754
498	0.0564319
510	0.042208
522	0.0454548
534	0.0557362
546	0.0501703
558	0.0487015
570	0.0523348
582	0.0469235
594	0.0402754
606	0.0533398
618	0.0500157
630	0.0446044
642	0.0359464
654	0.0429037
666	0.045764
678	0.0464597
690	0.0436768
702	0.0415122
714	0.0423626
726	0.048315
738	0.0596787
750	0.0459186
762	0.0558135
774	0.0470781
786	0.0730523
798	0.158009
810	0.255103
822	0.197125
834	0.0830245
846	0.0467689
858	0.0444498
870	0.0444498
882	0.0407392
894	0.0408165
906	0.0408165
918	0.0408938
930	0.0420534
942	0.0413576
954	0.0421307
966	0.0388066
978	0.0444498
990	0.0568957
1002	0.437231
1014	0.502012
1026	0.0497065
1038	0.0454548
1050	0.0503249
1062	0.242812
1074	0.582949
1086	0.133659
1098	0.0556589
1110	0.0517164
1122	0.0471554
1134	0.059756
1146	0.0600652
1158	0.0429037
1170	0.0415122
1182	0.0401981
1194	0.0415896
1206	0.045764
1218	0.0570504
1230	0.0429037
1242	0.0462278
1254	0.0454548
1266	0.0428264
1278	0.0413576
1290	0.0408165
1302	0.0406619
1314	0.0413576
1326	0.0418215
1338	0.0416669
1350	0.0425172
1362	0.0521029
1374	0.0750622
1386	0.0874308
1398	0.0771494
1410	0.0783863
1422	0.042981
1434	0.0417442
1446	0.0498611
1458	0.135205
1470	0.610934
1482	0.0860394
1494	0.0946201
1506	0.114796
1518	0.0423626
1530	0.0407392
1542	0.0373378
1554	0.0392704
1566	0.0388839
1578	0.0388066
1590	0.0407392
1602	0.0442179
1614	0.0503249
1626	0.0534944
1638	0.0466916
1650	0.04043
1662	0.0393477
1674	0.0365648
1686	0.0363329
1698	0.0363329
1710	0.038652
1722	0.0388839
1734	0.0388839
1746	0.04043
1758	0.0434448
1770	0.0451455
1782	0.0393477
1794	0.0375697
1806	0.0377244
1818	0.0373378
1830	0.0367194
1842	0.0375697
1854	0.0391931
1866	0.0428264
1878	0.0507114
1890	0.052644
1902	0.0449136
1914	0.0384974
1926	0.0369513
1938	0.0372605
1950	0.0374924
1962	0.0373378
1974	0.0367194
1986	0.0366421
1998	0.0367194
2010	0.0369513
2022	0.0367194
2034	0.0366421
2046	0.0367967
2058	0.0364875
2070	0.0374924
2082	0.0366421
2094	0.0365648
2106	0.0364875
2118	0.0364875
2130	0.036874
2142	0.0364875
2154	0.0362556
2166	0.0361783
2178	0.0365648
2190	0.0360237
2202	0.0360237
2214	0.0360237
2226	0.0353279
2238	0.0360237
2250	0.0366421
2262	0.0379563
2274	0.039425
2286	0.0402754
2298	0.0414349
2310	0.0426718
2322	0.0406619
2334	0.0379563
2346	0.038652
2358	0.0409711
2370	0.0356371
2382	0.0385747
2394	0.037647
2406	0.0367194
2418	0.0364875
2430	0.0366421
2442	0.0365648
2454	0.0365648
2466	0.0363329
2478	0.0363329
2490	0.036101
2502	0.0366421
2514	0.0365648
2526	0.036874
2538	0.0382655
2550	0.0373378
2562	0.0383428
2574	0.0382655
2586	0.0371832
2598	0.0359464
2610	0.0365648
2622	0.0372605
2634	0.0380336
2646	0.0379563
2658	0.0362556
2670	0.0360237
2682	0.0363329
2694	0.0363329
2706	0.0366421
2718	0.0363329
2730	0.0367967
2742	0.0365648
2754	0.0371059
2766	0.0373378
2778	0.0370286
2790	0.0378017
2802	0.0395023
2814	0.0400435
2826	0.0367967
2838	0.0362556
2850	0.0366421
2862	0.0364102
2874	0.0364102
2886	0.0370286
2898	0.0367194
2910	0.0366421
2922	0.0362556
2934	0.0365648
2946	0.0366421
2958	0.0370286
2970	0.0372605
2982	0.0371832
2994	0.0367967
3006	0.0378017
3018	0.0384201
3030	0.038652
3042	0.0382655
3054	0.0378017
3066	0.0398116
3078	0.0446817
3090	0.0527986
3102	0.0448363
3114	0.0391931
3126	0.0378017
3138	0.0372605
3150	0.0369513
3162	0.0373378
3174	0.0374924
3186	0.0373378
3198	0.0373378
3210	0.0370286
3222	0.0375697
3234	0.0371832
3246	0.0372605
3258	0.0367194
3270	0.0374924
3282	0.0364875
3294	0.0364102
3306	0.0366421
3318	0.0369513
3330	0.0367194
3342	0.0369513
3354	0.0360237
3366	0.0361783
3378	0.0369513
3390	0.0370286
3402	0.036101
3414	0.0362556
3426	0.036874
3438	0.036101
3450	0.0373378
3462	0.036874
3474	0.0364102
3486	0.0367194
3498	0.0369513
3510	0.0371059
3522	0.0369513
3534	0.0363329
3546	0.0377244
3558	0.0370286
3570	0.0380336
3582	0.0356371
3594	0.0369513
3606	0.0363329
3618	0.0381882
3630	0.0373378
3642	0.0384201
3654	0.0373378
3666	0.0388066
3678	0.037879
3690	0.0384201
3702	0.0399662
3714	0.0388066
3726	0.0392704
3738	0.0388066
3750	0.0374924
3762	0.0381882
3774	0.0385747
3786	0.041203
3798	0.039657
3810	0.0384201
3822	0.037647
3834	0.0347095
3846	0.0365648
3858	0.0357144
3870	0.0361783
3882	0.0377244
3894	0.0363329
3906	0.0374924
3918	0.0347868
3930	0.0351733
3942	0.0367967
3954	0.0349414
3966	0.0370286
