Infrared Spectrum: Hexanedioic acid, dipropyl ester
Formula: C 12 H 22 O 4
CAS: 106-19-4
Origin: Sadtler Research Labs Under US-EPA Contract
1/CM	ABSORBANCE
450	0.032662
462	0.0072852
474	0.00801372
486	0.0120206
498	0.00339976
510	0.0137205
522	0.00291408
534	0.00218556
546	0.00497822
558	0.00254982
570	0.00922792
582	0.0066781
594	0.0101993
606	0.012142
618	0.00934934
630	0.0151775
642	0.0116563
654	0.00692094
666	0.00655668
678	0.00643526
690	0.00752804
702	0.00898508
714	0.0109278
726	0.0115349
738	0.0166345
750	0.0236769
762	0.0302336
774	0.0254982
786	0.0223413
798	0.0169988
810	0.0152989
822	0.0174845
834	0.0184558
846	0.0199129
858	0.0227055
870	0.0267124
882	0.0296265
894	0.0382473
906	0.0460182
918	0.0530605
930	0.0553675
942	0.0635027
954	0.0845083
966	0.107578
978	0.131255
990	0.115835
1002	0.111342
1014	0.0908222
1026	0.0727306
1038	0.0981074
1050	0.135383
1062	0.218192
1074	0.219527
1086	0.155418
1098	0.110371
1110	0.134048
1122	0.222441
1134	0.398379
1146	0.609528
1158	0.662953
1170	0.675945
1182	0.615964
1194	0.514457
1206	0.453747
1218	0.445733
1230	0.468196
1242	0.460789
1254	0.397286
1266	0.319092
1278	0.262267
1290	0.234826
1302	0.183466
1314	0.170959
1326	0.133198
1338	0.148132
1350	0.179702
1362	0.180794
1374	0.127005
1386	0.12482
1398	0.112435
1410	0.0533034
1422	0.0614385
1434	0.0902151
1446	0.0964075
1458	0.132469
1470	0.124698
1482	0.0670238
1494	0.0331477
1506	0.0200343
1518	0.0155418
1530	0.0117777
1542	0.00947076
1554	0.0078923
1566	0.0103207
1578	0.00497822
1590	0.00825656
1602	0.0100779
1614	0.00813514
1626	0.00983502
1638	0.0097136
1650	0.0134776
1662	0.0145704
1674	0.018213
1686	0.0186987
1698	0.036426
1710	0.0784373
1722	0.129069
1734	0.278659
1746	0.835855
1758	1.11609
1770	0.438812
1782	0.147404
1794	0.0712735
1806	0.0371545
1818	0.0220984
1830	0.0171202
1842	0.0117777
1854	0.0104421
1866	0.0097136
1878	0.00862082
1890	0.00801372
1902	0.00898508
1914	0.00801372
1926	0.00886366
1938	0.0084994
1950	0.00801372
1962	0.00764946
1974	0.0072852
1986	0.00752804
1998	0.00837798
2010	0.00886366
2022	0.0100779
2034	0.0111706
2046	0.0109278
2058	0.00874224
2070	0.00983502
2082	0.00801372
2094	0.0066781
2106	0.00655668
2118	0.0066781
2130	0.00582816
2142	0.00570674
2154	0.00570674
2166	0.00473538
2178	0.00509964
2190	0.00509964
2202	0.0054639
2214	0.00570674
2226	0.00522106
2238	0.00582816
2250	0.0054639
2262	0.00522106
2274	0.00570674
2286	0.00534248
2298	0.0036426
2310	0.00169988
2322	0.00145704
2334	0.00169988
2346	0.00692094
2358	0.00036426
2370	0.00740662
2382	0.0091065
2394	0.0066781
2406	0.00631384
2418	0.00619242
2430	0.00619242
2442	0.006071
2454	0.00631384
2466	0.00558532
2478	0.0054639
2490	0.0054639
2502	0.006071
2514	0.006071
2526	0.00619242
2538	0.0054639
2550	0.00594958
2562	0.00582816
2574	0.00619242
2586	0.00655668
2598	0.00679952
2610	0.00643526
2622	0.00631384
2634	0.0054639
2646	0.00619242
2658	0.00412828
2670	0.0054639
2682	0.00764946
2694	0.00874224
2706	0.00862082
2718	0.00874224
2730	0.010685
2742	0.0122634
2754	0.013599
2766	0.0138419
2778	0.0128705
2790	0.0132348
2802	0.0148132
2814	0.018213
2826	0.0223413
2838	0.0302336
2850	0.0404329
2862	0.0686023
2874	0.11717
2886	0.163431
2898	0.178487
2910	0.157846
2922	0.193422
2934	0.299907
2946	0.379073
2958	0.417199
2970	0.481066
2982	0.508264
2994	0.222563
3006	0.088758
3018	0.0463824
3030	0.0309621
3042	0.022827
3054	0.0177273
3066	0.015906
3078	0.0139633
3090	0.0112921
3102	0.0100779
3114	0.00837798
3126	0.00825656
3138	0.00825656
3150	0.00619242
3162	0.0054639
3174	0.0054639
3186	0.00582816
3198	0.00315692
3210	0.0030355
3222	0.0036426
3234	0.00254982
3246	0.0036426
3258	0.00291408
3270	0.0042497
3282	0.00230698
3294	0.00194272
3306	0.0036426
3318	0.00412828
3330	0.00254982
3342	0.00315692
3354	0.00327834
3366	0.00206414
3378	0.00449254
3390	0.00267124
3402	0.00412828
3414	0.00461396
3426	0.00534248
3438	0.00509964
3450	0.00655668
3462	0.0072852
3474	0.00959218
3486	0.0142061
3498	0.0117777
3510	0.00752804
3522	0.00534248
3534	0.00473538
3546	0.00570674
3558	0.00570674
3570	0.0066781
3582	0.00376402
3594	0.00522106
3606	0.00449254
3618	0.00522106
3630	0.00218556
3642	0.00679952
3654	0.00619242
3666	0.0024284
3678	0.0054639
3690	0.00449254
3702	0.0066781
3714	0.00619242
3726	0.00631384
3738	0.00619242
3750	0.0036426
3762	0.00352118
3774	0.00400686
3786	0.00206414
3798	0.00437112
3810	0.00594958
3822	0.00315692
3834	0.00267124
3846	0.00558532
3858	0.00279266
3870	0.0042497
3882	0.00716378
3894	0.00254982
3906	0.00679952
3918	0.0036426
3930	0.0018213
3942	0.00339976
3954	0.00072852
3966	0.00582816
