Infrared Spectrum: Phenol, 4-methyl-
Formula: C 7 H 8 O
CAS: 106-44-5
Origin: Sadtler Research Labs Under US-EPA Contract
1/CM	ABSORBANCE
450	0.0657047
462	0.0263103
474	0.0273059
486	0.0849041
498	0.172226
510	0.130983
522	0.0648514
534	0.0190572
546	0.0246037
558	0.0339901
570	0.0240348
582	0.0125152
594	0
606	0.00796421
618	0.00654203
630	0.00639981
642	0.014364
654	0.0136529
666	0.0105241
678	0.0115197
690	0.0219016
702	0.0324257
714	0.0237504
726	0.0749489
738	0.118468
750	0.0539006
762	0.0206216
774	0.0362656
786	0.11093
798	0.267085
810	0.353127
822	0.372042
834	0.223993
846	0.131694
858	0.0364078
870	0.0135107
882	0.0146485
894	0.0126574
906	0.0139374
918	0.0186306
930	0.0159284
942	0.0157862
954	0.0196261
966	0.0206216
978	0.0248882
990	0.0270214
1002	0.0241771
1014	0.0295813
1026	0.0292969
1038	0.030008
1050	0.0412432
1062	0.0477852
1074	0.052194
1086	0.0886018
1098	0.140227
1110	0.137951
1122	0.0991259
1134	0.0639981
1146	0.0895973
1158	0.391384
1170	1.30201
1182	1.30684
1194	0.359243
1206	0.16284
1218	0.129276
1230	0.117472
1242	0.307475
1254	0.820313
1266	0.692317
1278	0.0622915
1290	0.0597316
1302	0.0566028
1314	0.0924417
1326	0.21162
1338	0.189008
1350	0.0706823
1362	0.030008
1374	0.0265948
1386	0.03783
1398	0.0361234
1410	0.0593049
1422	0.121312
1434	0.131267
1446	0.082202
1458	0.0425232
1470	0.0558917
1482	0.066558
1494	0.126858
1506	0.634008
1518	1.06507
1530	0.542988
1542	0.0504874
1554	0.0318568
1566	0.0294391
1578	0.0580249
1590	0.132405
1602	0.19427
1614	0.249735
1626	0.192848
1638	0.082202
1650	0.0291547
1662	0.015644
1674	0.00568872
1686	0.00071109
1698	0.00113774
1710	0.0155018
1722	0.0159284
1734	0.0113774
1746	0.0200527
1758	0.0219016
1770	0.0119463
1782	0.00611537
1794	0.00327101
1806	0.00796421
1818	0.00967082
1830	0.00910195
1842	0.0162129
1854	0.0305769
1866	0.030008
1878	0.0291547
1890	0.0166395
1902	0.0159284
1914	0.0125152
1926	0.00810643
1938	0.00782199
1950	0.00767977
1962	0.00810643
1974	0.0106663
1986	0.015644
1998	0.0150751
2010	0.00995526
2022	0.0086753
2034	0.00767977
2046	0.00597316
2058	0.00895973
2070	0.0106663
2082	0.0120885
2094	0.0136529
2106	0.0106663
2118	0.00696868
2130	0.00568872
2142	0.00383989
2154	0.00426654
2166	0.00440876
2178	0.00483541
2190	0.00440876
2202	0.00355545
2214	0.00383989
2226	0.00341323
2238	0.00369767
2250	0.00483541
2262	0.0055465
2274	0.00696868
2286	0.00654203
2298	0.00639981
2310	0.00767977
2322	0.012373
2334	0.0136529
2346	0.0116619
2358	0.0150751
2370	0.000284436
2382	0.000284436
2394	0.00497763
2406	0.00796421
2418	0.0173506
2430	0.0247459
2442	0.0147907
2454	0.00810643
2466	0.00682646
2478	0.00639981
2490	0.00810643
2502	0.0113774
2514	0.0102397
2526	0.00355545
2538	0.00270214
2550	0.00213327
2562	0.00241771
2574	0.00241771
2586	0.00412432
2598	0.0055465
2610	0.0039821
2622	0.00213327
2634	0.000995526
2646	0.000995526
2658	0.00184883
2670	0.00241771
2682	0.00597316
2694	0.00511985
2706	0.00284436
2718	0.00227549
2730	0.00611537
2742	0.0127996
2754	0.014364
2766	0.00696868
2778	0.00639981
2790	0.00497763
2802	0.00511985
2814	0.00739534
2826	0.0103819
2838	0.0155018
2850	0.0277325
2862	0.0607271
2874	0.128992
2886	0.144636
2898	0.103677
2910	0.107517
2922	0.172937
2934	0.24817
2946	0.199247
2958	0.104815
2970	0.0807798
2982	0.0767977
2994	0.0968505
3006	0.175497
3018	0.255424
3030	0.280738
3042	0.254001
3054	0.179479
3066	0.114912
3078	0.0755178
3090	0.0490652
3102	0.0305769
3114	0.0251726
3126	0.0203372
3138	0.0139374
3150	0.00895973
3162	0.00327101
3174	0.0015644
3186	0.00113774
3198	0.00241771
3210	0.000284436
3222	0.000426654
3234	0.00142218
3246	0.000568872
3258	0.00227549
3270	0.00213327
3282	0.000853308
3294	0.000995526
3306	0.00298658
3318	0.00199105
3330	0.00327101
3342	0.0055465
3354	0.00839086
3366	0.0106663
3378	0.00938639
3390	0.0105241
3402	0.00782199
3414	0.00725312
3426	0.00839086
3438	0.00753755
3450	0.00526207
3462	0.00568872
3474	0.0055465
3486	0.00511985
3498	0.00511985
3510	0.00597316
3522	0.00284436
3534	0.00455098
3546	0.00284436
3558	0.00426654
3570	0.000426654
3582	0.00440876
3594	0.00511985
3606	0.00881752
3618	0.0146485
3630	0.0436609
3642	0.242055
3654	0.507292
3666	0.361803
3678	0.0408166
3690	0.00597316
3702	0.00511985
3714	0.00255992
3726	0.00071109
3738	0.000284436
3750	0.000284436
3762	0.00327101
3774	0.00184883
3786	0.00369767
3798	0.00597316
3810	0.0031288
3822	0.000568872
3834	0.00227549
3846	0.00483541
3858	0.00497763
3870	0.00341323
3882	0.00071109
3894	0.00483541
3906	0.00597316
3918	0.00767977
3930	0.00497763
3942	0.0106663
3954	0.00639981
3966	0.00270214
