Infrared Spectrum: Oxacyclohexadecan-2-one
Formula: C 15 H 28 O 2
CAS: 106-02-5
Origin: Sadtler Research Labs Under US-EPA Contract
1/CM	ABSORBANCE
450	0
462	0.0123911
474	0.016374
486	0.0128337
498	0.011506
510	0.0108422
522	0.0105103
534	0.00984652
546	0.00807636
558	0.00995715
570	0.0088508
582	0.0125018
594	0.0129443
606	0.0123911
618	0.0117273
630	0.00874016
642	0.0085189
654	0.00862953
666	0.00874016
678	0.00962524
690	0.0122805
702	0.0192505
714	0.0267737
726	0.0251141
738	0.0214632
750	0.0179229
762	0.0158208
774	0.0161527
786	0.0190292
798	0.0234546
810	0.0212419
822	0.0185867
834	0.0164846
846	0.0154889
858	0.0152676
870	0.0181441
882	0.0192505
894	0.0191399
906	0.0198037
918	0.0204675
930	0.022127
942	0.0258886
954	0.0314203
966	0.0352926
978	0.0352926
990	0.0366202
1002	0.0493432
1014	0.0620662
1026	0.0622875
1038	0.0631726
1050	0.0719127
1062	0.0777764
1074	0.0783296
1086	0.0763381
1098	0.0846358
1110	0.10112
1122	0.084857
1134	0.118379
1146	0.175135
1158	0.205117
1170	0.21076
1182	0.164957
1194	0.150685
1206	0.16385
1218	0.187084
1230	0.203236
1242	0.194054
1254	0.157876
1266	0.129
1278	0.10112
1290	0.0869591
1302	0.0691469
1314	0.0575302
1326	0.0538792
1338	0.0722447
1350	0.0856315
1362	0.0704745
1374	0.0506708
1386	0.0505602
1398	0.0323054
1410	0.0268843
1422	0.0334118
1434	0.0593004
1446	0.0895037
1458	0.124686
1470	0.0999034
1482	0.0396073
1494	0.0182548
1506	0.0133868
1518	0.01394
1530	0.0101784
1542	0.0088508
1554	0.0142719
1566	0.0155995
1578	0.015157
1590	0.0108422
1602	0.00929334
1614	0.0138294
1626	0.0159314
1638	0.0165952
1650	0.0167059
1662	0.0190292
1674	0.0202462
1686	0.0235653
1698	0.0304246
1710	0.0505602
1722	0.0761169
1734	0.129111
1746	0.412337
1758	0.499185
1770	0.129885
1782	0.0693681
1794	0.0396073
1806	0.0267737
1818	0.02091
1830	0.017591
1842	0.0161527
1854	0.0152676
1866	0.0143826
1878	0.0143826
1890	0.0129443
1902	0.0130549
1914	0.0123911
1926	0.0126124
1938	0.0126124
1950	0.0122805
1962	0.0120592
1974	0.0112848
1986	0.0112848
1998	0.0109529
2010	0.0108422
2022	0.0107316
2034	0.0110635
2046	0.0105103
2058	0.0107316
2070	0.0101784
2082	0.0101784
2094	0.0100678
2106	0.00962524
2118	0.00962524
2130	0.00929334
2142	0.00929334
2154	0.00929334
2166	0.0091827
2178	0.00929334
2190	0.00896144
2202	0.00874016
2214	0.00896144
2226	0.00907207
2238	0.00896144
2250	0.00907207
2262	0.00896144
2274	0.00940398
2286	0.00951461
2298	0.0102891
2310	0.0107316
2322	0.0100678
2334	0.00951461
2346	0.0107316
2358	0.00962524
2370	0.0100678
2382	0.0101784
2394	0.00840826
2406	0.00840826
2418	0.00785508
2430	0.00818699
2442	0.00774445
2454	0.00774445
2466	0.00763382
2478	0.00796572
2490	0.00807636
2502	0.00818699
2514	0.0088508
2526	0.00929334
2538	0.0091827
2550	0.00940398
2562	0.00951461
2574	0.00984652
2586	0.0100678
2598	0.0108422
2610	0.0112848
2622	0.0118379
2634	0.0128337
2646	0.0138294
2658	0.0152676
2670	0.016374
2682	0.0183654
2694	0.0186973
2706	0.0168165
2718	0.0154889
2730	0.0154889
2742	0.0157102
2754	0.0165952
2766	0.0174803
2778	0.0183654
2790	0.0214632
2802	0.0263311
2814	0.031531
2826	0.0408243
2838	0.0528835
2850	0.116277
2862	0.397069
2874	0.339539
2886	0.162744
2898	0.185092
2910	0.372176
2922	0.614688
2934	1.08876
2946	0.780198
2958	0.389656
2970	0.23167
2982	0.126235
2994	0.0646108
3006	0.0371734
3018	0.0267737
3030	0.0213526
3042	0.0183654
3054	0.0164846
3066	0.0146038
3078	0.0133868
3090	0.0123911
3102	0.0119486
3114	0.011506
3126	0.0110635
3138	0.0107316
3150	0.0107316
3162	0.0103997
3174	0.00995715
3186	0.00995715
3198	0.00951461
3210	0.00940398
3222	0.00973588
3234	0.00907207
3246	0.00951461
3258	0.00896144
3270	0.00929334
3282	0.00862953
3294	0.00896144
3306	0.00862953
3318	0.00940398
3330	0.00940398
3342	0.0088508
3354	0.00962524
3366	0.00973588
3378	0.00951461
3390	0.00995715
3402	0.00951461
3414	0.00973588
3426	0.00984652
3438	0.00940398
3450	0.00962524
3462	0.00940398
3474	0.0101784
3486	0.011506
3498	0.00907207
3510	0.00785508
3522	0.00763382
3534	0.00862953
3546	0.00840826
3558	0.00829762
3570	0.00862953
3582	0.00907207
3594	0.0088508
3606	0.00907207
3618	0.00929334
3630	0.00940398
3642	0.00951461
3654	0.0100678
3666	0.0102891
3678	0.00984652
3690	0.00962524
3702	0.00940398
3714	0.00962524
3726	0.00951461
3738	0.00995715
3750	0.0102891
3762	0.0105103
3774	0.00940398
3786	0.0108422
3798	0.00940398
3810	0.00907207
3822	0.00995715
3834	0.0102891
3846	0.0091827
3858	0.00962524
3870	0.00973588
3882	0.00862953
3894	0.0102891
3906	0.00929334
3918	0.00940398
3930	0.00896144
3942	0.00929334
3954	0.00962524
3966	0.00973588
