Infrared Spectrum: Stannane, chlorotrimethyl-
Formula: C 3 H 9 Cl Sn
CAS: 1066-45-1
Origin: Sadtler Research Labs Under US-EPA Contract
1/CM	ABSORBANCE
450	0.00184335
462	0.0224747
474	0.02921
486	0.050054
498	0.0772788
510	0.152076
522	0.308406
534	0.57789
546	0.374838
558	0.0534571
570	0.0108474
582	0.0168737
594	0.0287137
606	0.0192134
618	0.0345982
630	0.0281465
642	0.0489905
654	0.0576401
666	0.0689838
678	0.0706853
690	0.0908203
702	0.123433
714	0.167532
726	0.187525
738	0.179585
750	0.259912
762	0.449777
774	0.645597
786	0.670553
798	0.519328
810	0.408869
822	0.319679
834	0.261472
846	0.167036
858	0.115918
870	0.0657224
882	0.0360871
894	0.0250979
906	0.0134706
918	0.00815327
930	0.00680621
942	0.00545915
954	0.00765698
966	0.0070898
978	0.00673531
990	0.00411208
1002	0.00850776
1014	0.00545915
1026	0.00900405
1038	0.00531735
1050	0.0100675
1062	0.00510466
1074	0.00226874
1086	0.0070898
1098	0.00269412
1110	0.00326131
1122	0.00482106
1134	0.00404119
1146	0.00595543
1158	0.0034031
1170	0.00553004
1182	0.0119109
1194	0.0369379
1206	0.0540952
1218	0.0216948
1230	0.00737339
1242	0.00872045
1254	0.00808237
1266	0.00815327
1278	0.00673531
1290	0.0071607
1302	0.0116982
1314	0.00935854
1326	0.0112728
1338	0.0134706
1350	0.0171573
1362	0.0163065
1374	0.0172991
1386	0.0236799
1398	0.0267994
1410	0.0255942
1422	0.0207731
1434	0.0184335
1446	0.0197805
1458	0.0250979
1470	0.0265159
1482	0.028501
1494	0.0294227
1506	0.0282174
1518	0.0229001
1530	0.0150304
1542	0.0124072
1554	0.0114855
1566	0.00652262
1578	0.00829507
1590	0.00467927
1602	0.00418298
1614	0.00411208
1626	0.00595543
1638	0.00581364
1650	0.00652262
1662	0.00418298
1674	0.00404119
1686	0.00864956
1698	0.0138251
1710	0.0249561
1722	0.0263032
1734	0.0248143
1746	0.0265159
1758	0.0168028
1770	0.0071607
1782	0.00226874
1794	0.00397029
1806	0.00205604
1818	0.00191425
1830	0.00241053
1842	0.00269412
1854	0.0035449
1866	0.00425388
1878	0.00510466
1890	0.00482106
1902	0.00460837
1914	0.00432478
1926	0.00510466
1938	0.00411208
1950	0.00319041
1962	0.00425388
1974	0.003474
1986	0.00638082
1998	0.00538825
2010	0.00609723
2022	0.00553004
2034	0.00453747
2046	0.00453747
2058	0.003474
2070	0.00326131
2082	0.00184335
2094	0.00255233
2106	0.00283592
2118	0.0036867
2130	0.00425388
2142	0.00467927
2154	0.00545915
2166	0.00404119
2178	0.00489196
2190	0.00304861
2202	0.00326131
2214	0.00311951
2226	0.00276502
2238	0.00439568
2250	0.00382849
2262	0.00609723
2274	0.00503376
2286	0.00567184
2298	0.00524645
2310	0.00503376
2322	0.00503376
2334	0.0036867
2346	0.00404119
2358	0.00148886
2370	0.0120527
2382	0.0219075
2394	0.0285719
2406	0.0143923
2418	0.00382849
2430	0.00333221
2442	0.00170155
2454	0.00226874
2466	0.000141796
2478	0.00191425
2490	0.000921674
2502	0.00120527
2514	0.00311951
2526	0.00113437
2538	0.00304861
2550	0.00241053
2562	0.00191425
2574	0.00148886
2586	0.00120527
2598	0.00134706
2610	0.00184335
2622	0.00134706
2634	0.00170155
2646	0.00326131
2658	0.00219784
2670	0.00326131
2682	0.00177245
2694	0.00170155
2706	0.00184335
2718	0
2730	0.00311951
2742	0.00163065
2754	0.00545915
2766	0.00843686
2778	0.0145341
2790	0.0175827
2802	0.0165901
2814	0.0165192
2826	0.0157394
2838	0.0184335
2850	0.0220493
2862	0.0294936
2874	0.0382849
2886	0.060476
2898	0.0964922
2910	0.155125
2922	0.217657
2934	0.206597
2946	0.135557
2958	0.0660769
2970	0.0458001
2982	0.0800438
2994	0.166965
3006	0.175898
3018	0.0820999
3030	0.0484942
3042	0.0572856
3054	0.0734503
3066	0.0752228
3078	0.0565057
3090	0.043815
3102	0.0256651
3114	0.022262
3126	0.0171573
3138	0.0170155
3150	0.0119109
3162	0.00886225
3174	0.00680621
3186	0.00496286
3198	0.00460837
3210	0.00389939
3222	0.00375759
3234	0.00219784
3246	0.00148886
3258	0.00276502
3270	0.00262323
3282	0.0036867
3294	0.00326131
3306	0.00446657
3318	0.00191425
3330	0.0036158
3342	0.000638082
3354	0.00198514
3366	0.000567184
3378	0.00134706
3390	0.00219784
3402	0.00177245
3414	0.00581364
3426	0.00389939
3438	0.00432478
3450	0.00524645
3462	0.00375759
3474	0.00382849
3486	0.00163065
3498	0.00205604
3510	0.00163065
3522	0.00510466
3534	0.00517555
3546	0.00822417
3558	0.00765698
3570	0.00815327
3582	0.00673531
3594	0.00680621
3606	0.00751519
3618	0.00531735
3630	0.00992572
3642	0.0100675
3654	0.0123363
3666	0.0112728
3678	0.0119818
3690	0.0123363
3702	0.0105638
3714	0.0113437
3726	0.0100675
3738	0.0100675
3750	0.00850776
3762	0.00815327
3774	0.00786968
3786	0.00666441
3798	0.00730249
3810	0.00609723
3822	0.00630992
3834	0.00262323
3846	0.00255233
3858	0.00326131
3870	0.000992572
3882	0.00333221
3894	0.00191425
3906	0.00198514
3918	0.00248143
3930	0.00134706
3942	0.00212694
3954	7.0898e-05
3966	7.0898e-05
