Infrared Spectrum: Dibutyltin diacetate
Formula: C 12 H 24 O 4 Sn
CAS: 1067-33-0
Origin: Sadtler Research Labs Under US-EPA Contract
1/CM	ABSORBANCE
450	0.0129265
462	0.00688848
474	0.0120761
486	0.0288296
498	0.0318911
510	0.031721
522	0.0260232
534	0.0250877
546	0.00212608
558	0.0153077
570	0.0169236
582	0.0267885
594	0.0362283
606	0.0453279
618	0.128925
630	0.0707558
642	0.0477942
654	0.0760284
666	0.120846
678	0.305985
690	0.667247
702	0.448942
714	0.0989901
726	0.0341873
738	0.0243223
750	0.0219411
762	0.015733
774	0.0169236
786	0.0181142
798	0.0204103
810	0.0168385
822	0.0143723
834	0.0131817
846	0.0185394
858	0.0246625
870	0.035548
882	0.0392899
894	0.023642
906	0.0181992
918	0.0260232
930	0.0407356
942	0.0745827
954	0.037589
966	0.0484745
978	0.0472839
990	0.0680344
1002	0.103497
1014	0.125949
1026	0.0769639
1038	0.0580844
1050	0.0616562
1062	0.0683746
1074	0.0723716
1086	0.0664186
1098	0.0370787
1110	0.0240672
1122	0.0200701
1134	0.0275539
1146	0.0449027
1158	0.0739024
1170	0.0852981
1182	0.0926118
1194	0.0892101
1206	0.0886148
1218	0.0820665
1230	0.0943127
1242	0.128925
1254	0.169831
1266	0.203423
1278	0.272988
1290	0.35548
1302	0.38618
1314	0.441288
1326	0.719124
1338	0.729499
1350	0.261252
1362	0.36645
1374	0.725672
1386	0.754501
1398	0.607972
1410	0.466036
1422	0.340342
1434	0.37657
1446	0.318316
1458	0.265334
1470	0.208355
1482	0.141852
1494	0.122207
1506	0.115148
1518	0.10792
1530	0.102052
1542	0.104008
1554	0.110641
1566	0.121271
1578	0.145253
1590	0.202743
1602	0.352673
1614	0.652705
1626	0.597257
1638	0.421643
1650	0.265419
1662	0.168555
1674	0.150611
1686	0.137685
1698	0.10792
1710	0.0838524
1722	0.0684596
1734	0.0589348
1746	0.0557882
1758	0.0706707
1770	0.0952482
1782	0.0877644
1794	0.0880195
1806	0.0867439
1818	0.0393749
1830	0.0115658
1842	0.00518762
1854	0.00484745
1866	0.00535771
1878	0.00510258
1890	0.00331668
1902	0.00272138
1914	0.00221112
1926	0.00323163
1938	0.00357181
1950	0.00246625
1962	0.00323163
1974	0.00229616
1986	0.00221112
1998	0.00297651
2010	0.00382694
2022	0.00442224
2034	0.00467737
2046	0.00459232
2058	0.00544275
2070	0.00246625
2082	0.000425215
2094	0.0017859
2106	0.00272138
2118	0.00255129
2130	0.00331668
2142	0.00272138
2154	0.00263633
2166	0.00289146
2178	0.00365685
2190	0.00382694
2202	0.00314659
2214	0.00374189
2226	0.00374189
2238	0.00357181
2250	0.00289146
2262	0.00314659
2274	0.00289146
2286	0.00306155
2298	0.00323163
2310	0.00263633
2322	0.00153077
2334	0.000425215
2346	0.00357181
2358	0
2370	0.00995003
2382	0.0096949
2394	0.00365685
2406	0.00263633
2418	0.00255129
2430	0.00314659
2442	0.00289146
2454	0.00195599
2466	0.00255129
2478	0.00289146
2490	0.00340172
2502	0.00323163
2514	0.00374189
2526	0.00399702
2538	0.00510258
2550	0.0061231
2562	0.00603805
2574	0.0067184
2586	0.00756883
2598	0.00824917
2610	0.00901456
2622	0.0090996
2634	0.00824917
2646	0.00884447
2658	0.0109705
2670	0.0085043
2682	0.00637823
2694	0.00748378
2706	0.00807908
2718	0.00918464
2730	0.0117359
2742	0.0148825
2754	0.0149676
2766	0.0146274
2778	0.0163283
2790	0.0201552
2802	0.0253428
2814	0.0321463
2826	0.0409057
2838	0.0532369
2850	0.0898054
2862	0.207165
2874	0.248666
2886	0.253598
2898	0.193303
2910	0.239821
2922	0.364579
2934	0.469097
2946	0.457276
2958	0.414585
2970	0.593855
2982	0.282003
2994	0.118635
3006	0.0722015
3018	0.0571489
3030	0.0481343
3042	0.0432869
3054	0.0369087
3066	0.031636
3078	0.0287445
3090	0.0252578
3102	0.0221112
3114	0.0173488
3126	0.0145424
3138	0.0124163
3150	0.0113958
3162	0.00986499
3174	0.00841926
3186	0.007909
3198	0.00773891
3210	0.00722866
3222	0.00569788
3234	0.00272138
3246	0.00212608
3258	0.00161582
3270	0.000510258
3282	0.0017859
3294	0.00195599
3306	0.00306155
3318	0.00263633
3330	0.00331668
3342	0.00331668
3354	0.00289146
3366	0.00382694
3378	0.00195599
3390	0.00246625
3402	0.00289146
3414	0.000680344
3426	0.00357181
3438	0.000340172
3450	0.000595301
3462	0.00187095
3474	0.000255129
3486	0.000510258
3498	0.00212608
3510	0.00263633
3522	0.00246625
3534	0.00382694
3546	0.0061231
3558	0.0155629
3570	0.0173488
3582	0.0224514
3594	0.0171787
3606	0.0142872
3618	0.00663335
3630	0.00535771
3642	0.00391198
3654	0.00416711
3666	0.00459232
3678	0.00535771
3690	0.00637823
3702	0.00680344
3714	0.00620814
3726	0.0061231
3738	0.00782396
3750	0.00569788
3762	0.00756883
3774	0.00773891
3786	0.00756883
3798	0.00773891
3810	0.0067184
3822	0.00629318
3834	0.00620814
3846	0.00697353
3858	0.00680344
3870	0.00620814
3882	0.00629318
3894	0.00595301
3906	0.00595301
3918	0.00484745
3930	0.00450728
3942	0.00527267
3954	0.00629318
3966	0.0073137
