Infrared Spectrum: 1,3-Butanediol
Formula: C 4 H 10 O 2
CAS: 107-88-0
Origin: Sadtler Research Labs Under US-EPA Contract
1/CM	ABSORBANCE
450	0.0888481
462	0.101355
474	0.107283
486	0.0945592
498	0.103451
510	0.0892819
522	0.0712809
534	0.052557
546	0.0357127
558	0.0282666
570	0.0290618
582	0.0180732
594	0.0187962
606	0.0164828
618	0.0137357
630	0.00968726
642	0.0092535
654	0.0072293
666	0.00939809
678	0.0062172
690	0.00498822
702	0.00462675
714	0.00448217
726	0.000289172
738	0.00390382
750	0.00730159
762	0.0120729
774	0.0280497
786	0.0313029
798	0.0297847
810	0.0231338
822	0.0232783
834	0.0432312
846	0.0707026
858	0.0839322
870	0.0729436
882	0.0788717
894	0.12485
906	0.154056
918	0.132368
930	0.0991137
942	0.104391
954	0.149502
966	0.187383
978	0.196131
990	0.178853
1002	0.180082
1014	0.190347
1026	0.247314
1038	0.380912
1050	0.511473
1062	0.595188
1074	0.648902
1086	0.650131
1098	0.575452
1110	0.496364
1122	0.414311
1134	0.31592
1146	0.233434
1158	0.179937
1170	0.160129
1182	0.164467
1194	0.170756
1206	0.173937
1218	0.179937
1230	0.190131
1242	0.199023
1254	0.20242
1266	0.199601
1278	0.192589
1290	0.177479
1302	0.155864
1314	0.136851
1326	0.134176
1338	0.147622
1350	0.167358
1362	0.21059
1374	0.301968
1386	0.368261
1398	0.3345
1410	0.284979
1422	0.237555
1434	0.184347
1446	0.132875
1458	0.110608
1470	0.0986077
1482	0.0779319
1494	0.0469904
1506	0.0218325
1518	0.0143863
1530	0.0120006
1542	0.00571115
1554	0.010121
1566	0.00744618
1578	0.0051328
1590	0.00498822
1602	0.0061449
1614	0.00433758
1626	0.00534968
1638	0.00224108
1650	0.00657866
1662	0.0061449
1674	0.00527739
1686	0.00122898
1698	0.00383153
1710	0.00484363
1722	0.00303631
1734	0.00397611
1746	0.00419299
1758	0.00383153
1770	0.0031086
1782	0.00296401
1794	0.00260255
1806	0.00361465
1818	0.00339777
1830	0.00296401
1842	0.00397611
1854	0.00267484
1866	0.00404841
1878	0.00448217
1890	0.00404841
1902	0.00426529
1914	0.00455446
1926	0.00404841
1938	0.00404841
1950	0.00274713
1962	0.0020242
1974	0.00195191
1986	0.00130127
1998	0.00159045
2010	0.00238567
2022	0.00281943
2034	0.00354236
2046	0.00339777
2058	0.00296401
2070	0.00238567
2082	0.00166274
2094	0.00137357
2106	0.000867516
2118	0.0010121
2130	0.000506051
2142	0.000795223
2154	0.000650637
2166	0.000867516
2178	0.000289172
2190	0.000433758
2202	0.00072293
2214	0.000939809
2226	0.000867516
2238	0.00108439
2250	0.00180732
2262	0.00151815
2274	0.00173503
2286	0.00426529
2298	0.00759076
2310	0.0106271
2322	0.00968726
2334	0.00881975
2346	0.0116392
2358	0.0116392
2370	0.00918121
2382	0.00853057
2394	0.00390382
2406	0.00296401
2418	0.00368694
2430	0.00419299
2442	0.00383153
2454	0.00375924
2466	0.00303631
2478	0.00318089
2490	0.00303631
2502	0.00281943
2514	0.00245796
2526	0.00267484
2538	0.00354236
2550	0.00332548
2562	0.00325318
2574	0.00426529
2586	0.0052051
2598	0.00556656
2610	0.00686783
2622	0.00853057
2634	0.0114946
2646	0.0147478
2658	0.0178564
2670	0.0193745
2682	0.0208927
2694	0.0211818
2706	0.0203143
2718	0.0213264
2730	0.0252303
2742	0.0301462
2754	0.0327487
2766	0.037014
2778	0.0433035
2790	0.050099
2802	0.0581959
2814	0.0707748
2826	0.0917398
2838	0.122031
2850	0.168443
2862	0.239145
2874	0.340283
2886	0.457181
2898	0.512919
2910	0.536776
2922	0.620852
2934	0.703628
2946	0.677891
2958	0.61984
2970	0.650276
2982	0.581019
2994	0.331753
3006	0.102439
3018	0.0299293
3030	0.0144586
3042	0.0101933
3054	0.00679554
3066	0.00368694
3078	0.00390382
3090	0.00375924
3102	0.00383153
3114	0.00332548
3126	0.00253025
3138	0.00296401
3150	0.0020965
3162	0.00173503
3174	0.00238567
3186	0.00303631
3198	0.00325318
3210	0.00224108
3222	0.00115669
3234	0.00137357
3246	0.00137357
3258	0.00296401
3270	0.00303631
3282	0.00462675
3294	0.00426529
3306	0.00498822
3318	0.00448217
3330	0.00455446
3342	0.00455446
3354	0.00506051
3366	0.00556656
3378	0.00318089
3390	0.00426529
3402	0.00556656
3414	0.00527739
3426	0.00780764
3438	0.00787994
3450	0.0100487
3462	0.00802452
3474	0.0061449
3486	0.00534968
3498	0.00448217
3510	0.00440987
3522	0.00534968
3534	0.00802452
3546	0.00983185
3558	0.0134465
3570	0.0334717
3582	0.118054
3594	0.253098
3606	0.286859
3618	0.200324
3630	0.123115
3642	0.12232
3654	0.173214
3666	0.209577
3678	0.1649
3690	0.0769198
3702	0.028628
3714	0.0111331
3726	0.0110608
3738	0.00686783
3750	0.0062172
3762	0.0117115
3774	0.00585573
3786	0.00469904
3798	0.00260255
3810	0.0031086
3822	0.00274713
3834	0.00534968
3846	0.00491592
3858	0.00253025
3870	0.00484363
3882	0.00896433
3894	0.00469904
3906	0.00491592
3918	0.0061449
3930	0.00556656
3942	0.00274713
3954	0.00159045
3966	0.00563885
