Infrared Spectrum: Disiloxane, hexamethyl-
Formula: C 6 H 18 O Si 2
CAS: 107-46-0
Origin: Sadtler Research Labs Under US-EPA Contract
1/CM	ABSORBANCE
450	0.00107813
462	0.00152735
474	0.00619924
486	0.00601955
498	0.00682814
510	0.00422267
522	0.00278516
534	0.00323438
546	0.00790627
558	0.00799612
570	0.00718752
582	0.00566017
594	0.00341407
606	0.0135664
618	0.0300079
630	0.00844534
642	0.00772658
654	0.0100625
666	0.0163516
678	0.027672
690	0.0493244
702	0.0383634
714	0.029379
726	0.0284805
738	0.0433048
750	0.0775354
762	0.112125
774	0.0775354
786	0.0498634
798	0.0628908
810	0.114821
822	0.246981
834	0.375458
846	0.540591
858	0.451915
870	0.185977
882	0.0913713
894	0.0555236
906	0.0382735
918	0.0267735
930	0.0168907
942	0.0133868
954	0.0107813
966	0.0111407
978	0.0159922
990	0.0209337
1002	0.0384532
1014	0.06334
1026	0.0889456
1038	0.147704
1050	0.329368
1062	0.735643
1074	0.83537
1086	0.301966
1098	0.106645
1110	0.0654064
1122	0.0571408
1134	0.0554337
1146	0.0482462
1158	0.0275821
1170	0.0132071
1182	0.00844534
1194	0.00880471
1206	0.00826565
1218	0.012668
1230	0.0239883
1242	0.0831057
1254	0.281661
1266	0.343563
1278	0.102153
1290	0.0362071
1302	0.025336
1314	0.0158125
1326	0.0104219
1338	0.00961331
1350	0.00862502
1362	0.00961331
1374	0.00853518
1386	0.0121289
1398	0.0141954
1410	0.0201251
1422	0.0185079
1434	0.014375
1446	0.017879
1458	0.0188672
1470	0.00952346
1482	0.0053008
1494	0.00727736
1506	0.00781643
1518	0.00691799
1530	0.00521095
1542	0.00763674
1554	0.00772658
1566	0.00862502
1578	0.0201251
1590	0.0152735
1602	0.0059297
1614	0.00395314
1626	0.00395314
1638	0.00521095
1650	0.00404298
1662	0.00386329
1674	0.00386329
1686	0.00646877
1698	0.0059297
1710	0.00404298
1722	0.00494142
1734	0.00808596
1746	0.00655861
1758	0.00341407
1770	0.00458204
1782	0.00314454
1794	0.00422267
1806	0.00269532
1818	0.00269532
1830	0.00242579
1842	0.00170704
1854	0.00296485
1866	0.00350392
1878	0.00422267
1890	0.00404298
1902	0.00314454
1914	0.0036836
1926	0.00494142
1938	0.00619924
1950	0.0053008
1962	0.00521095
1974	0.00386329
1986	0.00359376
1998	0.00377345
2010	0.0030547
2022	0.00314454
2034	0.00215626
2046	0.0030547
2058	0.000179688
2070	0.00170704
2082	0.0022461
2094	0.00332423
2106	0.00494142
2118	0.00287501
2130	0.0030547
2142	0.00260548
2154	0.00431251
2166	0.00359376
2178	0.00269532
2190	0.00323438
2202	0.00170704
2214	0.00350392
2226	0.00206641
2238	0.00233594
2250	0.00161719
2262	0.00206641
2274	0.00188672
2286	0.00170704
2298	0.00323438
2310	0.00179688
2322	0.00404298
2334	0.00458204
2346	0.00440236
2358	0.00601955
2370	0.0053008
2382	0.00431251
2394	0.00152735
2406	0.00314454
2418	0.000269532
2430	0.00179688
2442	0.0022461
2454	0.00170704
2466	0.00197657
2478	0.000988284
2490	0.00179688
2502	0.00188672
2514	0.00197657
2526	0.00125782
2538	0.00197657
2550	0.00161719
2562	0.00152735
2574	0.00269532
2586	0.00134766
2598	0.00296485
2610	0.00233594
2622	0.00350392
2634	0.00323438
2646	0.00188672
2658	0.0036836
2670	0.0014375
2682	0.0030547
2694	0.000539064
2706	0.00215626
2718	0.00089844
2730	0.00179688
2742	0.00170704
2754	0.00152735
2766	0.00332423
2778	0.00422267
2790	0.00682814
2802	0.00808596
2814	0.00961331
2826	0.0104219
2838	0.0115
2850	0.0130274
2862	0.0132071
2874	0.015543
2886	0.0198555
2898	0.0329727
2910	0.0413282
2922	0.0285704
2934	0.0244376
2946	0.0463595
2958	0.187504
2970	0.216524
2982	0.0613635
2994	0.0200352
3006	0.0141954
3018	0.0116797
3030	0.0108711
3042	0.0134766
3054	0.012668
3066	0.0139258
3078	0.0122188
3090	0.0116797
3102	0.00970315
3114	0.0101524
3126	0.00988284
3138	0.00655861
3150	0.00539064
3162	0.00296485
3174	0.00476173
3186	0.00332423
3198	0.00341407
3210	0.00494142
3222	0.00422267
3234	0.00431251
3246	0.00377345
3258	0.0030547
3270	0.00269532
3282	0.00341407
3294	0.00404298
3306	0.00269532
3318	0.00206641
3330	0.000628908
3342	0.00233594
3354	0.00197657
3366	0.00134766
3378	0.00296485
3390	0.00260548
3402	0.00125782
3414	0.00152735
3426	0.00179688
3438	0
3450	0.00170704
3462	0.0030547
3474	0.00170704
3486	0.00323438
3498	0.00314454
3510	0.00206641
3522	0.0030547
3534	0.00278516
3546	0.00179688
3558	0.00287501
3570	0.00485158
3582	0.00341407
3594	0.00512111
3606	0.0030547
3618	0.00350392
3630	0.00610939
3642	0.00548048
3654	0.00566017
3666	0.00377345
3678	0.00548048
3690	0.00521095
3702	0.00476173
3714	0.00763674
3726	0.00628908
3738	0.00808596
3750	0.00952346
3762	0.0075469
3774	0.00646877
3786	0.00736721
3798	0.0075469
3810	0.00781643
3822	0.00790627
3834	0.00539064
3846	0.00512111
3858	0.0053008
3870	0.00476173
3882	0.00494142
3894	0.00404298
3906	0.00278516
3918	0.00323438
3930	0.00386329
3942	0.00476173
3954	0.0030547
3966	0.00323438
