Infrared Spectrum: Hexylene Glycol
Formula: C 6 H 14 O 2
CAS: 107-41-5
Origin: Sadtler Research Labs Under US-EPA Contract
1/CM	ABSORBANCE
450	0.00697271
462	0.0191187
474	0.0379
486	0.0345261
498	0.0238422
510	0.0291279
522	0.0223801
534	0.0141703
546	0.00494837
558	0.0338514
570	0.0271036
582	0.0193436
594	0.0185564
606	0.0174318
618	0.0176567
630	0.019681
642	0.0175442
654	0.0156324
666	0.0151825
678	0.0151825
690	0.0154074
702	0.0107964
714	0.0137205
726	0.010684
738	0.0145077
750	0.036438
762	0.0509457
774	0.0382374
786	0.0222677
798	0.0158573
810	0.0210306
822	0.0513956
834	0.0981802
846	0.0909826
858	0.056119
870	0.0662407
882	0.101442
894	0.165658
906	0.231561
918	0.170719
930	0.0987425
942	0.104816
954	0.102566
966	0.0917698
978	0.0802986
990	0.0600552
1002	0.0543196
1014	0.0596054
1026	0.0932318
1038	0.144627
1050	0.156436
1062	0.147439
1074	0.146877
1086	0.153737
1098	0.182527
1110	0.212892
1122	0.263276
1134	0.340763
1146	0.425897
1158	0.501473
1170	0.468633
1182	0.332666
1194	0.23696
1206	0.214017
1218	0.234935
1230	0.254954
1242	0.223464
1254	0.174205
1266	0.155761
1278	0.173868
1290	0.206257
1302	0.214017
1314	0.190287
1326	0.158573
1338	0.141029
1350	0.165433
1362	0.281832
1374	0.486965
1386	0.536111
1398	0.346274
1410	0.225713
1422	0.169257
1434	0.1155
1446	0.114937
1458	0.146427
1470	0.137655
1482	0.0846846
1494	0.0373377
1506	0.0233923
1518	0.0149576
1530	0.00719763
1542	0.0125959
1554	0.00461098
1566	0.00326143
1578	0.00584808
1590	0.00269911
1602	0.00224926
1614	0.00584808
1626	0.00224926
1638	0.00764748
1650	0.00326143
1662	0.00269911
1674	0.00461098
1686	0.00955936
1698	0.00618547
1710	0.00337389
1722	0.0039362
1734	0.00461098
1746	0.00292404
1758	0.000674778
1770	0.00382374
1782	0.00292404
1794	0.00427359
1806	0.00348635
1818	0.00202433
1830	0.00281157
1842	0.00123709
1854	0.00191187
1866	0.00191187
1878	0.00191187
1890	0.00292404
1902	0.0021368
1914	0.00157448
1926	0.00146202
1938	0.00157448
1950	0.00157448
1962	0.00157448
1974	0.00134956
1986	0.00168695
1998	0.00146202
2010	0.00146202
2022	0.000787241
2034	0.00168695
2046	0.00191187
2058	0.00179941
2070	0.00236172
2082	0.00179941
2094	0.00179941
2106	0.00179941
2118	0.00236172
2130	0.00337389
2142	0.00292404
2154	0.00258665
2166	0.00191187
2178	0.00179941
2190	0.00191187
2202	0.00168695
2214	0.00236172
2226	0.00224926
2238	0.00269911
2250	0.00292404
2262	0.0030365
2274	0.00314896
2286	0.00292404
2298	0.00281157
2310	0.00134956
2322	0.00191187
2334	0.00202433
2346	0.0021368
2358	0.00134956
2370	0.00202433
2382	0.00202433
2394	0.00281157
2406	0.00292404
2418	0.00314896
2430	0.00314896
2442	0.00326143
2454	0.00281157
2466	0.00191187
2478	0.00123709
2490	0.00101217
2502	0.00101217
2514	0.00101217
2526	0.00112463
2538	0.00101217
2550	0.00168695
2562	0.00202433
2574	0.00269911
2586	0.00269911
2598	0.00314896
2610	0.00348635
2622	0.0039362
2634	0.00573561
2646	0.00652285
2658	0.00809734
2670	0.00832226
2682	0.00674778
2694	0.00596054
2706	0.00562315
2718	0.00764748
2730	0.0111338
2742	0.0124834
2754	0.0130457
2766	0.0127083
2778	0.013608
2790	0.0160822
2802	0.0230549
2814	0.0328392
2826	0.043973
2838	0.0560066
2850	0.066803
2862	0.0981802
2874	0.182078
2886	0.268449
2898	0.316021
2910	0.372365
2922	0.428372
2934	0.512044
2946	0.455363
2958	0.431183
2970	0.847521
2982	1.07368
2994	0.506871
3006	0.102454
3018	0.0312647
3030	0.013608
3042	0.00719763
3054	0.00404867
3066	0.00348635
3078	0.00236172
3090	0.00382374
3102	0.0039362
3114	0.00382374
3126	0.00236172
3138	0.00134956
3150	0.00247419
3162	0.00236172
3174	0.00326143
3186	0.0051733
3198	0.00719763
3210	0.00551069
3222	0.00539822
3234	0.00382374
3246	0.00247419
3258	0.000899704
3270	0.00247419
3282	0.00292404
3294	0.00326143
3306	0.00269911
3318	0.00191187
3330	0.00337389
3342	0.00337389
3354	0.0030365
3366	0.00224926
3378	0.00348635
3390	0.00573561
3402	0.00686024
3414	0.00731009
3426	0.00798487
3438	0.00753502
3450	0.0113588
3462	0.00764748
3474	0.00719763
3486	0.00674778
3498	0.00584808
3510	0.0103466
3522	0.0159697
3534	0.0262039
3546	0.0398119
3558	0.0836725
3570	0.246294
3582	0.450977
3594	0.370116
3606	0.170044
3618	0.0930069
3630	0.085247
3642	0.100429
3654	0.0886208
3666	0.0462223
3678	0.0149576
3690	0.00596054
3702	0.00123709
3714	0.00202433
3726	0.00292404
3738	0.000112463
3750	0.00629793
3762	0.000112463
3774	0.00202433
3786	0.000112463
3798	0
3810	0.000112463
3822	0.00157448
3834	0.000112463
3846	0.00123709
3858	0.0021368
3870	0.00202433
3882	0.00326143
3894	0.00247419
3906	0.000224926
3918	0.00202433
3930	0.00247419
3942	0.000224926
3954	0.00427359
3966	0.00123709
