Infrared Spectrum: 1,2-Ethanediol
Formula: C 2 H 6 O 2
CAS: 107-21-1
Origin: Sadtler Research Labs Under US-EPA Contract
1/CM	ABSORBANCE
450	0.0719072
462	0.00887365
474	0.025091
486	0.0276409
498	0.0482441
510	0.0880225
522	0.0948563
534	0.0961822
546	0.0546699
558	0.0396764
570	0.0274369
582	0.0351886
594	0.0219291
606	0.026723
618	0.0225411
630	0.0233571
642	0.024785
654	0.0234591
666	0.0269269
678	0.024275
690	0.0233571
702	0.0231531
714	0.0211132
726	0.0168293
738	0.0198892
750	0.0162174
762	0.0189713
774	0.0121375
786	0.0190733
798	0.0270289
810	0.0345766
822	0.0527319
834	0.0953663
846	0.174719
858	0.255296
870	0.303132
882	0.289363
894	0.189203
906	0.101588
918	0.0658894
930	0.0556898
942	0.0530379
954	0.0553838
966	0.0653794
978	0.0852687
990	0.116785
1002	0.204604
1014	0.416246
1026	0.738145
1038	0.916842
1050	0.994461
1062	0.888691
1074	0.714992
1086	0.626765
1098	0.540681
1110	0.397784
1122	0.229389
1134	0.134941
1146	0.124945
1158	0.137797
1170	0.146874
1182	0.145038
1194	0.135757
1206	0.133513
1218	0.139021
1230	0.149832
1242	0.166355
1254	0.180737
1266	0.182981
1278	0.175739
1290	0.158706
1302	0.139735
1314	0.132187
1326	0.138511
1338	0.158094
1350	0.184511
1362	0.218883
1374	0.245096
1386	0.252032
1398	0.228879
1410	0.178697
1422	0.127699
1434	0.0961822
1446	0.0903685
1458	0.0808828
1470	0.0802709
1482	0.0781289
1494	0.0416144
1506	0.024377
1518	0.0173393
1530	0.0149934
1542	0.0109136
1554	0.00846567
1566	0.00744571
1578	0.00305988
1590	0.0050998
1602	0.00387585
1614	0.00275389
1626	0.00214192
1638	0.00193792
1650	0.00173393
1662	0.00407984
1674	0.00203992
1686	0.00316188
1698	0.0025499
1710	0.0049978
1722	0.00489581
1734	0.00530379
1746	0.00713972
1758	0.00571178
1770	0.00397784
1782	0.00336587
1794	0.00203992
1806	0.00193792
1818	0.00152994
1830	0.00142794
1842	0.00193792
1854	0.0026519
1866	0.00428383
1878	0.00591577
1890	0.0077517
1902	0.00938363
1914	0.0111176
1926	0.0117295
1938	0.0110156
1950	0.0103016
1962	0.00826168
1974	0.00642575
1986	0.00377385
1998	0.00214192
2010	0.00152994
2022	0.00234591
2034	0.0024479
2046	0.00346786
2058	0.00448782
2070	0.00652774
2082	0.00836367
2094	0.00989361
2106	0.00938363
2118	0.00846567
2130	0.00744571
2142	0.00611976
2154	0.0052018
2166	0.00469182
2178	0.00397784
2190	0.00346786
2202	0.00326387
2214	0.00305988
2226	0.00346786
2238	0.00346786
2250	0.00356986
2262	0.00367186
2274	0.00387585
2286	0.00418184
2298	0.00469182
2310	0.0049978
2322	0.00397784
2334	0.00305988
2346	0.00316188
2358	0.00234591
2370	0.0049978
2382	0.00683373
2394	0.00713972
2406	0.00744571
2418	0.00785369
2430	0.00805768
2442	0.00785369
2454	0.0075477
2466	0.00724172
2478	0.00683373
2490	0.00683373
2502	0.00785369
2514	0.00734371
2526	0.0076497
2538	0.00856766
2550	0.00826168
2562	0.00805768
2574	0.00815968
2586	0.00734371
2598	0.0077517
2610	0.0077517
2622	0.00866966
2634	0.0101996
2646	0.0114236
2658	0.0140754
2670	0.0172373
2682	0.0203992
2694	0.024479
2706	0.0286609
2718	0.0324347
2730	0.0370245
2742	0.0407984
2754	0.0427363
2766	0.0448782
2778	0.0490601
2790	0.052222
2802	0.0592597
2814	0.0706832
2826	0.0904705
2838	0.124639
2850	0.186347
2862	0.269881
2874	0.367186
2886	0.424915
2898	0.419306
2910	0.455922
2922	0.523647
2934	0.648287
2946	0.680721
2958	0.579847
2970	0.441031
2982	0.268045
2994	0.134839
3006	0.0629315
3018	0.0296808
3030	0.0162174
3042	0.0120355
3054	0.00989361
3066	0.00795569
3078	0.0075477
3090	0.00744571
3102	0.00744571
3114	0.00560978
3126	0.00489581
3138	0.00418184
3150	0.00316188
3162	0.00356986
3174	0.00346786
3186	0.00428383
3198	0.00591577
3210	0.00469182
3222	0.00591577
3234	0.00560978
3246	0.00744571
3258	0.00826168
3270	0.00805768
3282	0.00897565
3294	0.00856766
3306	0.00846567
3318	0.0077517
3330	0.00897565
3342	0.00826168
3354	0.00734371
3366	0.00724172
3378	0.00805768
3390	0.00846567
3402	0.00815968
3414	0.00826168
3426	0.00907764
3438	0.00815968
3450	0.00928164
3462	0.0120355
3474	0.0118315
3486	0.0115255
3498	0.0120355
3510	0.00958762
3522	0.0075477
3534	0.00744571
3546	0.00917964
3558	0.0109136
3570	0.0174413
3582	0.0271309
3594	0.0495701
3606	0.0932243
3618	0.1482
3630	0.184103
3642	0.222453
3654	0.235203
3666	0.232857
3678	0.225921
3690	0.179717
3702	0.130351
3714	0.0669094
3726	0.0324347
3738	0.0193792
3750	0.00713972
3762	0.00652774
3774	0.00948563
3786	0.0121375
3798	0.00713972
3810	0.00826168
3822	0.0052018
3834	0.00805768
3846	0
3858	0.00550778
3870	0.00958762
3882	0.00948563
3894	0.00897565
3906	0.00744571
3918	0.00826168
3930	0.00683373
3942	0.00917964
3954	0.00877166
3966	0.0105056
