Infrared Spectrum: 2-Pentene, 2,4,4-trimethyl-
Formula: C 8 H 16
CAS: 107-40-4
Origin: Sadtler Research Labs Under US-EPA Contract
1/CM	ABSORBANCE
450	0.00370505
462	0.00212495
474	0.00136215
486	0.00212495
498	0.00223393
510	0.00119869
522	0.000926262
534	0.00130766
546	0.00130766
558	0.00365056
570	0.00321467
582	0.00141664
594	0.00103523
606	0.00130766
618	0.000871776
630	0.00136215
642	0.00103523
654	0.00136215
666	0.000926262
678	0.00130766
690	0.00158009
702	0.00152561
714	0.00130766
726	0.00125318
738	0.00174355
750	0.00294224
762	0.00370505
774	0.00321467
786	0.00321467
798	0.0054486
810	0.0160734
822	0.0299128
834	0.0265892
846	0.0160189
858	0.0102434
870	0.00702869
882	0.00599346
894	0.00800944
906	0.00882673
918	0.0130222
930	0.0138939
942	0.00975299
954	0.00675626
966	0.00637486
978	0.00773701
990	0.00790047
1002	0.00686524
1014	0.00953505
1026	0.0140574
1038	0.0128587
1050	0.00975299
1062	0.0200508
1074	0.0355249
1086	0.025445
1098	0.00828187
1110	0.00430439
1122	0.00381402
1134	0.00566654
1146	0.0128587
1158	0.0179804
1170	0.0112786
1182	0.0105703
1194	0.0190156
1206	0.0286596
1218	0.0367236
1230	0.0350345
1242	0.0239194
1254	0.0208681
1266	0.0193425
1278	0.0121504
1290	0.00648383
1302	0.0050672
1314	0.00512168
1326	0.00561206
1338	0.00849982
1350	0.0262623
1362	0.0742644
1374	0.0945877
1386	0.0652197
1398	0.0472938
1410	0.0299128
1422	0.0222848
1434	0.0336723
1446	0.0533418
1458	0.0695241
1470	0.0773156
1482	0.0623865
1494	0.0333999
1506	0.0148747
1518	0.0100254
1530	0.00828187
1542	0.00653832
1554	0.00664729
1566	0.00588449
1578	0.00539411
1590	0.00539411
1602	0.00484925
1614	0.00484925
1626	0.00588449
1638	0.0089357
1650	0.011769
1662	0.0116055
1674	0.00844533
1686	0.00332365
1698	0.0023429
1710	0.00190701
1722	0.00163458
1734	0.00179804
1746	0.00158009
1758	0.00152561
1770	0.000980748
1782	0.00141664
1794	0.00141664
1806	0.00125318
1818	0.00130766
1830	0.00081729
1842	0.00141664
1854	0.00119869
1866	0.000762804
1878	0.000708318
1890	0.00103523
1902	0.00108972
1914	0.000708318
1926	0.000762804
1938	0.00108972
1950	0.00108972
1962	0.00108972
1974	0.00108972
1986	0.000599346
1998	0.00054486
2010	0.000599346
2022	0.000599346
2034	0.000599346
2046	5.4486e-05
2058	0
2070	5.4486e-05
2082	0.000108972
2094	5.4486e-05
2106	0.00027243
2118	0.00054486
2130	0.000435888
2142	0
2154	0.000435888
2166	0.000435888
2178	0.000435888
2190	0.000435888
2202	0.000435888
2214	0.000217944
2226	0
2238	0
2250	0
2262	0.000490374
2274	0.000381402
2286	0.00103523
2298	0.00114421
2310	0.000762804
2322	0.000490374
2334	0.000326916
2346	0.000871776
2358	0.000599346
2370	0.00152561
2382	0.00185252
2394	0.00136215
2406	0.00136215
2418	0.00130766
2430	0.000871776
2442	0.000871776
2454	0.000871776
2466	0.000871776
2478	0.000871776
2490	0.000871776
2502	0.00141664
2514	0.00136215
2526	0.00190701
2538	0.00185252
2550	0.00190701
2562	0.00190701
2574	0.00136215
2586	0.00185252
2598	0.00185252
2610	0.00185252
2622	0.00190701
2634	0.00190701
2646	0.00190701
2658	0.00190701
2670	0.00185252
2682	0.0023429
2694	0.00283327
2706	0.00457682
2718	0.0085543
2730	0.0122049
2742	0.0130766
2754	0.00997094
2766	0.00833636
2778	0.0077915
2790	0.00975299
2802	0.0133491
2814	0.0168362
2826	0.0218489
2838	0.0308391
2850	0.0547584
2862	0.123956
2874	0.215983
2886	0.228351
2898	0.215819
2910	0.252052
2922	0.303433
2934	0.317599
2946	0.345169
2958	0.470705
2970	0.54486
2982	0.375191
2994	0.175717
3006	0.0823828
3018	0.0628224
3030	0.0501816
3042	0.0386306
3054	0.0328551
3066	0.0277334
3078	0.0226662
3090	0.0174355
3102	0.0137305
3114	0.01166
3126	0.0107337
3138	0.00920813
3150	0.00822739
3162	0.00773701
3174	0.00724664
3186	0.00713767
3198	0.00632038
3210	0.00583
3222	0.00533963
3234	0.00479477
3246	0.00430439
3258	0.00403196
3270	0.00288776
3282	0.0023429
3294	0.00212495
3306	0.00190701
3318	0.00185252
3330	0.00141664
3342	0.00141664
3354	0.00163458
3366	0.00136215
3378	0.000871776
3390	0.000871776
3402	0.000871776
3414	0.00119869
3426	0.000926262
3438	0.000871776
3450	0.000871776
3462	0.000599346
3474	0.00054486
3486	0.000381402
3498	0.000381402
3510	0.00081729
3522	0.000708318
3534	0.000435888
3546	0.000435888
3558	0
3570	0
3582	0
3594	0
3606	0
3618	0
3630	5.4486e-05
3642	0
3654	0.000435888
3666	0
3678	0.00027243
3690	0
3702	5.4486e-05
3714	0.000381402
3726	0
3738	5.4486e-05
3750	5.4486e-05
3762	0.000381402
3774	0.000217944
3786	5.4486e-05
3798	0
3810	0
3822	5.4486e-05
3834	0
3846	0
3858	0.000326916
3870	0
3882	0.000381402
3894	0.00130766
3906	0.00130766
3918	0.00027243
3930	0.00081729
3942	0.000762804
3954	0.000871776
3966	0.000871776
