Infrared Spectrum: 1-Hexyn-3-ol, 3,5-dimethyl-
Formula: C 8 H 14 O
CAS: 107-54-0
Origin: Sadtler Research Labs Under US-EPA Contract
1/CM	ABSORBANCE
450	0.039159
462	0.021691
474	0.0109415
486	0.00892595
498	0.0108455
510	0.021595
522	0.0182358
534	0.021979
546	0.0441499
558	0.102121
570	0.0781261
582	0.0449177
594	0.0525959
606	0.0725594
618	0.150494
630	0.511659
642	0.440539
654	0.468277
666	0.195507
678	0.0355119
690	0.0214031
702	0.0200594
714	0.0381033
726	0.0292733
738	0.0190996
750	0.0167961
762	0.00681444
774	0.00451097
786	0.00623857
798	0.00403108
810	0.0112294
822	0.0155484
834	0.0256261
846	0.0275457
858	0.0508683
870	0.0453016
882	0.0240905
894	0.0248583
906	0.0637294
918	0.169881
930	0.228332
942	0.148766
954	0.0625777
966	0.0460694
978	0.0548034
990	0.0420384
1002	0.0301371
1014	0.0501005
1026	0.117669
1038	0.190036
1050	0.183702
1062	0.142143
1074	0.111334
1086	0.125923
1098	0.142431
1110	0.147422
1122	0.152125
1134	0.210768
1146	0.298012
1158	0.351184
1170	0.342929
1182	0.21787
1194	0.133409
1206	0.100873
1218	0.0910831
1230	0.0972257
1242	0.141184
1254	0.255973
1266	0.234378
1278	0.163067
1290	0.174008
1302	0.20021
1314	0.226604
1326	0.212975
1338	0.198099
1350	0.208464
1362	0.24388
1374	0.260676
1386	0.204721
1398	0.110663
1410	0.0508683
1422	0.0453016
1434	0.0648811
1446	0.108551
1458	0.14675
1470	0.154429
1482	0.0973217
1494	0.0373354
1506	0.0202514
1518	0.0159323
1530	0.0110375
1542	0.00489488
1554	0.00412705
1566	0.00691042
1578	0.008734
1590	0.00595064
1602	0.00921389
1614	0.0105576
1626	0.00969378
1638	0.0102696
1650	0.00729433
1662	0.0047989
1674	0.0065265
1686	0.00739031
1698	0.0122852
1710	0.013245
1722	0.0126691
1734	0.0119972
1746	0.0117093
1758	0.0101737
1770	0.0095978
1782	0.00911791
1794	0.0106536
1806	0.00758226
1818	0.00345521
1830	0.00249543
1842	0.00201554
1854	0.00163163
1866	0.00201554
1878	0.00220749
1890	0.00143967
1902	0.00153565
1914	0.00124771
1926	0.0017276
1938	0.00105576
1950	0.000671846
1962	0.00124771
1974	0.00143967
1986	0.0017276
1998	0.00134369
2010	0.00124771
2022	0.00047989
2034	0.000767824
2046	9.5978e-05
2058	0.000575868
2070	0.000287934
2082	0.00124771
2094	0.0017276
2106	0.00287934
2118	0.00326325
2130	0.00191956
2142	0.000767824
2154	0.000671846
2166	0.000767824
2178	0.000383912
2190	0.00124771
2202	0.00249543
2214	0.00201554
2226	0.00153565
2238	0.00115174
2250	0.00143967
2262	0.00201554
2274	0.00249543
2286	0.00345521
2298	0.00441499
2310	0.00585466
2322	0.0047989
2334	0.00585466
2346	0.00978976
2358	0.00412705
2370	0.00882998
2382	0.00585466
2394	0.00249543
2406	0.00259141
2418	0.00316727
2430	0.00355119
2442	0.00287934
2454	0.00259141
2466	0.00230347
2478	0.00201554
2490	0.00182358
2502	0.00239945
2514	0.00259141
2526	0.00278336
2538	0.0030713
2550	0.00297532
2562	0.00316727
2574	0.00355119
2586	0.00470292
2598	0.00508683
2610	0.00623857
2622	0.00643053
2634	0.00691042
2646	0.00719835
2658	0.00710237
2670	0.00844606
2682	0.00854204
2694	0.00930987
2706	0.00921389
2718	0.0128611
2730	0.0190036
2742	0.0184278
2754	0.0144927
2766	0.0149726
2778	0.0165082
2790	0.0166042
2802	0.0201554
2814	0.0288894
2826	0.0381992
2838	0.0510603
2850	0.0730393
2862	0.104424
2874	0.247623
2886	0.343313
2898	0.26106
2910	0.340914
2922	0.46175
2934	0.615987
2946	0.650443
2958	0.771087
2970	0.909104
2982	0.627696
2994	0.475763
3006	0.191476
3018	0.0547075
3030	0.0254342
3042	0.0167961
3054	0.0133409
3066	0.0128611
3078	0.0125731
3090	0.0113254
3102	0.00988573
3114	0.00988573
3126	0.0105576
3138	0.0113254
3150	0.0113254
3162	0.0124771
3174	0.0136289
3186	0.0136289
3198	0.0123812
3210	0.0116133
3222	0.00950182
3234	0.00882998
3246	0.00739031
3258	0.00758226
3270	0.0114214
3282	0.0250503
3294	0.060946
3306	0.137057
3318	0.333332
3330	0.423071
3342	0.103176
3354	0.02601
3366	0.0164122
3378	0.00902193
3390	0.00835009
3402	0.00854204
3414	0.00882998
3426	0.0056627
3438	0.00441499
3450	0.00383912
3462	0.0039351
3474	0.00585466
3486	0.00451097
3498	0.00527879
3510	0.00460694
3522	0.00460694
3534	0.00422303
3546	0.00316727
3558	0.00335923
3570	0.00191956
3582	0.00700639
3594	0.00460694
3606	0.00719835
3618	0.0144927
3630	0.0739031
3642	0.177847
3654	0.0885877
3666	0.0236106
3678	0.00815813
3690	0.00105576
3702	0.00422303
3714	0.00335923
3726	0.00412705
3738	0.00335923
3750	0.00115174
3762	0.00719835
3774	0.00777422
3786	0.00623857
3798	0.00623857
3810	0.0121892
3822	0.00575868
3834	0.00739031
3846	0.00614259
3858	0.00489488
3870	0.00825411
3882	0.00729433
3894	0.00863802
3906	0.00518281
3918	0.0078702
3930	0.013245
3942	0.0122852
3954	0.0095978
3966	0.00719835
