Infrared Spectrum: Mercury, chloroethyl-
Formula: C 2 H 5 Cl Hg
CAS: 107-27-7
Origin: Sadtler Research Labs Under US-EPA Contract
1/CM	ABSORBANCE
450	0
462	0.0184454
474	0.0177462
486	0.0192445
498	0.0152158
510	0.01445
522	0.0133846
534	0.0123191
546	0.0120861
558	0.0140172
570	0.0139839
582	0.0111538
594	0.0187784
606	0.021675
618	0.0192445
630	0.0139173
642	0.0130849
654	0.0125189
666	0.0138174
678	0.0165476
690	0.0172468
702	0.0138174
714	0.01445
726	0.0148163
738	0.0162147
750	0.0187784
762	0.0212089
774	0.0229735
786	0.033295
798	0.0612961
810	0.126754
822	0.138341
834	0.0754798
846	0.0535384
858	0.0384557
870	0.0288335
882	0.0239391
894	0.0200769
906	0.0176131
918	0.0168806
930	0.0157485
942	0.0151825
954	0.0151492
966	0.0147497
978	0.0162147
990	0.0260034
1002	0.0722501
1014	0.215851
1026	0.33295
1038	0.178494
1050	0.0720504
1062	0.0707852
1074	0.0846026
1086	0.0907622
1098	0.0669229
1110	0.0420849
1122	0.0291997
1134	0.0209426
1146	0.0166142
1158	0.0146831
1170	0.0119529
1182	0.0107543
1194	0.00938919
1206	0.0093226
1218	0.00988861
1230	0.0109208
1242	0.0165476
1254	0.0434167
1266	0.106011
1278	0.0418185
1290	0.0161481
1302	0.0153823
1314	0.0109541
1326	0.0113869
1338	0.011287
1350	0.0132514
1362	0.0146831
1374	0.0174466
1386	0.018512
1398	0.0183788
1410	0.0164144
1422	0.0148496
1434	0.0153157
1446	0.018845
1458	0.0206096
1470	0.0212089
1482	0.0187784
1494	0.0157485
1506	0.0138174
1518	0.0110539
1530	0.0108875
1542	0.0121527
1554	0.0114202
1566	0.0109208
1578	0.0105545
1590	0.00992191
1602	0.010155
1614	0.00945578
1626	0.0100218
1638	0.00942248
1650	0.00972214
1662	0.00882317
1674	0.00892306
1686	0.00885647
1698	0.00912283
1710	0.00945578
1722	0.0100884
1734	0.00962225
1746	0.0086567
1758	0.00842364
1770	0.00842364
1782	0.00822387
1794	0.00868999
1806	0.00835705
1818	0.00878988
1830	0.00859011
1842	0.00842364
1854	0.0086234
1866	0.0086234
1878	0.00855681
1890	0.0086234
1902	0.00842364
1914	0.0086234
1926	0.00888976
1938	0.00912283
1950	0.0092893
1962	0.00895635
1974	0.00875658
1986	0.00872329
1998	0.00859011
2010	0.00872329
2022	0.00849023
2034	0.00878988
2046	0.00895635
2058	0.0092893
2070	0.00948907
2082	0.00955566
2094	0.00942248
2106	0.00938919
2118	0.00945578
2130	0.0093226
2142	0.00912283
2154	0.0092893
2166	0.00968884
2178	0.00965555
2190	0.00942248
2202	0.00912283
2214	0.0092893
2226	0.00915612
2238	0.00905624
2250	0.00888976
2262	0.00902294
2274	0.0086567
2286	0.00892306
2298	0.00882317
2310	0.00842364
2322	0.00849023
2334	0.00809069
2346	0.00908953
2358	0.00878988
2370	0.0102882
2382	0.0101217
2394	0.00948907
2406	0.00918942
2418	0.0092893
2430	0.00905624
2442	0.00885647
2454	0.00908953
2466	0.00905624
2478	0.00948907
2490	0.0093226
2502	0.00925601
2514	0.00895635
2526	0.00885647
2538	0.00898965
2550	0.00938919
2562	0.00945578
2574	0.00935589
2586	0.00938919
2598	0.0103214
2610	0.00915612
2622	0.00978873
2634	0.0101217
2646	0.00965555
2658	0.010155
2670	0.00978873
2682	0.0103547
2694	0.0105212
2706	0.0114535
2718	0.0109873
2730	0.0129518
2742	0.0116865
2754	0.0140838
2766	0.0127187
2778	0.0145499
2790	0.0132514
2802	0.0151159
2814	0.0145499
2826	0.0175798
2838	0.0205097
2850	0.0289001
2862	0.0437163
2874	0.0568013
2886	0.0626612
2898	0.0731491
2910	0.0790423
2922	0.0953569
2934	0.106977
2946	0.126255
2958	0.144101
2970	0.17087
2982	0.127353
2994	0.0767117
3006	0.0517737
3018	0.0457806
3030	0.0345269
3042	0.0287336
3054	0.0249047
3066	0.0222411
3078	0.0202101
3090	0.0175132
3102	0.0153823
3114	0.0156154
3126	0.0140505
3138	0.0126854
3150	0.0129185
3162	0.0124523
3174	0.011853
3186	0.0121527
3198	0.0116865
3210	0.0113869
3222	0.0111871
3234	0.0105545
3246	0.0105878
3258	0.0102549
3270	0.0105212
3282	0.0109873
3294	0.010721
3306	0.0100884
3318	0.010388
3330	0.0109873
3342	0.010388
3354	0.0104879
3366	0.0106211
3378	0.0100551
3390	0.010388
3402	0.00985532
3414	0.00978873
3426	0.0104546
3438	0.00975543
3450	0.00978873
3462	0.00968884
3474	0.00948907
3486	0.0100884
3498	0.00975543
3510	0.00958896
3522	0.00925601
3534	0.0092893
3546	0.00822387
3558	0.00935589
3570	0.00935589
3582	0.00948907
3594	0.0101217
3606	0.0100884
3618	0.00988861
3630	0.0101883
3642	0.0102882
3654	0.00955566
3666	0.0093226
3678	0.010155
3690	0.0099885
3702	0.00975543
3714	0.0104546
3726	0.00988861
3738	0.00982202
3750	0.0115534
3762	0.0100884
3774	0.00918942
3786	0.00918942
3798	0.00842364
3810	0.00915612
3822	0.010388
3834	0.00885647
3846	0.00965555
3858	0.00812398
3870	0.00829046
3882	0.00962225
3894	0.00789092
3906	0.00965555
3918	0.0079908
3930	0.00825716
3942	0.00842364
3954	0.00835705
3966	0.0086567
