Infrared Spectrum: 2-Pentanamine, 2,4,4-trimethyl-
Formula: C 8 H 19 N
CAS: 107-45-9
Origin: Sadtler Research Labs Under US-EPA Contract
1/CM	ABSORBANCE
450	0.00529392
462	0.0063527
474	0.00811734
486	0.00555862
498	0.00644094
510	0.00141171
522	0.00335282
534	0.00555862
546	0.00652917
558	0.00802911
570	0.00891143
582	0.00547038
594	0.00617624
606	0.00529392
618	0.00299989
630	0.00652917
642	0.00520569
654	0.00714679
666	0.0113819
678	0.0104996
690	0.0149112
702	0.0179111
714	0.0225874
726	0.03194
738	0.0402338
750	0.0378515
762	0.0721738
774	0.0955553
786	0.107643
798	0.11779
810	0.143995
822	0.138701
834	0.0843498
846	0.0434984
858	0.0314988
870	0.0273519
882	0.0312341
894	0.0272637
906	0.0140289
918	0.0135877
930	0.0108525
942	0.0107643
954	0.017117
966	0.0168523
978	0.0122642
990	0.00608801
1002	0.00405867
1014	0.00449983
1026	0.0044116
1038	0.00520569
1050	0.00264696
1062	0.00652917
1074	0.00847027
1086	0.00979375
1098	0.00970552
1110	0.00899966
1122	0.0114702
1134	0.0247932
1146	0.0397926
1158	0.0373221
1170	0.0279695
1182	0.0249697
1194	0.0328223
1206	0.0481747
1218	0.0736737
1230	0.105967
1242	0.103761
1254	0.0494099
1266	0.0239109
1278	0.0204698
1290	0.0200287
1302	0.0146465
1314	0.00917613
1326	0.0114702
1338	0.0241756
1350	0.0578802
1362	0.126789
1374	0.158465
1386	0.09432
1398	0.0622036
1410	0.0278813
1422	0.0157053
1434	0.0212639
1446	0.0356457
1458	0.0694386
1470	0.113202
1482	0.11779
1494	0.0607918
1506	0.0208228
1518	0.0172052
1530	0.0134995
1542	0.0111172
1554	0.0143818
1566	0.0147347
1578	0.0154406
1590	0.0209992
1602	0.0310577
1614	0.046763
1626	0.0527627
1638	0.0371457
1650	0.0199404
1662	0.0107643
1674	0.00617624
1686	0.00352928
1698	0.00317635
1710	0.00388221
1722	0.00379398
1734	0.00291166
1746	0.00238226
1758	0.0019411
1770	0.00211757
1782	0.00141171
1794	0.00176464
1806	8.8232e-05
1818	0.000705856
1830	0.000705856
1842	0.000352928
1854	0.000705856
1866	0.00123525
1878	0.00114702
1890	0.00167641
1902	0.00088232
1914	0.000794088
1926	0.00123525
1938	0.00088232
1950	0.00088232
1962	0.000970552
1974	0.00105878
1986	0.000970552
1998	0.00132348
2010	0.00114702
2022	0.00114702
2034	0.00114702
2046	0.000970552
2058	0.000705856
2070	0.00123525
2082	0.00132348
2094	0.00132348
2106	0.0019411
2118	0.00158818
2130	0.00141171
2142	0.0019411
2154	0.00158818
2166	0.00185287
2178	0.00158818
2190	0.00167641
2202	0.00123525
2214	0.00167641
2226	0.00158818
2238	0.0022058
2250	0.00238226
2262	0.00273519
2274	0.00264696
2286	0.00326458
2298	0.00291166
2310	0.0024705
2322	8.8232e-05
2334	8.8232e-05
2346	0.000176464
2358	8.8232e-05
2370	8.8232e-05
2382	0.00308812
2394	0.00344105
2406	0.00344105
2418	0.00344105
2430	0.00299989
2442	0.00291166
2454	0.00291166
2466	0.00282342
2478	0.00335282
2490	0.00299989
2502	0.00335282
2514	0.00335282
2526	0.00326458
2538	0.00352928
2550	0.00379398
2562	0.00379398
2574	0.00379398
2586	0.0041469
2598	0.0046763
2610	0.00547038
2622	0.00511746
2634	0.00502922
2646	0.00608801
2658	0.0068821
2670	0.00794088
2682	0.00935259
2694	0.00935259
2706	0.0101467
2718	0.0131466
2730	0.0142054
2742	0.0117349
2754	0.0118231
2766	0.0118231
2778	0.0117349
2790	0.0142054
2802	0.0187934
2814	0.0268225
2826	0.0354693
2838	0.0489688
2850	0.0607918
2862	0.107731
2874	0.229844
2886	0.304489
2898	0.330694
2910	0.352663
2922	0.314282
2934	0.302195
2946	0.454042
2958	0.823028
2970	0.73709
2982	0.392809
2994	0.235756
3006	0.124319
3018	0.0481747
3030	0.019411
3042	0.0119996
3054	0.00997022
3066	0.00838204
3078	0.00838204
3090	0.00758795
3102	0.00776442
3114	0.00776442
3126	0.00732326
3138	0.00723502
3150	0.00776442
3162	0.00820558
3174	0.00864674
3186	0.00917613
3198	0.00961729
3210	0.0101467
3222	0.00961729
3234	0.00935259
3246	0.00785265
3258	0.00723502
3270	0.00670563
3282	0.00599978
3294	0.00582331
3306	0.00705856
3318	0.0118231
3330	0.0134113
3342	0.00961729
3354	0.00679386
3366	0.00494099
3378	0.00458806
3390	0.00502922
3402	0.00423514
3414	0.00388221
3426	0.00388221
3438	0.00352928
3450	0.00388221
3462	0.00273519
3474	0.0024705
3486	0.0024705
3498	0.0024705
3510	0.00264696
3522	0.00229403
3534	0.00176464
3546	0.00273519
3558	0.00185287
3570	0.00388221
3582	0.00229403
3594	0.0022058
3606	0.00176464
3618	0.00238226
3630	0.00229403
3642	0.00176464
3654	0.00211757
3666	0.00202934
3678	0.00141171
3690	0.00114702
3702	0.00167641
3714	0.00202934
3726	0.00255873
3738	0.00282342
3750	0.00105878
3762	0.00149994
3774	0.00185287
3786	0.00149994
3798	0.00149994
3810	0.00141171
3822	0.00088232
3834	0.000970552
3846	0.00132348
3858	0.00185287
3870	0.00238226
3882	0.00273519
3894	0.0024705
3906	0.00273519
3918	0.00229403
3930	0.00185287
3942	0.00185287
3954	0
3966	8.8232e-05
