Infrared Spectrum: Butanoic acid, 3,3-dimethyl-
Formula: C 6 H 12 O 2
CAS: 1070-83-3
Origin: Sadtler Research Labs Under US-EPA Contract
1/CM	ABSORBANCE
450	0.0895578
462	0.090702
474	0.0877895
486	0.113065
498	0.11733
510	0.139798
522	0.139902
534	0.148951
546	0.186397
558	0.240069
570	0.201687
582	0.12898
594	0.124091
606	0.187125
618	0.26264
630	0.255567
642	0.193886
654	0.129396
666	0.0952787
678	0.11681
690	0.14323
702	0.0886216
714	0.0338052
726	0.0183068
738	0.0147703
750	0.00748915
762	0.0108177
774	0.0172667
786	0.019347
798	0.0119618
810	0.00863333
822	0.00759317
834	0.0105056
846	0.0123779
858	0.0174747
870	0.0231956
882	0.0264201
894	0.0287084
906	0.0299566
918	0.0366136
930	0.0410863
942	0.0366136
954	0.0307887
966	0.0198671
978	0.0165385
990	0.0026004
1002	0.0205952
1014	0.0349494
1026	0.0672984
1038	0.0992313
1050	0.0892457
1062	0.0805084
1074	0.114002
1086	0.227379
1098	0.602669
1110	0.951746
1122	0.652492
1134	0.252759
1146	0.159248
1158	0.137925
1170	0.175475
1182	0.268777
1194	0.312776
1206	0.232892
1218	0.178908
1230	0.191285
1242	0.175891
1254	0.106824
1266	0.0675064
1278	0.0558566
1290	0.0501357
1302	0.0591851
1314	0.0766598
1326	0.0814445
1338	0.10152
1350	0.180884
1362	0.317457
1374	0.373834
1386	0.205536
1398	0.0764518
1410	0.052112
1422	0.0473273
1434	0.052216
1446	0.0596012
1458	0.0814445
1470	0.121387
1482	0.127628
1494	0.0755156
1506	0.0232996
1518	0.0116498
1530	0.00728112
1542	0.00821726
1554	0.00665702
1566	0.00655301
1578	0.00728112
1590	0.00634498
1602	0.00634498
1614	0.00655301
1626	0.0058249
1638	0.00769718
1650	0.0084253
1662	0.00967349
1674	0.0138341
1686	0.0190349
1698	0.0269401
1710	0.0499277
1722	0.0999594
1734	0.163409
1746	0.313608
1758	0.612862
1770	0.975982
1782	0.964956
1794	0.53225
1806	0.217289
1818	0.091326
1830	0.0413984
1842	0.0232996
1854	0.0161225
1866	0.0136261
1878	0.0114418
1890	0.00956947
1902	0.0084253
1914	0.00728112
1926	0.00707309
1938	0.00676104
1950	0.00759317
1962	0.0084253
1974	0.00884136
1986	0.00904939
1998	0.00738514
2010	0.00592891
2022	0.00603293
2034	0.00551285
2046	0.00592891
2058	0.00665702
2070	0.00551285
2082	0.00613694
2094	0.00592891
2106	0.00436867
2118	0.00384859
2130	0.00488875
2142	0.00488875
2154	0.00530482
2166	0.00499277
2178	0.00551285
2190	0.00551285
2202	0.00696907
2214	0.00832128
2226	0.00728112
2238	0.0058249
2250	0.0045767
2262	0.00405662
2274	0.0045767
2286	0.0058249
2298	0.00634498
2310	0.00686506
2322	0.0058249
2334	0.0032245
2346	0.00312048
2358	0.00291245
2370	0.00301646
2382	0.00509678
2394	0.00478474
2406	0.00551285
2418	0.00509678
2430	0.00301646
2442	0.00395261
2454	0.00343253
2466	0.00416064
2478	0.00436867
2490	0.00395261
2502	0.00332851
2514	0.00353654
2526	0.00395261
2538	0.00364056
2550	0.00364056
2562	0.00384859
2574	0.0045767
2586	0.00384859
2598	0.00364056
2610	0.00364056
2622	0.00416064
2634	0.00384859
2646	0.00468072
2658	0.00644899
2670	0.00561686
2682	0.00530482
2694	0.00769718
2706	0.00800923
2718	0.0107136
2730	0.0125859
2742	0.0139381
2754	0.0107136
2766	0.00998554
2778	0.00873734
2790	0.0084253
2802	0.0118578
2814	0.0154984
2826	0.0206992
2838	0.0266281
2850	0.0394221
2862	0.07822
2874	0.166738
2886	0.210216
2898	0.198567
2910	0.221242
2922	0.244126
2934	0.272938
2946	0.382675
2958	0.644275
2970	0.773047
2982	0.451013
2994	0.176099
3006	0.0550245
3018	0.0209072
3030	0.013002
3042	0.0116498
3054	0.0117538
3066	0.0123779
3078	0.0108177
3090	0.0107136
3102	0.00915341
3114	0.00904939
3126	0.00915341
3138	0.00832128
3150	0.00790522
3162	0.00904939
3174	0.0107136
3186	0.0109217
3198	0.00946546
3210	0.0100896
3222	0.0110257
3234	0.00998554
3246	0.00904939
3258	0.00998554
3270	0.00707309
3282	0.00384859
3294	0.00436867
3306	0.0052008
3318	0.00655301
3330	0.00468072
3342	0.00343253
3354	0.0071771
3366	0.00800923
3378	0.00530482
3390	0.00655301
3402	0.0058249
3414	0.00572088
3426	0.00353654
3438	0.00291245
3450	0.00301646
3462	0.0026004
3474	0.00436867
3486	0.00478474
3498	0.00592891
3510	0.00821726
3522	0.0113377
3534	0.013314
3546	0.0218434
3558	0.113273
3570	0.384339
3582	0.300294
3594	0.0349494
3606	0.00499277
3618	0.00374458
3630	0.00624096
3642	0.00468072
3654	0.00364056
3666	0.00468072
3678	0.00343253
3690	0.00364056
3702	0.00166426
3714	0.0026004
3726	0.000624096
3738	0.00228835
3750	0.00135221
3762	0.000312048
3774	0.000312048
3786	0.000312048
3798	0.00135221
3810	0.00135221
3822	0.000312048
3834	0.000312048
3846	0.000312048
3858	0.000208032
3870	0.00728112
3882	0.00301646
3894	0.000312048
3906	0.0032245
3918	0.000312048
3930	0.000624096
3942	0.00249638
3954	0.000312048
3966	0.000936144
