Infrared Spectrum: Heptane, 2,2-dimethyl-
Formula: C 9 H 20
CAS: 1071-26-7
Origin: Sadtler Research Labs Under US-EPA Contract
1/CM	ABSORBANCE
450	0.0137575
462	0.00422105
474	0.00672241
486	0.00687874
498	0.00453372
510	0.00609707
522	0.0057844
534	0.00375204
546	0.00453372
558	0.00343937
570	0.00109435
582	0.00125068
594	0.00328304
606	0.0026577
618	0.00171969
630	0.00140702
642	0.00218869
654	0.00250136
666	0.0026577
678	0.00281403
690	0.0031267
702	0.00500272
714	0.00875476
726	0.0150082
738	0.0120378
750	0.00828576
762	0.00828576
774	0.0089111
786	0.00406471
798	0.00156335
810	0.00218869
822	0.0031267
834	0.00390838
846	0.00484639
858	0.00515906
870	0.00547173
882	0.00766042
894	0.00406471
906	0.00609707
918	0.0110998
930	0.00781675
942	0.00719141
954	0.00766042
966	0.0057844
978	0.00390838
990	0.0031267
1002	0.0031267
1014	0.00375204
1026	0.00437738
1038	0.00422105
1050	0.00515906
1062	0.00297037
1074	0.00234503
1086	0.0026577
1098	0.00406471
1110	0.00609707
1122	0.00375204
1134	0.00281403
1146	0.00297037
1158	0.00343937
1170	0.00672241
1182	0.0132885
1194	0.0226686
1206	0.0247009
1218	0.0178222
1230	0.027984
1242	0.0600326
1254	0.0490892
1266	0.0161025
1278	0.0101618
1290	0.0131321
1302	0.0140702
1314	0.0171969
1326	0.0145392
1338	0.0215742
1350	0.0384584
1362	0.120222
1374	0.164933
1386	0.0816069
1398	0.0712888
1410	0.0237629
1422	0.0168842
1434	0.0236066
1446	0.0454935
1458	0.0989601
1470	0.169467
1482	0.16509
1494	0.0531539
1506	0.0159462
1518	0.00859843
1530	0.0057844
1542	0.00390838
1554	0.0031267
1566	0.00234503
1578	0.00171969
1590	0.00187602
1602	0.00218869
1614	0.00171969
1626	0.00125068
1638	0.00140702
1650	0.00140702
1662	0.00125068
1674	0.00109435
1686	0.000781675
1698	0.000781675
1710	0.00171969
1722	0.00140702
1734	0.000781675
1746	0.000469005
1758	0.00062534
1770	0.00031267
1782	0
1794	0.000156335
1806	0.00031267
1818	0.00093801
1830	0.00031267
1842	0.000781675
1854	0.00031267
1866	0.00031267
1878	0.000469005
1890	0.000156335
1902	0.000156335
1914	0.000156335
1926	0.000469005
1938	0.000469005
1950	0.00031267
1962	0.00031267
1974	0.000469005
1986	0.000781675
1998	0.000469005
2010	0.00031267
2022	0.000469005
2034	0.00109435
2046	0.00109435
2058	0.00093801
2070	0.00062534
2082	0.000781675
2094	0.00031267
2106	0.00062534
2118	0.000781675
2130	0.000469005
2142	0.00062534
2154	0.00062534
2166	0.000469005
2178	0.000156335
2190	0.000156335
2202	0.000156335
2214	0.000156335
2226	0.00031267
2238	0
2250	0.00031267
2262	0.00031267
2274	0.00109435
2286	0.00250136
2298	0.00390838
2310	0.00437738
2322	0.00297037
2334	0.00125068
2346	0.00062534
2358	0.00140702
2370	0
2382	0.00250136
2394	0.00187602
2406	0.00187602
2418	0.00218869
2430	0.00140702
2442	0.00093801
2454	0.000781675
2466	0.00140702
2478	0.00125068
2490	0.00140702
2502	0.00140702
2514	0.00125068
2526	0.00171969
2538	0.00218869
2550	0.00297037
2562	0.00343937
2574	0.00390838
2586	0.00375204
2598	0.00453372
2610	0.00562806
2622	0.00687874
2634	0.00687874
2646	0.00812942
2658	0.00922377
2670	0.0104744
2682	0.0114125
2694	0.0118815
2706	0.0123505
2718	0.0157898
2730	0.0179785
2742	0.0184475
2754	0.0186039
2766	0.0165715
2778	0.0164152
2790	0.0220432
2802	0.029391
2814	0.0412724
2826	0.059251
2838	0.100054
2850	0.203079
2862	0.3788
2874	0.529976
2886	0.533415
2898	0.490736
2910	0.555146
2922	0.693346
2934	1.00023
2946	1.14187
2958	1.40139
2970	1.3981
2982	0.440552
2994	0.118346
3006	0.0622213
3018	0.0415851
3030	0.0332994
3042	0.0254826
3054	0.0201672
3066	0.0173532
3078	0.0156335
3090	0.0146955
3102	0.0126631
3114	0.0106308
3126	0.0100054
3138	0.00984911
3150	0.0101618
3162	0.0110998
3174	0.0123505
3186	0.0129758
3198	0.0125068
3210	0.0107871
3222	0.0103181
3234	0.00797309
3246	0.00531539
3258	0.0031267
3270	0.00250136
3282	0.00125068
3294	0.00281403
3306	0.0026577
3318	0.00281403
3330	0.00218869
3342	0.00203236
3354	0.00203236
3366	0.00281403
3378	0.0031267
3390	0.00281403
3402	0.00140702
3414	0.00156335
3426	0.00187602
3438	0.00218869
3450	0.00156335
3462	0.00140702
3474	0.00125068
3486	0.00125068
3498	0.00109435
3510	0.000469005
3522	0.00109435
3534	0.000781675
3546	0.00125068
3558	0.000469005
3570	0.00140702
3582	0.00093801
3594	0.000156335
3606	0.00156335
3618	0.00156335
3630	0.00203236
3642	0.00187602
3654	0.00281403
3666	0.00156335
3678	0.00125068
3690	0.00187602
3702	0.00156335
3714	0.00187602
3726	0.00125068
3738	0.00187602
3750	0.00093801
3762	0.00125068
3774	0.00171969
3786	0.00187602
3798	0.00281403
3810	0.00281403
3822	0.00234503
3834	0.00187602
3846	0.00422105
3858	0.00234503
3870	0.00328304
3882	0.00234503
3894	0.00281403
3906	0.00281403
3918	0.0026577
3930	0.00328304
3942	0.00062534
3954	0.00328304
3966	0.00140702
