Infrared Spectrum: Benzene, 1-bromo-2-fluoro-
Formula: C 6 H 4 Br F
CAS: 1072-85-1
Origin: Sadtler Research Labs Under US-EPA Contract
1/CM	ABSORBANCE
450	0.0410901
462	0.0237621
474	0.0539581
486	0.0130874
498	0.0127218
510	0.00957793
522	0
534	0.0380193
546	0.0546162
558	0.0211299
570	0.0117714
582	0.00738451
594	0.00548355
606	0.0103091
618	0.00928548
630	0.0031439
642	0.0228847
654	0.139648
666	0.0945364
678	0.017328
690	0.0137454
702	0.0180592
714	0.00957793
726	0.0262479
738	0.253998
750	0.73114
762	0.309126
774	0.0409438
786	0.0141841
798	0.0165969
810	0.0553473
822	0.121808
834	0.101775
846	0.0366301
858	0.0171087
870	0.0168893
882	0.01667
894	0.00906614
906	0.00738451
918	0.0103091
930	0.0198139
942	0.0210568
954	0.0139648
966	0.00972416
978	0.0104553
990	0.00935859
1002	0.0117714
1014	0.0330475
1026	0.128973
1038	0.0780126
1050	0.221828
1062	0.192363
1074	0.019229
1086	0.0117714
1098	0.0131605
1110	0.0567365
1122	0.0690196
1134	0.0232503
1146	0.0177667
1158	0.0154271
1170	0.00665337
1182	0.00862745
1194	0.00811565
1206	0.00848122
1218	0.0273446
1230	0.119176
1242	0.237182
1254	0.238571
1266	0.240106
1278	0.110475
1290	0.0451845
1302	0.0133067
1314	0.00562978
1326	0.00665337
1338	0.0062878
1350	0.00665337
1362	0.00899302
1374	0.0193752
1386	0.0220073
1398	0.0164507
1410	0.013453
1422	0.0133799
1434	0.0451113
1446	0.113327
1458	0.115301
1470	0.318923
1482	0.722659
1494	0.421064
1506	0.120492
1518	0.0299767
1530	0.014111
1542	0.0114789
1554	0.0254437
1566	0.0624394
1578	0.10448
1590	0.143011
1602	0.118006
1614	0.0301961
1626	0.00636092
1638	0.00482552
1650	0.00475241
1662	0.00548355
1674	0.00950482
1686	0.0138917
1698	0.00818877
1710	0.00606846
1722	0.00511798
1734	0.00431373
1746	0.00380193
1758	0.00555666
1770	0.0152077
1782	0.0211299
1794	0.00972416
1806	0.00694583
1818	0.00899302
1830	0.00438684
1842	0.00233965
1854	0.0031439
1866	0.00694583
1878	0.00541044
1890	0.00913925
1902	0.0201064
1914	0.0117714
1926	0.00789631
1938	0.0150615
1950	0.0073114
1962	0.00197408
1974	0.00160851
1986	0.00124294
1998	0.00124294
2010	0.00116982
2022	0.00168162
2034	0.00285145
2046	0.00350947
2058	0.00453307
2070	0.0073114
2082	0.00760386
2094	0.00475241
2106	0.00285145
2118	0.00160851
2130	0.00233965
2142	0.0026321
2154	0.00131605
2166	0.00197408
2178	0.00197408
2190	0.00131605
2202	0.00124294
2214	0.00153539
2226	0.00182785
2238	0.00233965
2250	0.00255899
2262	0.00358259
2274	0.00482552
2286	0.00453307
2298	0.00577601
2310	0.0073114
2322	0.00233965
2334	0.000804254
2346	0.00168162
2358	0.000804254
2370	0.00380193
2382	0.00592223
2394	0.00511798
2406	0.00584912
2418	0.00562978
2430	0.00402127
2442	0.00394816
2454	0.00372881
2466	0.00460618
2478	0.00606846
2490	0.00592223
2502	0.00562978
2514	0.00687272
2526	0.00745763
2538	0.00621469
2550	0.00753074
2562	0.00818877
2574	0.00606846
2586	0.00519109
2598	0.00453307
2610	0.00350947
2622	0.00277833
2634	0.00307079
2646	0.00445995
2658	0.00131605
2670	0.00329013
2682	0.00621469
2694	0.00497175
2706	0.00438684
2718	0.00533732
2730	0.00592223
2742	0.00687272
2754	0.00614158
2766	0.00475241
2778	0.00445995
2790	0.00489864
2802	0.00475241
2814	0.00438684
2826	0.00445995
2838	0.00606846
2850	0.00592223
2862	0.00577601
2874	0.00511798
2886	0.00592223
2898	0.00372881
2910	0.00402127
2922	0.00475241
2934	0.00453307
2946	0.0031439
2958	0.00431373
2970	0.00431373
2982	0.00504487
2994	0.00555666
3006	0.00753074
3018	0.0119907
3030	0.0184247
3042	0.0195214
3054	0.0220073
3066	0.041017
3078	0.0789631
3090	0.103383
3102	0.0345829
3114	0.00818877
3126	0.0036557
3138	0.00438684
3150	0.00380193
3162	0.00358259
3174	0.00402127
3186	0.00358259
3198	0.00372881
3210	0.00541044
3222	0.00248588
3234	0.0041675
3246	0.0036557
3258	0.00431373
3270	0.00336324
3282	0.00387504
3294	0.0031439
3306	0.00489864
3318	0.00424061
3330	0.00453307
3342	0.00555666
3354	0.00424061
3366	0.0041675
3378	0.00445995
3390	0.00372881
3402	0.00424061
3414	0.00438684
3426	0.00424061
3438	0.00424061
3450	0.00277833
3462	0.00321702
3474	0.0031439
3486	0.00329013
3498	0.00233965
3510	0.00504487
3522	0.00350947
3534	0.0010236
3546	0.0031439
3558	0.0036557
3570	0.00336324
3582	0.0036557
3594	0.00482552
3606	0.00329013
3618	0.00387504
3630	0.00255899
3642	0.00438684
3654	0.0031439
3666	0.00299767
3678	0.00387504
3690	0.00380193
3702	0.00402127
3714	0.0046793
3726	0.00336324
3738	0.00519109
3750	0.0046793
3762	0.0041675
3774	0.00402127
3786	0.00160851
3798	0.00190096
3810	0.00372881
3822	0.00233965
3834	0.0067996
3846	0.00372881
3858	0.00307079
3870	0.00387504
3882	0.0041675
3894	0.00658026
3906	0.00343636
3918	0.00431373
3930	0.00248588
3942	0.00438684
3954	0.00255899
3966	0.00277833
