Infrared Spectrum: Benzene, 1-bromo-3-fluoro-
Formula: C 6 H 4 Br F
CAS: 1073-06-9
Origin: Sadtler Research Labs Under US-EPA Contract
1/CM	ABSORBANCE
450	0.00530434
462	0.0202228
474	0.0107192
486	0
498	0.00442028
510	0.0319365
522	0.0510542
534	0.0221014
546	0.0122663
558	0.0119348
570	0.0101666
582	0.00895107
594	0.0142554
606	0.0117137
618	0.0138134
630	0.0134819
642	0.0135924
654	0.0518278
666	0.105534
678	0.123989
690	0.0464129
702	0.015913
714	0.0122663
726	0.0130398
738	0.0113822
750	0.0290633
762	0.155815
774	0.316603
786	0.138797
798	0.0204438
810	0.0124873
822	0.0148079
834	0.0162445
846	0.10034
858	0.5995
870	0.524466
882	0.13504
894	0.0314945
906	0.0151395
918	0.0133713
930	0.0111612
942	0.0095036
954	0.0107192
966	0.0114927
978	0.0111612
990	0.0205543
1002	0.0463024
1014	0.0165761
1026	0.0111612
1038	0.0140344
1050	0.0899527
1062	0.118464
1074	0.0513858
1086	0.0465234
1098	0.0137029
1110	0.0149184
1122	0.0144764
1134	0.0102772
1146	0.0219909
1158	0.0351412
1170	0.0148079
1182	0.0145869
1194	0.0269637
1206	0.101335
1218	0.261902
1230	0.237038
1242	0.0669672
1254	0.107081
1266	0.193498
1278	0.0737082
1290	0.054701
1302	0.0287318
1314	0.0173496
1326	0.0248641
1338	0.0226539
1350	0.0095036
1362	0.0110507
1374	0.0135924
1386	0.0191177
1398	0.0310525
1410	0.0659727
1422	0.132056
1434	0.124762
1446	0.0507227
1458	0.062989
1470	0.506785
1482	0.623149
1494	0.0668567
1506	0.038788
1518	0.0713875
1530	0.0416611
1542	0.0330416
1554	0.0463024
1566	0.0972462
1578	0.234606
1590	0.903395
1602	0.669009
1614	0.0689564
1626	0.0217699
1638	0.015471
1650	0.0197808
1662	0.0160235
1674	0.0160235
1686	0.0158025
1698	0.0169076
1710	0.0181231
1722	0.023096
1734	0.0236485
1746	0.0204438
1758	0.0148079
1770	0.015471
1782	0.0103877
1794	0.00972462
1806	0.00773549
1818	0.00850904
1830	0.0107192
1842	0.0184547
1854	0.0149184
1866	0.00884056
1878	0.00663042
1890	0.00718296
1902	0.00740397
1914	0.0139239
1926	0.0173496
1938	0.0108297
1950	0.00530434
1962	0.00486231
1974	0.00486231
1986	0.00486231
1998	0.00530434
2010	0.00519383
2022	0.00563586
2034	0.00464129
2046	0.00486231
2058	0.00508332
2070	0.00817752
2082	0.0107192
2094	0.00773549
2106	0.00607788
2118	0.0062989
2130	0.00663042
2142	0.00607788
2154	0.00519383
2166	0.00375724
2178	0.00442028
2190	0.00419927
2202	0.00408876
2214	0.00419927
2226	0.00397825
2238	0.00430977
2250	0.00386775
2262	0.00453079
2274	0.00342572
2286	0.00530434
2298	0.00696194
2310	0.00928259
2322	0.0095036
2334	0.00972462
2346	0.0107192
2358	0.00917208
2370	0.00563586
2382	0.00530434
2394	0.00386775
2406	0.00430977
2418	0.00408876
2430	0.00640941
2442	0.00817752
2454	0.007846
2466	0.00607788
2478	0.00751448
2490	0.00663042
2502	0.00386775
2514	0.00331521
2526	0.00276268
2538	0.0030942
2550	0.00375724
2562	0.00397825
2574	0.00364673
2586	0.00419927
2598	0.00276268
2610	0.00232065
2622	0.00276268
2634	0.00265217
2646	0.00342572
2658	0.00254166
2670	0.00364673
2682	0.00430977
2694	0.00618839
2706	0.0047518
2718	0.00265217
2730	0.00198913
2742	0.00143659
2754	0.000773549
2766	0.000552535
2778	0.00165761
2790	0.00221014
2802	0.00176811
2814	0.00265217
2826	0.00209963
2838	0.0015471
2850	0.00276268
2862	0.00198913
2874	0.00209963
2886	0.00198913
2898	0.0030942
2910	0.00165761
2922	0.00176811
2934	0.00364673
2946	0.0030942
2958	0.0032047
2970	0.0032047
2982	0.00287318
2994	0.00198913
3006	0.00364673
3018	0.00618839
3030	0.00928259
3042	0.0125978
3054	0.00928259
3066	0.0169076
3078	0.039672
3090	0.0457499
3102	0.0164655
3114	0.00685143
3126	0.00265217
3138	0.00342572
3150	0.00419927
3162	0.0032047
3174	0.00442028
3186	0.00364673
3198	0.00442028
3210	0.00397825
3222	0.00442028
3234	0.0032047
3246	0.00298369
3258	0.00375724
3270	0.0032047
3282	0.00408876
3294	0.00430977
3306	0.0047518
3318	0.0047518
3330	0.00453079
3342	0.00464129
3354	0.00408876
3366	0.00265217
3378	0.00419927
3390	0.00430977
3402	0.00408876
3414	0.00375724
3426	0.0079565
3438	0.0030942
3450	0.00640941
3462	0.00607788
3474	0.00276268
3486	0.00552535
3498	0.00453079
3510	0.00696194
3522	0.00430977
3534	0.00364673
3546	0.00408876
3558	0.00574636
3570	0.00541484
3582	0.00530434
3594	0.00574636
3606	0.00541484
3618	0.00696194
3630	0.00640941
3642	0.00453079
3654	0.00486231
3666	0.00563586
3678	0.00618839
3690	0.00508332
3702	0.00574636
3714	0.00806701
3726	0.00651991
3738	0.00397825
3750	0.00685143
3762	0.0079565
3774	0.00640941
3786	0.00419927
3798	0.00718296
3810	0.00618839
3822	0.00386775
3834	0.00685143
3846	0.00552535
3858	0.00530434
3870	0.00541484
3882	0.00508332
3894	0.00718296
3906	0.00298369
3918	0.00530434
3930	0.007846
3942	0.00442028
3954	0.00530434
3966	0.00486231
