Infrared Spectrum: Benzene, 1-chloro-4-ethenyl-
Formula: C 8 H 7 Cl
CAS: 1073-67-2
Origin: Sadtler Research Labs Under US-EPA Contract
1/CM	ABSORBANCE
450	0
462	0.0468979
474	0.053185
486	0.0677981
498	0.023279
510	0.030798
522	0.0445615
534	0.0488945
546	0.0386143
558	0.0283766
570	0.0249782
582	0.0236189
594	0.0276545
606	0.0270598
618	0.0318175
630	0.0516982
642	0.0375098
654	0.0281218
666	0.0261677
678	0.0242561
690	0.0245959
702	0.0263376
714	0.0279094
726	0.0348336
738	0.0337291
750	0.0372125
762	0.0457934
774	0.0504238
786	0.0841529
798	0.066821
810	0.0704743
822	0.180965
834	0.306281
846	0.162528
858	0.0543319
870	0.0387418
882	0.0456235
894	0.0783756
906	0.130201
918	0.129097
930	0.0756994
942	0.0449438
954	0.0459209
966	0.0539071
978	0.0750197
990	0.0970668
1002	0.0851299
1014	0.187847
1026	0.0788004
1038	0.0437969
1050	0.050891
1062	0.0586649
1074	0.0860645
1086	0.23449
1098	0.4248
1110	0.140184
1122	0.0748922
1134	0.0400586
1146	0.0331344
1158	0.0317326
1170	0.038232
1182	0.0426499
1194	0.0426074
1206	0.0420127
1218	0.0400586
1230	0.044689
1242	0.0528026
1254	0.0887407
1266	0.0770162
1278	0.0498715
1290	0.0488945
1302	0.0460483
1314	0.036023
1326	0.0367452
1338	0.0441367
1350	0.0506786
1362	0.0609588
1374	0.0591322
1386	0.0749347
1398	0.0826236
1410	0.0664387
1422	0.0511034
1434	0.04248
1446	0.0405259
1458	0.0457085
1470	0.0511884
1482	0.127482
1494	0.415242
1506	0.114654
1518	0.036108
1530	0.0302033
1542	0.0320724
1554	0.0333468
1566	0.039209
1578	0.0471528
1590	0.0693274
1602	0.0852998
1614	0.0525902
1626	0.0672458
1638	0.0851724
1650	0.0517406
1662	0.0382745
1674	0.0323273
1686	0.0329645
1698	0.0481723
1710	0.066821
1722	0.0524203
1734	0.0370001
1746	0.0302033
1758	0.0310104
1770	0.0365753
1782	0.0311803
1794	0.0277819
1806	0.0278244
1818	0.03717
1830	0.045581
1842	0.0350885
1854	0.0264226
1866	0.0268474
1878	0.0317326
1890	0.0410782
1902	0.0397188
1914	0.0299059
1926	0.0258278
1938	0.0250207
1950	0.0257429
1962	0.0260402
1974	0.0250632
1986	0.0244685
1998	0.0238313
2010	0.0231516
2022	0.0240012
2034	0.0242561
2046	0.0236614
2058	0.0237463
2070	0.0236189
2082	0.0241286
2094	0.0237463
2106	0.0236189
2118	0.023449
2130	0.0230242
2142	0.0231091
2154	0.0232366
2166	0.0228542
2178	0.0231091
2190	0.0235339
2202	0.023449
2214	0.0240862
2226	0.0238313
2238	0.024511
2250	0.0244685
2262	0.0241286
2274	0.0247658
2286	0.0259128
2298	0.0262526
2310	0.0259553
2322	0.0260402
2334	0.0253181
2346	0.0243835
2358	0.025573
2370	0.0238313
2382	0.0239162
2394	0.0247658
2406	0.0247658
2418	0.0239587
2430	0.0237038
2442	0.0238313
2454	0.0236614
2466	0.0231091
2478	0.023449
2490	0.0239587
2502	0.0240862
2514	0.0247234
2526	0.0242986
2538	0.0245534
2550	0.024511
2562	0.0245959
2574	0.0246809
2586	0.0249358
2598	0.024511
2610	0.0240437
2622	0.0239587
2634	0.023279
2646	0.0231091
2658	0.0231941
2670	0.0232366
2682	0.0237038
2694	0.0237888
2706	0.0236614
2718	0.0239587
2730	0.0240012
2742	0.0231941
2754	0.0227693
2766	0.0230242
2778	0.0236614
2790	0.0239587
2802	0.0245959
2814	0.0251482
2826	0.0265925
2838	0.0262102
2850	0.0270173
2862	0.0290138
2874	0.0358106
2886	0.0421402
2898	0.039379
2910	0.0359806
2922	0.0343663
2934	0.0377222
2946	0.0369576
2958	0.0355558
2970	0.0480874
2982	0.0761242
2994	0.0755719
3006	0.0544594
3018	0.0814766
3030	0.0689875
3042	0.0728957
3054	0.0621482
3066	0.0554364
3078	0.0621058
3090	0.0887832
3102	0.110745
3114	0.0446465
3126	0.0273146
3138	0.024511
3150	0.0251482
3162	0.0229392
3174	0.0238738
3186	0.0252331
3198	0.0235764
3210	0.0245959
3222	0.0246384
3234	0.0241286
3246	0.0237463
3258	0.0233215
3270	0.0235764
3282	0.0244685
3294	0.024426
3306	0.0238738
3318	0.0240862
3330	0.0242561
3342	0.0239587
3354	0.024511
3366	0.0241711
3378	0.0245959
3390	0.0259128
3402	0.0256579
3414	0.0260402
3426	0.0245959
3438	0.0254455
3450	0.0261252
3462	0.0257854
3474	0.0263801
3486	0.0237888
3498	0.0256579
3510	0.0253606
3522	0.0257429
3534	0.0271872
3546	0.0235339
3558	0.0268049
3570	0.0247658
3582	0.0267199
3594	0.0258703
3606	0.0261677
3618	0.0267199
3630	0.0312228
3642	0.0375948
3654	0.0407808
3666	0.0347486
3678	0.0292262
3690	0.0279943
3702	0.0270598
3714	0.026635
3726	0.0289289
3738	0.0286315
3750	0.0283766
3762	0.0283342
3774	0.0259978
3786	0.0268898
3798	0.028759
3810	0.0257004
3822	0.0291413
3834	0.0292687
3846	0.026635
3858	0.0267624
3870	0.0277394
3882	0.0292262
3894	0.0294811
3906	0.0287165
3918	0.0273146
3930	0.0313927
3942	0.031945
3954	0.0316476
3966	0.0321998
