Infrared Spectrum: Phenol, 2-(methylthio)-
Formula: C 7 H 8 O S
CAS: 1073-29-6
Origin: Sadtler Research Labs Under US-EPA Contract
1/CM	ABSORBANCE
450	0.00828431
462	0.0435979
474	0.0241509
486	0.0360157
498	0.0453531
510	0.0332074
522	0.0916188
534	0.151926
546	0.155085
558	0.106783
570	0.025906
582	0.00322948
594	0.01362
606	0.018394
618	0.0226063
630	0.0197981
642	0.0244317
654	0.0219043
666	0.0199385
678	0.0558138
690	0.0324352
702	0.0260464
714	0.0294865
726	0.0476699
738	0.195594
750	0.516506
762	0.255199
774	0.044651
786	0.0189556
798	0.019096
810	0.0312417
822	0.0890212
834	0.106292
846	0.0663447
858	0.035103
870	0.0242211
882	0.0192364
894	0.0233084
906	0.0284334
918	0.0359455
930	0.0369284
942	0.0376304
954	0.0397366
966	0.0834749
978	0.0851599
990	0.0412811
1002	0.0486528
1014	0.0763841
1026	0.127705
1038	0.101097
1050	0.0499165
1062	0.0478103
1074	0.0438788
1086	0.0285738
1098	0.0259762
1110	0.0314523
1122	0.0406493
1134	0.0461955
1146	0.0791222
1158	0.0877575
1170	0.0775074
1182	0.186046
1194	0.445317
1206	0.501762
1218	0.293531
1230	0.192013
1242	0.262079
1254	0.188924
1266	0.109732
1278	0.227678
1290	0.312698
1302	0.101588
1314	0.0569371
1326	0.0723824
1338	0.145888
1350	0.17706
1362	0.0765947
1374	0.0312417
1386	0.0400876
1398	0.0497058
1410	0.0364369
1422	0.0511802
1434	0.0829835
1446	0.135498
1458	0.288687
1470	0.70206
1482	0.542973
1494	0.10229
1506	0.0585518
1518	0.0468274
1530	0.0315927
1542	0.0349626
1554	0.0494952
1566	0.134725
1578	0.226906
1590	0.200298
1602	0.122299
1614	0.0560946
1626	0.0310311
1638	0.0227467
1650	0.0266783
1662	0.016007
1674	0.023519
1686	0.0261166
1698	0.0236594
1710	0.0120754
1722	0.00863534
1734	0.00800348
1746	0.0058973
1758	0.00688019
1770	0.0101799
1782	0.0162176
1794	0.0175515
1806	0.00877575
1818	0.00884596
1830	0.0110925
1842	0.00758225
1854	0.00638875
1866	0.0113032
1878	0.00877575
1890	0.0104607
1902	0.0169196
1914	0.0136902
1926	0.0116542
1938	0.0166388
1950	0.0082141
1962	0.00393154
1974	0.00442298
1986	0.00400174
1998	0.0046336
2010	0.00519524
2022	0.00603772
2034	0.0046336
2046	0.00358051
2058	0.00365071
2070	0.00498463
2082	0.0046336
2094	0.00379112
2106	0.00414215
2118	0.0046336
2130	0.00336989
2142	0.00196577
2154	0.00210618
2166	0.00168494
2178	0.00105309
2190	0.00105309
2202	0.000421236
2214	0.000982884
2226	0.000912678
2238	0.00161474
2250	0.00203597
2262	0.00245721
2274	0.00435277
2286	0.00624833
2298	0.0094076
2310	0.0124265
2322	0.00947781
2334	0.00547607
2346	0.0120754
2358	0.00807369
2370	0.0070206
2382	0.00491442
2394	0.00533566
2406	0.00526545
2418	0.00428257
2430	0.0035103
2442	0.00336989
2454	0.00273803
2466	0.00421236
2478	0.00828431
2490	0.00863534
2502	0.00547607
2514	0.0058271
2526	0.00856513
2538	0.00786307
2550	0.00449318
2562	0.00322948
2574	0.00358051
2586	0.00393154
2598	0.00414215
2610	0.00393154
2622	0.00372092
2634	0.00358051
2646	0.00372092
2658	0.00498463
2670	0.00688019
2682	0.00765245
2694	0.00652916
2706	0.00498463
2718	0.00512504
2730	0.00603772
2742	0.00849493
2754	0.00863534
2766	0.00842472
2778	0.00793328
2790	0.00870554
2802	0.00954802
2814	0.0109521
2826	0.0144624
2838	0.025204
2850	0.0349626
2862	0.0284334
2874	0.025555
2886	0.0271697
2898	0.023168
2910	0.025555
2922	0.0624131
2934	0.172286
2946	0.104677
2958	0.0273803
2970	0.0234488
2982	0.0287143
2994	0.056235
3006	0.0707676
3018	0.041913
3030	0.0525141
3042	0.0706272
3054	0.0619919
3066	0.0855109
3078	0.141114
3090	0.123352
3102	0.0451425
3114	0.0194471
3126	0.0153049
3138	0.0145326
3150	0.014322
3162	0.0131285
3174	0.0164984
3186	0.0213426
3198	0.0199385
3210	0.0171303
3222	0.0137604
3234	0.0103203
3246	0.00744184
3258	0.00695039
3270	0.00659936
3282	0.00835451
3294	0.00716101
3306	0.00695039
3318	0.00554627
3330	0.00610792
3342	0.00603772
3354	0.00645895
3366	0.0058271
3378	0.00568669
3390	0.00744184
3402	0.0114436
3414	0.0205002
3426	0.0707676
3438	0.291074
3450	0.389292
3462	0.267555
3474	0.168565
3486	0.109872
3498	0.0685913
3510	0.0417726
3522	0.0245019
3534	0.0150943
3546	0.00863534
3558	0.00652916
3570	0.00723122
3582	0.00772266
3594	0.00610792
3606	0.00540586
3618	0.0023168
3630	0.00519524
3642	0.00842472
3654	0.00989905
3666	0.00765245
3678	0.00252742
3690	0.00575689
3702	0.00863534
3714	0.00744184
3726	0.00372092
3738	0.00210618
3750	0.00807369
3762	0.00217639
3774	0.00280824
3786	0.00400174
3798	0.00709081
3810	0.00800348
3822	0.00336989
3834	0.00561648
3846	0.00737163
3858	0.00147433
3870	0.00954802
3882	0.0117244
3894	0.00996925
3906	0.00842472
3918	0.00617813
3930	0.00737163
3942	0.00898637
3954	0.014322
3966	0.0127073
