Infrared Spectrum: Propanenitrile, 3-(phenylamino)-
Formula: C 9 H 10 N 2
CAS: 1075-76-9
Origin: Sadtler Research Labs Under US-EPA Contract
1/CM	ABSORBANCE
450	0.00202278
462	0.0130434
474	0.0315275
486	0.0497325
498	0.0601254
510	0.0508485
522	0.0367588
534	0.032504
546	0.0359915
558	0.035294
570	0.0387118
582	0.0346662
594	0.0339687
606	0.031667
618	0.0338292
630	0.0373168
642	0.0412228
654	0.0520342
666	0.0629154
678	0.114601
690	0.209741
702	0.142222
714	0.0839105
726	0.0877468
738	0.183585
750	0.29421
762	0.165938
774	0.0723318
786	0.0359218
798	0.0229481
810	0.0218321
822	0.0199488
834	0.017926
846	0.0163217
858	0.0196698
870	0.0311787
882	0.0288769
894	0.0196698
906	0.0128342
918	0.0109509
930	0.0115089
942	0.0133224
954	0.0126947
966	0.0139502
978	0.0196698
990	0.0297139
1002	0.0244128
1014	0.0163217
1026	0.0260869
1038	0.0270634
1050	0.0254591
1062	0.0403161
1074	0.0562891
1086	0.0498022
1098	0.0770749
1110	0.0864912
1122	0.0809809
1134	0.03641
1146	0.0274121
1158	0.0285979
1170	0.0334107
1182	0.0635432
1194	0.0523133
1206	0.0594976
1218	0.0584513
1230	0.0826549
1242	0.206463
1254	0.354265
1266	0.275237
1278	0.178423
1290	0.161543
1302	0.212043
1314	0.194187
1326	0.130365
1338	0.0717738
1350	0.0484769
1362	0.0778421
1374	0.0732385
1386	0.0366193
1398	0.0297139
1410	0.0349453
1422	0.0676585
1434	0.122064
1446	0.0733781
1458	0.0575446
1470	0.0841197
1482	0.130853
1494	0.352801
1506	0.69751
1518	0.276563
1530	0.0896998
1542	0.0527318
1554	0.0484072
1566	0.055731
1578	0.0784001
1590	0.214066
1602	0.568889
1614	0.385793
1626	0.104975
1638	0.049314
1650	0.0281097
1662	0.0194605
1674	0.017647
1686	0.0185538
1698	0.0154847
1710	0.0128342
1722	0.0100441
1734	0.00976514
1746	0.0115787
1758	0.014299
1770	0.0118577
1782	0.00892813
1794	0.0071146
1806	0.00899788
1818	0.0115089
1830	0.0120669
1842	0.0107417
1854	0.00585908
1866	0.00495232
1878	0.00509182
1890	0.00613809
1902	0.0104627
1914	0.0154847
1926	0.0153452
1938	0.0122064
1950	0.00502207
1962	0.00348755
1974	0.00334805
1986	0.0031388
1998	0.0035573
2010	0.00334805
2022	0.00320855
2034	0.00251104
2046	0.00223203
2058	0.00202278
2070	0.00223203
2082	0.00258079
2094	0.00174378
2106	0.00125552
2118	0.00111602
2130	0.000767261
2142	0.000488257
2154	0.000627759
2166	0.000488257
2178	0.00195303
2190	0.00216228
2202	0.00202278
2214	0.00265054
2226	0.00195303
2238	0.00446406
2250	0.014578
2262	0.0100441
2274	0.0034178
2286	0.00439431
2298	0.00558008
2310	0.00885838
2322	0.00857937
2334	0.0069751
2346	0.00976514
2358	0.00690535
2370	0.00830037
2382	0.00544058
2394	0.00139502
2406	0.00118577
2418	0.00069751
2430	6.9751e-05
2442	0
2454	0.000348755
2466	0.000627759
2478	0.00111602
2490	0.000906763
2502	0.00069751
2514	0.00104626
2526	0.00216228
2538	0.00334805
2550	0.00432456
2562	0.00502207
2574	0.00481282
2586	0.0036968
2598	0.00285979
2610	0.00244129
2622	0.00230178
2634	0.00167402
2646	0.00188328
2658	0.00209253
2670	0.00202278
2682	0.00272029
2694	0.00299929
2706	0.00432456
2718	0.00446406
2730	0.00320855
2742	0.00299929
2754	0.0032783
2766	0.00334805
2778	0.0034178
2790	0.00439431
2802	0.00620784
2814	0.00843987
2826	0.0131829
2838	0.0215531
2850	0.0354335
2862	0.0482677
2874	0.0553823
2886	0.0578933
2898	0.0516157
2910	0.0433154
2922	0.0427574
2934	0.0641709
2946	0.0848172
2958	0.0843987
2970	0.0873283
2982	0.0647987
2994	0.0299232
3006	0.0311089
3018	0.0652869
3030	0.10079
3042	0.0938151
3054	0.123599
3066	0.152057
3078	0.0977909
3090	0.0814692
3102	0.0620086
3114	0.0371773
3126	0.0161125
3138	0.00564983
3150	0.00230178
3162	0.000767261
3174	0.00111602
3186	0.000837012
3198	0.00118577
3210	0.00111602
3222	0.00118577
3234	0.00181353
3246	0.00153452
3258	0.00125552
3270	0.000558008
3282	0.000209253
3294	0
3306	0.000348755
3318	0.000627759
3330	0.00118577
3342	0.000627759
3354	0.00223203
3366	0.00251104
3378	0.00495232
3390	0.00976514
3402	0.0186235
3414	0.0231573
3426	0.0223901
3438	0.0216228
3450	0.0238548
3462	0.0196
3474	0.0122064
3486	0.00837012
3498	0.00585908
3510	0.0032783
3522	0.00292954
3534	0.00265054
3546	0.00202278
3558	0.00174378
3570	0.00188328
3582	0.00237153
3594	0.00244129
3606	0.000976514
3618	0.00195303
3630	0.0032783
3642	0.00258079
3654	0.00202278
3666	0.000976514
3678	0.00495232
3690	0.00202278
3702	0.00188328
3714	0.00237153
3726	0.00195303
3738	0.00272029
3750	0.00118577
3762	0.00160427
3774	0.00174378
3786	0.00111602
3798	0.00216228
3810	0.000906763
3822	0.00306904
3834	0.00244129
3846	0.00216228
3858	0.00292954
3870	0.0031388
3882	0.0036968
3894	0.00181353
3906	0.00320855
3918	0.00251104
3930	0.00195303
3942	0.00244129
3954	0.00258079
3966	0.00258079
