Infrared Spectrum: Benzene-d6
Formula: C 6 D 6
CAS: 1076-43-3
Origin: Sadtler Research Labs Under US-EPA Contract
1/CM	ABSORBANCE
450	0
462	0.0457011
474	0.184848
486	0.256635
498	0.529547
510	0.295797
522	0.157604
534	0.0373237
546	0.0198197
558	0.00565305
570	0.00469952
582	0.00504007
594	0.00490385
606	0.00497196
618	0.00565305
630	0.00565305
642	0.00694712
654	0.0090585
666	0.00592548
678	0.00769632
690	0.0113742
702	0.00721955
714	0.00510817
726	0.00524439
738	0.00633414
750	0.00647035
762	0.00442708
774	0.00592548
786	0.0138261
798	0.0606851
810	0.0721955
822	0.0488342
834	0.0413422
846	0.00667468
858	0.00469952
870	0.00333734
882	0.00340545
894	0.00469952
906	0.00558494
918	0.00626603
930	0.00476763
942	0.00524439
954	0.00565305
966	0.00469952
978	0.00408654
990	0.00429087
1002	0.00551683
1014	0.00592548
1026	0.00415465
1038	0.00340545
1050	0.0038141
1062	0.00333734
1074	0.00367789
1086	0.00360978
1098	0.00415465
1110	0.00408654
1122	0.00422276
1134	0.00878606
1146	0.0179808
1158	0.0170954
1170	0.0141667
1182	0.0060617
1194	0.00504007
1206	0.00449519
1218	0.00442708
1230	0.0038141
1242	0.00347356
1254	0.00415465
1266	0.00401843
1278	0.00401843
1290	0.00449519
1302	0.00674279
1314	0.0201603
1326	0.0242468
1338	0.0228846
1350	0.0205008
1362	0.00687901
1374	0.00728766
1386	0.00885417
1398	0.00967148
1410	0.00694712
1422	0.00864984
1434	0.0209095
1446	0.0292188
1458	0.0289463
1470	0.0123277
1482	0.0053125
1494	0.00442708
1506	0.00442708
1518	0.00408654
1530	0.00435898
1542	0.00490385
1554	0.00728766
1566	0.00640225
1578	0.00463141
1590	0.0068109
1602	0.0179127
1614	0.0255409
1626	0.0262901
1638	0.00960337
1650	0.00701523
1662	0.00497196
1674	0.00769632
1686	0.00803686
1698	0.00687901
1710	0.00544872
1722	0.00388221
1734	0.00435898
1746	0.00401843
1758	0.00401843
1770	0.0038141
1782	0.00401843
1794	0.00429087
1806	0.00395032
1818	0.00435898
1830	0.00469952
1842	0.0053125
1854	0.00633414
1866	0.00585737
1878	0.0053125
1890	0.00469952
1902	0.00463141
1914	0.00401843
1926	0.0038141
1938	0.00347356
1950	0.00340545
1962	0.00340545
1974	0.00367789
1986	0.0038141
1998	0.0038141
2010	0.00340545
2022	0.00320112
2034	0.00340545
2046	0.00340545
2058	0.00313301
2070	0.00313301
2082	0.00367789
2094	0.00388221
2106	0.00435898
2118	0.00422276
2130	0.00429087
2142	0.00415465
2154	0.00435898
2166	0.00422276
2178	0.00408654
2190	0.00490385
2202	0.00558494
2214	0.00517628
2226	0.0053125
2238	0.00762821
2250	0.0240425
2262	0.100733
2274	0.282925
2286	0.330056
2298	0.269371
2310	0.0839784
2322	0.0409335
2334	0.0430449
2346	0.0459736
2358	0.0638181
2370	0.0555088
2382	0.0425681
2394	0.027516
2406	0.0168229
2418	0.00687901
2430	0.00340545
2442	0.00354167
2454	0.00388221
2466	0.00347356
2478	0.00360978
2490	0.00333734
2502	0.00333734
2514	0.00333734
2526	0.00354167
2538	0.00340545
2550	0.0029968
2562	0.00320112
2574	0.00347356
2586	0.00320112
2598	0.00388221
2610	0.00422276
2622	0.00408654
2634	0.00367789
2646	0.00360978
2658	0.00333734
2670	0.00354167
2682	0.00313301
2694	0.0030649
2706	0.00326923
2718	0.00367789
2730	0.00313301
2742	0.00313301
2754	0.00354167
2766	0.0038141
2778	0.00388221
2790	0.00395032
2802	0.00360978
2814	0.00435898
2826	0.00497196
2838	0.00517628
2850	0.00626603
2862	0.00749199
2874	0.00728766
2886	0.00435898
2898	0.00360978
2910	0.00347356
2922	0.00415465
2934	0.00360978
2946	0.0038141
2958	0.00388221
2970	0.00415465
2982	0.00395032
2994	0.00395032
3006	0.00354167
3018	0.00354167
3030	0.00395032
3042	0.00497196
3054	0.00674279
3066	0.00728766
3078	0.00565305
3090	0.00469952
3102	0.00435898
3114	0.00442708
3126	0.00442708
3138	0.00408654
3150	0.00388221
3162	0.00388221
3174	0.00320112
3186	0.00313301
3198	0.00333734
3210	0.00524439
3222	0.00912661
3234	0.0136218
3246	0.0146434
3258	0.0113061
3270	0.00626603
3282	0.00510817
3294	0.00463141
3306	0.0038141
3318	0.0038141
3330	0.00333734
3342	0.00354167
3354	0.00367789
3366	0.00395032
3378	0.00367789
3390	0.00388221
3402	0.00313301
3414	0.00415465
3426	0.00422276
3438	0.00320112
3450	0.00347356
3462	0.00435898
3474	0.00388221
3486	0.00354167
3498	0.0030649
3510	0.00320112
3522	0.00388221
3534	0.00388221
3546	0.00347356
3558	0.00354167
3570	0.0038141
3582	0.00313301
3594	0.00367789
3606	0.00367789
3618	0.0038141
3630	0.00483574
3642	0.00422276
3654	0.00415465
3666	0.00360978
3678	0.00401843
3690	0.00401843
3702	0.00333734
3714	0.00449519
3726	0.00442708
3738	0.00476763
3750	0.00333734
3762	0.00497196
3774	0.00367789
3786	0.00435898
3798	0.00626603
3810	0.00762821
3822	0.00653846
3834	0.00640225
3846	0.00578926
3858	0.00517628
3870	0.00422276
3882	0.00415465
3894	0.00463141
3906	0.00524439
3918	0.00388221
3930	0.00510817
3942	0.00517628
3954	0.00408654
3966	0.00313301
