Infrared Spectrum: Benzene, hexyl-
Formula: C 12 H 18
CAS: 1077-16-3
Origin: Sadtler Research Labs Under US-EPA Contract
1/CM	ABSORBANCE
450	0.00615969
462	0.0128858
474	0.0113282
486	0.0126026
498	0.011045
510	0.0108326
522	0.00615969
534	0.00580568
546	0.00290284
558	0.0070801
570	0.015293
582	0.00587648
594	0.00488527
606	0.00403566
618	0.00106201
630	0.00184083
642	0.00368165
654	0.00637209
666	0.00948733
678	0.031648
690	0.120291
702	0.146487
714	0.0759695
726	0.0866604
738	0.119087
750	0.0807131
762	0.0288868
774	0.0164258
786	0.0147266
798	0.00615969
810	0.0070093
822	0.00750491
834	0.00594728
846	0.00467287
858	0.0074341
870	0.00467287
882	0.00800051
894	0.0105493
906	0.0130982
918	0.00608889
930	0.00644289
942	0.00361085
954	0.00495607
966	0.0067261
978	0.00531008
990	0.00608889
1002	0.0074341
1014	0.00778811
1026	0.0249928
1038	0.0195411
1050	0.00955814
1062	0.0177003
1074	0.014939
1086	0.00764651
1098	0.00984134
1110	0.0114698
1122	0.0067969
1134	0.00446046
1146	0.00361085
1158	0.00361085
1170	0.00615969
1182	0.00835452
1194	0.0072217
1206	0.00856692
1218	0.00587648
1230	0.0068677
1242	0.00828372
1254	0.00757571
1266	0.00800051
1278	0.00941653
1290	0.0102661
1302	0.0130982
1314	0.0153638
1326	0.0144434
1338	0.0202491
1350	0.0258424
1362	0.0232935
1374	0.0232935
1386	0.0272584
1398	0.014939
1410	0.0111866
1422	0.0145142
1434	0.0207447
1446	0.0556496
1458	0.0932449
1470	0.0712258
1482	0.0385865
1494	0.0734914
1506	0.0526759
1518	0.0123194
1530	0.00948733
1542	0.0126734
1554	0.0074341
1566	0.0070801
1578	0.0123902
1590	0.0198243
1602	0.0425514
1614	0.0296656
1626	0.00870852
1638	0.00814212
1650	0.00630129
1662	0.00538088
1674	0.00531008
1686	0.00828372
1698	0.0108326
1710	0.0071509
1722	0.0068677
1734	0.0118946
1746	0.0068677
1758	0.00495607
1770	0.00559328
1782	0.00538088
1794	0.0135938
1806	0.00785891
1818	0.00431886
1830	0.00417726
1842	0.00368165
1854	0.00438966
1866	0.0074341
1878	0.00771731
1890	0.00431886
1902	0.00226563
1914	0.00276124
1926	0.00495607
1938	0.00941653
1950	0.00977054
1962	0.00460206
1974	0.00191163
1986	0.00169922
1998	0.000849612
2010	0.00113282
2022	0.00184083
2034	0.00134522
2046	0.00127442
2058	0.00155762
2070	0.000920413
2082	0.00134522
2094	0.00113282
2106	0.000849612
2118	0.00127442
2130	0.000849612
2142	0.000778811
2154	0.00106201
2166	0.00127442
2178	0.00127442
2190	0.00184083
2202	0.00113282
2214	0.00070801
2226	0.00120362
2238	0.000849612
2250	0.000849612
2262	0.00134522
2274	0.000991214
2286	0.000778811
2298	0.00169922
2310	0.00155762
2322	0.000920413
2334	0.00184083
2346	0.000778811
2358	7.0801e-05
2370	0.000920413
2382	0.00070801
2394	0.00070801
2406	0.00127442
2418	0.00106201
2430	0.000778811
2442	0.000778811
2454	0.000778811
2466	0.00070801
2478	0.00070801
2490	0.000778811
2502	0.000637209
2514	0.000778811
2526	0.00070801
2538	0.000991214
2550	0.00177003
2562	0.00141602
2574	0.00247803
2586	0.00297364
2598	0.00212403
2610	0.00346925
2622	0.00417726
2634	0.00368165
2646	0.00495607
2658	0.00587648
2670	0.00531008
2682	0.00644289
2694	0.00637209
2706	0.00460206
2718	0.00538088
2730	0.00651369
2742	0.0071509
2754	0.00792971
2766	0.00785891
2778	0.00856692
2790	0.0128858
2802	0.0157178
2814	0.0196119
2826	0.0267628
2838	0.0395778
2850	0.0923245
2862	0.246741
2874	0.254954
2886	0.190667
2898	0.152505
2910	0.214102
2922	0.394008
2934	0.70801
2946	0.54092
2958	0.298851
2970	0.364271
2982	0.147266
2994	0.0581276
3006	0.0528175
3018	0.0622341
3030	0.141531
3042	0.135088
3054	0.0574196
3066	0.099263
3078	0.119583
3090	0.0670485
3102	0.0424806
3114	0.027754
3126	0.0104785
3138	0.00587648
3150	0.00516847
3162	0.00481447
3174	0.00488527
3186	0.00410646
3198	0.00269044
3210	0.00354005
3222	0.00361085
3234	0.00162842
3246	0.00198243
3258	0.00276124
3270	0.000778811
3282	0.00141602
3294	0.00191163
3306	0.000495607
3318	0.00134522
3330	0.00148682
3342	0.000141602
3354	0.00169922
3366	0.00191163
3378	0.00120362
3390	0.00233643
3402	0.00191163
3414	0.00127442
3426	0.00177003
3438	0.00141602
3450	0.000991214
3462	0.00148682
3474	0.00127442
3486	0.00113282
3498	0.00169922
3510	0.00127442
3522	0.00070801
3534	0.00120362
3546	0.00184083
3558	0.00113282
3570	0.00346925
3582	0.00169922
3594	0.00247803
3606	0.00261964
3618	0.00318605
3630	0.00516847
3642	0.00417726
3654	0.00531008
3666	0.00417726
3678	0.00608889
3690	0.00509767
3702	0.00290284
3714	0.00552248
3726	0.00467287
3738	0.00587648
3750	0.0074341
3762	0.00523927
3774	0.00438966
3786	0.00552248
3798	0.00601809
3810	0.00594728
3822	0.0070093
3834	0.00623049
3846	0.00615969
3858	0.00637209
3870	0.00658449
3882	0.00615969
3894	0.00630129
3906	0.00601809
3918	0.00580568
3930	0.00637209
3942	0.00545168
3954	0.00177003
3966	0.00212403
