Infrared Spectrum: 1(2H)-Naphthalenone, 3,4-dihydro-6-methoxy-
Formula: C 11 H 12 O 2
CAS: 1078-19-9
Origin: Sadtler Research Labs Under US-EPA Contract
1/CM	ABSORBANCE
450	0
462	0.0208913
474	0.0304535
486	0.023178
498	0.0209953
510	0.029622
522	0.0621543
534	0.102586
546	0.0997795
558	0.0541512
570	0.046252
582	0.0402236
594	0.0318047
606	0.0216189
618	0.0199559
630	0.0191244
642	0.0229701
654	0.0273354
666	0.0278551
678	0.0156945
690	0.00685984
702	0.00384567
714	0.0111213
726	0.0169417
738	0.00945827
750	0.00654803
762	0.00301417
774	0.00457323
786	0.00488504
798	0.0113291
810	0.0447968
822	0.080759
834	0.10508
846	0.0664157
858	0.0387685
870	0.0745228
882	0.143641
894	0.0862677
906	0.0481228
918	0.031389
930	0.0254646
942	0.0130961
954	0.0119528
966	0.0133039
978	0.0161102
990	0.0189165
1002	0.0274394
1014	0.114435
1026	0.13595
1038	0.147279
1050	0.0762898
1062	0.0617386
1074	0.0717165
1086	0.0331559
1098	0.0674551
1110	0.231572
1122	0.324491
1134	0.165364
1146	0.135014
1158	0.196129
1170	0.069326
1182	0.1188
1194	0.0821102
1206	0.0516567
1218	0.0698457
1230	0.151332
1242	0.588387
1254	1.03937
1266	1.01889
1278	0.633704
1290	0.192803
1302	0.121294
1314	0.20143
1326	0.267326
1338	0.247994
1350	0.33
1362	0.0663118
1374	0.0310772
1386	0.0267118
1398	0.0320126
1410	0.0443811
1422	0.0772252
1434	0.0785764
1446	0.111836
1458	0.127946
1470	0.143537
1482	0.140211
1494	0.280006
1506	0.0979087
1518	0.0384567
1530	0.0328441
1542	0.0389764
1554	0.0558142
1566	0.133455
1578	0.216709
1590	0.454309
1602	0.980957
1614	0.547852
1626	0.198831
1638	0.10508
1650	0.0614268
1662	0.0542551
1674	0.077537
1686	0.240614
1698	0.797093
1710	0.69326
1722	0.13491
1734	0.046148
1746	0.0284787
1758	0.023178
1770	0.0257764
1782	0.0218268
1794	0.0169417
1806	0.0134079
1818	0.0112252
1830	0.0095622
1842	0.00935433
1854	0.00769134
1866	0.0075874
1878	0.00717165
1890	0.0075874
1902	0.00873071
1914	0.0111213
1926	0.0117449
1938	0.0110173
1950	0.0114331
1962	0.00987401
1974	0.00779527
1986	0.00862677
1998	0.00914646
2010	0.00706772
2022	0.00530079
2034	0.00634016
2046	0.00831496
2058	0.00904252
2070	0.00935433
2082	0.00821102
2094	0.00665197
2106	0.00675591
2118	0.00582047
2130	0.00706772
2142	0.00789921
2154	0.00800315
2166	0.0075874
2178	0.00821102
2190	0.00727559
2202	0.00582047
2214	0.00467717
2226	0.00394961
2238	0.00322205
2250	0.00353386
2262	0.00353386
2274	0.00436535
2286	0.00831496
2298	0.0127843
2310	0.0173575
2322	0.0160063
2334	0.0112252
2346	0.0169417
2358	0.0120567
2370	0.0142394
2382	0.0135118
2394	0.00634016
2406	0.00623622
2418	0.00582047
2430	0.00530079
2442	0.00488504
2454	0.0047811
2466	0.00530079
2478	0.00623622
2490	0.00748346
2502	0.00789921
2514	0.00800315
2526	0.00862677
2538	0.00925039
2550	0.00914646
2562	0.0110173
2574	0.0142394
2586	0.0134079
2598	0.0126803
2610	0.0134079
2622	0.0109134
2634	0.00852283
2646	0.00873071
2658	0.00914646
2670	0.00914646
2682	0.00925039
2694	0.00873071
2706	0.00873071
2718	0.00935433
2730	0.00904252
2742	0.00935433
2754	0.00966614
2766	0.0111213
2778	0.0126803
2790	0.0134079
2802	0.0159024
2814	0.0207874
2826	0.0354425
2838	0.0766016
2850	0.140627
2862	0.0974929
2874	0.107367
2886	0.114331
2898	0.117033
2910	0.119631
2922	0.133143
2934	0.233546
2946	0.46252
2958	0.398287
2970	0.209849
2982	0.0669354
2994	0.0489543
3006	0.099052
3018	0.108926
3030	0.044485
3042	0.0356504
3054	0.0321165
3066	0.0385606
3078	0.0440693
3090	0.0410551
3102	0.0220346
3114	0.0145512
3126	0.0119528
3138	0.0110173
3150	0.0104976
3162	0.00862677
3174	0.00769134
3186	0.00613228
3198	0.00582047
3210	0.00550866
3222	0.00530079
3234	0.00446929
3246	0.00374173
3258	0.0036378
3270	0.00353386
3282	0.00322205
3294	0.00374173
3306	0.00394961
3318	0.00394961
3330	0.00384567
3342	0.00446929
3354	0.00530079
3366	0.00769134
3378	0.0136157
3390	0.016422
3402	0.00862677
3414	0.00519685
3426	0.00426142
3438	0.00530079
3450	0.0056126
3462	0.00530079
3474	0.00550866
3486	0.00571654
3498	0.00602835
3510	0.00540472
3522	0.00654803
3534	0.00654803
3546	0.00665197
3558	0.00654803
3570	0.00613228
3582	0.00582047
3594	0.00675591
3606	0.00634016
3618	0.00644409
3630	0.00675591
3642	0.00706772
3654	0.00821102
3666	0.00342992
3678	0.00873071
3690	0.00665197
3702	0.00509291
3714	0.00623622
3726	0.00498898
3738	0.00873071
3750	0.00498898
3762	0.00696378
3774	0.00592441
3786	0.00592441
3798	0.00717165
3810	0.00467717
3822	0.00789921
3834	0.00800315
3846	0.00737953
3858	0.0075874
3870	0.00800315
3882	0.00727559
3894	0.00893858
3906	0.00665197
3918	0.00737953
3930	0.00717165
3942	0.00769134
3954	0.00852283
3966	0.00810709
