Infrared Spectrum: 4-Methyl-2-pentyl acetate
Formula: C 8 H 16 O 2
CAS: 108-84-9
Origin: Sadtler Research Labs Under US-EPA Contract
1/CM	ABSORBANCE
450	0.0443461
462	0.0100292
474	0.0182459
486	0.0194543
498	0.0275502
510	0.0217501
522	0.0100292
534	0.00592087
546	0.0159501
558	0.00652504
570	0.0134126
582	0.0122042
594	0.0135334
606	0.0392711
618	0.0300877
630	0.0189709
642	0.0252543
654	0.0137751
666	0.00616253
678	0.0106334
690	0.00519586
702	0.00410836
714	0.00459169
726	0.00314168
738	0.00555836
750	0.00773338
762	0.00435002
774	0.00725004
786	0.0118417
798	0.0111167
810	0.0167959
822	0.0169168
834	0.0109959
846	0.0142584
858	0.0158293
870	0.0177626
882	0.0215085
894	0.0201793
906	0.0172793
918	0.0216293
930	0.0364919
942	0.0789046
954	0.0708087
966	0.037096
978	0.036371
990	0.0420502
1002	0.065492
1014	0.127963
1026	0.193576
1038	0.155755
1050	0.13763
1062	0.107542
1074	0.0813213
1086	0.0634379
1098	0.056792
1110	0.0807171
1122	0.181976
1134	0.187776
1146	0.107301
1158	0.0905047
1170	0.0802338
1182	0.0489378
1194	0.0502669
1206	0.0853088
1218	0.189226
1230	0.578312
1242	1.20834
1254	0.6896
1266	0.224389
1278	0.108992
1290	0.0660962
1302	0.0383044
1314	0.0273085
1326	0.028396
1338	0.036371
1350	0.0590878
1362	0.159743
1374	0.317793
1386	0.225718
1398	0.0954589
1410	0.0381835
1422	0.0329877
1434	0.0431377
1446	0.0536503
1458	0.0769713
1470	0.089538
1482	0.058242
1494	0.0261001
1506	0.0205418
1518	0.0182459
1530	0.0177626
1542	0.0176418
1554	0.0134126
1566	0.0130501
1578	0.0126876
1590	0.0101501
1602	0.00870005
1614	0.00833755
1626	0.00845838
1638	0.0105126
1650	0.0123251
1662	0.0128084
1674	0.0172793
1686	0.0213876
1698	0.0290002
1710	0.0472461
1722	0.0671837
1734	0.116726
1746	0.428357
1758	0.803788
1770	0.286739
1782	0.0653712
1794	0.0494211
1806	0.030571
1818	0.0198168
1830	0.0174001
1842	0.0140167
1854	0.0106334
1866	0.00954589
1878	0.00918338
1890	0.00882088
1902	0.00725004
1914	0.0067667
1926	0.00555836
1938	0.00543753
1950	0.0056792
1962	0.0053167
1974	0.00483336
1986	0.00483336
1998	0.00422919
2010	0.00483336
2022	0.00459169
2034	0.00435002
2046	0.00519586
2058	0.0056792
2070	0.0053167
2082	0.0053167
2094	0.0056792
2106	0.00459169
2118	0.00495419
2130	0.00507503
2142	0.00507503
2154	0.0053167
2166	0.00447086
2178	0.00555836
2190	0.00592087
2202	0.00435002
2214	0.00386669
2226	0.00447086
2238	0.00374585
2250	0.00471253
2262	0.00435002
2274	0.00410836
2286	0.00398752
2298	0.00410836
2310	0.00410836
2322	0.00519586
2334	0.00555836
2346	0.000725004
2358	0.00277918
2370	0.00060417
2382	0.000966672
2394	0.00338335
2406	0.00386669
2418	0.00350419
2430	0.00290002
2442	0.00302085
2454	0.00302085
2466	0.00422919
2478	0.0053167
2490	0.00410836
2502	0.00302085
2514	0.00217501
2526	0.00157084
2538	0.00145001
2550	0.00108751
2562	0.000966672
2574	0.00217501
2586	0.00217501
2598	0.00338335
2610	0.00386669
2622	0.00386669
2634	0.00398752
2646	0.00326252
2658	0.00410836
2670	0.00362502
2682	0.00398752
2694	0.00519586
2706	0.00483336
2718	0.00555836
2730	0.00845838
2742	0.00978755
2754	0.00725004
2766	0.0064042
2778	0.00761254
2790	0.00737087
2802	0.00906255
2814	0.0117209
2826	0.0169168
2838	0.0242876
2850	0.0361294
2862	0.0480919
2874	0.100534
2886	0.14633
2898	0.125305
2910	0.164093
2922	0.21303
2934	0.235022
2946	0.25206
2958	0.327218
2970	0.464365
2982	0.302689
2994	0.170859
3006	0.0520795
3018	0.024771
3030	0.0198168
3042	0.0170376
3054	0.0142584
3066	0.0122042
3078	0.0113584
3090	0.00954589
3102	0.00894172
3114	0.00725004
3126	0.00712921
3138	0.00700837
3150	0.00507503
3162	0.0060417
3174	0.00749171
3186	0.00555836
3198	0.00688754
3210	0.00592087
3222	0.00290002
3234	0.00314168
3246	0.00447086
3258	0.00362502
3270	0.00326252
3282	0.00193334
3294	0.00374585
3306	0.00169168
3318	0.00205418
3330	0.00169168
3342	0.00241668
3354	0.00314168
3366	0.00471253
3378	0.00145001
3390	0.000966672
3402	0.00422919
3414	0.00422919
3426	0.00459169
3438	0.00386669
3450	0.00543753
3462	0.00435002
3474	0.0056792
3486	0.0067667
3498	0.0118417
3510	0.00580003
3522	0.00290002
3534	0.00181251
3546	0.00290002
3558	0.0056792
3570	0.00374585
3582	0.00422919
3594	0.00338335
3606	0.00326252
3618	0.00422919
3630	0.00543753
3642	0.00628337
3654	0.00737087
3666	0.00761254
3678	0.00616253
3690	0.0056792
3702	0.00652504
3714	0.00700837
3726	0.00193334
3738	0.0064042
3750	0.0064042
3762	0.00725004
3774	0.00483336
3786	0.00664587
3798	0.00519586
3810	0.00857921
3822	0.00507503
3834	0.0060417
3846	0.00809588
3858	0.00712921
3870	0.00785421
3882	0.0060417
3894	0.0064042
3906	0.00471253
3918	0.00555836
3930	0.00386669
3942	0.00592087
3954	0.00749171
3966	0.0067667
