Infrared Spectrum: Phenol
Formula: C 6 H 6 O
CAS: 108-95-2
Origin: Sadtler Research Labs Under US-EPA Contract
1/CM	ABSORBANCE
450	0.0733844
462	0.0358476
474	0.0549914
486	0.0947804
498	0.140481
510	0.0993787
522	0.0944989
534	0.0509562
546	0.0159531
558	0.0156716
570	0.0233667
582	0.0278711
594	0.0274957
606	0.0133256
618	0.00168916
630	0.0144517
642	0.0144517
654	0.0296541
666	0.0916836
678	0.130347
690	0.294664
702	0.123965
714	0.0842701
726	0.166382
738	0.279274
750	0.596835
762	0.286687
774	0.141138
786	0.0542407
798	0.101912
810	0.163942
822	0.169948
834	0.0883992
846	0.0170792
858	0.0155778
870	0.0306863
882	0.0536776
894	0.033877
906	0.0200822
918	0.00975957
930	0.00910267
942	0.00731968
954	0.011261
966	0.0141701
978	0.0226159
990	0.0354723
1002	0.0403521
1014	0.0579944
1026	0.0448565
1038	0.0460764
1050	0.0622172
1062	0.0926221
1074	0.077232
1086	0.0422289
1098	0.0284341
1110	0.0299356
1122	0.0425104
1134	0.164787
1146	0.268857
1158	0.446031
1170	0.623017
1182	0.93598
1194	0.746232
1206	0.452037
1218	0.124059
1230	0.103883
1242	0.31606
1254	0.521198
1266	0.498207
1278	0.0985341
1290	0.0274957
1302	0.0379122
1314	0.0784519
1326	0.141889
1338	0.204013
1350	0.172763
1362	0.046921
1374	0.0228036
1386	0.021396
1398	0.0149209
1410	0.00816425
1422	0.00985341
1434	0.0147332
1446	0.0398828
1458	0.161408
1470	0.204951
1482	0.281901
1494	0.443028
1506	0.400424
1518	0.18074
1530	0.0391321
1542	0.0490794
1554	0.0520823
1566	0.062968
1578	0.121713
1590	0.369831
1602	0.657926
1614	0.421069
1626	0.0958127
1638	0.0150147
1650	0.00882115
1662	0.00975957
1674	0.01783
1686	0.0261819
1698	0.0266511
1710	0.0197068
1722	0.0129502
1734	0.0118241
1746	0.0123871
1758	0.0156716
1770	0.0175485
1782	0.0113549
1794	0.00816425
1806	0.00835194
1818	0.0144517
1830	0.0174546
1842	0.0184869
1854	0.0113549
1866	0.00638126
1878	0.00272142
1890	0.0046921
1902	0.0103226
1914	0.0213021
1926	0.0221467
1938	0.0185807
1950	0.00994725
1962	0.00431673
1974	0.00516131
1986	0.00666278
1998	0.00675662
2010	0.00497363
2022	0.00319063
2034	0.00337831
2046	0.00572436
2058	0.00985341
2070	0.0104165
2082	0.00638126
2094	0.00215837
2106	0.000375368
2118	0.000563052
2130	0.000656894
2142	0.000563052
2154	0.000375368
2166	0.00093842
2178	0.00140763
2190	0.00168916
2202	0.00121995
2214	0.0011261
2226	0.001783
2238	0.00187684
2250	0.00187684
2262	0.00121995
2274	0.00140763
2286	0.00272142
2298	0.00600589
2310	0.0102288
2322	0.00985341
2334	0.00722583
2346	0.00525515
2358	0.00431673
2370	0.00394136
2382	0.00544284
2394	0.00816425
2406	0.0129502
2418	0.0153901
2430	0.0149209
2442	0.0140763
2454	0.0102288
2466	0.00572436
2478	0.00450442
2490	0.00609973
2502	0.00891499
2514	0.00882115
2526	0.00553668
2538	0.00159531
2550	0.00103226
2562	0.0011261
2574	0.00131379
2586	0.00272142
2598	0.00384752
2610	0.00450442
2622	0.00525515
2634	0.00506747
2646	0.00450442
2658	0.00337831
2670	0.00206452
2682	0.00159531
2694	0.000656894
2706	0
2718	0.000375368
2730	0.0011261
2742	0.00140763
2754	0.00168916
2766	0.00206452
2778	0.00243989
2790	0.00262758
2802	0.00159531
2814	0.00140763
2826	0.000656894
2838	0.0011261
2850	0.00131379
2862	0.001783
2874	0.00272142
2886	0.00394136
2898	0.00516131
2910	0.00628741
2922	0.00628741
2934	0.00506747
2946	0.00441057
2958	0.00328447
2970	0.00300294
2982	0.00384752
2994	0.00694431
3006	0.0323755
3018	0.0823933
3030	0.145643
3042	0.179895
3054	0.201291
3066	0.183367
3078	0.145361
3090	0.13776
3102	0.102757
3114	0.0658771
3126	0.0281526
3138	0.00919652
3150	0.00253373
3162	0.00093842
3174	0.000656894
3186	0.00103226
3198	0.000750736
3210	0.0011261
3222	0.0011261
3234	0.000844578
3246	0.00168916
3258	0.000656894
3270	0.00046921
3282	0.000563052
3294	0.00103226
3306	0.000844578
3318	0.00140763
3330	0.003566
3342	0.00544284
3354	0.00703815
3366	0.00638126
3378	0.00694431
3390	0.00553668
3402	0.00487978
3414	0.00525515
3426	0.00563052
3438	0.00487978
3450	0.00450442
3462	0.00450442
3474	0.00347215
3486	0.00300294
3498	0.00319063
3510	0.00262758
3522	0.00243989
3534	0.00187684
3546	0.00197068
3558	0.00253373
3570	0.00497363
3582	0.00365984
3594	0.00516131
3606	0.00750736
3618	0.0173608
3630	0.077795
3642	0.339145
3654	0.397421
3666	0.347403
3678	0.0565867
3690	0.0122933
3702	0.00365984
3714	0.00600589
3726	0.00525515
3738	0.00788273
3750	0.00703815
3762	0.00422289
3774	0.00347215
3786	0.00441057
3798	0.00431673
3810	0.00572436
3822	0.00506747
3834	0.00769504
3846	0.00722583
3858	0.0110734
3870	0.0116364
3882	0.0117302
3894	0.0076012
3906	0.0122933
3918	0.0129502
3930	0.00872731
3942	0.00863346
3954	0.00553668
3966	0.00703815
