Infrared Spectrum: 1-Propen-2-ol, acetate
Formula: C 5 H 8 O 2
CAS: 108-22-5
Origin: Sadtler Research Labs Under US-EPA Contract
1/CM	ABSORBANCE
450	0.0228232
462	0.020774
474	0.0223286
486	0.0250843
498	0.0240951
510	0.0224699
522	0.0156865
534	0.0295359
546	0.0148386
558	0.0190782
570	0.0202794
582	0.0288293
594	0.031585
606	0.0272748
618	0.0235298
630	0.0258616
642	0.0316557
654	0.0248723
666	0.0098924
678	0.0091858
690	0.00770194
702	0.00621808
714	0.00381564
726	0.0014132
738	0.0003533
750	0.00098924
762	0.00289706
774	0.00190782
786	0.0007066
798	0.00381564
810	0.00593544
822	0.0095391
834	0.014556
846	0.0188662
858	0.035118
870	0.0525004
882	0.0401349
894	0.0380857
906	0.0260735
918	0.011023
930	0.00692468
942	0.00996306
954	0.0188662
966	0.028476
978	0.0310197
990	0.0380857
1002	0.0522177
1014	0.0657138
1026	0.0707307
1038	0.0579412
1050	0.0370965
1062	0.0329276
1074	0.0346941
1086	0.03533
1098	0.0275574
1110	0.0210567
1122	0.0224699
1134	0.02784
1146	0.0426786
1158	0.0647952
1170	0.102952
1182	0.20986
1194	0.526346
1206	0.7066
1218	0.456676
1230	0.155099
1242	0.0907981
1254	0.0636647
1266	0.0489674
1278	0.0337755
1290	0.0239537
1302	0.0191489
1314	0.0150506
1326	0.0125068
1338	0.0168877
1350	0.0316557
1362	0.0815416
1374	0.132488
1386	0.107474
1398	0.0428906
1410	0.0292532
1422	0.0263562
1434	0.031585
1446	0.0317263
1458	0.0264975
1470	0.017241
1482	0.011023
1494	0.00911514
1506	0.00968042
1518	0.00904448
1530	0.00925646
1542	0.00826722
1554	0.00826722
1566	0.00678336
1578	0.00692468
1590	0.00763128
1602	0.00664204
1614	0.00727798
1626	0.0084792
1638	0.014132
1650	0.0301718
1662	0.053419
1674	0.0653605
1686	0.0466356
1698	0.0269921
1710	0.0270628
1722	0.0338461
1734	0.0484021
1746	0.0787859
1758	0.164638
1770	0.296419
1782	0.315568
1794	0.218481
1806	0.122595
1818	0.0471302
1830	0.017453
1842	0.0108816
1854	0.00748996
1866	0.0052995
1878	0.003533
1890	0.00360366
1902	0.00346234
1914	0.00367432
1926	0.00416894
1938	0.00233178
1950	0.00113056
1962	0.0010599
1974	0.00113056
1986	0.00120122
1998	0.00190782
2010	0.00275574
2022	0.00395696
2034	0.0038863
2046	0.00289706
2058	0.00148386
2070	0.00148386
2082	0.00155452
2094	0.0014132
2106	0.00098924
2118	0.00098924
2130	0.00098924
2142	0.00049462
2154	0.0003533
2166	0.00042396
2178	0
2190	0
2202	0.0003533
2214	0.00091858
2226	0.00098924
2238	0.0010599
2250	0.00063594
2262	0.00120122
2274	0.00127188
2286	0.00169584
2298	0.0024731
2310	0.00332102
2322	0.00254376
2334	0.00275574
2346	0.00325036
2358	0.0049462
2370	0.00275574
2382	0.00346234
2394	0.00219046
2406	0.00127188
2418	0.00127188
2430	0.00155452
2442	0.0017665
2454	0.00233178
2466	0.00190782
2478	0.0024731
2490	0.00219046
2502	0.0014132
2514	0.00148386
2526	0.00204914
2538	0.0021198
2550	0.00183716
2562	0.00197848
2574	0.00148386
2586	0.00226112
2598	0.0021198
2610	0.00155452
2622	0.00155452
2634	0.00162518
2646	0.00190782
2658	0.00162518
2670	0.0021198
2682	0.00261442
2694	0.0024731
2706	0.00332102
2718	0.00275574
2730	0.00325036
2742	0.00275574
2754	0.00303838
2766	0.0028264
2778	0.00275574
2790	0.00325036
2802	0.0028264
2814	0.00395696
2826	0.00544082
2838	0.00621808
2850	0.00621808
2862	0.00784326
2874	0.00876184
2886	0.00826722
2898	0.0088325
2910	0.011023
2922	0.0158985
2934	0.0227525
2946	0.0248723
2958	0.02141
2970	0.0211273
2982	0.0218339
2994	0.0284053
3006	0.0244484
3018	0.0158278
3030	0.0127895
3042	0.0118709
3054	0.010811
3066	0.0103164
3078	0.00904448
3090	0.00897382
3102	0.00890316
3114	0.0109523
3126	0.0115882
3138	0.00946844
3150	0.00501686
3162	0.00367432
3174	0.00275574
3186	0.00233178
3198	0.00275574
3210	0.00275574
3222	0.0031797
3234	0.00289706
3246	0.0031797
3258	0.00438092
3270	0.00409828
3282	0.00261442
3294	0.003533
3306	0.00332102
3318	0.003533
3330	0.0017665
3342	0.00275574
3354	0.00325036
3366	0.00226112
3378	0.00233178
3390	0.00183716
3402	0.00240244
3414	0.003533
3426	0.00226112
3438	0.00325036
3450	0.00325036
3462	0.00254376
3474	0.00226112
3486	0.00332102
3498	0.00275574
3510	0.00346234
3522	0.00339168
3534	0.00579412
3546	0.00770194
3558	0.0124362
3570	0.0146973
3582	0.0197848
3594	0.014556
3606	0.0118002
3618	0.0049462
3630	0.00339168
3642	0.00204914
3654	0.00084792
3666	0.00233178
3678	0.00162518
3690	0.00226112
3702	0.0031797
3714	0.00240244
3726	0.00275574
3738	0.00438092
3750	0.00310904
3762	0.00240244
3774	0.00162518
3786	0.003533
3798	0.00261442
3810	0.00487554
3822	0.00402762
3834	0.00240244
3846	0.0042396
3858	0.003533
3870	0.00374498
3882	0.00233178
3894	0.00374498
3906	0.00487554
3918	0.00296772
3930	0.00346234
3942	0.00240244
3954	0.00381564
3966	0.00374498
