Infrared Spectrum: Pyridine, 2,4-dimethyl-
Formula: C 7 H 9 N
CAS: 108-47-4
Origin: Sadtler Research Labs Under US-EPA Contract
1/CM	ABSORBANCE
450	0.00709568
462	0.00709568
474	0.0132844
486	0.0168589
498	0.0181927
510	0.0346248
522	0.0327575
534	0.0335578
546	0.0193664
558	0.0138713
570	0.00565521
582	0.00778925
594	0.00965653
606	0.00730909
618	0.0079493
630	0.00917637
642	0.012004
654	0.00992329
666	0.00442813
678	0.00746914
690	0.00746914
702	0.0106702
714	0.0213404
726	0.0412403
738	0.0229943
750	0.0231543
762	0.0256618
774	0.0300366
786	0.0607668
798	0.111344
810	0.19105
822	0.114598
834	0.0482293
846	0.015045
858	0.0144048
870	0.0165922
882	0.0138179
894	0.0215538
906	0.0507368
918	0.05031
930	0.0145115
942	0.0126975
954	0.0177659
966	0.0268356
978	0.0272624
990	0.0328642
1002	0.0316905
1014	0.0260886
1026	0.0375058
1038	0.0475357
1050	0.0424674
1062	0.0327042
1074	0.0228876
1086	0.0173391
1098	0.0136045
1110	0.018246
1122	0.0245948
1134	0.026142
1146	0.0210203
1158	0.0243814
1170	0.0273691
1182	0.0197399
1194	0.0134445
1206	0.0123241
1218	0.0163254
1230	0.0200066
1242	0.0331843
1254	0.0335578
1266	0.0195798
1278	0.0242214
1290	0.0468955
1302	0.0450816
1314	0.0192064
1326	0.0158986
1338	0.0195798
1350	0.0230476
1362	0.0355851
1374	0.0697831
1386	0.10969
1398	0.131724
1410	0.127669
1422	0.126175
1434	0.142767
1446	0.153277
1458	0.157599
1470	0.175898
1482	0.221887
1494	0.214471
1506	0.145115
1518	0.103928
1530	0.096672
1542	0.106809
1554	0.138446
1566	0.169923
1578	0.186088
1590	0.241893
1602	0.530522
1614	0.438172
1626	0.0910168
1638	0.0283294
1650	0.0165922
1662	0.0163254
1674	0.0206468
1686	0.0171257
1698	0.0145648
1710	0.00981658
1722	0.0107236
1734	0.0150983
1746	0.0149383
1758	0.0122707
1770	0.0120573
1782	0.00906967
1794	0.00634877
1806	0.0054418
1818	0.00634877
1830	0.00821605
1842	0.00773589
1854	0.00762919
1866	0.00842946
1878	0.00778925
1890	0.00965653
1902	0.0123774
1914	0.017019
1926	0.0158452
1938	0.00960318
1950	0.00650882
1962	0.00538845
1974	0.00474824
1986	0.00416138
1998	0.00394797
2010	0.00352117
2022	0.00416138
2034	0.00400133
2046	0.00330776
2058	0.00304101
2070	0.00400133
2082	0.00442813
2094	0.00394797
2106	0.00416138
2118	0.00426808
2130	0.00421473
2142	0.00469489
2154	0.00416138
2166	0.00448148
2178	0.00421473
2190	0.00453484
2202	0.00400133
2214	0.00421473
2226	0.00453484
2238	0.00448148
2250	0.00394797
2262	0.00314771
2274	0.00389462
2286	0.00618872
2298	0.00826941
2310	0.00970988
2322	0.00917637
2334	0.00874956
2346	0.0117906
2358	0.0105101
2370	0.00688228
2382	0.00912302
2394	0.00586861
2406	0.00528175
2418	0.00480159
2430	0.00597531
2442	0.00640212
2454	0.00656217
2466	0.00597531
2478	0.00490829
2490	0.00362787
2502	0.00389462
2514	0.00394797
2526	0.00384127
2538	0.00357452
2550	0.00400133
2562	0.00320106
2574	0.00181393
2586	0.00240079
2598	0.00266755
2610	0.0027209
2622	0.00197399
2634	0.00240079
2646	0.00112037
2658	0.00218739
2670	0.00240079
2682	0.0029343
2694	0.00341446
2706	0.00405468
2718	0.0053351
2730	0.00853616
2742	0.012164
2754	0.0101367
2766	0.00645547
2778	0.00608201
2790	0.00624207
2802	0.00890962
2814	0.0118973
2826	0.0151517
2838	0.0226208
2850	0.0373457
2862	0.0682359
2874	0.0942712
2886	0.0982725
2898	0.0991262
2910	0.117692
2922	0.184488
2934	0.276465
2946	0.255711
2958	0.158292
2970	0.131564
2982	0.130923
2994	0.139886
3006	0.196225
3018	0.249949
3030	0.228342
3042	0.182994
3054	0.185288
3066	0.176432
3078	0.123988
3090	0.0799731
3102	0.0516971
3114	0.0274224
3126	0.0133911
3138	0.00869621
3150	0.00688228
3162	0.00592196
3174	0.00474824
3186	0.00373457
3198	0.00352117
3210	0.00234744
3222	0.00314771
3234	0.0026142
3246	0.00202734
3258	0.00229409
3270	0.00213404
3282	0.00330776
3294	0.00304101
3306	0.00266755
3318	0.00325441
3330	0.0027209
3342	0.00277425
3354	0.0025075
3366	0.00325441
3378	0.00330776
3390	0.00378792
3402	0.00325441
3414	0.00154718
3426	0.00314771
3438	0.00346781
3450	0.00384127
3462	0.00298766
3474	0.0025075
3486	0.0028276
3498	0.00357452
3510	0.0029343
3522	0.00192064
3534	0.00256085
3546	0.00341446
3558	0.00224074
3570	0.00352117
3582	0.00352117
3594	0.00400133
3606	0.00426808
3618	0.0027209
3630	0.00448148
3642	0.00389462
3654	0.00586861
3666	0.00384127
3678	0.00661552
3690	0.00464154
3702	0.00480159
3714	0.00634877
3726	0.00597531
3738	0.00576191
3750	0.00757584
3762	0.00698898
3774	0.00560186
3786	0.00474824
3798	0.00704233
3810	0.00896297
3822	0.00837611
3834	0.00789595
3846	0.00890962
3858	0.00992329
3870	0.00864286
3882	0.00912302
3894	0.00682893
3906	0.00725574
3918	0.0102434
3930	0.00896297
3942	0.00880291
3954	0.00832276
3966	0.0105101
