Infrared Spectrum: Toluene
Formula: C 7 H 8
CAS: 108-88-3
Origin: Sadtler Research Labs Under US-EPA Contract
1/CM	ABSORBANCE
450	0.107467
462	0.13184
474	0.0523891
486	0.0196893
498	0.00815328
510	0.0136177
522	0.0259344
534	0.0119697
546	0.00451032
558	0.00928086
570	0.0093676
582	0.00719917
594	0.0229853
606	0.00884717
618	0.00815328
630	0.00667875
642	0.00954107
654	0.0178678
666	0.0627976
678	0.158468
690	0.262466
702	0.321274
714	0.458058
726	0.86737
738	0.377219
750	0.194378
762	0.0218577
774	0.00945433
786	0.00832675
798	0.00780633
810	0.00459706
822	0.00494401
834	0.00511748
846	0.00598485
858	0.00693896
870	0.0111023
882	0.0112758
894	0.0182148
906	0.0119697
918	0.0153524
930	0.0145718
942	0.011536
954	0.00962781
966	0.0116228
978	0.0109289
990	0.00659201
1002	0.00789307
1014	0.0248935
1026	0.0549913
1038	0.0577668
1050	0.0364295
1062	0.0460573
1074	0.0608894
1086	0.0529963
1098	0.0390317
1110	0.0225516
1122	0.0114493
1134	0.00780633
1146	0.00607159
1158	0.0086737
1170	0.0086737
1182	0.00841349
1194	0.0113625
1206	0.0136177
1218	0.0141381
1230	0.011536
1242	0.010235
1254	0.00919412
1266	0.00563791
1278	0.00598485
1290	0.00711243
1302	0.0105819
1314	0.0104952
1326	0.0105819
1338	0.00832675
1350	0.013531
1362	0.0185617
1374	0.0321794
1386	0.0427613
1398	0.0325264
1410	0.0238527
1422	0.0333937
1434	0.0427613
1446	0.074854
1458	0.0789307
1470	0.081793
1482	0.122473
1494	0.203225
1506	0.204439
1518	0.0835277
1530	0.0490931
1542	0.0416338
1554	0.0371234
1566	0.0325264
1578	0.0391184
1590	0.0607159
1602	0.109289
1614	0.103911
1626	0.0524759
1638	0.0141381
1650	0.00459706
1662	0.00659201
1674	0.00442359
1686	0.00693896
1698	0.00546443
1710	0.00789307
1722	0.0116228
1734	0.0107554
1746	0.00789307
1758	0.00598485
1770	0.00945433
1782	0.0206434
1794	0.0301845
1806	0.0265415
1818	0.0153524
1830	0.0122299
1842	0.0204699
1854	0.0258476
1866	0.0297508
1878	0.018128
1890	0.00745938
1902	0.0063318
1914	0.00980128
1926	0.0227251
1938	0.030358
1950	0.0353887
1962	0.0178678
1974	0.00607159
1986	0.00459706
1998	0.00407664
2010	0.00346948
2022	0.00216843
2034	0.0023419
2046	0.00260211
2058	0.00121432
2070	0.00225516
2082	0.001648
2094	0.00086737
2106	0.000780633
2118	0.000607159
2130	0.000520422
2142	0.000520422
2154	0.00208169
2166	0.0030358
2178	0.00329601
2190	0.00199495
2202	0.00216843
2214	0.00138779
2226	0.00147453
2238	0.00199495
2250	0.00329601
2262	0.00338274
2274	0.00442359
2286	0.00390317
2298	0.00442359
2310	0.00581138
2322	0.00789307
2334	0.00589812
2346	0.00624506
2358	0.00771959
2370	0.00581138
2382	0.00416338
2394	0.00425011
2406	0.00529096
2418	0.00546443
2430	0.00425011
2442	0.00346948
2454	0.00329601
2466	0.00372969
2478	0.00364295
2490	0.00355622
2502	0.00442359
2514	0.00407664
2526	0.00477054
2538	0.00381643
2550	0.00416338
2562	0.00407664
2574	0.00581138
2586	0.00693896
2598	0.00850023
2610	0.00598485
2622	0.00546443
2634	0.00433685
2646	0.00372969
2658	0.00364295
2670	0.00268885
2682	0.00294906
2694	0.00294906
2706	0.00346948
2718	0.00433685
2730	0.00910739
2742	0.0136177
2754	0.0155259
2766	0.00806654
2778	0.00693896
2790	0.00806654
2802	0.00962781
2814	0.0124034
2826	0.0172607
2838	0.0253272
2850	0.041547
2862	0.0774561
2874	0.13609
2886	0.155953
2898	0.14329
2910	0.140861
2922	0.224389
2934	0.278686
2946	0.245986
2958	0.143897
2970	0.0961913
2982	0.100875
2994	0.107901
3006	0.170525
3018	0.297248
3030	0.481477
3042	0.498998
3054	0.378607
3066	0.326218
3078	0.34131
3090	0.262726
3102	0.180239
3114	0.0928953
3126	0.0453635
3138	0.01648
3150	0.00841349
3162	0.00780633
3174	0.00520422
3186	0.00546443
3198	0.00372969
3210	0.00242864
3222	0.0030358
3234	0.00390317
3246	0.00451032
3258	0.00355622
3270	0.00433685
3282	0.00372969
3294	0.00355622
3306	0.00451032
3318	0.00268885
3330	0.00381643
3342	0.00442359
3354	0.00433685
3366	0.00381643
3378	0.00286232
3390	0.00346948
3402	0.00277558
3414	0.00390317
3426	0.00312253
3438	0.00190821
3450	0.00329601
3462	0.00242864
3474	0.00346948
3486	0.00190821
3498	0.0030358
3510	0.0030358
3522	0.00338274
3534	0.00433685
3546	0.00364295
3558	0.00329601
3570	0.00520422
3582	0.00338274
3594	0.00459706
3606	0.00346948
3618	0.00407664
3630	0.00607159
3642	0.00494401
3654	0.00546443
3666	0.00572464
3678	0.00520422
3690	0.00520422
3702	0.00520422
3714	0.00451032
3726	0.00485727
3738	0.00555117
3750	0.00190821
3762	0.00433685
3774	0.00407664
3786	0.00529096
3798	0.00581138
3810	0.00511748
3822	0.00572464
3834	0.00676549
3846	0.0079798
3858	0.00607159
3870	0.00572464
3882	0.00581138
3894	0.00520422
3906	0.00477054
3918	0.00659201
3930	0.00650528
3942	0.00555117
3954	0.00459706
3966	0.00529096
