Infrared Spectrum: 2-Pentanol, 4-methyl-
Formula: C 6 H 14 O
CAS: 108-11-2
Origin: Sadtler Research Labs Under US-EPA Contract
1/CM	ABSORBANCE
450	0.0235688
462	0.0918783
474	0.0723043
486	0.0656464
498	0.0596543
510	0.0423439
522	0.056858
534	0.022903
546	0.0901473
558	0.030493
570	0.0789621
582	0.0836226
594	0.0492681
606	0.0569912
618	0.053396
630	0.0528633
642	0.0513986
654	0.0529965
666	0.0527302
678	0.0511323
690	0.0494012
702	0.0505997
714	0.0487355
726	0.0463386
738	0.0479365
750	0.0462055
762	0.0448739
774	0.0484691
786	0.047537
798	0.0528633
810	0.0684427
822	0.0988025
834	0.0900141
846	0.0748342
858	0.0623175
870	0.0659127
882	0.0747011
894	0.0673774
906	0.0901473
918	0.153131
930	0.167112
942	0.109988
954	0.0816252
966	0.100534
978	0.0993351
990	0.0889489
1002	0.110787
1014	0.158057
1026	0.175101
1038	0.176566
1050	0.195874
1062	0.192146
1074	0.192545
1086	0.232359
1098	0.222106
1110	0.17883
1122	0.170175
1134	0.206793
1146	0.258591
1158	0.242479
1170	0.167911
1182	0.108789
1194	0.0921446
1206	0.105993
1218	0.126899
1230	0.145008
1242	0.160055
1254	0.154728
1266	0.134089
1278	0.115713
1290	0.102398
1302	0.0884162
1314	0.0818916
1326	0.0897478
1338	0.107325
1350	0.135021
1362	0.214516
1374	0.32184
1386	0.328898
1398	0.218777
1410	0.121839
1422	0.0853536
1434	0.089082
1446	0.120108
1458	0.173237
1470	0.192545
1482	0.13582
1494	0.0672443
1506	0.0388818
1518	0.0307593
1530	0.0270309
1542	0.0252998
1554	0.0245009
1566	0.0239683
1578	0.0237019
1590	0.0222372
1602	0.0215714
1614	0.0210388
1626	0.020373
1638	0.0210388
1650	0.0199736
1662	0.0201067
1674	0.0198404
1686	0.0206393
1698	0.0205062
1710	0.0223704
1722	0.0266314
1734	0.0280961
1746	0.0235688
1758	0.0185088
1770	0.0159788
1782	0.0147804
1794	0.0138483
1806	0.013582
1818	0.0121173
1830	0.0123836
1842	0.011851
1854	0.0119841
1866	0.0111852
1878	0.0102531
1890	0.0103862
1902	0.00972046
1914	0.00932099
1926	0.00932099
1938	0.0095873
1950	0.00905468
1962	0.00865521
1974	0.00865521
1986	0.00758995
1998	0.00612522
2010	0.00532628
2022	0.00492681
2034	0.00452734
2046	0.0046605
2058	0.00412787
2070	0.00359524
2082	0.00346208
2094	0.00292945
2106	0.00319577
2118	0.00292945
2130	0.00306261
2142	0.00306261
2154	0.00266314
2166	0.00332893
2178	0.0027963
2190	0.00266314
2202	0.00173104
2214	0.00106526
2226	0.000266314
2238	0.000266314
2250	0.000665785
2262	0.000532628
2274	0.00119841
2286	0.0018642
2298	0.00332893
2310	0.00399471
2322	0.00399471
2334	0.00306261
2346	0.0027963
2358	0.00319577
2370	0.0027963
2382	0.0027963
2394	0.00306261
2406	0.0037284
2418	0.00386155
2430	0.00399471
2442	0.0037284
2454	0.00306261
2466	0.0037284
2478	0.00412787
2490	0.00452734
2502	0.00479365
2514	0.00439418
2526	0.0046605
2538	0.00412787
2550	0.00492681
2562	0.00545944
2574	0.00758995
2586	0.00865521
2598	0.0113183
2610	0.0119841
2622	0.0122504
2634	0.0138483
2646	0.014381
2658	0.0139815
2670	0.0150467
2682	0.014381
2694	0.0147804
2706	0.0151799
2718	0.018642
2730	0.025433
2742	0.0267646
2754	0.0223704
2766	0.0241014
2778	0.0264982
2790	0.0298272
2802	0.0371508
2814	0.0495344
2826	0.0685759
2838	0.101066
2850	0.134489
2862	0.190415
2874	0.365649
2886	0.496809
2898	0.519179
2910	0.613055
2922	0.705865
2934	0.700406
2946	0.692017
2958	1.03716
2970	1.31959
2982	0.810394
2994	0.269377
3006	0.0772311
3018	0.0388818
3030	0.0264982
3042	0.0193078
3054	0.0162452
3066	0.0167778
3078	0.0170441
3090	0.0141146
3102	0.0129162
3114	0.0114515
3126	0.0125168
3138	0.0131825
3150	0.0129162
3162	0.0137152
3174	0.0145141
3186	0.016112
3198	0.0165115
3210	0.0142478
3222	0.00945415
3234	0.00692416
3246	0.00426102
3258	0.00319577
3270	0.00505997
3282	0.00359524
3294	0.00173104
3306	0.0018642
3318	0.00332893
3330	0.00199736
3342	0.00266314
3354	0.0027963
3366	0.00332893
3378	0.00452734
3390	0.00572575
3402	0.00519312
3414	0.00599207
3426	0.00732364
3438	0.00705732
3450	0.00599207
3462	0.00532628
3474	0.00585891
3486	0.00439418
3498	0.0037284
3510	0.00439418
3522	0.00652469
3534	0.00252998
3546	0.000266314
3558	0.00399471
3570	0.00319577
3582	0.00119841
3594	0.00505997
3606	0.00479365
3618	0.0147804
3630	0.0294277
3642	0.0596543
3654	0.087351
3666	0.0724374
3678	0.0260988
3690	0.0107857
3702	0.00692416
3714	0.00599207
3726	0.0046605
3738	0.00545944
3750	0.00785626
3762	0.00585891
3774	0.00492681
3786	0.00679101
3798	0.00932099
3810	0.00812258
3822	0.00745679
3834	0.0107857
3846	0.0111852
3858	0.00892152
3870	0.00745679
3882	0.00932099
3894	0.0117178
3906	0.0123836
3918	0.00825573
3930	0.00985362
3942	0.00319577
3954	0.0114515
3966	0.00705732
