Infrared Spectrum: Benzenamine, 3-methyl-
Formula: C 7 H 9 N
CAS: 108-44-1
Origin: Sadtler Research Labs Under US-EPA Contract
1/CM	ABSORBANCE
450	0.0317225
462	0.0069123
474	0.0317225
486	0.0472752
498	0.0522126
510	0.0599889
522	0.0538172
534	0.0417207
546	0.0404864
558	0.0264149
570	0.0229587
582	0.0369068
594	0.0366599
606	0.0407332
618	0.0485096
630	0.0634451
642	0.140838
654	0.343887
666	0.509782
678	0.443498
690	0.296735
702	0.162192
714	0.0820836
726	0.0738135
738	0.0825773
750	0.163427
762	0.300932
774	0.337715
786	0.20453
798	0.071962
810	0.0386348
822	0.0366599
834	0.0538172
846	0.103931
858	0.084182
870	0.0562859
882	0.0277727
894	0.0244399
906	0.0301179
918	0.0693699
930	0.0687527
942	0.0178979
954	0.0120965
966	0.0182682
978	0.0245634
990	0.0466581
1002	0.0488799
1014	0.018762
1026	0.00962785
1038	0.0229587
1050	0.0380177
1062	0.0629513
1074	0.113066
1086	0.114794
1098	0.0573968
1110	0.0214775
1122	0.0153058
1134	0.0134543
1146	0.013948
1158	0.0871444
1170	0.152318
1182	0.10603
1194	0.00789978
1206	0.00407332
1218	0.000740604
1230	0.00234525
1242	0.0120965
1254	0.0362896
1266	0.0945504
1278	0.225267
1290	0.328952
1302	0.324385
1314	0.168117
1326	0.0570265
1338	0.0255508
1350	0.0160464
1362	0.0107388
1374	0.0156761
1386	0.0302413
1398	0.0302413
1410	0.0393754
1422	0.04493
1434	0.0525829
1446	0.10208
1458	0.168241
1470	0.183176
1482	0.196754
1494	0.305252
1506	0.30266
1518	0.183793
1530	0.13516
1542	0.0970191
1554	0.0787509
1566	0.10603
1578	0.209344
1590	0.375486
1602	0.585077
1614	0.888231
1626	1.23434
1638	0.655311
1650	0.165648
1662	0.0655435
1674	0.0292539
1686	0.0266617
1698	0.0332037
1710	0.0501142
1722	0.0491267
1734	0.0239462
1746	0.0135777
1758	0.0114794
1770	0.00938098
1782	0.0112325
1794	0.0145652
1806	0.023329
1818	0.0276492
1830	0.0220947
1842	0.0169105
1854	0.0172808
1866	0.0127137
1878	0.0149355
1890	0.0197494
1902	0.0332037
1914	0.0328334
1926	0.0254274
1938	0.0164167
1950	0.0153058
1962	0.0160464
1974	0.0128371
1986	0.0118497
1998	0.0119731
2010	0.013084
2022	0.0129606
2034	0.0149355
2046	0.0151824
2058	0.0156761
2070	0.0135777
2082	0.0117262
2094	0.0114794
2106	0.0119731
2118	0.0112325
2130	0.0108622
2142	0.0106153
2154	0.0106153
2166	0.0112325
2178	0.0103685
2190	0.00925755
2202	0.00962785
2214	0.0108622
2226	0.0106153
2238	0.00975129
2250	0.00925755
2262	0.00950442
2274	0.010245
2286	0.00925755
2298	0.00827008
2310	0.00728261
2322	0.00728261
2334	0.00975129
2346	0.0112325
2358	0.00913412
2370	0.0120965
2382	0.0103685
2394	0.0106153
2406	0.0107388
2418	0.00999815
2430	0.00950442
2442	0.0103685
2454	0.0113559
2466	0.0116028
2478	0.0107388
2490	0.0101216
2502	0.00925755
2514	0.00851695
2526	0.00839351
2538	0.00962785
2550	0.0118497
2562	0.0119731
2574	0.0123434
2586	0.0138246
2598	0.0141949
2610	0.0127137
2622	0.0109856
2634	0.0107388
2646	0.00987472
2658	0.00925755
2670	0.0101216
2682	0.0106153
2694	0.0107388
2706	0.0117262
2718	0.0128371
2730	0.0175276
2742	0.0222181
2754	0.0213541
2766	0.0156761
2778	0.0143183
2790	0.0141949
2802	0.0141949
2814	0.015923
2826	0.0193791
2838	0.0255508
2850	0.0388817
2862	0.0720855
2874	0.111461
2886	0.116398
2898	0.106894
2910	0.124545
2922	0.195273
2934	0.235018
2946	0.19231
2958	0.108622
2970	0.0786275
2982	0.0847992
2994	0.101586
3006	0.175029
3018	0.263285
3030	0.336605
3042	0.362279
3054	0.307474
3066	0.185892
3078	0.143924
3090	0.0928224
3102	0.0575202
3114	0.0411035
3126	0.0293773
3138	0.018762
3150	0.0127137
3162	0.0108622
3174	0.0106153
3186	0.0109856
3198	0.0141949
3210	0.0178979
3222	0.0206135
3234	0.02049
3246	0.0155527
3258	0.0120965
3270	0.0112325
3282	0.00975129
3294	0.0103685
3306	0.0106153
3318	0.00987472
3330	0.00950442
3342	0.00962785
3354	0.00975129
3366	0.0119731
3378	0.0170339
3390	0.0338209
3402	0.0699871
3414	0.0862804
3426	0.0594952
3438	0.0303648
3450	0.0193791
3462	0.023329
3474	0.0408567
3486	0.0703574
3498	0.0777634
3510	0.0502376
3522	0.0313522
3534	0.0176511
3546	0.01222
3558	0.0109856
3570	0.0111091
3582	0.0101216
3594	0.00999815
3606	0.00814664
3618	0.00864038
3630	0.00901068
3642	0.00913412
3654	0.00925755
3666	0.00827008
3678	0.010245
3690	0.00876381
3702	0.00950442
3714	0.010245
3726	0.00999815
3738	0.0107388
3750	0.0106153
3762	0.0109856
3774	0.0103685
3786	0.00975129
3798	0.00777634
3810	0.00925755
3822	0.0103685
3834	0.0106153
3846	0.0160464
3858	0.0199963
3870	0.0166636
3882	0.0128371
3894	0.0117262
3906	0.0127137
3918	0.0109856
3930	0.0120965
3942	0.0153058
3954	0.0150589
3966	0.013084
