Infrared Spectrum: Acetic acid, 1-methylethyl ester
Formula: C 5 H 10 O 2
CAS: 108-21-4
Origin: Sadtler Research Labs Under US-EPA Contract
1/CM	ABSORBANCE
450	0
462	0.0368033
474	0.0285413
486	0.0336112
498	0.0276025
510	0.0247859
522	0.0332356
534	0.0221571
546	0.0311702
558	0.0330479
570	0.0281658
582	0.0324846
594	0.0441264
606	0.0602748
618	0.0824319
630	0.0801786
642	0.0497596
654	0.0341745
666	0.0334234
678	0.0291047
690	0.0313579
702	0.0309824
714	0.0304191
726	0.0292924
738	0.0287291
750	0.0289169
762	0.0313579
774	0.0300435
786	0.0317335
798	0.0377422
810	0.0537028
822	0.0675979
834	0.0555805
846	0.0356767
858	0.0369911
870	0.0478819
882	0.0598993
894	0.0570827
906	0.0439386
918	0.0426242
930	0.0550172
942	0.0959515
954	0.179134
966	0.171248
978	0.0843096
990	0.107781
1002	0.185331
1014	0.267387
1026	0.239785
1038	0.138012
1050	0.0965148
1062	0.0957637
1074	0.102711
1086	0.117545
1098	0.243165
1110	0.499474
1122	0.538155
1134	0.321466
1146	0.267012
1158	0.155287
1170	0.119047
1182	0.126558
1194	0.116231
1206	0.136135
1218	0.310199
1230	1.02223
1242	1.78646
1254	1.57897
1266	0.563316
1278	0.217252
1290	0.119047
1302	0.0704145
1314	0.0604626
1326	0.0619648
1338	0.0734189
1350	0.116982
1362	0.278466
1374	0.50229
1386	0.470932
1398	0.189086
1410	0.0809297
1422	0.0685368
1434	0.0722922
1446	0.0850607
1458	0.102336
1470	0.112288
1482	0.0916327
1494	0.0623403
1506	0.0527639
1518	0.0476941
1530	0.0433753
1542	0.0422487
1554	0.0413098
1566	0.0413098
1578	0.0422487
1590	0.0371789
1602	0.0328601
1614	0.032109
1626	0.0336112
1638	0.0356767
1650	0.040371
1662	0.0416854
1674	0.0471308
1686	0.0525762
1698	0.061777
1710	0.0799909
1722	0.118296
1734	0.293112
1746	0.823568
1758	1.2316
1770	0.826572
1782	0.261566
1794	0.0875018
1806	0.0568949
1818	0.051074
1830	0.0497596
1842	0.0463797
1854	0.0399954
1866	0.0334234
1878	0.0307946
1890	0.0311702
1902	0.0315457
1914	0.0304191
1926	0.029668
1938	0.0287291
1950	0.0281658
1962	0.0272269
1974	0.0251614
1986	0.0249737
1998	0.0257248
2010	0.0236593
2022	0.0217816
2034	0.0219693
2046	0.0236593
2058	0.0281658
2070	0.0283536
2082	0.0249737
2094	0.0245981
2106	0.0244104
2118	0.0262881
2130	0.0272269
2142	0.0244104
2154	0.0212182
2166	0.0210305
2178	0.0210305
2190	0.0221571
2202	0.0229082
2214	0.0212182
2226	0.0206549
2238	0.0215938
2250	0.0236593
2262	0.0245981
2274	0.0232837
2286	0.0221571
2298	0.0240348
2310	0.027978
2322	0.0294802
2334	0.0272269
2346	0.021406
2358	0.027978
2370	0.0159606
2382	0.0159606
2394	0.0193405
2406	0.0199038
2418	0.0193405
2430	0.0182139
2442	0.018965
2454	0.0193405
2466	0.0210305
2478	0.023096
2490	0.0225326
2502	0.0212182
2514	0.0191527
2526	0.0180261
2538	0.0180261
2550	0.0170873
2562	0.0161484
2574	0.0161484
2586	0.0168995
2598	0.0161484
2610	0.0168995
2622	0.0185894
2634	0.0185894
2646	0.0187772
2658	0.0195283
2670	0.0193405
2682	0.0178383
2694	0.0170873
2706	0.017275
2718	0.0195283
2730	0.0191527
2742	0.0202794
2754	0.0200916
2766	0.0184017
2778	0.0180261
2790	0.0184017
2802	0.0187772
2814	0.0204671
2826	0.0240348
2838	0.0253492
2850	0.0283536
2862	0.0349256
2874	0.051074
2886	0.0769865
2898	0.0816808
2910	0.0767987
2922	0.0878773
2934	0.127873
2946	0.171436
2958	0.1551
2970	0.184768
2982	0.3885
2994	0.427557
3006	0.205423
3018	0.0681612
3030	0.0435631
3042	0.040371
3054	0.0377422
3066	0.033799
3078	0.0322968
3090	0.0300435
3102	0.027978
3114	0.0245981
3126	0.0236593
3138	0.0225326
3150	0.0217816
3162	0.021406
3174	0.0234715
3186	0.0232837
3198	0.0219693
3210	0.0210305
3222	0.0200916
3234	0.0210305
3246	0.0195283
3258	0.018965
3270	0.0187772
3282	0.0182139
3294	0.0193405
3306	0.0187772
3318	0.0185894
3330	0.0180261
3342	0.0165239
3354	0.0165239
3366	0.0168995
3378	0.0178383
3390	0.0187772
3402	0.0197161
3414	0.0197161
3426	0.0185894
3438	0.0182139
3450	0.0217816
3462	0.0227204
3474	0.025537
3486	0.0291047
3498	0.0322968
3510	0.0268514
3522	0.0240348
3534	0.0197161
3546	0.0202794
3558	0.0191527
3570	0.0212182
3582	0.021406
3594	0.0191527
3606	0.0223449
3618	0.0232837
3630	0.0204671
3642	0.0212182
3654	0.0212182
3666	0.0206549
3678	0.0236593
3690	0.021406
3702	0.0199038
3714	0.018965
3726	0.017275
3738	0.0195283
3750	0.0215938
3762	0.018965
3774	0.0197161
3786	0.0165239
3798	0.0200916
3810	0.0174628
3822	0.0170873
3834	0.0174628
3846	0.0191527
3858	0.021406
3870	0.0163362
3882	0.0163362
3894	0.0193405
3906	0.0184017
3918	0.0185894
3930	0.0200916
3942	0.0199038
3954	0.0157728
3966	0.0187772
