Infrared Spectrum: 1,3-Benzenediamine
Formula: C 6 H 8 N 2
CAS: 108-45-2
Origin: Sadtler Research Labs Under US-EPA Contract
1/CM	ABSORBANCE
450	0.136092
462	0.0313762
474	0.0683045
486	0.0567482
498	0.0503568
510	0.0696602
522	0.0508733
534	0.0519708
546	0.0628169
558	0.0537785
570	0.0562318
582	0.0637207
594	0.0540367
606	0.0597826
618	0.0668196
630	0.0756643
642	0.13138
654	0.231189
666	0.295427
678	0.307306
690	0.175797
702	0.109429
714	0.078053
726	0.0763745
738	0.0982603
750	0.131702
762	0.162046
774	0.103877
786	0.0647537
798	0.0527455
810	0.0663677
822	0.0960653
834	0.103748
846	0.0719198
858	0.0408665
870	0.0265342
882	0.0230479
894	0.0216276
906	0.0184642
918	0.0172375
930	0.026405
942	0.0511315
954	0.0577166
966	0.0354434
978	0.0156235
990	0.0120082
1002	0.00961944
1014	0.00890928
1026	0.0138804
1038	0.0207238
1050	0.0335066
1062	0.0465478
1074	0.0585559
1086	0.058104
1098	0.0384132
1110	0.0170438
1122	0.0090384
1134	0.00690792
1146	0.0265342
1158	0.0899321
1170	0.102715
1182	0.101876
1194	0.156881
1206	0.141193
1218	0.0305369
1230	0.00277608
1242	0.00058104
1254	0.00232416
1266	0.00800544
1278	0.012331
1290	0.0298913
1302	0.0808291
1314	0.111689
1326	0.0956779
1338	0.0384132
1350	0.00393816
1362	0.00109752
1374	0.00180768
1386	0.00600408
1398	0.00929664
1410	0.0163982
1422	0.0293102
1434	0.030666
1446	0.0286646
1458	0.0386714
1470	0.0664968
1482	0.112012
1494	0.204913
1506	0.211886
1518	0.115498
1530	0.0564254
1542	0.0461604
1554	0.0454502
1566	0.0757289
1578	0.165274
1590	0.308274
1602	0.434553
1614	0.513898
1626	0.6456
1638	0.517707
1650	0.251719
1662	0.0797962
1674	0.0289874
1686	0.0214339
1698	0.0185287
1710	0.0140095
1722	0.0164628
1734	0.0148488
1746	0.0114917
1758	0.0106524
1770	0.00794088
1782	0.00748896
1794	0.0090384
1806	0.0071016
1818	0.0071016
1830	0.00852192
1842	0.00723072
1854	0.00961944
1866	0.010265
1878	0.0114917
1890	0.0152362
1902	0.0150425
1914	0.0106524
1926	0.00981312
1938	0.0101359
1950	0.00819912
1962	0.00735984
1974	0.00729528
1986	0.00845736
1998	0.0087156
2010	0.00826368
2022	0.00865104
2034	0.010265
2046	0.0109752
2058	0.0116208
2070	0.0117499
2082	0.0100068
2094	0.00955488
2106	0.00910296
2118	0.00923208
2130	0.0103942
2142	0.0111689
2154	0.011298
2166	0.011298
2178	0.0103942
2190	0.0093612
2202	0.00890928
2214	0.0087156
2226	0.00929664
2238	0.0100714
2250	0.0109752
2262	0.0124601
2274	0.0132348
2286	0.0117499
2298	0.0110398
2310	0.0109106
2322	0.00987768
2334	0.0116208
2346	0.0118145
2358	0.0111689
2370	0.0127183
2382	0.0127183
2394	0.0100068
2406	0.00942576
2418	0.00974856
2430	0.00955488
2442	0.0100068
2454	0.00916752
2466	0.009684
2478	0.0105878
2490	0.0110398
2502	0.0122018
2514	0.0127183
2526	0.010717
2538	0.00955488
2550	0.00949032
2562	0.00961944
2574	0.010265
2586	0.00987768
2598	0.00974856
2610	0.0104587
2622	0.0110398
2634	0.0116208
2646	0.0118145
2658	0.0112334
2670	0.0108461
2682	0.0106524
2694	0.0105233
2706	0.0113626
2718	0.0122664
2730	0.0128474
2742	0.0129766
2754	0.013493
2766	0.0129766
2778	0.0128474
2790	0.0127829
2802	0.012912
2814	0.0125246
2826	0.0115562
2838	0.0104587
2850	0.0100068
2862	0.00974856
2874	0.00994224
2886	0.0112334
2898	0.0120082
2910	0.0138804
2922	0.0148488
2934	0.0142678
2946	0.013945
2958	0.0131057
2970	0.0129766
2982	0.0143969
2994	0.0183996
3006	0.0364764
3018	0.0675943
3030	0.0950323
3042	0.118726
3054	0.113045
3066	0.0652056
3078	0.0437717
3090	0.0351206
3102	0.0263405
3114	0.0197554
3126	0.0154298
3138	0.012331
3150	0.0103942
3162	0.00949032
3174	0.00923208
3186	0.0104587
3198	0.0122018
3210	0.0153007
3222	0.017173
3234	0.0163337
3246	0.0136222
3258	0.010717
3270	0.0109106
3282	0.00878016
3294	0.00955488
3306	0.00942576
3318	0.00884472
3330	0.0090384
3342	0.00961944
3354	0.00961944
3366	0.012331
3378	0.0162046
3390	0.0291166
3402	0.0524227
3414	0.0590078
3426	0.0413184
3438	0.0240809
3450	0.0190452
3462	0.0210466
3474	0.0327319
3486	0.050034
3498	0.052681
3510	0.037122
3522	0.0239518
3534	0.0163337
3546	0.0127829
3558	0.0114917
3570	0.0111689
3582	0.009684
3594	0.0112334
3606	0.00955488
3618	0.00994224
3630	0.0108461
3642	0.0100714
3654	0.0102005
3666	0.0100714
3678	0.0125246
3690	0.0100714
3702	0.0109752
3714	0.0123955
3726	0.0122018
3738	0.0117499
3750	0.0121373
3762	0.0133639
3774	0.0138804
3786	0.0114271
3798	0.0105233
3810	0.0128474
3822	0.012912
3834	0.0131702
3846	0.0151716
3858	0.0163982
3870	0.0149134
3882	0.0144614
3894	0.0130411
3906	0.0143323
3918	0.0140741
3930	0.011298
3942	0.0131702
3954	0.0140095
3966	0.014526
