Infrared Spectrum: 1,3-Benzenediol, diacetate
Formula: C 10 H 10 O 4
CAS: 108-58-7
Origin: Sadtler Research Labs Under US-EPA Contract
1/CM	ABSORBANCE
450	0
462	0.0372651
474	0.0342571
486	0.0280741
498	0.0320847
510	0.0412757
522	0.0889015
534	0.074196
546	0.0377664
558	0.0401059
570	0.0452863
582	0.0421112
594	0.051135
606	0.0534746
618	0.0451192
630	0.0397717
642	0.0372651
654	0.0604931
666	0.0666761
678	0.0890686
690	0.0969226
702	0.0591562
714	0.0307479
726	0.0342571
738	0.0384348
750	0.0421112
762	0.0513022
774	0.077371
786	0.0695169
798	0.0486284
810	0.0397717
822	0.0434481
834	0.0549785
846	0.04796
858	0.0489626
870	0.0648379
882	0.0970897
894	0.136026
906	0.136694
918	0.105111
930	0.0626655
942	0.060326
954	0.097424
966	0.196853
978	0.118647
990	0.143212
1002	0.216906
1014	0.370311
1026	0.19702
1038	0.10979
1050	0.0873975
1062	0.112129
1074	0.151233
1086	0.135357
1098	0.107283
1110	0.180811
1122	0.56048
1134	0.560146
1146	0.167944
1158	0.228604
1170	0.299792
1182	0.651053
1194	1.67108
1206	1.4622
1218	0.811644
1230	0.346749
1242	0.301964
1254	0.244479
1266	0.152068
1278	0.143379
1290	0.097424
1302	0.0828856
1314	0.0746973
1326	0.065005
1338	0.0584878
1350	0.0750315
1362	0.165771
1374	0.413592
1386	0.183652
1398	0.0833869
1410	0.0750315
1422	0.0805461
1434	0.09592
1446	0.119984
1458	0.0992622
1470	0.102771
1482	0.279572
1494	0.231779
1506	0.0750315
1518	0.0601589
1530	0.0645037
1542	0.0640024
1554	0.0636681
1566	0.0753657
1578	0.102103
1590	0.178304
1602	0.319343
1614	0.210055
1626	0.0847238
1638	0.0606602
1650	0.0624984
1662	0.0576523
1674	0.0499653
1686	0.0487955
1698	0.0539759
1710	0.0716893
1722	0.0970897
1734	0.104108
1746	0.134021
1758	0.209052
1770	0.354269
1782	0.581536
1794	0.801617
1806	0.442669
1818	0.173458
1830	0.0782065
1842	0.051135
1854	0.0437823
1866	0.0399388
1878	0.0372651
1890	0.0365967
1902	0.037098
1914	0.0381006
1926	0.0354269
1938	0.0299123
1950	0.0295781
1962	0.0302465
1974	0.0299123
1986	0.0285755
1998	0.0287426
2010	0.0295781
2022	0.0319176
2034	0.0347585
2046	0.0364295
2058	0.0334216
2070	0.0317505
2082	0.0317505
2094	0.0330874
2106	0.0329203
2118	0.0302465
2130	0.0287426
2142	0.0275728
2154	0.0265702
2166	0.026236
2178	0.0254004
2190	0.0260688
2202	0.0274057
2214	0.0274057
2226	0.0260688
2238	0.0264031
2250	0.0272386
2262	0.0264031
2274	0.0260688
2286	0.0252333
2298	0.0240636
2310	0.0235622
2322	0.0252333
2334	0.0277399
2346	0.0285755
2358	0.0290768
2370	0.0320847
2382	0.0300794
2394	0.0297452
2406	0.0295781
2418	0.0282413
2430	0.0274057
2442	0.0270715
2454	0.0267373
2466	0.0264031
2478	0.0260688
2490	0.0265702
2502	0.0257346
2514	0.0254004
2526	0.0252333
2538	0.0254004
2550	0.0254004
2562	0.0265702
2574	0.0267373
2586	0.0260688
2598	0.0255675
2610	0.0250662
2622	0.0255675
2634	0.0254004
2646	0.024732
2658	0.0250662
2670	0.0252333
2682	0.0255675
2694	0.0259017
2706	0.0259017
2718	0.0260688
2730	0.0260688
2742	0.0265702
2754	0.0264031
2766	0.0264031
2778	0.0264031
2790	0.0257346
2802	0.0265702
2814	0.0265702
2826	0.0259017
2838	0.0270715
2850	0.0289097
2862	0.030915
2874	0.0307479
2886	0.0295781
2898	0.0300794
2910	0.030915
2922	0.0325861
2934	0.0354269
2946	0.0424454
2958	0.0452863
2970	0.0382677
2982	0.0349256
2994	0.0345914
3006	0.03409
3018	0.0360953
3030	0.0439494
3042	0.0461218
3054	0.0447849
3066	0.0449521
3078	0.051135
3090	0.0497982
3102	0.0437823
3114	0.0344242
3126	0.029411
3138	0.0292439
3150	0.0284084
3162	0.0280741
3174	0.0269044
3186	0.0274057
3198	0.0272386
3210	0.0267373
3222	0.0259017
3234	0.0260688
3246	0.0254004
3258	0.0257346
3270	0.0250662
3282	0.0260688
3294	0.0254004
3306	0.0257346
3318	0.0257346
3330	0.0265702
3342	0.0255675
3354	0.0259017
3366	0.0260688
3378	0.026236
3390	0.0248991
3402	0.0252333
3414	0.0250662
3426	0.0259017
3438	0.0250662
3450	0.0243978
3462	0.0248991
3474	0.024732
3486	0.024732
3498	0.0252333
3510	0.0260688
3522	0.0275728
3534	0.0285755
3546	0.0295781
3558	0.0352598
3570	0.0349256
3582	0.0327532
3594	0.0300794
3606	0.0275728
3618	0.0248991
3630	0.0264031
3642	0.0277399
3654	0.032419
3666	0.0282413
3678	0.0265702
3690	0.0243978
3702	0.0272386
3714	0.0272386
3726	0.0254004
3738	0.0264031
3750	0.0264031
3762	0.026236
3774	0.0277399
3786	0.0255675
3798	0.0260688
3810	0.0277399
3822	0.0267373
3834	0.0264031
3846	0.0248991
3858	0.0252333
3870	0.0285755
3882	0.0285755
3894	0.0269044
3906	0.0274057
3918	0.0275728
3930	0.0302465
3942	0.0252333
3954	0.0269044
3966	0.0277399
