Infrared Spectrum: Diisopropyl ether
Formula: C 6 H 14 O
CAS: 108-20-3
Origin: Sadtler Research Labs Under US-EPA Contract
1/CM	ABSORBANCE
450	0.0389511
462	0.0208218
474	0.0143598
486	0.00143598
498	0.0111289
510	0.0274632
522	0.0314121
534	0.0190268
546	0.0147188
558	0.0210013
570	0.0183088
582	0.0197448
594	0.0174113
606	0.0165138
618	0.0206423
630	0.0136418
642	0.0186678
654	0.0159753
666	0.0217193
678	0.0163343
690	0.0245912
702	0.0251297
714	0.0247707
726	0.0262067
738	0.0269247
750	0.0256682
762	0.0281812
774	0.0306942
786	0.0448745
798	0.0595933
810	0.04649
822	0.0353611
834	0.0384126
846	0.0403871
858	0.0382331
870	0.0371561
882	0.0430795
894	0.0653373
906	0.0825691
918	0.0610293
930	0.0473875
942	0.0430795
954	0.043259
966	0.049003
978	0.0583368
990	0.0931595
1002	0.271042
1014	0.588933
1026	0.535443
1038	0.140726
1050	0.0773636
1062	0.0710812
1074	0.086877
1086	0.129957
1098	0.304249
1110	0.660373
1122	0.916337
1134	0.838076
1146	0.668989
1158	0.70094
1170	0.728941
1182	0.36833
1194	0.136598
1206	0.0895695
1218	0.0777226
1230	0.0735942
1242	0.0716197
1254	0.0644398
1266	0.0551059
1278	0.0567214
1290	0.0660553
1302	0.0931595
1314	0.191704
1326	0.446591
1338	0.389511
1350	0.192601
1362	0.305685
1374	0.588753
1386	0.567573
1398	0.215218
1410	0.094057
1422	0.0762866
1434	0.0831076
1446	0.113263
1458	0.164241
1470	0.18219
1482	0.120982
1494	0.0647988
1506	0.0459515
1518	0.0403871
1530	0.0335661
1542	0.0272837
1554	0.0156163
1566	0.00412845
1578	0.000179498
1590	0.000358996
1602	0.00610293
1614	0.0236937
1626	0.0353611
1638	0.0358996
1650	0.0393101
1662	0.0375151
1674	0.0371561
1686	0.0342841
1698	0.0391306
1710	0.0441565
1722	0.0497209
1734	0.0563624
1746	0.0599523
1758	0.0590548
1770	0.048285
1782	0.0373356
1794	0.0384126
1806	0.0430795
1818	0.0416435
1830	0.0317711
1842	0.0253092
1854	0.0244117
1866	0.0247707
1878	0.0238732
1890	0.0267452
1902	0.0310532
1914	0.0339251
1926	0.0310532
1938	0.0254887
1950	0.0222578
1962	0.0208218
1974	0.0188473
1986	0.0165138
1998	0.0165138
2010	0.0168728
2022	0.0179498
2034	0.0179498
2046	0.0163343
2058	0.0156163
2070	0.0138213
2082	0.0129239
2094	0.0123854
2106	0.0122059
2118	0.0125649
2130	0.0123854
2142	0.0123854
2154	0.0120264
2166	0.0141803
2178	0.0143598
2190	0.0113084
2202	0.0104109
2214	0.0107699
2226	0.0100519
2238	0.00951339
2250	0.0089749
2262	0.0091544
2274	0.00969289
2286	0.0116674
2298	0.0140008
2310	0.0150778
2322	0.0104109
2334	0.00341046
2346	0.00628243
2358	0.00574394
2370	0.000179498
2382	0.00466695
2394	0.00215398
2406	0.00125649
2418	0.000179498
2430	0.000179498
2442	0.00107699
2454	0.00269247
2466	0.00251297
2478	0.00341046
2490	0.00484645
2502	0.00538494
2514	0.00412845
2526	0.00305147
2538	0.00287197
2550	0.00394896
2562	0.00466695
2574	0.00592343
2586	0.00807741
2598	0.0107699
2610	0.0170523
2622	0.0297967
2634	0.0376946
2646	0.0323096
2658	0.0249502
2670	0.0206423
2682	0.0213603
2694	0.0231552
2706	0.0227962
2718	0.0240527
2730	0.0271042
2742	0.0285402
2754	0.0281812
2766	0.0290787
2778	0.0324891
2790	0.0353611
2802	0.0403871
2814	0.0516954
2826	0.0687477
2838	0.086159
2850	0.112545
2862	0.202294
2874	0.391844
2886	0.535084
2898	0.442642
2910	0.344816
2922	0.349303
2934	0.482491
2946	0.519467
2958	0.50062
2970	1.2082
2982	1.79498
2994	0.90826
3006	0.230116
3018	0.0841846
3030	0.0504389
3042	0.0351816
3054	0.0276427
3066	0.0240527
3078	0.0235142
3090	0.0240527
3102	0.0227962
3114	0.0218988
3126	0.0197448
3138	0.0190268
3150	0.0201038
3162	0.0213603
3174	0.0244117
3186	0.0245912
3198	0.0201038
3210	0.0163343
3222	0.0150778
3234	0.0111289
3246	0.00735942
3258	0.00430795
3270	0.00323096
3282	0.00466695
3294	0.00682092
3306	0.00735942
3318	0.00682092
3330	0.00682092
3342	0.00735942
3354	0.00735942
3366	0.0093339
3378	0.0091544
3390	0.00987239
3402	0.00700042
3414	0.00592343
3426	0.00646193
3438	0.00717992
3450	0.00807741
3462	0.00682092
3474	0.00807741
3486	0.0091544
3498	0.00664143
3510	0.00556444
3522	0.00574394
3534	0.00556444
3546	0.00502594
3558	0.00323096
3570	0.00287197
3582	0.00233347
3594	0.00197448
3606	0.00107699
3618	0.00161548
3630	0.00179498
3642	0.00233347
3654	0.00197448
3666	0.00215398
3678	0.00341046
3690	0.000358996
3702	0.000717992
3714	0.000179498
3726	0.00125649
3738	0.00143598
3750	0.000179498
3762	0.000717992
3774	0.00341046
3786	0.00161548
3798	0.00089749
3810	0.00323096
3822	0.00107699
3834	0.00233347
3846	0.00251297
3858	0.00233347
3870	0.00287197
3882	0.00556444
3894	0.000358996
3906	0.00664143
3918	0.00197448
3930	0.00269247
3942	0.00574394
3954	0
3966	0.00376946
