Infrared Spectrum: 4-Heptanone, 2,6-dimethyl-
Formula: C 9 H 18 O
CAS: 108-83-8
Origin: Sadtler Research Labs Under US-EPA Contract
1/CM	ABSORBANCE
450	0.0276195
462	0.0208615
474	0.00499501
486	0.0138097
498	0.0102104
510	0.0137363
522	0.0157196
534	0.0228448
546	0.0168214
558	0.0166011
570	0.00830053
582	0.0106511
594	0.0130017
606	0.00874126
618	0.0131486
630	0.0193924
642	0.00991656
654	0.0146177
666	0.0137363
678	0.0148381
690	0.0108715
702	0.00947582
714	0.00440736
726	0.00778634
738	0.00323206
750	0.0048481
762	0.00536229
774	0.00543574
786	0.00815362
798	0.00771288
810	0.00808016
822	0.00690486
834	0.00947582
846	0.00690486
858	0.0073456
870	0.00830053
882	0.00727214
894	0.0126344
906	0.0132221
918	0.0177764
930	0.0262238
942	0.0276929
954	0.0235059
966	0.0161603
978	0.0118264
990	0.00962274
1002	0.0111653
1014	0.0157196
1026	0.0343774
1038	0.0906447
1050	0.0719869
1062	0.0377564
1074	0.0257096
1086	0.0221103
1098	0.021743
1110	0.0268849
1122	0.0356262
1134	0.0518599
1146	0.0805078
1158	0.101443
1170	0.119293
1182	0.0641271
1194	0.0335694
1206	0.0271053
1218	0.0334225
1230	0.0342305
1242	0.0272522
1254	0.0224775
1266	0.0223306
1278	0.0351854
1290	0.0688283
1302	0.0670653
1314	0.0448082
1326	0.0452489
1338	0.0722072
1350	0.109449
1362	0.191059
1374	0.167186
1386	0.0985045
1398	0.0675795
1410	0.0539902
1422	0.0503174
1434	0.0445878
1446	0.0469384
1458	0.0752189
1470	0.101369
1482	0.0666246
1494	0.0243874
1506	0.0137363
1518	0.0098431
1530	0.0073456
1542	0.00712523
1554	0.00741906
1566	0.00609685
1578	0.0066845
1590	0.00594994
1602	0.00624376
1614	0.00719869
1626	0.00793325
1638	0.00830053
1650	0.00999002
1662	0.0111653
1674	0.0160869
1686	0.0262972
1698	0.0499501
1710	0.141036
1722	0.315787
1734	0.267086
1746	0.0861639
1758	0.0354792
1770	0.0260769
1782	0.0205677
1794	0.0156461
1806	0.0102838
1818	0.00697832
1830	0.00514192
1842	0.00426045
1854	0.00323206
1866	0.00374626
1878	0.00242405
1890	0.00213022
1902	0.00227714
1914	0.00198331
1926	0.00146912
1938	0.00227714
1950	0.00213022
1962	0.00176294
1974	0.00168949
1986	0.00139566
1998	0.00198331
2010	0.00154258
2022	0.00139566
2034	0.00213022
2046	0.00220368
2058	0.00168949
2070	0.00110184
2082	0.00235059
2094	0.0024975
2106	0.00110184
2118	0.000587648
2130	0.000881472
2142	0.00110184
2154	0.00124875
2166	0.00132221
2178	0.00227714
2190	0.00154258
2202	0.000808016
2214	0.00154258
2226	0.0011753
2238	0.00102838
2250	0.00124875
2262	0.0011753
2274	0.00110184
2286	0.00242405
2298	0.00374626
2310	0.0073456
2322	0.0066845
2334	0.00345243
2346	0.00176294
2358	0.00771288
2370	0.000293824
2382	0.000293824
2394	0.00176294
2406	0.00190986
2418	0.0018364
2430	0.0011753
2442	0.00168949
2454	0.00220368
2466	0.00168949
2478	0.00198331
2490	0.00190986
2502	0.00279133
2514	0.00198331
2526	0.00235059
2538	0.00257096
2550	0.00279133
2562	0.00279133
2574	0.0024975
2586	0.00308515
2598	0.00381971
2610	0.00396662
2622	0.0043339
2634	0.00462773
2646	0.0036728
2658	0.00470118
2670	0.00594994
2682	0.00448082
2694	0.00580302
2706	0.00771288
2718	0.00925546
2730	0.0134424
2742	0.0138097
2754	0.0112388
2766	0.0121202
2778	0.0130017
2790	0.0135894
2802	0.0190986
2814	0.0229917
2826	0.0271053
2838	0.035112
2850	0.0494359
2862	0.072648
2874	0.176441
2886	0.275827
2898	0.230946
2910	0.232562
2922	0.232194
2934	0.284348
2946	0.348696
2958	0.511915
2970	0.70672
2982	0.29735
2994	0.103646
3006	0.0423841
3018	0.0237263
3030	0.0174091
3042	0.0152054
3054	0.0127813
3066	0.012561
3078	0.0138097
3090	0.0118264
3102	0.011753
3114	0.0105042
3126	0.0114591
3138	0.0119733
3150	0.0101369
3162	0.00932891
3174	0.0107246
3186	0.0112388
3198	0.0116795
3210	0.0112388
3222	0.00844744
3234	0.0055092
3246	0.00646413
3258	0.0066845
3270	0.00587648
3282	0.00697832
3294	0.00719869
3306	0.00690486
3318	0.00815362
3330	0.0061703
3342	0.00881472
3354	0.00639067
3366	0.00697832
3378	0.00785979
3390	0.0073456
3402	0.00719869
3414	0.009182
3426	0.0102838
3438	0.00925546
3450	0.0101369
3462	0.00521538
3474	0.00455427
3486	0.00536229
3498	0.00315861
3510	0.00440736
3522	0.00198331
3534	0.00404008
3546	0.00543574
3558	0.00675795
3570	0.00646413
3582	0.00756597
3594	0.00462773
3606	0.00352589
3618	0.00499501
3630	0.00315861
3642	0.00102838
3654	0.00330552
3666	0.00154258
3678	0.00205677
3690	0.0018364
3702	0.000881472
3714	0.00337898
3726	0.00337898
3738	0.00337898
3750	0.00337898
3762	0.00198331
3774	0.0011753
3786	0
3798	0.00609685
3810	0.00213022
3822	0.0043339
3834	0.00837398
3846	0.00763942
3858	0.00404008
3870	0.00609685
3882	0.00462773
3894	0.00543574
3906	0.00286478
3918	0.00712523
3930	0.0055092
3942	0.000881472
3954	0.00426045
3966	0.00396662
