Infrared Spectrum: Benzene, 1,3-dimethyl-
Formula: C 8 H 10
CAS: 108-38-3
Origin: Sadtler Research Labs Under US-EPA Contract
1/CM	ABSORBANCE
450	0.00185487
462	0.00420912
474	0.0043518
486	0.00813287
498	0.00863226
510	0.0171218
522	0.0140542
534	0.00998774
546	0.00741946
558	0.0104158
570	0.00499387
582	0.00584996
594	0.00214023
606	0.00285364
618	0.0055646
630	0.00370973
642	0.00385241
654	0.0099164
666	0.0366693
678	0.105585
690	0.272451
702	0.107297
714	0.0249693
726	0.00906031
738	0.0406644
750	0.21866
762	0.436464
774	0.328383
786	0.142325
798	0.0168365
810	0.0100591
822	0.00827556
834	0.00649203
846	0.00820421
858	0.0218303
870	0.0422339
882	0.0332449
894	0.039951
906	0.0375254
918	0.0131267
930	0.00791885
942	0.0106298
954	0.0126987
966	0.0144109
978	0.0141255
990	0.0171932
1002	0.0238279
1014	0.0212596
1026	0.0210456
1038	0.0333162
1050	0.0438747
1062	0.0378821
1074	0.034101
1086	0.0526497
1098	0.0479412
1110	0.0271809
1122	0.0144109
1134	0.0119139
1146	0.0101304
1158	0.0169078
1170	0.0226864
1182	0.0157664
1194	0.0083469
1206	0.00727678
1218	0.0074908
1230	0.00898897
1242	0.012556
1254	0.0149103
1266	0.0114146
1278	0.0104871
1290	0.0114859
1302	0.0122707
1314	0.0124133
1326	0.0132694
1338	0.0156237
1350	0.0216877
1362	0.0323888
1374	0.0565734
1386	0.0766202
1398	0.056288
1410	0.0453015
1422	0.0496533
1434	0.0758355
1446	0.100377
1458	0.100948
1470	0.119425
1482	0.170077
1494	0.221014
1506	0.205676
1518	0.1394
1530	0.121494
1542	0.099378
1554	0.0676313
1566	0.0606398
1578	0.0706276
1590	0.111221
1602	0.224011
1614	0.281512
1626	0.169578
1638	0.0243986
1650	0.0192621
1662	0.0151956
1674	0.00784751
1686	0.00413778
1698	0.00663471
1710	0.00727678
1722	0.00841824
1734	0.0174072
1746	0.0203322
1758	0.0216163
1770	0.0199755
1782	0.0153383
1794	0.00649203
1806	0.00741946
1818	0.00841824
1830	0.0124847
1842	0.0240419
1854	0.0266102
1866	0.0137688
1878	0.00627801
1890	0.00599264
1902	0.00827556
1914	0.0149103
1926	0.024684
1938	0.0220444
1950	0.00784751
1962	0.00285364
1974	0.00135548
1986	0.00114146
1998	0.00178352
2010	0.00214023
2022	0.00271096
2034	0.00370973
2046	0.00321034
2058	0.0027823
2070	0.00420912
2082	0.00271096
2094	0.000642069
2106	0.00214023
2118	0.00185487
2130	0.00171218
2142	0.00171218
2154	0.00206889
2166	0.00114146
2178	0.00107011
2190	0.00107011
2202	0.00214023
2214	0.00192621
2226	0.00206889
2238	0.0015695
2250	0.00178352
2262	0.00321034
2274	0.00485119
2286	0.00599264
2298	0.00513655
2310	0.00342437
2322	0.003139
2334	0.0059213
2346	0.00656337
2358	0.00520789
2370	0.0103444
2382	0.00906031
2394	0.00663471
2406	0.00599264
2418	0.00663471
2430	0.00656337
2442	0.00613533
2454	0.00692008
2466	0.00649203
2478	0.00577862
2490	0.00584996
2502	0.00535057
2514	0.00485119
2526	0.00527923
2538	0.00613533
2550	0.00584996
2562	0.00428046
2574	0.00470851
2586	0.00485119
2598	0.00470851
2610	0.00428046
2622	0.003139
2634	0.00428046
2646	0.00256828
2658	0.000214023
2670	0.00221157
2682	0.00321034
2694	0.00449448
2706	0.00584996
2718	0.00813287
2730	0.0174785
2742	0.0308193
2754	0.0237566
2766	0.0102018
2778	0.00948835
2790	0.0111292
2802	0.015267
2814	0.0222584
2826	0.0313187
2838	0.0458009
2850	0.0783324
2862	0.163514
2874	0.267172
2886	0.279086
2898	0.252333
2910	0.300916
2922	0.458723
2934	0.567732
2946	0.469281
2958	0.253189
2970	0.174215
2982	0.186913
2994	0.220943
3006	0.328597
3018	0.452231
3030	0.585139
3042	0.508733
3054	0.387881
3066	0.290715
3078	0.194761
3090	0.105585
3102	0.0753361
3114	0.0581429
3126	0.0355992
3138	0.0161944
3150	0.00934567
3162	0.00670605
3174	0.0055646
3186	0.00584996
3198	0.00477985
3210	0.00506521
3222	0.00428046
3234	0.00378107
3246	0.00228291
3258	0.00349571
3270	0.00385241
3282	0.00271096
3294	0.00271096
3306	0.00370973
3318	0.00321034
3330	0.00342437
3342	0.00406644
3354	0.00171218
3366	0.00235425
3378	0.00149816
3390	0.00292498
3402	0.00299632
3414	0.00342437
3426	0.00420912
3438	0.00349571
3450	0.00492253
3462	0.00235425
3474	0.00178352
3486	0.00128414
3498	0.00164084
3510	0.0015695
3522	0.00221157
3534	0.00199755
3546	0.00342437
3558	0.00328169
3570	0.00506521
3582	0.00285364
3594	0.00285364
3606	0.00192621
3618	0.00306766
3630	0.00242559
3642	0.00263962
3654	0.00420912
3666	0.00321034
3678	0.00613533
3690	0.00456582
3702	0.00499387
3714	0.00670605
3726	0.00456582
3738	0.0074908
3750	0.00770483
3762	0.00963103
3774	0.00677739
3786	0.00720544
3798	0.00449448
3810	0.00677739
3822	0.00720544
3834	0.0055646
3846	0.00634935
3858	0.00699142
3870	0.00906031
3882	0.00634935
3894	0.00663471
3906	0.00806153
3918	0.00584996
3930	0.00884628
3942	0.00627801
3954	0.00934567
3966	0.00649203
