Infrared Spectrum: Resorcinol
Formula: C 6 H 6 O 2
CAS: 108-46-3
Origin: Sadtler Research Labs Under US-EPA Contract
1/CM	ABSORBANCE
450	0
462	0.0369792
474	0.0414337
486	0.0322419
498	0.012515
510	0.0271511
522	0.0280703
534	0.0287773
546	0.0332318
558	0.0241815
570	0.0154139
582	0.0137877
594	0.0202926
606	0.02404
618	0.0186664
630	0.00897966
642	0.00685848
654	0.0225552
666	0.064696
678	0.179664
690	0.065403
702	0.0189492
714	0.00883825
726	0.022131
738	0.0562113
750	0.110513
762	0.124513
774	0.0709181
786	0.0279996
798	0.0207169
810	0.041363
822	0.0585446
834	0.101534
846	0.0714131
858	0.0600294
870	0.0304743
882	0.0203633
894	0.0202219
906	0.0220603
918	0.0226259
930	0.0299793
942	0.141058
954	0.257935
966	0.199179
978	0.0312521
990	0.020929
1002	0.0173937
1014	0.0136463
1026	0.0116665
1038	0.0148483
1050	0.0260905
1062	0.0538073
1074	0.064201
1086	0.0514033
1098	0.0415751
1110	0.0691505
1122	0.241532
1134	0.591456
1146	0.66195
1158	0.442266
1170	0.355651
1182	0.489003
1194	0.426074
1206	0.22138
1218	0.142543
1230	0.0770695
1242	0.0391711
1254	0.041363
1266	0.0678071
1278	0.110301
1290	0.215088
1302	0.253127
1314	0.243087
1326	0.210633
1338	0.166159
1350	0.0513326
1362	0.0135048
1374	0.0106059
1386	0.0112423
1398	0.0152725
1410	0.0188078
1422	0.0265855
1434	0.0440498
1446	0.0668172
1458	0.106907
1470	0.161563
1482	0.256239
1494	0.331823
1506	0.244643
1518	0.12918
1530	0.0658273
1542	0.0457468
1554	0.0512618
1566	0.0587567
1578	0.132857
1590	0.318036
1602	0.519053
1614	0.574698
1626	0.33048
1638	0.145089
1650	0.0818068
1662	0.0690091
1674	0.0460296
1686	0.0335146
1698	0.0231209
1710	0.0124443
1722	0.00975743
1734	0.00968672
1746	0.00813119
1758	0.00806048
1770	0.00897966
1782	0.00954531
1794	0.0094746
1806	0.00926249
1818	0.00834331
1830	0.00756554
1842	0.00678778
1854	0.00615142
1866	0.0082019
1878	0.0126564
1890	0.0156967
1902	0.0146361
1914	0.0122321
1926	0.00954531
1938	0.00763625
1950	0.00813119
1962	0.00749484
1974	0.00572719
1986	0.00509083
1998	0.00523224
2010	0.0058686
2022	0.00657566
2034	0.00721201
2046	0.00735342
2058	0.00678778
2070	0.00671707
2082	0.00721201
2094	0.00806048
2106	0.00806048
2118	0.00749484
2130	0.00749484
2142	0.00806048
2154	0.00763625
2166	0.00671707
2178	0.0058686
2190	0.00622213
2202	0.00671707
2214	0.00777766
2226	0.00841401
2238	0.00954531
2250	0.0107473
2262	0.0108887
2274	0.00876754
2286	0.0082019
2298	0.00848472
2310	0.00862613
2322	0.0094746
2334	0.0121614
2346	0.014424
2358	0.0138584
2370	0.0130099
2382	0.0124443
2394	0.0125857
2406	0.013717
2418	0.0154139
2430	0.0173937
2442	0.0183836
2454	0.0171816
2466	0.0151311
2478	0.0153432
2490	0.0155553
2502	0.014424
2514	0.0135048
2526	0.0115251
2538	0.0107473
2550	0.0103938
2562	0.00996955
2574	0.0101817
2586	0.0103231
2598	0.0113837
2610	0.0121614
2622	0.0122321
2634	0.0126564
2646	0.0117372
2658	0.011313
2670	0.0113837
2682	0.0105352
2694	0.00975743
2706	0.0094746
2718	0.00961602
2730	0.00968672
2742	0.0100403
2754	0.0106766
2766	0.0108887
2778	0.0111715
2790	0.0121614
2802	0.0123028
2814	0.0126564
2826	0.0121614
2838	0.0104645
2850	0.00883825
2862	0.00791907
2874	0.00735342
2886	0.00664636
2898	0.00728272
2910	0.00721201
2922	0.00601001
2934	0.00523224
2946	0.0058686
2958	0.00770695
2970	0.00572719
2982	0.00834331
2994	0.0106766
3006	0.0148483
3018	0.0243936
3030	0.0451811
3042	0.0708474
3054	0.0733221
3066	0.0556456
3078	0.0410095
3090	0.0275046
3102	0.0206462
3114	0.0176765
3126	0.0138584
3138	0.0108887
3150	0.00933319
3162	0.00876754
3174	0.00848472
3186	0.00905037
3198	0.00919178
3210	0.0094039
3222	0.0094746
3234	0.00996955
3246	0.00982813
3258	0.0107473
3270	0.0112423
3282	0.0111715
3294	0.0117372
3306	0.0119493
3318	0.0135756
3330	0.0149897
3342	0.0183836
3354	0.0179593
3366	0.0184543
3378	0.0176765
3390	0.0159088
3402	0.0149897
3414	0.0142119
3426	0.0148483
3438	0.0148483
3450	0.0135048
3462	0.0127978
3474	0.0119493
3486	0.0111008
3498	0.0113837
3510	0.0109594
3522	0.010111
3534	0.00912107
3546	0.00996955
3558	0.00876754
3570	0.00996955
3582	0.00961602
3594	0.0104645
3606	0.0115251
3618	0.0206462
3630	0.0608072
3642	0.288905
3654	0.40465
3666	0.296541
3678	0.0386055
3690	0.0126564
3702	0.00897966
3714	0.00813119
3726	0.00699989
3738	0.0082019
3750	0.0107473
3762	0.00636354
3774	0.00636354
3786	0.00509083
3798	0.00664636
3810	0.00650495
3822	0.00933319
3834	0.00855543
3846	0.00735342
3858	0.00897966
3870	0.0103938
3882	0.00975743
3894	0.00721201
3906	0.0106059
3918	0.00784837
3930	0.00883825
3942	0.00883825
3954	0.00982813
3966	0.00912107
