Infrared Spectrum: 2-Pentanamine, 4-methyl-
Formula: C 6 H 15 N
CAS: 108-09-8
Origin: Sadtler Research Labs Under US-EPA Contract
1/CM	ABSORBANCE
450	0.0167004
462	0.0214337
474	0.0158073
486	0.0275066
498	0.0169683
510	0.00660872
522	0.0141105
534	0.0109848
546	0.00133961
558	0.00776971
570	0.00928793
582	0.00803763
594	0.0158966
606	0.0149143
618	0.0132174
630	0.0153608
642	0.0167004
654	0.015718
666	0.024738
678	0.0262563
690	0.0209871
702	0.029382
714	0.0336687
726	0.0438497
738	0.0641224
750	0.0911824
762	0.131549
774	0.212908
786	0.259437
798	0.191296
810	0.105918
822	0.0717135
834	0.0615325
846	0.0571565
858	0.0343832
870	0.0278638
882	0.025006
894	0.0176828
906	0.0133961
918	0.0197368
930	0.021523
942	0.0139319
954	0.0140212
966	0.0175935
978	0.0154501
990	0.0122351
1002	0.0123244
1014	0.0132174
1026	0.0192903
1038	0.0210765
1050	0.0205406
1062	0.0242915
1074	0.0277745
1086	0.0241129
1098	0.0210765
1110	0.0191117
1122	0.0297392
1134	0.0437604
1146	0.0559062
1158	0.0718028
1170	0.0668909
1182	0.0302751
1194	0.015718
1206	0.0177721
1218	0.0171469
1230	0.0141105
1242	0.0149143
1254	0.0135747
1266	0.0123244
1278	0.0138426
1290	0.013664
1302	0.0129495
1314	0.0205406
1326	0.0315254
1338	0.0435818
1350	0.0634973
1362	0.106633
1374	0.146821
1386	0.132532
1398	0.0701953
1410	0.0262563
1422	0.0228626
1434	0.0313468
1446	0.0559955
1458	0.101185
1470	0.10824
1482	0.0748393
1494	0.0378662
1506	0.02706
1518	0.0188438
1530	0.0139319
1542	0.0175042
1554	0.0143784
1566	0.0158073
1578	0.0195582
1590	0.025006
1602	0.0434032
1614	0.0731424
1626	0.0807335
1638	0.0538521
1650	0.0267028
1662	0.014557
1674	0.0130388
1686	0.0115206
1698	0.0108955
1710	0.00678733
1722	0.00500119
1734	0.00830555
1746	0.00500119
1758	0.00491189
1770	0.00589426
1782	0.00526911
1794	0.00535842
1806	0.00303644
1818	0.00366159
1830	0.00553703
1842	0.00437604
1854	0.00366159
1866	0.00312575
1878	0.00151822
1890	0.00294713
1902	0.00214337
1914	0.00151822
1926	0.0025006
1938	0.00151822
1950	0.00107168
1962	0.00205406
1974	0.00160753
1986	0.00169683
1998	0.00214337
2010	0.00169683
2022	0.0012503
2034	0.00205406
2046	0.00205406
2058	0.000803763
2070	0.00151822
2082	0.00116099
2094	0.00116099
2106	0.00214337
2118	0.00178614
2130	0.00116099
2142	0.00232198
2154	0.00151822
2166	0.00205406
2178	0.00303644
2190	0.0025899
2202	0.00205406
2214	0.00205406
2226	0.00133961
2238	0.0012503
2250	0.00267921
2262	0.00214337
2274	0.00142891
2286	0.00232198
2298	0.00312575
2310	0.00473327
2322	0.00723387
2334	0.00660872
2346	0.00357228
2358	0.00759109
2370	0.00589426
2382	0.0038402
2394	0.00401882
2406	0.00303644
2418	0.00303644
2430	0.00348297
2442	0.00330436
2454	0.00303644
2466	0.00401882
2478	0.00348297
2490	0.00267921
2502	0.00401882
2514	0.00437604
2526	0.00357228
2538	0.00500119
2550	0.00437604
2562	0.00491189
2574	0.00732317
2586	0.00830555
2598	0.00937724
2610	0.00973446
2622	0.00937724
2634	0.00973446
2646	0.0117885
2658	0.0126816
2670	0.0116992
2682	0.0118778
2694	0.0115206
2706	0.0127709
2718	0.0175935
2730	0.0222374
2742	0.0211658
2754	0.019201
2766	0.0177721
2778	0.0191117
2790	0.0242022
2802	0.0294713
2814	0.0375089
2826	0.056442
2838	0.0880567
2850	0.118868
2862	0.153251
2874	0.250328
2886	0.30668
2898	0.333383
2910	0.414563
2922	0.436086
2934	0.408312
2946	0.436622
2958	0.714903
2970	0.830198
2982	0.386967
2994	0.106543
3006	0.039563
3018	0.0244701
3030	0.0167897
3042	0.0146463
3054	0.0133067
3066	0.0132174
3078	0.0143784
3090	0.0124137
3102	0.00928793
3114	0.00973446
3126	0.010181
3138	0.010181
3150	0.0115206
3162	0.0106275
3174	0.010181
3186	0.0126816
3198	0.0120564
3210	0.0104489
3222	0.00866278
3234	0.00455466
3246	0.00339367
3258	0.00544773
3270	0.00553703
3282	0.00401882
3294	0.00437604
3306	0.00419743
3318	0.00741248
3330	0.0124137
3342	0.0110741
3354	0.00678733
3366	0.00571565
3378	0.00446535
3390	0.00437604
3402	0.00598357
3414	0.00535842
3426	0.00348297
3438	0.00392951
3450	0.00294713
3462	0.00196475
3474	0.0038402
3486	0.00339367
3498	0.00187545
3510	0.00241129
3522	0.00232198
3534	0.00169683
3546	0.00526911
3558	0.00375089
3570	0.0038402
3582	0.00339367
3594	0.00419743
3606	0.00419743
3618	0.00678733
3630	0.00696595
3642	0.00348297
3654	0.00553703
3666	0.00455466
3678	0.00544773
3690	0.00660872
3702	0.00544773
3714	0.00446535
3726	0.00660872
3738	0.00910931
3750	0.00955585
3762	0.00750179
3774	0.00580496
3786	0.00437604
3798	0.00660872
3810	0.00803763
3822	0.00785902
3834	0.00857347
3846	0.0076804
3858	0.00580496
3870	0.0089307
3882	0.00964516
3894	0.00616218
3906	0.00955585
3918	0.00785902
3930	0.00428674
3942	0.00741248
3954	0
3966	0.000714456
