Infrared Spectrum: Cyclohexanamine
Formula: C 6 H 13 N
CAS: 108-91-8
Origin: Sadtler Research Labs Under US-EPA Contract
1/CM	ABSORBANCE
450	0.00656188
462	0.00620718
474	0.00354696
486	0.00195083
498	0.00130055
510	0.000945856
522	0.00342873
534	0.00467016
546	0.0059116
558	0.0085127
570	0.00543867
582	0.00502486
594	0.00384254
606	0.00490663
618	0.00543867
630	0.00579337
642	0.00514309
654	0.00455193
666	0.00449282
678	0.00543867
690	0.00644364
702	0.00809889
714	0.0109956
726	0.0171436
738	0.0294398
750	0.0490072
762	0.0738359
774	0.0776784
786	0.0784469
798	0.0916298
810	0.066269
822	0.0250061
834	0.0120597
846	0.00863094
858	0.00597072
870	0.0100497
882	0.0185033
894	0.018326
906	0.0107591
918	0.00526132
930	0.00413812
942	0.00325138
954	0.00289668
966	0.00437458
978	0.00455193
990	0.0029558
1002	0.00159613
1014	0.00230552
1026	0.00537956
1038	0.00662099
1050	0.00413812
1062	0.00378342
1074	0.00892652
1086	0.0195083
1098	0.0271342
1110	0.0206906
1122	0.00969502
1134	0.00301492
1146	0.0029558
1158	0.00118232
1170	0.000709392
1182	0.000532044
1194	0.00171436
1206	0.00236464
1218	0.0014779
1230	0.00248287
1242	0.00390166
1254	0.00644364
1266	0.00597072
1278	0.00372431
1290	0.00153702
1302	0.00212818
1314	0.00401989
1326	0.00520221
1338	0.00869005
1350	0.0120005
1362	0.0151337
1374	0.0191536
1386	0.0130055
1398	0.00561602
1410	0.00277845
1422	0.00431547
1434	0.015311
1446	0.036179
1458	0.0532044
1470	0.0292624
1482	0.0114685
1494	0.00419724
1506	0.00283757
1518	0.00254199
1530	0.00200994
1542	0.00171436
1554	0.00212818
1566	0.00336961
1578	0.00585248
1590	0.00987237
1602	0.0212818
1614	0.0344646
1626	0.0330458
1638	0.0173801
1650	0.00597072
1662	0.00301492
1674	0.000768508
1686	0.000945856
1698	0.000354696
1710	0.000768508
1722	0.000768508
1734	0.00029558
1746	0.000709392
1758	0.000354696
1770	0.000472928
1782	0.000945856
1794	0.00088674
1806	0.0011232
1818	0.00118232
1830	0.000177348
1842	0.000709392
1854	0.000827624
1866	0.000768508
1878	0.00088674
1890	0.000827624
1902	0.000945856
1914	0.000472928
1926	0.000354696
1938	0.00059116
1950	0.000532044
1962	0.000650276
1974	0.000118232
1986	0.000177348
1998	0.000118232
2010	0.00059116
2022	0.000650276
2034	0.000177348
2046	0.000177348
2058	0.000118232
2070	0.000709392
2082	0.00059116
2094	0.00059116
2106	0.000709392
2118	0.00059116
2130	0.000650276
2142	0.00100497
2154	0.00088674
2166	0.00118232
2178	0.000650276
2190	0.00106409
2202	0.0011232
2214	0.000650276
2226	0.00118232
2238	0.0011232
2250	0.0011232
2262	0.000472928
2274	0.00059116
2286	0.000709392
2298	0.00118232
2310	0.00171436
2322	0.000768508
2334	0.00124144
2346	0.000768508
2358	0.000827624
2370	0.000236464
2382	0.0011232
2394	0.00118232
2406	0.00106409
2418	0.000650276
2430	0.00059116
2442	0.00059116
2454	0.000532044
2466	0.00100497
2478	0.00100497
2490	0.000768508
2502	5.9116e-05
2514	0.00100497
2526	0.00100497
2538	0.00130055
2550	0.00159613
2562	0.0014779
2574	0.00153702
2586	0.00271934
2598	0.00378342
2610	0.0044337
2622	0.00455193
2634	0.00496574
2646	0.0059116
2658	0.00827624
2670	0.00981326
2682	0.00934033
2694	0.00768508
2706	0.0070348
2718	0.00638453
2730	0.0059116
2742	0.0059116
2754	0.00573425
2766	0.00585248
2778	0.00786243
2790	0.00939944
2802	0.0118823
2814	0.0162569
2826	0.024947
2838	0.0501895
2850	0.123316
2862	0.194965
2874	0.155771
2886	0.0864276
2898	0.0964182
2910	0.20064
2922	0.356883
2934	0.59116
2946	0.433793
2958	0.171673
2970	0.0268978
2982	0.00561602
2994	0.00348784
3006	0.00342873
3018	0.00319226
3030	0.00230552
3042	0.00248287
3054	0.00195083
3066	0.00195083
3078	0.00230552
3090	0.00283757
3102	0.00283757
3114	0.0018326
3126	0.00200994
3138	0.0018326
3150	0.00277845
3162	0.00283757
3174	0.00171436
3186	0.00200994
3198	0.00141878
3210	0.00224641
3222	0.00177348
3234	0.00200994
3246	0.00195083
3258	0.00271934
3270	0.00218729
3282	0.00224641
3294	0.00236464
3306	0.0033105
3318	0.00360608
3330	0.0055569
3342	0.00579337
3354	0.00348784
3366	0.00277845
3378	0.0026011
3390	0.00254199
3402	0.00236464
3414	0.0014779
3426	0.00212818
3438	0.00100497
3450	0.0014779
3462	0.00141878
3474	0.00118232
3486	0.00189171
3498	0.00189171
3510	0.00118232
3522	0.000236464
3534	0.000827624
3546	0.00059116
3558	0.000768508
3570	0.00218729
3582	0.000709392
3594	0.00059116
3606	0.000532044
3618	0.000354696
3630	0.00059116
3642	0.00159613
3654	0.000354696
3666	0.0011232
3678	0.000945856
3690	0.00212818
3702	0.000413812
3714	0.00218729
3726	0.00171436
3738	0.00124144
3750	0.000650276
3762	0.00171436
3774	0.00200994
3786	0.00200994
3798	0.0014779
3810	0.00153702
3822	0.0014779
3834	0.0011232
3846	0.000945856
3858	0.0011232
3870	0.00165525
3882	0.00153702
3894	0.00130055
3906	0.00130055
3918	0.00200994
3930	0.00165525
3942	0.00189171
3954	0.00189171
3966	0.00141878
