Infrared Spectrum: Butanoic acid, 3-methyl-, ethyl ester
Formula: C 7 H 14 O 2
CAS: 108-64-5
Origin: Sadtler Research Labs Under US-EPA Contract
1/CM	ABSORBANCE
450	0.0085846
462	0.0112125
474	0.0043799
486	0.00262794
498	0.000788382
510	0.0045551
522	0.0116505
534	0.00665745
546	0.00744583
558	0.00236515
570	0.0111249
582	0.0130521
594	0.0201475
606	0.0170816
618	0.0207607
630	0.0219871
642	0.0193592
654	0.0159428
666	0.0122637
678	0.0143661
690	0.019622
702	0.0201475
714	0.0226003
726	0.026805
738	0.0226879
750	0.0240019
762	0.0243522
774	0.0261918
786	0.0280314
798	0.0296081
810	0.0311849
822	0.0296957
834	0.0315353
846	0.0324113
858	0.0349516
870	0.0269802
882	0.0258414
894	0.0298709
906	0.036616
918	0.0407331
930	0.0430106
942	0.0315353
954	0.0332872
966	0.0384555
978	0.0312725
990	0.0238267
1002	0.0324989
1014	0.0557999
1026	0.140682
1038	0.250705
1050	0.154172
1062	0.0857584
1074	0.109147
1086	0.185795
1098	0.287584
1110	0.335676
1122	0.316316
1134	0.202439
1146	0.214703
1158	0.324726
1170	0.490461
1182	0.659438
1194	0.625099
1206	0.358889
1218	0.233887
1230	0.193679
1242	0.260604
1254	0.305717
1266	0.211549
1278	0.169677
1290	0.290387
1302	0.294592
1314	0.148303
1326	0.097847
1338	0.10906
1350	0.145763
1362	0.15829
1374	0.226616
1386	0.154873
1398	0.0924159
1410	0.062545
1422	0.0630706
1434	0.0787506
1446	0.0837437
1458	0.112476
1470	0.134463
1482	0.0946058
1494	0.0449378
1506	0.0284693
1518	0.0192716
1530	0.0167312
1542	0.0193592
1554	0.0158552
1566	0.0152421
1578	0.0155048
1590	0.0140157
1602	0.0144537
1614	0.0143661
1626	0.0149793
1638	0.0167312
1650	0.0160304
1662	0.0175196
1674	0.0205855
1686	0.0271554
1698	0.0374043
1710	0.0560627
1722	0.095657
1734	0.256224
1746	0.680549
1758	0.834459
1770	0.360291
1782	0.0908391
1794	0.0409083
1806	0.024177
1818	0.0188336
1830	0.0162932
1842	0.0133149
1854	0.0117381
1866	0.0111249
1878	0.0110373
1890	0.0121761
1902	0.0109497
1914	0.00928539
1926	0.00928539
1938	0.00998617
1950	0.00989857
1962	0.00928539
1974	0.0087598
1986	0.00849701
1998	0.00744583
2010	0.00788382
2022	0.00788382
2034	0.0086722
2046	0.00832181
2058	0.00823421
2070	0.00735823
2082	0.00727063
2094	0.00674505
2106	0.00648225
2118	0.00516828
2130	0.00499309
2142	0.00473029
2154	0.0042047
2166	0.00376671
2178	0.00350392
2190	0.00394191
2202	0.00385431
2214	0.00359152
2226	0.00341632
2238	0.00350392
2250	0.00289073
2262	0.00350392
2274	0.00367912
2286	0.00297833
2298	0.00297833
2310	0.00210235
2322	0.000350392
2334	0.000350392
2346	0.000350392
2358	0.000350392
2370	0.000525588
2382	0.00262794
2394	0.00289073
2406	0.00332872
2418	0.00376671
2430	0.00324113
2442	0.00210235
2454	0.00245274
2466	0.00227755
2478	0.00254034
2490	0.00236515
2502	0.00236515
2514	0.00245274
2526	0.00254034
2538	0.00218995
2550	0.00236515
2562	0.00201475
2574	0.00254034
2586	0.00297833
2598	0.00289073
2610	0.00245274
2622	0.00402951
2634	0.00402951
2646	0.00385431
2658	0.00516828
2670	0.00411711
2682	0.00411711
2694	0.00367912
2706	0.0044675
2718	0.00560627
2730	0.00919779
2742	0.0112125
2754	0.010249
2766	0.0100738
2778	0.00972338
2790	0.010249
2802	0.0112125
2814	0.0150669
2826	0.0199723
2838	0.0240894
2850	0.0307469
2862	0.0444122
2874	0.107308
2886	0.173532
2898	0.150581
2910	0.161443
2922	0.185795
2934	0.245012
2946	0.318244
2958	0.389724
2970	0.57622
2982	0.500535
2994	0.291176
3006	0.13385
3018	0.0641217
3030	0.0320609
3042	0.0195344
3054	0.0155048
3066	0.0113877
3078	0.0107746
3090	0.0105994
3102	0.008935
3114	0.00814661
3126	0.00744583
3138	0.00805902
3150	0.00665745
3162	0.00709544
3174	0.0087598
3186	0.00911019
3198	0.00788382
3210	0.00735823
3222	0.00473029
3234	0.00341632
3246	0.00289073
3258	0.00359152
3270	0.00175196
3282	0.00148917
3294	0.00306593
3306	0.00245274
3318	0.00289073
3330	0.00236515
3342	0.00192716
3354	0.00297833
3366	0.00332872
3378	0.00297833
3390	0.00324113
3402	0.00289073
3414	0.00210235
3426	0.00254034
3438	0.00201475
3450	0.00254034
3462	0.0045551
3474	0.00648225
3486	0.00954818
3498	0.00902259
3510	0.00367912
3522	0.00175196
3534	0.00122637
3546	0.00166436
3558	0.00254034
3570	0.00271554
3582	0.00122637
3594	0.00218995
3606	0.00131397
3618	0.00105118
3630	0.00332872
3642	0.00166436
3654	0.00218995
3666	0.00236515
3678	0.00341632
3690	0.00236515
3702	0.00087598
3714	0.00280314
3726	0.00210235
3738	0.00332872
3750	0.0042923
3762	0.00289073
3774	0.00183956
3786	0.00210235
3798	0.00411711
3810	0.00394191
3822	0.00332872
3834	0.00402951
3846	0.00367912
3858	0.00280314
3870	0.00402951
3882	0.00350392
3894	0.00218995
3906	0.00271554
3918	0.00175196
3930	0.00271554
3942	0.00218995
3954	0.000262794
3966	0.000350392
