Infrared Spectrum: Cyclohexanol
Formula: C 6 H 12 O
CAS: 108-93-0
Origin: Sadtler Research Labs Under US-EPA Contract
1/CM	ABSORBANCE
450	0.00886596
462	0.0103135
474	0.0109467
486	0.0109467
498	0.00669471
510	0.00271407
522	0.00334735
534	0.00624236
546	0.010223
558	0.0123038
570	0.00750893
582	0.00271407
594	0.00280454
606	0.00253313
618	0.00217126
630	0.00389017
642	0.00325688
654	0.0037997
666	0.00588049
678	0.00307595
690	0.00226173
702	0.00189985
714	0.00189985
726	0.00289501
738	0.00171891
750	0.00162844
762	0.00361876
774	0.00515673
786	0.00687564
798	0.00651377
810	0.00325688
822	0.00633283
834	0.0155607
846	0.0156511
858	0.0110372
870	0.00977065
882	0.0235219
894	0.0267788
906	0.014475
918	0.0104039
930	0.0112182
942	0.0203555
954	0.0556384
966	0.111458
978	0.0819649
990	0.0266884
1002	0.0209888
1014	0.0399873
1026	0.0510245
1038	0.0586239
1050	0.0905595
1062	0.190709
1074	0.230696
1086	0.113267
1098	0.0288596
1110	0.0250599
1122	0.0354638
1134	0.0413443
1146	0.035102
1158	0.0265074
1170	0.020446
1182	0.0162844
1194	0.0199936
1206	0.029312
1218	0.0491247
1230	0.0580811
1242	0.0571764
1254	0.0518387
1266	0.0459583
1278	0.0338354
1290	0.0246076
1302	0.0193604
1314	0.0199936
1326	0.0231601
1338	0.0279549
1350	0.0376351
1362	0.0474962
1374	0.0551861
1386	0.0446012
1398	0.0303071
1410	0.018908
1422	0.0166463
1434	0.0300357
1446	0.0645044
1458	0.0944496
1470	0.0549147
1482	0.0178224
1494	0.00515673
1506	0.00334735
1518	0.00226173
1530	0.0026236
1542	0.00153797
1554	0.00208079
1566	0.00162844
1578	0.00244266
1590	0.00189985
1602	0.00208079
1614	0.00217126
1626	0.00226173
1638	0.00153797
1650	0.00090469
1662	0.00126657
1674	0.00108563
1686	0.00126657
1698	0.00090469
1710	0.000995159
1722	0.00153797
1734	0.00162844
1746	0.0014475
1758	0.00180938
1770	0.00090469
1782	0.0014475
1794	0.00108563
1806	0.0011761
1818	0.0011761
1830	0.0011761
1842	0.0014475
1854	0.00153797
1866	0.0014475
1878	0.00180938
1890	0.000814221
1902	0.00171891
1914	0.00153797
1926	0.00208079
1938	0.00253313
1950	0.00153797
1962	0.00126657
1974	0.00108563
1986	0.00108563
1998	0.00135704
2010	0.00153797
2022	0.00208079
2034	0.00226173
2046	0.00189985
2058	0.00189985
2070	0.00090469
2082	0.00108563
2094	0.00189985
2106	0.00253313
2118	0.00217126
2130	0.00271407
2142	0.0026236
2154	0.00244266
2166	0.00217126
2178	0.00208079
2190	0.00244266
2202	0.00334735
2214	0.00226173
2226	0.00208079
2238	0.00280454
2250	0.0014475
2262	0.00189985
2274	0.00199032
2286	0.0011761
2298	0.00180938
2310	0.000633283
2322	0.00298548
2334	0.00370923
2346	0.00271407
2358	0.00452345
2370	0.00370923
2382	0.00280454
2394	0.00425204
2406	0.00361876
2418	0.00398064
2430	0.00334735
2442	0.00298548
2454	0.0037997
2466	0.00334735
2478	0.00416157
2490	0.00470439
2502	0.00407111
2514	0.00452345
2526	0.00398064
2538	0.00542814
2550	0.00533767
2562	0.00443298
2574	0.0064233
2586	0.00687564
2598	0.00868502
2610	0.00986112
2622	0.00931831
2634	0.0103135
2646	0.0118514
2658	0.014475
2670	0.0170986
2682	0.0142941
2694	0.0134799
2706	0.0119419
2718	0.0111277
2730	0.0110372
2742	0.0090469
2754	0.010223
2766	0.0133894
2778	0.014475
2790	0.0184557
2802	0.0180938
2814	0.019089
2826	0.0237029
2838	0.0439679
2850	0.138237
2862	0.272402
2874	0.271859
2886	0.178224
2898	0.145293
2910	0.222282
2922	0.406839
2934	0.775772
2946	0.783371
2958	0.443298
2970	0.0842266
2982	0.0188176
2994	0.0103135
3006	0.0111277
3018	0.00714705
3030	0.0108563
3042	0.00796127
3054	0.00922784
3066	0.0112182
3078	0.00714705
3090	0.0114896
3102	0.00805174
3114	0.0075994
3126	0.0103135
3138	0.0100421
3150	0.00714705
3162	0.00832315
3174	0.00714705
3186	0.00551861
3198	0.0078708
3210	0.00796127
3222	0.00931831
3234	0.00922784
3246	0.0052472
3258	0.00750893
3270	0.00687564
3282	0.00823268
3294	0.00714705
3306	0.00651377
3318	0.00859456
3330	0.00678518
3342	0.0107658
3354	0.0103135
3366	0.00859456
3378	0.00750893
3390	0.0113086
3402	0.00606142
3414	0.00416157
3426	0.00949924
3438	0.00633283
3450	0.00778033
3462	0.00479486
3474	0.0118514
3486	0.0107658
3498	0.00741846
3510	0.00389017
3522	0.00488533
3534	0.0122133
3546	0.0112182
3558	0.0090469
3570	0.00859456
3582	0.00940878
3594	0.011761
3606	0.00895643
3618	0.0138418
3630	0.0195413
3642	0.0405301
3654	0.0522911
3666	0.0386303
3678	0.0129371
3690	0.0129371
3702	0.0149274
3714	0.00913737
3726	0.0122133
3738	0.00678518
3750	0.00949924
3762	0.0114896
3774	0.00859456
3786	0.00977065
3798	0.0153797
3810	0.0137513
3822	0.0114896
3834	0.0137513
3846	0.00940878
3858	0.00714705
3870	0.013118
3882	0.0100421
3894	0.0130275
3906	0.00606142
3918	0.0078708
3930	0.0114896
3942	0.0139322
3954	0.0140227
3966	0.014656
