Infrared Spectrum: Benzenethiol, 3-methyl-
Formula: C 7 H 8 S
CAS: 108-40-7
Origin: Sadtler Research Labs Under US-EPA Contract
1/CM	ABSORBANCE
450	0.00169183
462	0.0070493
474	0.0162839
486	0.0166363
498	0.00972803
510	0.0179757
522	0.0174823
534	0.00775423
546	0.00620338
558	0.00570993
570	0.00620338
582	0.0113494
594	0.00183282
606	0.00627388
618	0.00613289
630	0.00599191
642	0.0103625
654	0.0280562
666	0.0899491
678	0.21881
690	0.204359
702	0.0688717
714	0.0137461
726	0.0212889
738	0.0771193
750	0.259908
762	0.542937
774	0.432122
786	0.18441
798	0.0663339
810	0.0401105
822	0.0315104
834	0.0432827
846	0.145357
858	0.194349
870	0.10722
882	0.0532222
894	0.0377842
906	0.045045
918	0.0511779
930	0.040181
942	0.0210069
954	0.0172708
966	0.0207249
978	0.0309464
990	0.0466664
1002	0.0409564
1014	0.0281972
1026	0.0308054
1038	0.0360924
1050	0.0453975
1062	0.0562534
1074	0.106867
1086	0.116877
1098	0.0948836
1110	0.100312
1122	0.0411679
1134	0.0122658
1146	0.0107149
1158	0.0312989
1170	0.0399695
1182	0.020584
1194	0.0190331
1206	0.0438466
1218	0.0709865
1230	0.040604
1242	0.0133232
1254	0.0132527
1266	0.0179052
1278	0.0167068
1290	0.0218528
1302	0.0243906
1314	0.0224873
1326	0.0202315
1338	0.0215709
1350	0.0199495
1362	0.0315104
1374	0.0514599
1386	0.0760619
1398	0.0864949
1410	0.0970689
1422	0.138237
1434	0.144722
1446	0.1001
1458	0.128861
1470	0.277883
1482	0.376715
1494	0.267803
1506	0.143453
1518	0.106162
1530	0.109264
1542	0.0941786
1554	0.0886097
1566	0.158186
1578	0.295577
1590	0.55915
1602	0.458909
1614	0.113917
1626	0.0333432
1638	0.0241791
1650	0.0234742
1662	0.0198085
1674	0.015015
1686	0.0111379
1698	0.0121953
1710	0.0126887
1722	0.0170593
1734	0.0269988
1746	0.0278447
1758	0.0294661
1770	0.0284087
1782	0.0219233
1794	0.0162134
1806	0.0107854
1818	0.0122658
1830	0.0186102
1842	0.0266464
1854	0.0268578
1866	0.0200905
1878	0.0103625
1890	0.0081067
1902	0.00986902
1914	0.0169888
1926	0.0265054
1938	0.0216414
1950	0.00845916
1962	0.00310169
1974	0.0019738
1986	0.0020443
1998	0.000845916
2010	0.00183282
2022	0.00155085
2034	0.00148035
2046	0.000775423
2058	0.00133937
2070	0.000916409
2082	0.000845916
2094	0.000493451
2106	0.00070493
2118	0.000634437
2130	0.00119838
2142	0.000845916
2154	0.00133937
2166	0.00218528
2178	0.00218528
2190	0.00112789
2202	0.00126887
2214	0.00162134
2226	0.00211479
2238	0.00366564
2250	0.00415909
2262	0.00430007
2274	0.0060624
2286	0.00641486
2298	0.00578043
2310	0.0060624
2322	0.00599191
2334	0.00768374
2346	0.00881163
2358	0.00775423
2370	0.00831817
2382	0.00768374
2394	0.00662634
2406	0.00719029
2418	0.0070493
2430	0.00599191
2442	0.00528698
2454	0.00472303
2466	0.00472303
2478	0.00422958
2490	0.00472303
2502	0.00528698
2514	0.00422958
2526	0.00430007
2538	0.00366564
2550	0.00331317
2562	0.00465254
2574	0.00930508
2586	0.0160724
2598	0.015438
2610	0.00874113
2622	0.00415909
2634	0.00324268
2646	0.0050755
2658	0.00613289
2670	0.00662634
2682	0.0081067
2694	0.00662634
2706	0.00627388
2718	0.00719029
2730	0.0120543
2742	0.0175528
2754	0.0172708
2766	0.0105035
2778	0.00965754
2790	0.00958705
2802	0.0126887
2814	0.0157904
2826	0.0183282
2838	0.0262234
2850	0.045609
2862	0.0928393
2874	0.142678
2886	0.140916
2898	0.135206
2910	0.164954
2922	0.246514
2934	0.32314
2946	0.27168
2958	0.161499
2970	0.109405
2982	0.0998886
2994	0.12294
3006	0.164742
3018	0.227481
3030	0.287611
3042	0.291277
3054	0.310028
3066	0.312989
3078	0.235306
3090	0.157129
3102	0.0898786
3114	0.0310169
3126	0.0121953
3138	0.00662634
3150	0.00528698
3162	0.00472303
3174	0.00521648
3186	0.00422958
3198	0.00331317
3210	0.00232627
3222	0.00373613
3234	0.00310169
3246	0.00126887
3258	0.00112789
3270	0.00162134
3282	0.00169183
3294	0.00246726
3306	0.00225578
3318	0.00260824
3330	0.00345416
3342	0.00253775
3354	0.00218528
3366	0.00190331
3378	0.00444106
3390	0.00394761
3402	0.00366564
3414	0.00324268
3426	0.0030312
3438	0.00380662
3450	0.00528698
3462	0.00641486
3474	0.00331317
3486	0.0040181
3498	0.00570993
3510	0.00535747
3522	0.00281972
3534	0.00296071
3546	0.00408859
3558	0.00310169
3570	0.00430007
3582	0.00281972
3594	0.00260824
3606	0.00317219
3618	0.00253775
3630	0.00246726
3642	0.00260824
3654	0.00310169
3666	0.00218528
3678	0.00394761
3690	0.0050755
3702	0.00535747
3714	0.00690831
3726	0.00570993
3738	0.00521648
3750	0.00599191
3762	0.00585092
3774	0.00535747
3786	0.00430007
3798	0.00430007
3810	0.00599191
3822	0.00733127
3834	0.00465254
3846	0.00655585
3858	0.00711979
3870	0.00881163
3882	0.010292
3894	0.00965754
3906	0.0117723
3918	0.0106444
3930	0.00944606
3942	0.00789522
3954	0.00761324
3966	0.00838867
