Infrared Spectrum: Acetic acid, anhydride
Formula: C 4 H 6 O 3
CAS: 108-24-7
Origin: Sadtler Research Labs Under US-EPA Contract
1/CM	ABSORBANCE
450	0
462	0.0341278
474	0.0130661
486	0.012286
498	0.0267172
510	0.0444636
522	0.0499241
534	0.085417
546	0.104334
558	0.109599
570	0.0883422
582	0.0875622
594	0.103944
606	0.0992631
618	0.073131
630	0.0514842
642	0.0544095
654	0.0585048
666	0.0399783
678	0.0413434
690	0.0349079
702	0.0333477
714	0.0276923
726	0.0306175
738	0.0358829
750	0.0329577
762	0.0743011
774	0.12754
786	0.139631
798	0.109794
810	0.0711808
822	0.0495341
834	0.0413434
846	0.0456337
858	0.061235
870	0.0967279
882	0.203987
894	0.399198
906	0.42962
918	0.250986
930	0.124615
942	0.0992631
954	0.100238
966	0.148017
978	0.3013
990	0.603575
1002	0.770703
1014	0.54429
1026	0.250401
1038	0.172199
1050	0.211787
1062	0.281213
1074	0.316121
1086	0.297789
1098	0.316511
1110	0.644918
1122	1.55057
1134	1.95016
1146	1.32708
1158	0.542925
1170	0.30871
1182	0.258006
1194	0.263467
1206	0.316706
1218	0.386522
1230	0.384767
1242	0.269317
1254	0.11623
1266	0.0787865
1278	0.0645503
1290	0.0555796
1302	0.0495341
1314	0.0456337
1326	0.0464138
1338	0.0579198
1350	0.0984831
1362	0.282383
1374	0.444636
1386	0.337378
1398	0.114279
1410	0.0869771
1422	0.0955578
1434	0.106674
1446	0.0932176
1458	0.0680606
1470	0.0454387
1482	0.0397833
1494	0.036078
1506	0.0339328
1518	0.0351029
1530	0.0358829
1542	0.0343228
1554	0.0351029
1566	0.0310075
1578	0.0271072
1590	0.0294474
1602	0.0284723
1614	0.024767
1626	0.0290574
1638	0.0276923
1650	0.0310075
1662	0.0372481
1674	0.0419284
1686	0.048364
1698	0.0452437
1710	0.0427085
1722	0.0538244
1734	0.0873672
1746	0.179805
1758	0.422015
1770	0.732285
1782	0.786109
1794	0.649013
1806	0.627171
1818	0.736575
1830	0.877962
1842	0.775189
1854	0.464333
1866	0.217053
1878	0.101408
1890	0.0569447
1902	0.0390032
1914	0.0333477
1926	0.0294474
1938	0.024962
1950	0.0212567
1962	0.0204767
1974	0.0198916
1986	0.0191116
1998	0.0185265
2010	0.0185265
2022	0.0183315
2034	0.0163813
2046	0.0148212
2058	0.0130661
2070	0.0128711
2082	0.0136511
2094	0.0156013
2106	0.0202817
2118	0.0265222
2130	0.0296424
2142	0.0263272
2154	0.0234019
2166	0.0253521
2178	0.0177465
2190	0.012091
2202	0.012481
2214	0.012286
2226	0.012091
2238	0.011701
2250	0.011896
2262	0.012676
2274	0.0128711
2286	0.011701
2298	0.0105309
2310	0.0103358
2322	0.0101408
2334	0.0111159
2346	0.012286
2358	0.011896
2370	0.011896
2382	0.012481
2394	0.0113109
2406	0.0111159
2418	0.0113109
2430	0.0113109
2442	0.0107259
2454	0.0101408
2466	0.00955578
2478	0.00916575
2490	0.00955578
2502	0.00936077
2514	0.00877572
2526	0.00838569
2538	0.00819067
2550	0.00799566
2562	0.0085807
2574	0.00877572
2586	0.0085807
2598	0.00799566
2610	0.00780064
2622	0.00721559
2634	0.00721559
2646	0.00702058
2658	0.00760562
2670	0.00741061
2682	0.00799566
2694	0.00799566
2706	0.00780064
2718	0.00780064
2730	0.00799566
2742	0.00799566
2754	0.00780064
2766	0.0085807
2778	0.00877572
2790	0.00916575
2802	0.00936077
2814	0.0103358
2826	0.0101408
2838	0.0105309
2850	0.0111159
2862	0.0109209
2874	0.0105309
2886	0.0105309
2898	0.0103358
2910	0.0109209
2922	0.011896
2934	0.0167714
2946	0.0228169
2958	0.0253521
2970	0.0216468
2982	0.0191116
2994	0.0216468
3006	0.0232069
3018	0.0290574
3030	0.036663
3042	0.0337378
3054	0.0224268
3066	0.0189166
3078	0.0195016
3090	0.0179415
3102	0.0171614
3114	0.0156013
3126	0.0130661
3138	0.011701
3150	0.0107259
3162	0.00994582
3174	0.00877572
3186	0.00897074
3198	0.00877572
3210	0.00877572
3222	0.00877572
3234	0.0085807
3246	0.00760562
3258	0.0085807
3270	0.00838569
3282	0.00819067
3294	0.00819067
3306	0.00819067
3318	0.00799566
3330	0.00780064
3342	0.00799566
3354	0.00877572
3366	0.00838569
3378	0.00780064
3390	0.00877572
3402	0.00780064
3414	0.00819067
3426	0.00897074
3438	0.00799566
3450	0.00916575
3462	0.00897074
3474	0.00838569
3486	0.00916575
3498	0.0109209
3510	0.011896
3522	0.0152112
3534	0.0171614
3546	0.0210617
3558	0.0276923
3570	0.0325677
3582	0.0388082
3594	0.0323727
3606	0.0300325
3618	0.0204767
3630	0.0181365
3642	0.0204767
3654	0.0142362
3666	0.0177465
3678	0.0128711
3690	0.011896
3702	0.0138461
3714	0.0130661
3726	0.0130661
3738	0.0138461
3750	0.0101408
3762	0.012286
3774	0.0113109
3786	0.012481
3798	0.011701
3810	0.0142362
3822	0.00799566
3834	0.00936077
3846	0.0136511
3858	0.0101408
3870	0.00936077
3882	0.0142362
3894	0.0134561
3906	0.0111159
3918	0.011701
3930	0.0132611
3942	0.0156013
3954	0.0130661
3966	0.0097508
