Infrared Spectrum: Pyridine, 3-methyl-
Formula: C 6 H 7 N
CAS: 108-99-6
Origin: Sadtler Research Labs Under US-EPA Contract
1/CM	ABSORBANCE
450	0.0361122
462	0.018143
474	0.0176214
486	0.0150129
498	0.0211572
510	0.00939033
522	0.0150709
534	0.0114191
546	0.0195922
558	0.00799917
570	0.00857882
582	0.00886864
594	0.0129262
606	0.0201718
618	0.0594721
630	0.0540813
642	0.0725722
654	0.023186
666	0.00904254
678	0.0387206
690	0.168736
702	0.272493
714	0.291796
726	0.222644
738	0.0934975
750	0.0451547
762	0.143405
774	0.22247
786	0.319967
798	0.202646
810	0.0863099
822	0.0228382
834	0.0129842
846	0.00944829
858	0.00799917
870	0.0079412
882	0.00782527
894	0.0106076
906	0.0101439
918	0.0139696
930	0.0104337
942	0.0108395
954	0.0147811
966	0.0261422
978	0.03646
990	0.0340255
1002	0.0315909
1014	0.112394
1026	0.149955
1038	0.195806
1050	0.0740213
1062	0.039706
1074	0.0339675
1086	0.0524583
1098	0.0613849
1110	0.0863099
1122	0.0708332
1134	0.0686885
1146	0.0279391
1158	0.018143
1170	0.0322285
1182	0.106714
1194	0.109496
1206	0.067935
1218	0.0335038
1230	0.0388365
1242	0.0284608
1254	0.0218528
1266	0.013274
1278	0.00892661
1290	0.00950626
1302	0.0117669
1314	0.0179112
1326	0.0233019
1338	0.0294462
1350	0.0284608
1362	0.0406335
1374	0.0591243
1386	0.0787165
1398	0.139464
1410	0.237367
1422	0.304374
1434	0.246351
1446	0.152042
1458	0.152332
1470	0.291854
1482	0.259567
1494	0.185662
1506	0.0599358
1518	0.0439954
1530	0.0383728
1542	0.051357
1554	0.0957002
1566	0.188444
1578	0.223687
1590	0.219803
1602	0.100569
1614	0.0544871
1626	0.0238816
1638	0.0171576
1650	0.0157665
1662	0.0119408
1674	0.0125204
1686	0.0187227
1698	0.0228962
1710	0.0266639
1722	0.021447
1734	0.0153028
1746	0.0136797
1758	0.00996998
1770	0.00915847
1782	0.00741952
1794	0.00863678
1806	0.00846289
1818	0.0106656
1830	0.0163461
1842	0.0194183
1854	0.0190705
1866	0.0193023
1878	0.0241714
1890	0.038141
1902	0.0486326
1914	0.0350109
1926	0.0169837
1938	0.0123465
1950	0.0156505
1962	0.0156505
1974	0.00863678
1986	0.00614429
1998	0.00481109
2010	0.00417348
2022	0.00510092
2034	0.00399958
2046	0.00365179
2058	0.00295621
2070	0.00295621
2082	0.00249249
2094	0.00179691
2106	0.00168098
2118	0.00191285
2130	0.00179691
2142	0.00243453
2154	0.0023186
2166	0.00272435
2178	0.00399958
2190	0.00498499
2202	0.00544871
2214	0.00510092
2226	0.00504296
2238	0.00544871
2250	0.00510092
2262	0.00521685
2274	0.00388365
2286	0.00173895
2298	0.00168098
2310	0.00144912
2322	0.0023186
2334	0.00202878
2346	0.00486906
2358	0.00631818
2370	0.00672394
2382	0.00539074
2394	0.00457924
2406	0.00388365
2418	0.00428941
2430	0.00585446
2442	0.00724562
2454	0.00840493
2466	0.00736155
2478	0.00556464
2490	0.00411552
2502	0.00388365
2514	0.00399958
2526	0.00341993
2538	0.00318807
2550	0.0034779
2562	0.00353587
2574	0.00417348
2586	0.00492702
2598	0.00614429
2610	0.00788324
2622	0.00765138
2634	0.00544871
2646	0.00376772
2658	0.00359383
2670	0.00313011
2682	0.00423144
2694	0.00359383
2706	0.00376772
2718	0.00405755
2730	0.00608633
2742	0.0124625
2754	0.0169837
2766	0.0122886
2778	0.00631818
2790	0.00823103
2802	0.0123465
2814	0.0163461
2826	0.0178532
2838	0.0209833
2850	0.0378511
2862	0.0734417
2874	0.131465
2886	0.155172
2898	0.147695
2910	0.14955
2922	0.222412
2934	0.284724
2946	0.267508
2958	0.180271
2970	0.152448
2982	0.167461
2994	0.266697
3006	0.349239
3018	0.436882
3030	0.527655
3042	0.519482
3054	0.441288
3066	0.314866
3078	0.227281
3090	0.180039
3102	0.148738
3114	0.0441114
3126	0.0162302
3138	0.0142594
3150	0.0137377
3162	0.0119988
3174	0.00910051
3186	0.0081151
3198	0.00585446
3210	0.00498499
3222	0.0034779
3234	0.00388365
3246	0.00399958
3258	0.00353587
3270	0.00295621
3282	0.00255046
3294	0.00289825
3306	0.00330401
3318	0.00307215
3330	0.00388365
3342	0.00330401
3354	0.00475313
3366	0.00370976
3378	0.00341993
3390	0.00243453
3402	0.00313011
3414	0.00388365
3426	0.00475313
3438	0.00353587
3450	0.00249249
3462	0.00353587
3474	0.00272435
3486	0.00376772
3498	0.00237656
3510	0.0034779
3522	0.0021447
3534	0.0023186
3546	0.00434737
3558	0.0023186
3570	0.00481109
3582	0.00202878
3594	0.00492702
3606	0.00202878
3618	0.00399958
3630	0.0034779
3642	0.0023186
3654	0.00440534
3666	0.00179691
3678	0.00469517
3690	0.00272435
3702	0.00411552
3714	0.00475313
3726	0.0044633
3738	0.00637615
3750	0.00185488
3762	0.00255046
3774	0.00295621
3786	0.00243453
3798	0.00452127
3810	0.00510092
3822	0.00643411
3834	0.00481109
3846	0.00405755
3858	0.00944829
3870	0.0071297
3882	0.00944829
3894	0.00614429
3906	0.00915847
3918	0.0109554
3930	0.0044633
3942	0.00823103
3954	0.00399958
3966	0.0021447
