Infrared Spectrum: Benzene, 1-chloro-3-methyl-
Formula: C 7 H 7 Cl
CAS: 108-41-8
Origin: Sadtler Research Labs Under US-EPA Contract
1/CM	ABSORBANCE
450	0.00126228
462	0.00133654
474	0.00660843
486	0.00876174
498	0.00512339
510	0.0196768
522	0.0224241
534	0.00735095
546	0.00735095
558	0.00400961
570	0.00334134
582	0.00645992
594	0.00126228
606	0.00512339
618	0.00861323
630	0.00868748
642	0.0140336
654	0.0335619
666	0.110858
678	0.369775
690	0.340297
702	0.102245
714	0.0149989
726	0.0111378
738	0.0215331
750	0.0912557
762	0.362053
774	0.74252
786	0.320026
798	0.0601441
810	0.0305918
822	0.036235
834	0.0573225
846	0.236047
858	0.545752
870	0.366582
882	0.0800437
894	0.0457392
906	0.0240576
918	0.00980126
930	0.00675693
942	0.0120288
954	0.0173007
966	0.0210133
978	0.045071
990	0.0775933
1002	0.0619262
1014	0.0181917
1026	0.0167067
1038	0.0340817
1050	0.055095
1062	0.0882114
1074	0.284311
1086	0.353143
1098	0.253199
1110	0.170557
1122	0.0253199
1134	0.00668268
1146	0.00779646
1158	0.0267307
1170	0.0293295
1182	0.0157414
1194	0.0389823
1206	0.111972
1218	0.199441
1230	0.0810832
1242	0.0158899
1254	0.0158899
1266	0.0151474
1278	0.0161127
1290	0.0161127
1302	0.0162612
1314	0.0135139
1326	0.0166324
1338	0.0146276
1350	0.0155187
1362	0.0219786
1374	0.0326709
1386	0.0693514
1398	0.0809347
1410	0.0966761
1422	0.159865
1434	0.186744
1446	0.130906
1458	0.128976
1470	0.334951
1482	0.473059
1494	0.326115
1506	0.189046
1518	0.118209
1530	0.122887
1542	0.110041
1554	0.106106
1566	0.201594
1578	0.389674
1590	0.540035
1602	0.544713
1614	0.280227
1626	0.0501944
1638	0.019157
1650	0.016781
1662	0.0235379
1674	0.0196025
1686	0.00720244
1698	0.00631142
1710	0.00690544
1722	0.0166324
1734	0.026508
1746	0.027696
1758	0.0290325
1770	0.0270277
1782	0.0184887
1794	0.0136624
1806	0.00764796
1818	0.00824197
1830	0.0147761
1842	0.0187858
1854	0.0295523
1866	0.0252457
1878	0.00697969
1890	0.00445512
1902	0.00683118
1914	0.0141821
1926	0.0266565
1938	0.0253199
1950	0.00994977
1962	0.0035641
1974	0.00274732
1986	0.00237606
1998	0.00141079
2010	0.0018563
2022	0.0020048
2034	0.00141079
2046	0.00193055
2058	0.00215331
2070	0.00230181
2082	0.00222756
2094	0.000816772
2106	0.000816772
2118	0.00103953
2130	0.00037126
2142	0.00037126
2154	0.00133654
2166	0.00141079
2178	0.0018563
2190	0.00230181
2202	0.00141079
2214	0.00141079
2226	0.00193055
2238	0.00348984
2250	0.00527189
2262	0.00408386
2274	0.00289583
2286	0.00311858
2298	0.00267307
2310	0.00245032
2322	0.00475213
2334	0.00586591
2346	0.00549465
2358	0.00497488
2370	0.00645992
2382	0.00608866
2394	0.0054204
2406	0.00549465
2418	0.00519764
2430	0.00400961
2442	0.00282158
2454	0.00282158
2466	0.0035641
2478	0.00297008
2490	0.00274732
2502	0.00259882
2514	0.00289583
2526	0.00363835
2538	0.00311858
2550	0.00222756
2562	0.00289583
2574	0.00334134
2586	0.00408386
2598	0.00475213
2610	0.00304433
2622	0.000816772
2634	0.000965276
2646	0.00230181
2658	0.00282158
2670	0.00267307
2682	0.00297008
2694	0.00311858
2706	0.00237606
2718	0.00297008
2730	0.00601441
2742	0.0123258
2754	0.0131426
2766	0.00720244
2778	0.00608866
2790	0.00601441
2802	0.0074252
2814	0.00965276
2826	0.0129198
2838	0.0181175
2850	0.0307403
2862	0.0680148
2874	0.115833
2886	0.112343
2898	0.101874
2910	0.131797
2922	0.199589
2934	0.275475
2946	0.248002
2958	0.145608
2970	0.094003
2982	0.0753658
2994	0.100908
3006	0.124075
3018	0.145385
3030	0.197362
3042	0.218598
3054	0.196174
3066	0.227954
3078	0.222162
3090	0.151474
3102	0.0896964
3114	0.0367547
3126	0.0105438
3138	0.00452937
3150	0.00297008
3162	0.0017078
3174	0.00245032
3186	0.00163354
3198	0.00178205
3210	0.00155929
3222	0.0017078
3234	0.00311858
3246	0.00259882
3258	0.00215331
3270	0.00178205
3282	0.0018563
3294	0.00222756
3306	0.0020048
3318	0.00215331
3330	0.0020048
3342	0.00193055
3354	0.00237606
3366	0.00148504
3378	0.00267307
3390	0.00282158
3402	0.0020048
3414	0.00311858
3426	0.00282158
3438	0.00319284
3450	0.00297008
3462	0.00311858
3474	0.00334134
3486	0.00326709
3498	0.00252457
3510	0.00222756
3522	0.00245032
3534	0.00222756
3546	0.00230181
3558	0.00289583
3570	0.00274732
3582	0.00259882
3594	0.00400961
3606	0.00297008
3618	0.00326709
3630	0.00400961
3642	0.00259882
3654	0.0035641
3666	0
3678	0.00519764
3690	0.00363835
3702	0.00267307
3714	0.00668268
3726	0.0055689
3738	0.00497488
3750	0.00512339
3762	0.00504914
3774	0.0055689
3786	0.00445512
3798	0.00393536
3810	0.00215331
3822	0.00601441
3834	0.00445512
3846	0.00467788
3858	0.00594016
3870	0.00645992
3882	0.00594016
3894	0.00623717
3906	0.00697969
3918	0.00749945
3930	0.00801922
3942	0.00660843
3954	0.0055689
3966	0.00497488
