Infrared Spectrum: Cyclohexanone
Formula: C 6 H 10 O
CAS: 108-94-1
Origin: Sadtler Research Labs Under US-EPA Contract
1/CM	ABSORBANCE
450	0
462	0.0272733
474	0.0410527
486	0.053904
498	0.043266
510	0.0287726
522	0.0304147
534	0.0237035
546	0.0255598
558	0.0280586
570	0.0195625
582	0.0259167
594	0.0299863
606	0.020919
618	0.0214188
630	0.02506
642	0.0259167
654	0.0206334
666	0.0221328
678	0.0190627
690	0.0197767
702	0.0169922
714	0.0202051
726	0.0297721
738	0.0400532
750	0.0424092
762	0.0361978
774	0.0217044
786	0.0175634
798	0.0200623
810	0.0195625
822	0.0194197
834	0.021276
846	0.0224183
858	0.0270591
870	0.0304861
882	0.0274161
894	0.0408385
906	0.0450509
918	0.0359122
930	0.0231323
942	0.0210618
954	0.0201337
966	0.021276
978	0.0236321
990	0.0282728
1002	0.028844
1014	0.032271
1026	0.0340559
1038	0.0339131
1050	0.0435516
1062	0.0488349
1074	0.0386252
1086	0.0318426
1098	0.0416953
1110	0.0795351
1122	0.0890308
1134	0.0673978
1146	0.0358408
1158	0.028487
1170	0.0272733
1182	0.0279158
1194	0.0418381
1206	0.0773219
1218	0.105095
1230	0.0989549
1242	0.0543324
1254	0.0299863
1266	0.0229895
1278	0.0242746
1290	0.0320568
1302	0.0602582
1314	0.0801777
1326	0.0831763
1338	0.0702537
1350	0.0621859
1362	0.0354838
1374	0.0229181
1386	0.0237035
1398	0.0277016
1410	0.0414097
1422	0.0711104
1434	0.0996688
1446	0.0950995
1458	0.0961704
1470	0.064542
1482	0.0346271
1494	0.0239891
1506	0.0199195
1518	0.0190627
1530	0.0191341
1542	0.0176348
1554	0.0188485
1566	0.017849
1578	0.0202051
1590	0.0197767
1602	0.0192769
1614	0.0217044
1626	0.0234179
1638	0.0264165
1650	0.0247744
1662	0.02506
1674	0.0282728
1686	0.0436944
1698	0.0648276
1710	0.151574
1722	0.479353
1734	0.71396
1746	0.545894
1758	0.155215
1770	0.0754656
1782	0.0449795
1794	0.0404815
1806	0.0403387
1818	0.0364834
1830	0.0262023
1842	0.0210618
1854	0.0199909
1866	0.0209904
1878	0.0199195
1890	0.0192769
1902	0.0184202
1914	0.0184916
1926	0.0187058
1938	0.0191341
1950	0.0198481
1962	0.0206334
1974	0.0200623
1986	0.0179204
1998	0.0180632
2010	0.0177062
2022	0.0166353
2034	0.017135
2046	0.0162783
2058	0.0168495
2070	0.0154929
2082	0.0155643
2094	0.018206
2106	0.0183488
2118	0.0184916
2130	0.0187058
2142	0.0189913
2154	0.0183488
2166	0.0188485
2178	0.0192055
2190	0.0182774
2202	0.0189199
2214	0.0187058
2226	0.0184202
2238	0.0190627
2250	0.017849
2262	0.0176348
2274	0.0187058
2286	0.0168495
2298	0.0166353
2310	0.0160641
2322	0.0154215
2334	0.017849
2346	0.0177776
2358	0.0165639
2370	0.0177776
2382	0.0167067
2394	0.0173492
2406	0.017135
2418	0.0169922
2430	0.0172778
2442	0.0159213
2454	0.0168495
2466	0.0153501
2478	0.0159927
2490	0.0158499
2502	0.0156357
2514	0.0159927
2526	0.0162069
2538	0.0167067
2550	0.0162783
2562	0.0164925
2574	0.0148504
2586	0.0156357
2598	0.0163497
2610	0.0184202
2622	0.0192055
2634	0.0195625
2646	0.0202051
2658	0.02506
2670	0.0242746
2682	0.0208476
2694	0.0184916
2706	0.0167781
2718	0.0168495
2730	0.0169922
2742	0.0168495
2754	0.0173492
2766	0.0183488
2778	0.0189199
2790	0.0211332
2802	0.0223469
2814	0.0242032
2826	0.031557
2838	0.0446939
2850	0.0688257
2862	0.139722
2874	0.199695
2886	0.171422
2898	0.13401
2910	0.128941
2922	0.212617
2934	0.412455
2946	0.66027
2958	0.502342
2970	0.274803
2982	0.160998
2994	0.0661127
3006	0.0289868
3018	0.0224183
3030	0.0222042
3042	0.0201337
3054	0.0195625
3066	0.0186344
3078	0.017849
3090	0.0172064
3102	0.0172064
3114	0.0175634
3126	0.0177776
3138	0.018206
3150	0.0156357
3162	0.0162069
3174	0.0172778
3186	0.0170636
3198	0.0159213
3210	0.017849
3222	0.0184202
3234	0.0172064
3246	0.0199195
3258	0.0177062
3270	0.0167781
3282	0.0169209
3294	0.0165639
3306	0.0164211
3318	0.0161355
3330	0.0163497
3342	0.0158499
3354	0.017849
3366	0.0172064
3378	0.0182774
3390	0.0177776
3402	0.0179918
3414	0.018206
3426	0.02199
3438	0.0261309
3450	0.0297007
3462	0.0272019
3474	0.021633
3486	0.0197053
3498	0.0164211
3510	0.0176348
3522	0.0204907
3534	0.0184916
3546	0.0234179
3558	0.0202051
3570	0.0214188
3582	0.0199195
3594	0.0200623
3606	0.0201337
3618	0.0195625
3630	0.0224183
3642	0.0201337
3654	0.0193483
3666	0.0195625
3678	0.02199
3690	0.0213474
3702	0.0203479
3714	0.0194197
3726	0.0208476
3738	0.0192769
3750	0.0238463
3762	0.0244888
3774	0.0242746
3786	0.0187771
3798	0.0192055
3810	0.0213474
3822	0.0196339
3834	0.0194911
3846	0.0217044
3858	0.0229181
3870	0.0239177
3882	0.0223469
3894	0.0227039
3906	0.0233465
3918	0.0229181
3930	0.0248458
3942	0.027773
3954	0.0252742
3966	0.0245602
