Infrared Spectrum: Propylene Carbonate
Formula: C 4 H 6 O 3
CAS: 108-32-7
Origin: Sadtler Research Labs Under US-EPA Contract
1/CM	ABSORBANCE
450	0
462	0.02883
474	0.014415
486	0.0167685
498	0.0130912
510	0.0317719
522	0.0235347
534	0.0163272
546	0.00941389
558	0.0279475
570	0.0147092
582	0.0186807
594	0.0129441
606	0.0179452
618	0.0198574
630	0.0188278
642	0.0169156
654	0.0152976
666	0.0167685
678	0.0204458
690	0.0205929
702	0.0276533
714	0.0216225
726	0.0200045
738	0.0155918
750	0.0273591
762	0.0470694
774	0.0741344
786	0.0458927
798	0.025594
810	0.0177981
822	0.0166214
834	0.0179452
846	0.0148563
858	0.0173569
870	0.0173569
882	0.0261824
894	0.0401561
906	0.0397148
918	0.0370672
930	0.0342724
942	0.0439805
954	0.0595723
966	0.0548653
978	0.036773
990	0.0252998
1002	0.0297126
1014	0.0386852
1026	0.0619257
1038	0.143562
1050	0.275945
1062	0.37126
1074	0.35508
1086	0.325956
1098	0.471871
1110	0.606902
1122	0.534532
1134	0.308011
1146	0.314041
1158	0.283888
1170	0.196368
1182	0.102817
1194	0.0548653
1206	0.0426567
1218	0.0405974
1230	0.0372143
1242	0.0297126
1254	0.0254469
1266	0.0217696
1278	0.0208871
1290	0.0194161
1302	0.0217696
1314	0.031919
1326	0.0556008
1338	0.105906
1350	0.112084
1362	0.0845779
1374	0.0781059
1386	0.0936976
1398	0.0839895
1410	0.0388323
1422	0.0216225
1434	0.0227993
1446	0.0270649
1458	0.0282417
1470	0.0289771
1482	0.0333899
1494	0.030301
1506	0.0225051
1518	0.0177981
1530	0.0251527
1542	0.023976
1554	0.0179452
1566	0.0122086
1578	0.0114732
1590	0.00941389
1602	0.0101493
1614	0.0102964
1626	0.0125028
1638	0.0141208
1650	0.014415
1662	0.016033
1674	0.0138266
1686	0.0139737
1698	0.0155918
1710	0.0185336
1722	0.0177981
1734	0.0186807
1746	0.0200045
1758	0.0232405
1770	0.0285358
1782	0.0397148
1794	0.0572188
1806	0.0867843
1818	0.137825
1830	0.264913
1842	0.634702
1854	1.31574
1866	1.47092
1878	0.887994
1890	0.236083
1902	0.0906087
1914	0.0541299
1926	0.0433921
1938	0.0386852
1950	0.0314777
1962	0.0260353
1974	0.0227993
1986	0.0217696
1998	0.0213283
2010	0.0211812
2022	0.0197103
2034	0.0163272
2046	0.0136796
2058	0.0117674
2070	0.0105906
2082	0.0092668
2094	0.00956098
2106	0.0092668
2118	0.0092668
2130	0.0091197
2142	0.00897261
2154	0.00941389
2166	0.0108848
2178	0.011179
2190	0.012797
2202	0.0157388
2214	0.0173569
2226	0.0169156
2238	0.0163272
2250	0.0173569
2262	0.0183865
2274	0.0152976
2286	0.0133854
2298	0.0125028
2310	0.0132383
2322	0.0116203
2334	0.0091197
2346	0.011179
2358	0.0100023
2370	0.00882552
2382	0.0092668
2394	0.00617786
2406	0.00647205
2418	0.00661914
2430	0.00720751
2442	0.00750169
2454	0.00764878
2466	0.00691332
2478	0.0073546
2490	0.00823715
2502	0.00853134
2514	0.00750169
2526	0.0073546
2538	0.00691332
2550	0.0073546
2562	0.00809006
2574	0.00794297
2586	0.00691332
2598	0.00573659
2610	0.0055895
2622	0.00573659
2634	0.0055895
2646	0.0055895
2658	0.00529531
2670	0.00500113
2682	0.0055895
2694	0.0055895
2706	0.00573659
2718	0.00588368
2730	0.00573659
2742	0.00661914
2754	0.00779588
2766	0.00720751
2778	0.00588368
2790	0.00411858
2802	0.00455985
2814	0.0054424
2826	0.00647205
2838	0.00706042
2850	0.00588368
2862	0.00647205
2874	0.012797
2886	0.0195632
2898	0.0339783
2910	0.0541299
2922	0.0585426
2934	0.0622199
2946	0.0611903
2958	0.0564833
2970	0.0700158
2982	0.114585
2994	0.130912
3006	0.100317
3018	0.0453043
3030	0.0166214
3042	0.00882552
3054	0.00691332
3066	0.00632496
3078	0.0055895
3090	0.00514822
3102	0.00470694
3114	0.00588368
3126	0.0054424
3138	0.00588368
3150	0.00632496
3162	0.00588368
3174	0.00588368
3186	0.00573659
3198	0.00588368
3210	0.00603077
3222	0.00529531
3234	0.00588368
3246	0.00529531
3258	0.00514822
3270	0.00573659
3282	0.0055895
3294	0.0055895
3306	0.00514822
3318	0.00529531
3330	0.00514822
3342	0.0054424
3354	0.00514822
3366	0.00573659
3378	0.00676623
3390	0.00500113
3402	0.00573659
3414	0.00529531
3426	0.00588368
3438	0.0054424
3450	0.00514822
3462	0.00529531
3474	0.00573659
3486	0.0054424
3498	0.0054424
3510	0.00573659
3522	0.00485404
3534	0.00514822
3546	0.00529531
3558	0.0055895
3570	0.00617786
3582	0.00573659
3594	0.00617786
3606	0.00603077
3618	0.00676623
3630	0.0055895
3642	0.00706042
3654	0.00691332
3666	0.0101493
3678	0.0104435
3690	0.0117674
3702	0.0152976
3714	0.0139737
3726	0.00882552
3738	0.00617786
3750	0.00441276
3762	0.0055895
3774	0.00647205
3786	0.00691332
3798	0.00632496
3810	0.0073546
3822	0.00706042
3834	0.00588368
3846	0.0054424
3858	0.0054424
3870	0.00647205
3882	0.00985516
3894	0.00985516
3906	0.00809006
3918	0.00647205
3930	0.00867843
3942	0.00485404
3954	0.00809006
3966	0.0054424
