Infrared Spectrum: Benzenamine, 3,5-dimethyl-
Formula: C 8 H 11 N
CAS: 108-69-0
Origin: Sadtler Research Labs Under US-EPA Contract
1/CM	ABSORBANCE
450	0.028781
462	0.0487486
474	0.0473716
486	0.0660998
498	0.0692671
510	0.0768411
522	0.0817986
534	0.0567357
546	0.0483355
558	0.0644473
570	0.08772
582	0.0845527
594	0.044342
606	0.0322237
618	0.041037
630	0.0425518
642	0.0746377
654	0.146521
666	0.39054
678	0.579338
690	0.289049
702	0.112921
714	0.0710573
726	0.0395222
738	0.0223087
750	0.0202431
762	0.0469584
774	0.0579751
786	0.0329122
798	0.0316728
810	0.110717
822	0.300754
834	0.23011
846	0.0864806
858	0.0448928
870	0.0192791
882	0.00619686
894	0.0119806
906	0.0163873
918	0.0214824
930	0.0415878
942	0.059903
954	0.046683
966	0.0148725
978	0.0121183
990	0.0294695
1002	0.0386959
1014	0.0421386
1026	0.0517782
1038	0.0491618
1050	0.0468207
1062	0.0418632
1074	0.0637588
1086	0.106586
1098	0.0702311
1110	0.0123937
1122	0.00495749
1134	0.00426895
1146	0.00468207
1158	0.0279547
1170	0.199126
1182	0.208214
1194	0.0194168
1206	0.00385582
1218	0.000413124
1230	0.000275416
1242	0.0017902
1254	0.00605915
1266	0.0180397
1278	0.033463
1290	0.0304335
1302	0.0526045
1314	0.150928
1326	0.333253
1338	0.222261
1350	0.0404862
1362	0.0364926
1374	0.0403484
1386	0.0454436
1398	0.0322237
1410	0.0440666
1422	0.0651359
1434	0.0868937
1446	0.155059
1458	0.174201
1470	0.163459
1482	0.171722
1494	0.180122
1506	0.159466
1518	0.142115
1530	0.137433
1542	0.107137
1554	0.116088
1566	0.162495
1578	0.25352
1590	0.390402
1602	0.645575
1614	1.2318
1626	1.30203
1638	0.53596
1650	0.153958
1662	0.0760148
1674	0.0404862
1686	0.0336008
1698	0.0290564
1710	0.0265776
1722	0.0195545
1734	0.0110166
1746	0.024512
1758	0.0326368
1770	0.0176266
1782	0.0110166
1794	0.00950185
1806	0.0134954
1818	0.0136331
1830	0.00977727
1842	0.0126691
1854	0.0190037
1866	0.0143216
1878	0.0161118
1890	0.0159741
1902	0.018866
1914	0.0137708
1926	0.0117052
1938	0.0119806
1950	0.0108789
1962	0.0110166
1974	0.00977727
1986	0.0111543
1998	0.0144593
2010	0.0150102
2022	0.0108789
2034	0.0117052
2046	0.0115675
2058	0.0117052
2070	0.0101904
2082	0.00936414
2094	0.00950185
2106	0.0111543
2118	0.0112921
2130	0.00936414
2142	0.00771165
2154	0.00757394
2166	0.0086756
2178	0.0106035
2190	0.0126691
2202	0.0125314
2214	0.0085379
2226	0.00550832
2238	0.00592144
2250	0.00716082
2262	0.00826248
2274	0.00798706
2286	0.00674769
2298	0.00633457
2310	0.00605915
2322	0.00771165
2334	0.00619686
2346	0.00564603
2358	0.00605915
2370	0.00578374
2382	0.00702311
2394	0.00757394
2406	0.00922644
2418	0.00950185
2430	0.00908873
2442	0.0100527
2454	0.00963956
2466	0.00936414
2478	0.00936414
2490	0.0100527
2502	0.0101904
2514	0.00771165
2526	0.00619686
2538	0.00702311
2550	0.0086756
2562	0.0086756
2574	0.00771165
2586	0.0068854
2598	0.00633457
2610	0.00647228
2622	0.00619686
2634	0.0068854
2646	0.0085379
2658	0.0086756
2670	0.00702311
2682	0.00771165
2694	0.00977727
2706	0.0111543
2718	0.0121183
2730	0.0191414
2742	0.0290564
2754	0.0239612
2766	0.0163873
2778	0.0158364
2790	0.0168004
2802	0.0166627
2814	0.018866
2826	0.0252006
2838	0.0364926
2850	0.0643096
2862	0.135505
2874	0.195958
2886	0.179709
2898	0.159604
2910	0.202431
2922	0.348539
2934	0.443695
2946	0.310807
2958	0.165663
2970	0.113196
2982	0.127931
2994	0.156849
3006	0.197198
3018	0.386409
3030	0.536373
3042	0.294557
3054	0.10094
3066	0.0659621
3078	0.054257
3090	0.041037
3102	0.025476
3114	0.0180397
3126	0.0118429
3138	0.0086756
3150	0.00743623
3162	0.00674769
3174	0.00633457
3186	0.00771165
3198	0.0103281
3210	0.0140462
3222	0.0163873
3234	0.0150102
3246	0.0111543
3258	0.00936414
3270	0.00784936
3282	0.00702311
3294	0.00716082
3306	0.00757394
3318	0.00674769
3330	0.00660998
3342	0.00660998
3354	0.00743623
3366	0.00908873
3378	0.0130823
3390	0.0269908
3402	0.0619686
3414	0.0736738
3426	0.046683
3438	0.0247874
3450	0.0162495
3462	0.0177643
3474	0.0327745
3486	0.063208
3498	0.0648605
3510	0.0415878
3522	0.0225841
3534	0.0159741
3546	0.0118429
3558	0.00826248
3570	0.00757394
3582	0.00743623
3594	0.00784936
3606	0.00660998
3618	0.00660998
3630	0.00826248
3642	0.00771165
3654	0.00605915
3666	0.00743623
3678	0.00674769
3690	0.00716082
3702	0.00936414
3714	0.00784936
3726	0.00895102
3738	0.00757394
3750	0.0086756
3762	0.00784936
3774	0.00771165
3786	0.00702311
3798	0.00578374
3810	0.0068854
3822	0.0085379
3834	0.00826248
3846	0.0125314
3858	0.0161118
3870	0.01322
3882	0.0103281
3894	0.0086756
3906	0.00895102
3918	0.00743623
3930	0.00826248
3942	0.0100527
3954	0.0108789
3966	0.0100527
