Infrared Spectrum: Benzene, 1,3,5-trimethyl-
Formula: C 9 H 12
CAS: 108-67-8
Origin: Sadtler Research Labs Under US-EPA Contract
1/CM	ABSORBANCE
450	0.0330226
462	0.0184335
474	0.0291782
486	0.0138005
498	0.0245452
510	0.0416972
522	0.0385428
534	0.0248409
546	0.0194193
558	0.0172506
570	0.0244466
582	0.0165606
594	0.0182364
606	0.0203065
618	0.0210951
630	0.024348
642	0.0241509
654	0.0251366
666	0.0407115
678	0.124599
690	0.181575
702	0.0778742
714	0.0248409
726	0.0220808
738	0.0219822
750	0.0208979
762	0.0202079
774	0.020405
786	0.0231651
798	0.0244466
810	0.0318397
822	0.210458
834	0.64192
846	0.272954
858	0.0446545
870	0.0225737
882	0.0273053
894	0.0348955
906	0.0374585
918	0.0475131
930	0.0493861
942	0.0345998
954	0.0240523
966	0.0259252
978	0.0318397
990	0.0475131
1002	0.0571735
1014	0.0487946
1026	0.0437673
1038	0.0610179
1050	0.0717626
1062	0.0588493
1074	0.0353884
1086	0.0272067
1098	0.020405
1110	0.0177435
1122	0.0228694
1134	0.0224751
1146	0.0208979
1158	0.0222779
1170	0.0212922
1182	0.0193207
1194	0.0211936
1206	0.0217851
1218	0.0191235
1230	0.0180392
1242	0.0183349
1254	0.0205036
1266	0.0215879
1278	0.0210951
1290	0.0219822
1302	0.024348
1314	0.0235594
1326	0.0244466
1338	0.0307554
1350	0.0475131
1362	0.0592436
1374	0.0899004
1386	0.129232
1398	0.0859574
1410	0.0699883
1422	0.0563849
1434	0.0880275
1446	0.14668
1458	0.208388
1470	0.18404
1482	0.198136
1494	0.215091
1506	0.212035
1518	0.197544
1530	0.181477
1542	0.159987
1554	0.139385
1566	0.131203
1578	0.122627
1590	0.172999
1602	0.534868
1614	0.723343
1626	0.129922
1638	0.0344027
1650	0.0175463
1662	0.0134062
1674	0.0139977
1686	0.0138991
1698	0.0248409
1710	0.0420915
1722	0.026911
1734	0.0210951
1746	0.0525405
1758	0.0528362
1770	0.0167577
1782	0.00601307
1794	0.00571735
1806	0.00729455
1818	0.00818172
1830	0.0082803
1842	0.00759027
1854	0.0067031
1866	0.00857602
1878	0.0128147
1890	0.0130119
1902	0.0117304
1914	0.0119276
1926	0.013209
1938	0.00956177
1950	0.00887175
1962	0.0063088
1974	0.0035487
1986	0.00345013
1998	0.00364727
2010	0.00384442
2022	0.00404157
2034	0.00414015
2046	0.0035487
2058	0.003943
2070	0.00256295
2082	0.00295725
2094	0.00453445
2106	0.00226722
2118	0.00177435
2130	0.00147862
2142	0.00167578
2154	0.00207007
2166	0.0027601
2178	0.00522448
2190	0.003943
2202	0.00128148
2214	0.000887175
2226	0.00305582
2238	0.00216865
2250	0.00167578
2262	0.0019715
2274	0.00266153
2286	0.00483017
2298	0.011829
2310	0.0195178
2322	0.0163634
2334	0.0144905
2346	0.0159691
2358	0.0129133
2370	0.0196164
2382	0.0138991
2394	0.0086746
2406	0.00887175
2418	0.0100547
2430	0.0105475
2442	0.011139
2454	0.0107447
2466	0.00995607
2478	0.00768885
2490	0.00729455
2502	0.00798457
2514	0.00739312
2526	0.00601307
2538	0.00699883
2550	0.00759027
2562	0.0063088
2574	0.00542163
2586	0.00463302
2598	0.00561877
2610	0.00699883
2622	0.0055202
2634	0.00542163
2646	0.00571735
2658	0.00640737
2670	0.00818172
2682	0.00916747
2694	0.00818172
2706	0.0110404
2718	0.0145891
2730	0.0317411
2742	0.055892
2754	0.0392328
2766	0.019715
2778	0.0174478
2790	0.0195178
2802	0.0244466
2814	0.0351913
2826	0.0539205
2838	0.0810286
2850	0.143722
2862	0.291486
2874	0.465767
2886	0.433336
2898	0.376458
2910	0.498198
2922	0.802992
2934	0.98575
2946	0.695348
2958	0.379908
2970	0.255506
2982	0.287642
2994	0.370346
3006	0.483609
3018	0.850012
3030	0.904918
3042	0.40396
3054	0.202572
3066	0.130316
3078	0.0940406
3090	0.0686082
3102	0.044063
3114	0.0325297
3126	0.0221794
3138	0.0172506
3150	0.0161663
3162	0.0161663
3174	0.015082
3186	0.0137019
3198	0.0134062
3210	0.0135048
3222	0.0139977
3234	0.0140962
3246	0.015082
3258	0.0141948
3270	0.0145891
3282	0.012519
3294	0.012519
3306	0.013209
3318	0.0134062
3330	0.0130119
3342	0.013209
3354	0.011829
3366	0.0121247
3378	0.0102518
3390	0.0115333
3402	0.011829
3414	0.0116318
3426	0.0133076
3438	0.0127162
3450	0.0123219
3462	0.0134062
3474	0.0124204
3486	0.0120261
3498	0.00936462
3510	0.00995607
3522	0.0112375
3534	0.0120261
3546	0.0115333
3558	0.0086746
3570	0.00847745
3582	0.00975892
3594	0.0070974
3606	0.00719597
3618	0.00502733
3630	0.00463302
3642	0.00502733
3654	0.00305582
3666	0.00374585
3678	0.00719597
3690	0.0067031
3702	0.00216865
3714	0.00522448
3726	0.0031544
3738	0.00345013
3750	0.00601307
3762	0.0031544
3774	0.00423872
3786	0.0063088
3798	0.0051259
3810	0.0043373
3822	0.00542163
3834	0.00650595
3846	0.007886
3858	0.00660452
3870	0.00492875
3882	0.00926605
3894	0.010449
3906	0.00561877
3918	0.00887175
3930	0.0122233
3942	0.0122233
3954	0.0086746
3966	0.013209
