Infrared Spectrum: Phenol, 3-methyl-
Formula: C 7 H 8 O
CAS: 108-39-4
Origin: Sadtler Research Labs Under US-EPA Contract
1/CM	ABSORBANCE
450	0.069451
462	0.0267119
474	0.0112471
486	0.0145275
498	0.0146213
510	0.0241813
522	0.0373029
534	0.0527677
546	0.0408645
558	0.00862279
570	0.0107785
582	0.0278366
594	0.0243688
606	0.00993496
618	0.000656082
630	0.00046863
642	0.00365531
654	0.00918515
666	0.0633588
678	0.128498
690	0.175174
702	0.0894146
714	0.0222131
726	0.0562356
738	0.0788236
750	0.117439
762	0.266182
774	0.38184
786	0.194388
798	0.0508932
810	0.00834161
822	0.0286802
834	0.0736686
846	0.0637337
858	0.0727314
870	0.0836973
882	0.0577352
894	0.0308359
906	0.0433014
918	0.197856
930	0.241907
942	0.104692
954	0.0172456
966	0.0240876
978	0.0441449
990	0.0761055
1002	0.097475
1014	0.0671078
1026	0.018464
1038	0.0239001
1050	0.0380528
1062	0.0464881
1074	0.0756369
1086	0.0806981
1098	0.0482689
1110	0.0354284
1122	0.0579227
1134	0.22288
1146	0.73528
1158	0.93726
1170	0.616061
1182	0.562075
1194	0.586912
1206	0.422892
1218	0.161771
1230	0.0830412
1242	0.0672015
1254	0.161584
1266	0.337789
1278	0.622434
1290	0.607626
1302	0.363376
1314	0.33582
1326	0.0980374
1338	0.0308359
1350	0.0162146
1362	0.0156522
1374	0.0252123
1386	0.0396461
1398	0.0440512
1410	0.0497685
1422	0.0851032
1434	0.143026
1446	0.232909
1458	0.269462
1470	0.239751
1482	0.315388
1494	0.394868
1506	0.301329
1518	0.187452
1530	0.164302
1542	0.119032
1554	0.0835099
1566	0.117064
1578	0.29833
1590	0.597503
1602	0.702383
1614	0.666673
1626	0.484282
1638	0.175455
1650	0.0302735
1662	0.0165895
1674	0.0148087
1686	0.0183703
1698	0.0207134
1710	0.0223068
1722	0.0239001
1734	0.0219319
1746	0.0138714
1758	0.00749808
1770	0.00449885
1782	0.00299923
1794	0.00656082
1806	0.0112471
1818	0.0130279
1830	0.0137777
1842	0.0110597
1854	0.00459257
1866	0.00281178
1878	0.00712318
1890	0.011622
1902	0.0171519
1914	0.021557
1926	0.0173393
1938	0.00843534
1950	0.000749808
1962	0
1974	0.000562356
1986	0.00178079
1998	0.00262433
2010	0.00478003
2022	0.00412394
2034	0.00140589
2046	0.00112471
2058	0.00131216
2070	0.00271805
2082	0.00449885
2094	0.00337414
2106	0.00178079
2118	0.00178079
2130	0.00149962
2142	0.00149962
2154	0.00140589
2166	0.000843534
2178	0.00168707
2190	0.00309296
2202	0.00599846
2214	0.00590474
2226	0.00187452
2238	0.00093726
2250	0.000749808
2262	0.000374904
2274	0
2286	0.000656082
2298	0.00187452
2310	0.00515493
2322	0.00843534
2334	0.00806044
2346	0.00815416
2358	0.00740435
2370	0.00665455
2382	0.00646709
2394	0.00749808
2406	0.00843534
2418	0.0103099
2430	0.0128405
2442	0.0125593
2454	0.010591
2466	0.00956005
2478	0.00852907
2490	0.00768553
2502	0.00581101
2514	0.00393649
2526	0.00290551
2538	0.00337414
2550	0.00421767
2562	0.00440512
2574	0.00393649
2586	0.00365531
2598	0.0043114
2610	0.00403022
2622	0.00440512
2634	0.00309296
2646	0.00196825
2658	0.00159334
2670	0.00149962
2682	0.00093726
2694	0.000843534
2706	0.00131216
2718	0.00234315
2730	0.00627964
2742	0.0119032
2754	0.0133091
2766	0.00768553
2778	0.00674827
2790	0.00665455
2802	0.00656082
2814	0.00777926
2826	0.010591
2838	0.0163083
2850	0.0285864
2862	0.0598909
2874	0.100943
2886	0.103661
2898	0.0878213
2910	0.106192
2922	0.177611
2934	0.230566
2946	0.197668
2958	0.109003
2970	0.0737624
2982	0.074231
2994	0.0905393
3006	0.143869
3018	0.183234
3030	0.238251
3042	0.302922
3054	0.282959
3066	0.17986
3078	0.134403
3090	0.0965378
3102	0.0604533
3114	0.0360845
3126	0.0211821
3138	0.0107785
3150	0.00384277
3162	0.00168707
3174	0.000843534
3186	0
3198	0.000656082
3210	0.00168707
3222	0.00112471
3234	0.00187452
3246	0.00112471
3258	0.00046863
3270	0.0021557
3282	0.00178079
3294	0.00234315
3306	0.00281178
3318	0.00299923
3330	0.00543611
3342	0.00871652
3354	0.00918515
3366	0.00927887
3378	0.00871652
3390	0.00656082
3402	0.00581101
3414	0.00618592
3426	0.00665455
3438	0.00609219
3450	0.00552983
3462	0.00393649
3474	0.00449885
3486	0.00412394
3498	0.00309296
3510	0.00421767
3522	0.00309296
3534	0.0025306
3546	0.00374904
3558	0.00328041
3570	0.0043114
3582	0.00702945
3594	0.00637337
3606	0.0072169
3618	0.0146213
3630	0.0490187
3642	0.339382
3654	0.541924
3666	0.388307
3678	0.0298986
3690	0.00449885
3702	0.00459257
3714	0.00168707
3726	0.00224942
3738	0.00543611
3750	0.0050612
3762	0.00403022
3774	0.00459257
3786	0.00478003
3798	0.00449885
3810	0.00412394
3822	0.00543611
3834	0.00609219
3846	0.00665455
3858	0.00749808
3870	0.00768553
3882	0.00862279
3894	0.00599846
3906	0.0072169
3918	0.00749808
3930	0.00918515
3942	0.00871652
3954	0.00834161
3966	0.0093726
