Infrared Spectrum: Pyridine, 2,4,6-trimethyl-
Formula: C 8 H 11 N
CAS: 108-75-8
Origin: Sadtler Research Labs Under US-EPA Contract
1/CM	ABSORBANCE
450	0.0248331
462	0.0211307
474	0.00659205
486	0.00794658
498	0.00108362
510	0.0628502
522	0.0669138
534	0.0849742
546	0.0446995
558	0.0170671
570	0.019144
582	0.0176992
594	0.0117393
606	0.00713386
618	0.0129132
630	0.0121005
642	0.0120102
654	0.0107459
666	0.0111974
678	0.0137259
690	0.0245621
702	0.0452413
714	0.0492146
726	0.0516527
738	0.0449704
750	0.0342245
762	0.0310639
774	0.0307027
786	0.0369335
798	0.0698937
810	0.130306
822	0.135363
834	0.192343
846	0.134731
858	0.0614054
870	0.0281742
882	0.02393
894	0.0289869
906	0.0522849
918	0.0923789
930	0.0689907
942	0.0286257
954	0.0259167
966	0.0356693
978	0.0495758
990	0.0736864
1002	0.0875026
1014	0.0713386
1026	0.0754022
1038	0.0791046
1050	0.0661011
1062	0.051743
1074	0.0393717
1086	0.0322378
1098	0.0294385
1110	0.0322378
1122	0.0502982
1134	0.0537297
1146	0.0383783
1158	0.0389202
1170	0.0417195
1182	0.0335923
1194	0.0229367
1206	0.0454219
1218	0.0957201
1230	0.0819039
1242	0.0584254
1254	0.069081
1266	0.0505691
1278	0.0352178
1290	0.027813
1302	0.0311542
1314	0.0483116
1326	0.052014
1338	0.0456025
1350	0.0550842
1362	0.0898505
1374	0.157216
1386	0.184035
1398	0.188551
1410	0.228013
1422	0.335382
1434	0.371322
1446	0.341883
1458	0.449794
1470	0.50226
1482	0.357686
1494	0.26025
1506	0.247698
1518	0.244357
1530	0.242732
1542	0.242461
1554	0.306033
1566	0.54407
1578	0.679342
1590	0.555809
1602	0.812266
1614	0.778945
1626	0.217267
1638	0.0406359
1650	0.0217628
1662	0.0216725
1674	0.0214016
1686	0.0266391
1698	0.0288063
1710	0.0241106
1722	0.013455
1734	0.023027
1746	0.0198664
1758	0.0148095
1770	0.0129132
1782	0.00957201
1794	0.0103847
1806	0.00731446
1818	0.00812718
1830	0.00839809
1842	0.00875929
1854	0.0090302
1866	0.00866899
1878	0.0100235
1890	0.014358
1902	0.0147192
1914	0.0137259
1926	0.0129132
1938	0.00839809
1950	0.00677265
1962	0.00740476
1974	0.00677265
1986	0.00424419
1998	0.0043345
2010	0.0046054
2022	0.00406359
2034	0.00343148
2046	0.00352178
2058	0.00388299
2070	0.00388299
2082	0.00424419
2094	0.00352178
2106	0.00207695
2118	0.00279936
2130	0.00424419
2142	0.00614054
2154	0.00541812
2166	0.00406359
2178	0.00279936
2190	0.00424419
2202	0.00361208
2214	0.00261876
2226	0.00189634
2238	0.00180604
2250	0.000722416
2262	0.000361208
2274	0.000270906
2286	0.00180604
2298	0.00559872
2310	0.0045151
2322	0.00225755
2334	0.00225755
2346	0.00514721
2358	0.00316057
2370	0.0091205
2382	0.0111071
2394	0.00948171
2406	0.00948171
2418	0.00812718
2430	0.00794658
2442	0.00749507
2454	0.00659205
2466	0.00605023
2478	0.00550842
2490	0.0046957
2502	0.0045151
2514	0.00388299
2526	0.00415389
2538	0.0044248
2550	0.00343148
2562	0.00180604
2574	0.00180604
2586	0.00297997
2598	0.00352178
2610	0.00234785
2622	0.00270906
2634	0.00379268
2646	0.00541812
2658	0.0044248
2670	0.00270906
2682	0.00478601
2694	0.00659205
2706	0.00731446
2718	0.00848839
2730	0.0175186
2742	0.0271809
2754	0.0219434
2766	0.0148095
2778	0.0124617
2790	0.0149901
2802	0.0186022
2814	0.0237494
2826	0.0323281
2838	0.052014
2850	0.0972553
2862	0.171935
2874	0.213293
2886	0.199026
2898	0.20336
2910	0.276956
2922	0.472731
2934	0.659024
2946	0.530885
2958	0.327796
2970	0.301789
2982	0.2989
2994	0.270364
3006	0.256729
3018	0.318676
3030	0.357506
3042	0.356241
3054	0.312084
3066	0.214196
3078	0.124888
3090	0.0716998
3102	0.0452413
3114	0.0257361
3126	0.0171574
3138	0.0105653
3150	0.00821748
3162	0.00659205
3174	0.00749507
3186	0.00794658
3198	0.00415389
3210	0.00270906
3222	0.00153513
3234	0.00334117
3246	0.0046957
3258	0.00505691
3270	0.00541812
3282	0.0045151
3294	0.00641144
3306	0.00361208
3318	0.00388299
3330	0.00397329
3342	0.00370238
3354	0.00523752
3366	0.00541812
3378	0.0044248
3390	0.0045151
3402	0.00270906
3414	0.00261876
3426	0.00225755
3438	0.00279936
3450	0.00261876
3462	0.00270906
3474	0.00343148
3486	0.00478601
3498	0.00153513
3510	0.00388299
3522	0.00189634
3534	0.000722416
3546	0.00379268
3558	0.000632114
3570	0.00370238
3582	0.00397329
3594	0.0044248
3606	0.00252846
3618	0.00415389
3630	0.00641144
3642	0.00478601
3654	0.0043345
3666	0.00424419
3678	0.00722416
3690	0.00677265
3702	0.00812718
3714	0.0103847
3726	0.00875929
3738	0.0132744
3750	0.0121005
3762	0.0101138
3774	0.00767567
3786	0.00839809
3798	0.00857869
3810	0.0100235
3822	0.010475
3834	0.0103847
3846	0.0115587
3858	0.0124617
3870	0.0103847
3882	0.0110168
3894	0.0124617
3906	0.0107459
3918	0.0092108
3930	0.0100235
3942	0.0102944
3954	0.0123714
3966	0.0100235
