Infrared Spectrum: Propanedioic acid, dimethyl ester
Formula: C 5 H 8 O 4
CAS: 108-59-8
Origin: Sadtler Research Labs Under US-EPA Contract
1/CM	ABSORBANCE
450	0
462	0.0113432
474	0.0107355
486	0.00749461
498	0.0115457
510	0.0139764
522	0.0200531
534	0.0137739
546	0.0208634
558	0.0309912
570	0.0492214
582	0.0634003
594	0.0680592
606	0.0599569
618	0.0524623
630	0.0457779
642	0.0518546
654	0.0380807
666	0.0267375
678	0.0648182
690	0.0706924
702	0.021471
714	0.0145841
726	0.0115457
738	0.0137739
750	0.0145841
762	0.0222813
774	0.0362577
786	0.0401063
798	0.0342321
810	0.0358526
822	0.0508418
834	0.0692745
846	0.0848714
858	0.0743384
870	0.0482086
882	0.0346372
894	0.0311938
906	0.0303835
918	0.0255222
930	0.021471
942	0.0232941
954	0.0261299
966	0.0243068
978	0.0267375
990	0.0453728
1002	0.0850739
1014	0.179871
1026	0.432864
1038	0.440764
1050	0.151715
1062	0.0931762
1074	0.0713001
1086	0.0719077
1098	0.10695
1110	0.175617
1122	0.290872
1134	0.455956
1146	0.834535
1158	0.985642
1170	0.738928
1182	0.624078
1194	0.595315
1206	0.62185
1218	0.614355
1230	0.62023
1242	0.601594
1254	0.612532
1266	0.628534
1278	0.595518
1290	0.536168
1302	0.487757
1314	0.503557
1326	0.59653
1338	0.702063
1350	0.436713
1362	0.185745
1374	0.119509
1386	0.0862893
1398	0.0824407
1410	0.108571
1422	0.134295
1434	0.294518
1446	0.379389
1458	0.137536
1470	0.0901379
1482	0.0623876
1494	0.0455753
1506	0.0397012
1518	0.0358526
1530	0.0307887
1542	0.0332193
1554	0.0305861
1566	0.0285605
1578	0.0259273
1590	0.0232941
1602	0.019648
1614	0.0170148
1626	0.019648
1638	0.0194455
1650	0.0208634
1662	0.0222813
1674	0.0297759
1686	0.037473
1698	0.0490188
1710	0.0741359
1722	0.135511
1734	0.249145
1746	0.583567
1758	1.4104
1770	2.02557
1782	1.45618
1794	0.711583
1806	0.290872
1818	0.136726
1830	0.0755538
1842	0.0469932
1854	0.0313963
1866	0.0255222
1878	0.0202557
1890	0.0172173
1902	0.0133688
1914	0.0135713
1926	0.0129636
1938	0.0131662
1950	0.0137739
1962	0.016002
1974	0.0166097
1986	0.0184327
1998	0.0188378
2010	0.0218762
2022	0.0230915
2034	0.0239017
2046	0.0241043
2058	0.0226864
2070	0.0192429
2082	0.0174199
2094	0.0170148
2106	0.0176225
2118	0.0174199
2130	0.0151918
2142	0.0149892
2154	0.012356
2166	0.00992529
2178	0.00830484
2190	0.00749461
2202	0.00668438
2214	0.00810228
2226	0.00789972
2238	0.00830484
2250	0.00850739
2262	0.00952018
2274	0.0103304
2286	0.0109381
2298	0.0117483
2310	0.0143815
2322	0.0133688
2334	0.0127611
2346	0.0149892
2358	0.0133688
2370	0.0111406
2382	0.0121534
2394	0.0101278
2406	0.00891251
2418	0.00850739
2430	0.00789972
2442	0.00992529
2454	0.00972274
2466	0.00992529
2478	0.010533
2490	0.00952018
2502	0.00952018
2514	0.0109381
2526	0.00952018
2538	0.0109381
2550	0.0103304
2562	0.010533
2574	0.00952018
2586	0.0107355
2598	0.0109381
2610	0.0115457
2622	0.0115457
2634	0.012356
2646	0.0101278
2658	0.00972274
2670	0.00911507
2682	0.00870995
2694	0.00952018
2706	0.00891251
2718	0.00911507
2730	0.00810228
2742	0.00972274
2754	0.0103304
2766	0.00769717
2778	0.00911507
2790	0.00952018
2802	0.0111406
2814	0.0125585
2826	0.0164071
2838	0.0269401
2850	0.0611722
2862	0.0619824
2874	0.0293708
2886	0.0328142
2898	0.0459804
2910	0.0599569
2922	0.0629952
2934	0.0634003
2946	0.101076
2958	0.299177
2970	0.323484
2982	0.113634
2994	0.0964171
3006	0.120116
3018	0.112014
3030	0.0994555
3042	0.0832509
3054	0.0520571
3066	0.0362577
3078	0.030181
3090	0.026535
3102	0.024712
3114	0.0220787
3126	0.0190404
3138	0.0162046
3150	0.0131662
3162	0.0117483
3174	0.0111406
3186	0.0119509
3198	0.0113432
3210	0.0125585
3222	0.0103304
3234	0.00952018
3246	0.00810228
3258	0.00688694
3270	0.00931762
3282	0.00850739
3294	0.0107355
3306	0.0107355
3318	0.0149892
3330	0.0111406
3342	0.0125585
3354	0.0129636
3366	0.00931762
3378	0.0111406
3390	0.00952018
3402	0.0103304
3414	0.00789972
3426	0.0101278
3438	0.0103304
3450	0.00749461
3462	0.00891251
3474	0.00972274
3486	0.0129636
3498	0.016002
3510	0.0224838
3522	0.0261299
3534	0.0236992
3546	0.0155969
3558	0.0149892
3570	0.0289657
3582	0.0366628
3594	0.0204583
3606	0.0117483
3618	0.00891251
3630	0.00992529
3642	0.00952018
3654	0.0107355
3666	0.0129636
3678	0.00972274
3690	0.0101278
3702	0.0111406
3714	0.0111406
3726	0.0107355
3738	0.0101278
3750	0.00870995
3762	0.0109381
3774	0.00931762
3786	0.0117483
3798	0.00850739
3810	0.00749461
3822	0.00769717
3834	0.0113432
3846	0.00648182
3858	0.00850739
3870	0.0107355
3882	0.00972274
3894	0.00648182
3906	0.00668438
3918	0.0103304
3930	0.0119509
3942	0.00870995
3954	0.00911507
3966	0.00830484
