Infrared Spectrum: Pyridine, 2,6-dimethyl-
Formula: C 7 H 9 N
CAS: 108-48-5
Origin: Sadtler Research Labs Under US-EPA Contract
1/CM	ABSORBANCE
450	0.0169775
462	0.0280066
474	0.00433731
486	0.0221822
498	0.0166057
510	0.00731146
522	0.0335831
534	0.049941
546	0.0645639
558	0.0438687
570	0.0255281
582	0.0151186
594	0.0182167
606	0.00879853
618	0.0122684
630	0.0216865
642	0.0120205
654	0.0136315
666	0.0149947
678	0.0111531
690	0.0166057
702	0.0200755
714	0.0246607
726	0.0389118
738	0.0348224
750	0.137678
762	0.277216
774	0.351693
786	0.197409
798	0.0348224
810	0.0142511
822	0.012888
834	0.0180928
846	0.0125162
858	0.0135076
870	0.0149947
882	0.0118966
894	0.0153665
906	0.0200755
918	0.0190841
930	0.0198277
942	0.0236693
954	0.0325917
966	0.043497
978	0.0448601
990	0.0462233
1002	0.0519237
1014	0.0428774
1026	0.0441166
1038	0.0544022
1050	0.0522955
1062	0.0490735
1074	0.0488257
1086	0.0666706
1098	0.0604744
1110	0.0379204
1122	0.017721
1134	0.0211908
1146	0.0618376
1158	0.0598548
1170	0.0251564
1182	0.017721
1194	0.0156143
1206	0.0251564
1218	0.0667945
1230	0.0962882
1242	0.0918269
1254	0.0934379
1266	0.0710079
1278	0.0541544
1290	0.0368051
1302	0.0250324
1314	0.0299894
1326	0.0270152
1338	0.0312286
1350	0.0379204
1362	0.0640682
1374	0.129128
1386	0.132969
1398	0.0661749
1410	0.0566328
1422	0.0824088
1434	0.16172
1446	0.471279
1458	0.66621
1470	0.523203
1482	0.33831
1494	0.160976
1506	0.155276
1518	0.176962
1530	0.164942
1542	0.13805
1554	0.140653
1566	0.271144
1578	0.780219
1590	1.23923
1602	0.416257
1614	0.112398
1626	0.0349463
1638	0.0392836
1650	0.024165
1662	0.0184645
1674	0.0189602
1686	0.0250324
1698	0.0229258
1710	0.00929423
1722	0.0138794
1734	0.0201994
1746	0.0162339
1758	0.0252803
1770	0.0251564
1782	0.0143751
1794	0.0125162
1806	0.00954207
1818	0.00768323
1830	0.011277
1842	0.0121445
1854	0.0178449
1866	0.0174731
1878	0.006444
1890	0.00929423
1902	0.00941815
1914	0.0106574
1926	0.0132598
1938	0.0180928
1950	0.0220583
1962	0.0203234
1974	0.00978992
1986	0.00632007
1998	0.00570046
2010	0.00495692
2022	0.00346984
2034	0.00272631
2046	0.00247846
2058	0.00260238
2070	0.00346984
2082	0.00458515
2094	0.00570046
2106	0.00421338
2118	0.00260238
2130	0.001611
2142	0.00309808
2154	0.00421338
2166	0.00520477
2178	0.0059483
2190	0.00582438
2202	0.00371769
2214	0.00247846
2226	0.000743538
2238	0.000495692
2250	0.00111531
2262	0.00123923
2274	0.00433731
2286	0.00793107
2298	0.0121445
2310	0.0135076
2322	0.011277
2334	0.00495692
2346	0.00210669
2358	0.00768323
2370	0
2382	0.000743538
2394	0.00433731
2406	0.00495692
2418	0.00582438
2430	0.0059483
2442	0.00582438
2454	0.00532869
2466	0.00446123
2478	0.00446123
2490	0.00458515
2502	0.00396554
2514	0.003222
2526	0.003222
2538	0.00285023
2550	0.00198277
2562	0.00173492
2574	0.00223061
2586	0.00260238
2598	0.00346984
2610	0.00433731
2622	0.00619615
2634	0.00830284
2646	0.00706361
2658	0.00669184
2670	0.00557654
2682	0.00421338
2694	0.00384161
2706	0.00384161
2718	0.00582438
2730	0.0127641
2742	0.0146229
2754	0.00693969
2766	0.00557654
2778	0.00632007
2790	0.00743538
2802	0.0109052
2814	0.0157382
2826	0.0226779
2838	0.0339549
2850	0.0567567
2862	0.0872418
2874	0.0925705
2886	0.0810456
2898	0.0934379
2910	0.140653
2922	0.248837
2934	0.348224
2946	0.288617
2958	0.162215
2970	0.153417
2982	0.16048
2994	0.146973
3006	0.11909
3018	0.149823
3030	0.181547
3042	0.17374
3054	0.202366
3066	0.311295
3078	0.292458
3090	0.129376
3102	0.0478343
3114	0.0265195
3126	0.0156143
3138	0.0142511
3150	0.0163578
3162	0.0173492
3174	0.0159861
3186	0.0114009
3198	0.00780715
3210	0.00830284
3222	0.00904638
3234	0.00855069
3246	0.00855069
3258	0.00867461
3270	0.00842676
3282	0.0091703
3294	0.00768323
3306	0.00656792
3318	0.00793107
3330	0.00978992
3342	0.00656792
3354	0.00892246
3366	0.006444
3378	0.00669184
3390	0.00817892
3402	0.00780715
3414	0.00892246
3426	0.00768323
3438	0.00768323
3450	0.00731146
3462	0.00656792
3474	0.00731146
3486	0.00632007
3498	0.00743538
3510	0.00768323
3522	0.00693969
3534	0.00731146
3546	0.00421338
3558	0.00743538
3570	0.0117727
3582	0.00458515
3594	0.00867461
3606	0.00743538
3618	0.00656792
3630	0.0107813
3642	0.00545261
3654	0.00904638
3666	0.000371769
3678	0.011277
3690	0.00669184
3702	0.00607223
3714	0.00346984
3726	0.00458515
3738	0.00768323
3750	0.00235454
3762	0.00223061
3774	0.0100378
3786	0.00173492
3798	0.00793107
3810	0.00173492
3822	0.0123923
3834	0.00632007
3846	0.0101617
3858	0.0114009
3870	0.00892246
3882	0.00991384
3894	0.00941815
3906	0.0110291
3918	0.0131358
3930	0.00991384
3942	0.00842676
3954	0.00545261
3966	0.0110291
