Infrared Spectrum: m-Chloroaniline
Formula: C 6 H 6 Cl N
CAS: 108-42-9
Origin: Sadtler Research Labs Under US-EPA Contract
1/CM	ABSORBANCE
450	0.078217
462	0.0518517
474	0.062649
486	0.0753294
498	0.0826112
510	0.0912741
522	0.0849967
534	0.0686753
546	0.0554927
558	0.0507218
570	0.0583803
582	0.0578781
594	0.0346515
606	0.0411801
618	0.0500941
630	0.0571248
642	0.103452
654	0.329441
666	0.595604
678	0.630507
690	0.445448
702	0.309855
714	0.130069
726	0.0849967
738	0.0719396
750	0.174136
762	0.40251
774	0.341619
786	0.177903
798	0.0876332
810	0.0684242
822	0.0681731
834	0.123038
846	0.238041
858	0.175266
870	0.140866
882	0.397111
894	0.490018
906	0.08575
918	0.0111739
930	0.0136848
942	0.0139359
954	0.0140615
966	0.0189579
978	0.0244821
990	0.106466
1002	0.105712
1014	0.012806
1026	0.00816069
1038	0.0133082
1050	0.0283741
1062	0.0804769
1074	0.294789
1086	0.334839
1098	0.154049
1110	0.11312
1122	0.0600124
1134	0.0165725
1146	0.00941618
1158	0.048713
1170	0.0451976
1182	0.00100439
1194	0.00426867
1206	0.00778404
1218	0.00439421
1230	0.00916508
1242	0.0596358
1254	0.252353
1266	0.290144
1278	0.138104
1290	0.146892
1302	0.156057
1314	0.111236
1326	0.0978027
1338	0.0251098
1350	0.00778404
1362	0.000753294
1374	0.000251098
1386	0.0106717
1398	0.0220966
1410	0.0725673
1422	0.0875077
1434	0.0863777
1446	0.159196
1458	0.156936
1470	0.259886
1482	0.647456
1494	0.562585
1506	0.119899
1518	0.0980538
1530	0.123289
1542	0.066541
1554	0.0720651
1566	0.151789
1578	0.320275
1590	0.790959
1602	1.03603
1614	1.05298
1626	1.22712
1638	0.577902
1650	0.145009
1662	0.0657877
1674	0.062649
1686	0.0701819
1698	0.0531072
1710	0.0408034
1722	0.0346515
1734	0.0208411
1746	0.00954172
1758	0.00916508
1770	0.00803514
1782	0.00803514
1794	0.0104206
1806	0.0146892
1818	0.0180791
1830	0.0104206
1842	0.00715629
1854	0.010295
1866	0.00991837
1878	0.0115505
1890	0.0146892
1902	0.0239799
1914	0.026993
1926	0.0225988
1938	0.0155681
1950	0.0124294
1962	0.0124294
1974	0.00941618
1986	0.00828623
1998	0.00903953
2010	0.00941618
2022	0.00929063
2034	0.0101695
2046	0.0124294
2058	0.0130571
2070	0.00979282
2082	0.00740739
2094	0.00765849
2106	0.00816069
2118	0.00866288
2130	0.0105461
2142	0.0144381
2154	0.016698
2166	0.0134337
2178	0.011425
2190	0.0106717
2202	0.00903953
2214	0.00790959
2226	0.00715629
2238	0.00803514
2250	0.00853733
2262	0.0100439
2274	0.0118016
2286	0.0116761
2298	0.00966727
2310	0.00954172
2322	0.00916508
2334	0.0105461
2346	0.0118016
2358	0.0106717
2370	0.0138104
2382	0.0146892
2394	0.0111739
2406	0.0104206
2418	0.00903953
2430	0.00828623
2442	0.00790959
2454	0.00803514
2466	0.00816069
2478	0.00878843
2490	0.00979282
2502	0.0105461
2514	0.0123038
2526	0.0116761
2538	0.0101695
2550	0.0129315
2562	0.0138104
2574	0.0130571
2586	0.0125549
2598	0.0111739
2610	0.0119272
2622	0.0112994
2634	0.00929063
2646	0.00979282
2658	0.011425
2670	0.0125549
2682	0.0116761
2694	0.0111739
2706	0.010295
2718	0.0111739
2730	0.0143126
2742	0.0161958
2754	0.0131826
2766	0.00979282
2778	0.00878843
2790	0.00816069
2802	0.00803514
2814	0.00803514
2826	0.00828623
2838	0.00866288
2850	0.0101695
2862	0.0116761
2874	0.0143126
2886	0.0159447
2898	0.0148148
2910	0.0125549
2922	0.0109228
2934	0.0106717
2946	0.0110483
2958	0.011425
2970	0.0116761
2982	0.011425
2994	0.0136848
3006	0.0243565
3018	0.0503451
3030	0.0897675
3042	0.106089
3054	0.123791
3066	0.139987
3078	0.105461
3090	0.0842434
3102	0.0617701
3114	0.0298807
3126	0.0134337
3138	0.00916508
3150	0.00853733
3162	0.00903953
3174	0.00941618
3186	0.0100439
3198	0.0125549
3210	0.0198367
3222	0.0243565
3234	0.0215944
3246	0.0151914
3258	0.0109228
3270	0.00979282
3282	0.00828623
3294	0.00916508
3306	0.00878843
3318	0.00841178
3330	0.00853733
3342	0.00828623
3354	0.00866288
3366	0.0111739
3378	0.0151914
3390	0.0292529
3402	0.0762082
3414	0.11312
3426	0.130571
3438	0.0907719
3450	0.023101
3462	0.0173258
3474	0.0300062
3486	0.0634022
3498	0.0804769
3510	0.0814813
3522	0.071814
3534	0.0301318
3546	0.0107972
3558	0.00903953
3570	0.00853733
3582	0.00903953
3594	0.00929063
3606	0.00778404
3618	0.00878843
3630	0.00903953
3642	0.00878843
3654	0.00891398
3666	0.00778404
3678	0.00891398
3690	0.00790959
3702	0.00903953
3714	0.00903953
3726	0.010295
3738	0.0109228
3750	0.0101695
3762	0.0101695
3774	0.00979282
3786	0.00891398
3798	0.00841178
3810	0.00715629
3822	0.00828623
3834	0.0106717
3846	0.0214689
3858	0.0227244
3870	0.0148148
3882	0.00878843
3894	0.00954172
3906	0.00954172
3918	0.0101695
3930	0.012806
3942	0.0159447
3954	0.0136848
3966	0.0116761
