Infrared Spectrum: Benzene, chloro-
Formula: C 6 H 5 Cl
CAS: 108-90-7
Origin: Sadtler Research Labs Under US-EPA Contract
1/CM	ABSORBANCE
450	0.101152
462	0.113032
474	0.0693
486	0.0284087
498	0.00404609
510	0.010933
522	0.0124826
534	0.0136017
546	0.0137739
558	0.016787
570	0.0147209
582	0.0121383
594	0.00766174
606	0.00938348
618	0.0124826
630	0.0113635
642	0.0176478
654	0.0494139
666	0.160208
678	0.222793
690	0.261102
702	0.376458
714	0.491385
726	0.439646
738	0.86087
750	0.440163
762	0.150911
774	0.0102444
786	0.00800609
798	0.0119661
810	0.0086087
822	0.00723131
834	0.00697305
846	0.00895305
858	0.0121383
870	0.0142904
882	0.0182504
894	0.0302165
906	0.03564
918	0.0387391
930	0.0289252
942	0.0137739
954	0.00550957
966	0.00731739
978	0.00714522
990	0.0136878
1002	0.0323687
1014	0.188875
1026	0.212807
1038	0.0652539
1050	0.0297861
1062	0.0839348
1074	0.272121
1086	0.550526
1098	0.413906
1110	0.0543209
1122	0.128528
1134	0.099947
1146	0.0103304
1158	0.00757566
1170	0.0104165
1182	0.00938348
1194	0.00723131
1206	0.0103304
1218	0.0143765
1230	0.0172174
1242	0.0119661
1254	0.00878087
1266	0.00946957
1278	0.00895305
1290	0.0105026
1302	0.0107609
1314	0.00878087
1326	0.0066287
1338	0.00473479
1350	0.00748957
1362	0.0159261
1374	0.0181644
1386	0.0107609
1398	0.00585392
1410	0.00800609
1422	0.0228991
1434	0.0868618
1446	0.104854
1458	0.086087
1470	0.341938
1482	0.58014
1494	0.2871
1506	0.046487
1518	0.0136017
1530	0.00757566
1542	0.0121383
1554	0.0433018
1566	0.0823853
1578	0.244057
1590	0.355453
1602	0.11837
1614	0.0279783
1626	0.0228131
1638	0.0137739
1650	0.0100722
1662	0.00447652
1674	0.00430435
1686	0.00206609
1698	0.00602609
1710	0.0154957
1722	0.0206609
1734	0.0177339
1746	0.00826435
1758	0.00714522
1770	0.01584
1782	0.0329713
1794	0.0299583
1806	0.0114496
1818	0.00835044
1830	0.00757566
1842	0.01584
1854	0.0253096
1866	0.0322826
1878	0.0251374
1890	0.0137739
1902	0.00654261
1914	0.00946957
1926	0.0210052
1938	0.0267731
1950	0.0325409
1962	0.0191974
1974	0.00602609
1986	0.00430435
1998	0.00499305
2010	0.00378783
2022	0.00370174
2034	0.00490696
2046	0.00370174
2058	0.00439044
2070	0.00439044
2082	0.00318522
2094	0.00258261
2106	0.00223826
2118	0.00232435
2130	0.00258261
2142	0.00309913
2154	0.00284087
2166	0.00327131
2178	0.00490696
2190	0.00404609
2202	0.00318522
2214	0.00275478
2226	0.00309913
2238	0.00499305
2250	0.00550957
2262	0.00507913
2274	0.00482087
2286	0.00602609
2298	0.00697305
2310	0.01188
2322	0.0117078
2334	0.00757566
2346	0.00697305
2358	0.00671479
2370	0.000430435
2382	0.00439044
2394	0.00619826
2406	0.00611218
2418	0.00619826
2430	0.00542348
2442	0.00421826
2454	0.00396
2466	0.00404609
2478	0.00404609
2490	0.00378783
2502	0.00421826
2514	0.00421826
2526	0.00490696
2538	0.00516522
2550	0.00559566
2562	0.00619826
2574	0.00619826
2586	0.00645653
2598	0.00697305
2610	0.00723131
2622	0.00533739
2634	0.00473479
2646	0.00430435
2658	0.00490696
2670	0.00550957
2682	0.00499305
2694	0.00456261
2706	0.00507913
2718	0.00421826
2730	0.00421826
2742	0.00533739
2754	0.00473479
2766	0.00542348
2778	0.00619826
2790	0.00568174
2802	0.00611218
2814	0.00594
2826	0.00568174
2838	0.00594
2850	0.00757566
2862	0.00731739
2874	0.00697305
2886	0.00843653
2898	0.00843653
2910	0.00809218
2922	0.00869479
2934	0.00723131
2946	0.00645653
2958	0.00594
2970	0.00602609
2982	0.00783392
2994	0.0130852
3006	0.0248791
3018	0.0432157
3030	0.0687835
3042	0.0758426
3054	0.0893583
3066	0.153235
3078	0.263943
3090	0.254215
3102	0.147037
3114	0.050447
3126	0.0125687
3138	0.00714522
3150	0.00757566
3162	0.00998609
3174	0.00946957
3186	0.00731739
3198	0.00671479
3210	0.00637044
3222	0.00697305
3234	0.00705913
3246	0.00714522
3258	0.00714522
3270	0.00723131
3282	0.00671479
3294	0.00723131
3306	0.00757566
3318	0.00843653
3330	0.00748957
3342	0.00878087
3354	0.00766174
3366	0.00757566
3378	0.00835044
3390	0.00800609
3402	0.00783392
3414	0.00817827
3426	0.00766174
3438	0.00835044
3450	0.00878087
3462	0.00809218
3474	0.00835044
3486	0.00826435
3498	0.00869479
3510	0.00809218
3522	0.00938348
3534	0.00835044
3546	0.00835044
3558	0.0100722
3570	0.0066287
3582	0.00817827
3594	0.00955566
3606	0.00835044
3618	0.00585392
3630	0.00680087
3642	0.00869479
3654	0.00637044
3666	0.00895305
3678	0.00198
3690	0.00981392
3702	0.0111052
3714	0.0100722
3726	0.00981392
3738	0.00637044
3750	0.00611218
3762	0.00697305
3774	0.00998609
3786	0.0111913
3798	0.0111052
3810	0.0092974
3822	0.00723131
3834	0.00895305
3846	0.00697305
3858	0.00748957
3870	0.00680087
3882	0.00783392
3894	0.00705913
3906	0.00783392
3918	0.00843653
3930	0.00886696
3942	0.00826435
3954	0.0099
3966	0.00878087
