Infrared Spectrum: 4-Heptanol, 2,6-dimethyl-
Formula: C 9 H 20 O
CAS: 108-82-7
Origin: Sadtler Research Labs Under US-EPA Contract
1/CM	ABSORBANCE
450	0
462	0.0104622
474	0.0115635
486	0.00715837
498	0.0280828
510	0.0172535
522	0.0135826
534	0.0110129
546	0.01707
558	0.0106458
570	0.0218422
582	0.0216587
594	0.0201903
606	0.0148674
618	0.0122977
630	0.0137661
642	0.00825966
654	0.0117471
666	0.0122977
678	0.0121142
690	0.0106458
702	0.0102787
714	0.0117471
726	0.00936095
738	0.0100951
750	0.0104622
762	0.0106458
774	0.0128484
786	0.0145003
798	0.01707
810	0.0196396
822	0.0354248
834	0.0543302
846	0.0534125
858	0.0436844
870	0.0389122
882	0.0222093
894	0.0203738
906	0.0256967
918	0.045887
930	0.0587354
942	0.0684634
954	0.0787421
966	0.0791092
978	0.0647924
990	0.0517605
1002	0.0710331
1014	0.120958
1026	0.156566
1038	0.144819
1050	0.131787
1062	0.109945
1074	0.0859005
1086	0.091774
1098	0.101135
1110	0.100951
1122	0.0970969
1134	0.119306
1146	0.156016
1158	0.143167
1170	0.134357
1182	0.0750711
1194	0.0658937
1206	0.0844321
1218	0.0934259
1230	0.0835143
1242	0.0778244
1254	0.0778244
1266	0.088103
1278	0.0928753
1290	0.0781914
1302	0.0640583
1314	0.0554315
1326	0.0636912
1338	0.0792927
1350	0.0919575
1362	0.158953
1374	0.260088
1386	0.252746
1398	0.156016
1410	0.0792927
1422	0.0568999
1434	0.0679128
1446	0.0895714
1458	0.147205
1470	0.219891
1482	0.135642
1494	0.0447857
1506	0.0251461
1518	0.0181713
1530	0.0145003
1542	0.0121142
1554	0.0121142
1566	0.0108293
1578	0.0100951
1590	0.0106458
1602	0.0100951
1614	0.0102787
1626	0.00972804
1638	0.00972804
1650	0.0106458
1662	0.0104622
1674	0.00991159
1686	0.0102787
1698	0.0108293
1710	0.0146838
1722	0.0183548
1734	0.0159687
1746	0.0102787
1758	0.00844321
1770	0.00715837
1782	0.00770902
1794	0.00734192
1806	0.00734192
1818	0.00752547
1830	0.00770902
1842	0.00734192
1854	0.00789256
1866	0.00752547
1878	0.00789256
1890	0.00825966
1902	0.00752547
1914	0.00752547
1926	0.00697482
1938	0.00679128
1950	0.00715837
1962	0.00734192
1974	0.00679128
1986	0.00679128
1998	0.00734192
2010	0.00734192
2022	0.00752547
2034	0.00734192
2046	0.00679128
2058	0.00789256
2070	0.00734192
2082	0.00550644
2094	0.00605708
2106	0.00679128
2118	0.00642418
2130	0.00660773
2142	0.00642418
2154	0.00752547
2166	0.00770902
2178	0.00789256
2190	0.00752547
2202	0.00789256
2214	0.00770902
2226	0.00715837
2238	0.00697482
2250	0.00697482
2262	0.00734192
2274	0.00679128
2286	0.00789256
2298	0.0106458
2310	0.0111964
2322	0.0122977
2334	0.0104622
2346	0.0091774
2358	0.0122977
2370	0.00770902
2382	0.00899385
2394	0.0095445
2406	0.0100951
2418	0.0095445
2430	0.00972804
2442	0.0088103
2454	0.00899385
2466	0.0110129
2478	0.0100951
2490	0.0104622
2502	0.0111964
2514	0.0106458
2526	0.0111964
2538	0.0117471
2550	0.0128484
2562	0.0135826
2574	0.0165193
2586	0.0181713
2598	0.0187219
2610	0.0200067
2622	0.019089
2634	0.0194561
2646	0.0214751
2658	0.0192725
2670	0.0185383
2682	0.0189054
2694	0.0205574
2706	0.0236777
2718	0.0280828
2730	0.0368931
2742	0.0370767
2754	0.0313867
2766	0.0323044
2778	0.0352412
2790	0.0376273
2802	0.0442351
2814	0.0570834
2826	0.0787421
2838	0.12261
2850	0.173636
2862	0.204656
2874	0.429686
2886	0.581664
2898	0.51834
2910	0.681697
2922	0.845973
2934	0.886353
2946	0.798067
2958	1.23252
2970	1.65193
2982	0.448408
2994	0.147573
3006	0.0796598
3018	0.0493744
3030	0.0346906
3042	0.0310196
3054	0.0278993
3066	0.0266145
3078	0.0253296
3090	0.0256967
3102	0.0233106
3114	0.023127
3126	0.0236777
3138	0.0233106
3150	0.0245954
3162	0.0260638
3174	0.0258803
3186	0.0255132
3198	0.0255132
3210	0.0214751
3222	0.0156016
3234	0.0132155
3246	0.013399
3258	0.0119306
3270	0.0091774
3282	0.00972804
3294	0.0122977
3306	0.0124813
3318	0.0137661
3330	0.0126648
3342	0.0137661
3354	0.0161522
3366	0.0146838
3378	0.0141332
3390	0.0152345
3402	0.0141332
3414	0.0135826
3426	0.0157851
3438	0.01707
3450	0.0148674
3462	0.0156016
3474	0.0139496
3486	0.0137661
3498	0.0145003
3510	0.013399
3522	0.0145003
3534	0.0137661
3546	0.0132155
3558	0.0145003
3570	0.0137661
3582	0.0148674
3594	0.0145003
3606	0.0178042
3618	0.0214751
3630	0.032488
3642	0.0464376
3654	0.0743369
3666	0.0521276
3678	0.0253296
3690	0.0157851
3702	0.0126648
3714	0.0124813
3726	0.0110129
3738	0.0117471
3750	0.0111964
3762	0.00972804
3774	0.0115635
3786	0.0111964
3798	0.0124813
3810	0.0143167
3822	0.01138
3834	0.0115635
3846	0.0141332
3858	0.0130319
3870	0.0124813
3882	0.0146838
3894	0.0128484
3906	0.0106458
3918	0.0150509
3930	0.0152345
3942	0.0148674
3954	0.0130319
3966	0.0108293
