Infrared Spectrum: Methyl Isobutyl Ketone
Formula: C 6 H 12 O
CAS: 108-10-1
Origin: Sadtler Research Labs Under US-EPA Contract
1/CM	ABSORBANCE
450	0.00886175
462	0.00752993
474	0.0089642
486	0.00379058
498	0.00993746
510	0.0165966
522	0.026073
534	0.0320662
546	0.0145476
558	0.00578831
570	0.0124987
582	0.0407743
594	0.0499946
606	0.0221288
618	0.0117303
630	0.0078885
642	0.00225386
654	0.0100911
666	0.00681279
678	0.00573709
690	0.00645422
702	0.00573709
714	0.00722258
726	0.00589076
738	0.00568586
750	0.00793972
762	0.00865686
774	0.0074787
786	0.00732503
798	0.00886175
810	0.00978378
822	0.0117815
834	0.0118327
846	0.0126523
858	0.00911787
870	0.00978378
882	0.00937399
894	0.00983501
906	0.0115254
918	0.017826
930	0.0301709
942	0.0426184
954	0.0399547
966	0.0299148
978	0.0278659
990	0.0216678
1002	0.0194139
1014	0.0164429
1026	0.0140354
1038	0.0118327
1050	0.0112181
1062	0.0111668
1074	0.0130621
1086	0.0176723
1098	0.0275585
1110	0.0414914
1122	0.0520948
1134	0.0550146
1146	0.0731479
1158	0.142249
1170	0.199722
1182	0.166119
1194	0.103319
1206	0.0650033
1218	0.0436428
1230	0.0538876
1242	0.0567562
1254	0.037496
1266	0.0397498
1278	0.06403
1290	0.0721746
1302	0.0560391
1314	0.0423622
1326	0.0543487
1338	0.0930228
1350	0.180155
1362	0.293257
1374	0.247514
1386	0.117201
1398	0.0772458
1410	0.0696134
1422	0.0740699
1434	0.0723795
1446	0.0697671
1458	0.0822145
1470	0.0915373
1482	0.0659253
1494	0.0352933
1506	0.021258
1518	0.0184406
1530	0.0173137
1542	0.0162892
1554	0.015777
1566	0.0147525
1578	0.0131646
1590	0.0117303
1602	0.0116791
1614	0.0113205
1626	0.0115254
1638	0.0131646
1650	0.0138817
1662	0.0159819
1674	0.0253047
1686	0.0429769
1698	0.0799607
1710	0.18876
1722	0.405489
1734	0.503583
1746	0.309188
1758	0.109824
1770	0.0490214
1782	0.0316564
1794	0.0215653
1806	0.015316
1818	0.0105521
1830	0.00799094
1842	0.00624933
1854	0.00553219
1866	0.0053273
1878	0.00476383
1890	0.00496873
1902	0.00517362
1914	0.00435404
1926	0.00455894
1938	0.00435404
1950	0.00486628
1962	0.00399547
1974	0.00312466
1986	0.0023563
1998	0.00245875
2010	0.00138305
2022	0.00225386
2034	0.00368813
2046	0.00327834
2058	0.00461016
2070	0.00604443
2082	0.00445649
2094	0.00414914
2106	0.00353446
2118	0.00343201
2130	0.00414914
2142	0.0040467
2154	0.0038418
2166	0.00389302
2178	0.00414914
2190	0.00409792
2202	0.00373935
2214	0.00338078
2226	0.00312466
2238	0.00291977
2250	0.0023563
2262	0.00261242
2274	0.00261242
2286	0.00373935
2298	0.00635178
2310	0.00742748
2322	0.00635178
2334	0.00389302
2346	0.0023563
2358	0.00517362
2370	5.1224e-05
2382	0.00138305
2394	0.00230508
2406	0.00220263
2418	0.00199774
2430	0.00220263
2442	0.0010757
2454	0.00153672
2466	0.00122938
2478	0.00138305
2490	0.0012806
2502	0.00184406
2514	0.00153672
2526	0.00204896
2538	0.00153672
2550	0.00138305
2562	0.000870808
2574	0.00169039
2586	0.00117815
2598	0.000614688
2610	0.00076836
2622	0.0012806
2634	0.00245875
2646	0.00358568
2658	0.00527607
2670	0.00650545
2682	0.00712014
2694	0.00476383
2706	0.0036369
2718	0.00399547
2730	0.00686402
2742	0.00829829
2754	0.00594198
2766	0.00558342
2778	0.00624933
2790	0.00855441
2802	0.0111156
2814	0.0160843
2826	0.0206433
2838	0.026534
2850	0.0348835
2862	0.0564488
2874	0.136614
2886	0.198288
2898	0.193524
2910	0.180821
2922	0.187992
2934	0.23312
2946	0.28752
2958	0.422239
2970	0.499178
2982	0.312927
2994	0.109005
3006	0.0544511
3018	0.0425159
3030	0.0249973
3042	0.0179284
3054	0.016238
3066	0.0154184
3078	0.0148037
3090	0.0128572
3102	0.0100911
3114	0.00732503
3126	0.00681279
3138	0.00553219
3150	0.00599321
3162	0.00701769
3174	0.00594198
3186	0.00630055
3198	0.00645422
3210	0.00645422
3222	0.00501995
3234	0.00230508
3246	0.00210018
3258	0.00210018
3270	0.00317589
3282	0.00420037
3294	0.00476383
3306	0.0049175
3318	0.00240753
3330	0.0025612
3342	0.00199774
3354	0.000973256
3366	0.00261242
3378	0.00215141
3390	0.00163917
3402	0.00112693
3414	0.00573709
3426	0.00599321
3438	0.00860563
3450	0.00963011
3462	0.00722258
3474	0.0036369
3486	0.00184406
3498	0.00122938
3510	0.00112693
3522	5.1224e-05
3534	0.00153672
3546	0.00338078
3558	0.00199774
3570	0.00409792
3582	0.00343201
3594	0.00302222
3606	0.00153672
3618	0.00307344
3630	0.00430282
3642	0.0040467
3654	0.00338078
3666	0.0049175
3678	0.00471261
3690	0.00486628
3702	0.00399547
3714	0.00635178
3726	0.00338078
3738	0.00122938
3750	0.00624933
3762	0.00409792
3774	0.00824706
3786	0.00783727
3798	0.00594198
3810	0.00691524
3822	0.00373935
3834	0.00783727
3846	0.00676157
3858	0.00471261
3870	0.00968134
3882	0.00583954
3894	0.00604443
3906	0.00496873
3918	0.00455894
3930	0.00455894
3942	0.00855441
3954	0.00840074
3966	0.00220263
