Infrared Spectrum: Phenol, 3-chloro-
Formula: C 6 H 5 Cl O
CAS: 108-43-0
Origin: Sadtler Research Labs Under US-EPA Contract
1/CM	ABSORBANCE
450	0.0426919
462	0.028109
474	0.00443827
486	0.02198
498	0.0264183
510	0.0215573
522	0.0667853
534	0.0843271
546	0.0340267
558	0.0139488
570	0.0133148
582	0.0401557
594	0.0496663
606	0.0255729
618	0.01099
630	0.0145829
642	0.017119
654	0.0691101
666	0.232481
678	0.525406
690	0.235017
702	0.0874972
714	0.0255729
726	0.0234594
738	0.0433259
750	0.165695
762	0.486307
774	0.600223
786	0.231213
798	0.0405784
810	0.0363515
822	0.0769299
834	0.173938
846	0.224661
858	0.222759
870	0.369221
882	1.17276
894	1.29914
906	0.169077
918	0.0448054
930	0.0340267
942	0.0293771
954	0.0249388
966	0.0240934
978	0.0304338
990	0.100812
1002	0.159989
1014	0.061079
1026	0.0350834
1038	0.0359288
1050	0.0708009
1062	0.251924
1074	0.39099
1086	0.424171
1098	0.413181
1110	0.196129
1122	0.0929922
1134	0.164216
1146	0.445095
1158	0.623471
1170	0.934995
1182	1.43187
1194	1.01087
1206	0.268409
1218	0.129344
1230	0.196763
1242	0.564505
1254	0.713504
1266	0.333293
1278	0.303704
1290	0.843482
1302	0.726185
1314	0.171402
1326	0.0851724
1338	0.039733
1350	0.049455
1362	0.0262069
1374	0.0196552
1386	0.0371969
1398	0.055584
1410	0.106307
1422	0.177742
1434	0.42396
1446	0.529633
1458	0.356118
1470	0.632559
1482	1.0654
1494	0.753448
1506	0.111379
1518	0.0991213
1530	0.16337
1542	0.0868632
1554	0.10673
1566	0.190211
1578	0.536607
1590	1.54917
1602	1.83131
1614	1.1922
1626	0.232692
1638	0.0560067
1650	0.00211346
1662	0.0429032
1674	0.0150056
1686	0.00401557
1698	0
1710	0.0541046
1722	0.05495
1734	0.0139488
1746	0.0266296
1758	0.0310679
1770	0.0238821
1782	0.0302225
1794	0.0147942
1806	0.033604
1818	0.0405784
1830	0.0253615
1842	0.0270523
1854	0.0325473
1866	0.0162736
1878	0.0289544
1890	0.0266296
1902	0.0388877
1914	0.0403671
1926	0.0369855
1938	0.0295884
1950	0.02198
1962	0.0207119
1974	0.0188098
1986	0.0192325
1998	0.0162736
2010	0.0177531
2022	0.0141602
2034	0.0162736
2046	0.0154283
2058	0.0169077
2070	0.0162736
2082	0.0141602
2094	0.010356
2106	0.01099
2118	0.0145829
2130	0.022614
2142	0.0262069
2154	0.0154283
2166	0.00803115
2178	0.0078198
2190	0.00612903
2202	0.00253615
2214	0.00169077
2226	0.00147942
2238	0.00169077
2250	0.00295884
2262	0.00253615
2274	0.00338154
2286	0.00486096
2298	0.00486096
2310	0.0078198
2322	0.0133148
2334	0.0150056
2346	0.0118354
2358	0.0107786
2370	0.0124694
2382	0.0122581
2394	0.0114127
2406	0.0137375
2418	0.0173304
2430	0.0196552
2442	0.0202892
2454	0.017119
2466	0.0137375
2478	0.0169077
2490	0.0217686
2502	0.017119
2514	0.0078198
2526	0.00464961
2538	0.00866519
2550	0.0122581
2562	0.00760846
2574	0.00612903
2586	0.00929922
2598	0.011624
2610	0.00951057
2622	0.00845384
2634	0.0078198
2646	0.0078198
2658	0.00845384
2670	0.00845384
2682	0.00760846
2694	0.00697442
2706	0.00528365
2718	0.00612903
2730	0.010356
2742	0.0137375
2754	0.0124694
2766	0.00929922
2778	0.00845384
2790	0.00570634
2802	0.00464961
2814	0.00317019
2826	0.00338154
2838	0.00443827
2850	0.00401557
2862	0.00486096
2874	0.00570634
2886	0.00676307
2898	0.00760846
2910	0.00697442
2922	0.00486096
2934	0.00570634
2946	0.00676307
2958	0.00634038
2970	0.00676307
2982	0.00570634
2994	0.00676307
3006	0.0133148
3018	0.0412125
3030	0.0822136
3042	0.0927809
3054	0.106096
3066	0.111802
3078	0.10673
3090	0.107575
3102	0.0741824
3114	0.0331813
3126	0.00929922
3138	0.00486096
3150	0.00338154
3162	0.00295884
3174	0.00443827
3186	0.00528365
3198	0.00697442
3210	0.00697442
3222	0.00634038
3234	0.00676307
3246	0.00697442
3258	0.00612903
3270	0.00676307
3282	0.00634038
3294	0.00676307
3306	0.0078198
3318	0.00803115
3330	0.0118354
3342	0.0207119
3354	0.0162736
3366	0.016485
3378	0.0147942
3390	0.0131035
3402	0.0124694
3414	0.011624
3426	0.0124694
3438	0.0107786
3450	0.00760846
3462	0.00718576
3474	0.00908788
3486	0.0078198
3498	0.00803115
3510	0.0078198
3522	0.00570634
3534	0.00570634
3546	0.005495
3558	0.00443827
3570	0.00486096
3582	0.0107786
3594	0.011624
3606	0.0122581
3618	0.0238821
3630	0.0731257
3642	0.517798
3654	0.950423
3666	0.49307
3678	0.0289544
3690	0
3702	0.0078198
3714	0
3726	0.00380423
3738	0.000845384
3750	0
3762	0.00486096
3774	0.00993326
3786	0.00676307
3798	0.00612903
3810	0.00401557
3822	0.00443827
3834	0.00380423
3846	0.00951057
3858	0.00612903
3870	0.00634038
3882	0.00697442
3894	0.0126808
3906	0.00464961
3918	0.011624
3930	0.0154283
3942	0.0101446
3954	0.0160623
3966	0.0177531
