Infrared Spectrum: Benzene, 1,3,5-trichloro-
Formula: C 6 H 3 Cl 3
CAS: 108-70-3
Origin: Sadtler Research Labs Under US-EPA Contract
1/CM	ABSORBANCE
450	0
462	0.0333656
474	0.0397354
486	0.0389266
498	0.0405443
510	0.042162
522	0.0398366
534	0.0440831
546	0.0419598
558	0.0325568
570	0.0386233
582	0.0357922
594	0.0293213
606	0.0342756
618	0.031849
630	0.0292202
642	0.0362978
654	0.0746177
666	0.126587
678	0.0347812
690	0.0303324
702	0.0341745
714	0.0359944
726	0.0401399
738	0.0443864
750	0.0368033
762	0.0369044
774	0.0526773
786	0.175422
798	0.300897
810	0.415554
822	0.387951
834	0.0918061
846	0.167637
858	0.201104
870	0.0624847
882	0.0373089
894	0.03468
906	0.0325568
918	0.0308379
930	0.0285125
942	0.0292202
954	0.0292202
966	0.0291191
978	0.0303324
990	0.0317479
1002	0.0316468
1014	0.0324557
1026	0.0334667
1038	0.0344778
1050	0.0412521
1062	0.0437798
1074	0.0349834
1086	0.0699667
1098	0.160054
1110	0.0847285
1122	0.029928
1134	0.0288158
1146	0.0297258
1158	0.0293213
1170	0.0289169
1182	0.0295235
1194	0.0292202
1206	0.0276025
1218	0.0286136
1230	0.0276025
1242	0.0279058
1254	0.029018
1266	0.0292202
1278	0.0316468
1290	0.0307368
1302	0.0280069
1314	0.0301302
1326	0.0297258
1338	0.031849
1350	0.030939
1362	0.0544972
1374	0.158436
1386	0.172288
1398	0.143776
1410	0.217382
1422	0.297359
1434	0.115364
1446	0.0350845
1458	0.0428698
1470	0.0382188
1482	0.0315457
1494	0.0315457
1506	0.0352867
1518	0.0499474
1530	0.0637991
1542	0.0811897
1554	0.288158
1566	0.89976
1578	0.442044
1590	0.0750221
1602	0.0713822
1614	0.0686523
1626	0.0437798
1638	0.0369044
1650	0.0392299
1662	0.0284113
1674	0.0358933
1686	0.0354889
1698	0.0367022
1710	0.0437798
1722	0.051464
1734	0.0510595
1746	0.0377133
1758	0.0306357
1770	0.0315457
1782	0.0293213
1794	0.0296246
1806	0.0274003
1818	0.0269958
1830	0.028108
1842	0.0275014
1854	0.0253781
1866	0.0263892
1878	0.0256814
1890	0.028108
1902	0.0262881
1914	0.0275014
1926	0.0266925
1938	0.0280069
1950	0.0284113
1962	0.0257825
1974	0.0242659
1986	0.0242659
1998	0.0236593
2010	0.0233559
2022	0.0240637
2034	0.0229515
2046	0.0239626
2058	0.0237604
2070	0.0232548
2082	0.0241648
2094	0.0242659
2106	0.0230526
2118	0.0233559
2130	0.0231537
2142	0.0225471
2154	0.0230526
2166	0.0226482
2178	0.022446
2190	0.0236593
2202	0.0236593
2214	0.0233559
2226	0.0236593
2238	0.0228504
2250	0.0222438
2262	0.0220415
2274	0.0223449
2286	0.0226482
2298	0.0229515
2310	0.0234571
2322	0.0232548
2334	0.0231537
2346	0.022446
2358	0.0242659
2370	0.0256814
2382	0.0267936
2394	0.022446
2406	0.021536
2418	0.021536
2430	0.0214349
2442	0.0211316
2454	0.0208282
2466	0.020626
2478	0.0203227
2490	0.0205249
2502	0.0208282
2514	0.0204238
2526	0.0211316
2538	0.0208282
2550	0.0211316
2562	0.0211316
2574	0.0210305
2586	0.021536
2598	0.0221427
2610	0.0218393
2622	0.0220415
2634	0.0239626
2646	0.0229515
2658	0.0213338
2670	0.0210305
2682	0.0213338
2694	0.0211316
2706	0.0221427
2718	0.0217382
2730	0.0198172
2742	0.0193116
2754	0.0193116
2766	0.018705
2778	0.0190083
2790	0.019615
2802	0.0200194
2814	0.0203227
2826	0.0217382
2838	0.0240637
2850	0.0209294
2862	0.0202216
2874	0.0207271
2886	0.0201205
2898	0.0199183
2910	0.0203227
2922	0.0198172
2934	0.0207271
2946	0.0211316
2958	0.020626
2970	0.0218393
2982	0.0218393
2994	0.0207271
3006	0.0203227
3018	0.0201205
3030	0.0207271
3042	0.0199183
3054	0.020626
3066	0.021536
3078	0.0241648
3090	0.0259848
3102	0.0218393
3114	0.0208282
3126	0.020626
3138	0.0228504
3150	0.0218393
3162	0.0200194
3174	0.0199183
3186	0.0202216
3198	0.0191094
3210	0.0195138
3222	0.0192105
3234	0.0190083
3246	0.0197161
3258	0.0195138
3270	0.0202216
3282	0.0197161
3294	0.0194127
3306	0.0193116
3318	0.0197161
3330	0.0197161
3342	0.0191094
3354	0.0195138
3366	0.0198172
3378	0.0204238
3390	0.0203227
3402	0.0207271
3414	0.0210305
3426	0.019615
3438	0.0208282
3450	0.0208282
3462	0.0210305
3474	0.0203227
3486	0.0208282
3498	0.019615
3510	0.0207271
3522	0.0201205
3534	0.019615
3546	0.0193116
3558	0.019615
3570	0.0189072
3582	0.020626
3594	0.019615
3606	0.0197161
3618	0.0209294
3630	0.0191094
3642	0.0208282
3654	0.0212327
3666	0.0208282
3678	0.0223449
3690	0.0209294
3702	0.0210305
3714	0.0222438
3726	0.0211316
3738	0.0229515
3750	0.0214349
3762	0.021536
3774	0.0192105
3786	0.0211316
3798	0.0209294
3810	0.019615
3822	0.018705
3834	0.0216371
3846	0.0204238
3858	0.0204238
3870	0.0200194
3882	0.0211316
3894	0.0194127
3906	0.0212327
3918	0.0216371
3930	0.0210305
3942	0.0249737
3954	0.0225471
3966	0.0221427
