Infrared Spectrum: 2-Propanamine, N-(1-methylethyl)-
Formula: C 6 H 15 N
CAS: 108-18-9
Origin: Sadtler Research Labs Under US-EPA Contract
1/CM	ABSORBANCE
450	0.00624606
462	0.00761715
474	0.00893746
486	0.0116796
498	0.0138632
510	0.00985151
522	0.00289452
534	0.00264061
546	0.00208202
558	0.000253905
570	0.00223436
582	0.00370701
594	0.00512888
606	0.00751559
618	0.0101054
630	0.0123398
642	0.0191444
654	0.0268124
666	0.0330584
678	0.0489021
690	0.0557575
702	0.0417928
714	0.0218358
726	0.00954683
738	0.00380858
750	0.00467185
762	0.00365623
774	0.00238671
786	0.00304686
798	0.00269139
810	0.0042656
822	0.00903902
834	0.0126952
846	0.0105117
858	0.00863277
870	0.00558591
882	0.0040117
894	0.00457029
906	0.00467185
918	0.00599216
930	0.00558591
942	0.00396092
954	0.00304686
966	0.00380858
978	0.00274217
990	0.00258983
1002	0.00731246
1014	0.0148788
1026	0.0137617
1038	0.00517966
1050	0.00462107
1062	0.00528122
1074	0.00944527
1086	0.0194491
1098	0.0251366
1110	0.0272694
1122	0.0353944
1134	0.0396092
1146	0.0435193
1158	0.0670309
1170	0.131523
1182	0.141425
1194	0.0624098
1206	0.0293514
1218	0.0167577
1230	0.00954683
1242	0.00619528
1254	0.00573825
1266	0.00675387
1278	0.00787106
1290	0.0118828
1302	0.0221913
1314	0.0421482
1326	0.0599724
1338	0.0702809
1350	0.0590075
1362	0.0692145
1374	0.125835
1386	0.122941
1398	0.0446873
1410	0.0163007
1422	0.0186366
1434	0.0332108
1446	0.0498669
1458	0.0631716
1470	0.0740387
1482	0.0621052
1494	0.0312303
1506	0.013914
1518	0.0072109
1530	0.00365623
1542	0.00502732
1554	0.00314842
1566	0.00208202
1578	0.00330077
1590	0.00218358
1602	0.00269139
1614	0.0029453
1626	0.00304686
1638	0.00380858
1650	0.00370701
1662	0.00340233
1674	0.00355467
1686	0.00543357
1698	0.00573825
1710	0.00421482
1722	0.00396092
1734	0.00451951
1746	0.00238671
1758	0.00233593
1770	0.00289452
1782	0.00137109
1794	0.00198046
1806	0.00142187
1818	0.000863277
1830	0.00203124
1842	0.00177734
1854	0.00142187
1866	0.00147265
1878	0.00152343
1890	0.00101562
1902	0.00050781
1914	0.00050781
1926	0.00050781
1938	0.00050781
1950	0.000558591
1962	0.000558591
1974	0.000609372
1986	0.000609372
1998	0.000609372
2010	0.000609372
2022	0.000609372
2034	0.000660153
2046	0.000660153
2058	0.000660153
2070	0.000253905
2082	0.000710934
2094	0.000660153
2106	0.000660153
2118	0.000710934
2130	0.000761715
2142	0.000660153
2154	0.000710934
2166	0.000710934
2178	0.000710934
2190	0.000660153
2202	0.00116796
2214	0.000914058
2226	0.000660153
2238	0.000660153
2250	0.000609372
2262	0.000609372
2274	0.000558591
2286	0.000558591
2298	0.00101562
2310	0.00152343
2322	0.00203124
2334	0.00182812
2346	0.00192968
2358	0.00284374
2370	0.0021328
2382	0.000863277
2394	0.000406248
2406	0.000406248
2418	0.000406248
2430	0.000406248
2442	0.000355467
2454	0.000355467
2466	0.000761715
2478	0.000812496
2490	0.000812496
2502	0.000812496
2514	0.000253905
2526	0.000812496
2538	0.000761715
2550	0.000863277
2562	0.00137109
2574	0.00238671
2586	0.0040117
2598	0.0072109
2610	0.00980073
2622	0.0113242
2634	0.0104101
2646	0.00893746
2658	0.00751559
2670	0.00660153
2682	0.00609372
2694	0.00573825
2706	0.00655075
2718	0.00812496
2730	0.00969917
2742	0.0107148
2754	0.011832
2766	0.0141171
2778	0.0185351
2790	0.0246796
2802	0.0302147
2814	0.0361561
2826	0.046617
2838	0.0608356
2850	0.0693161
2862	0.0803863
2874	0.109941
2886	0.118675
2898	0.106843
2910	0.112988
2922	0.133199
2934	0.167069
2946	0.193882
2958	0.311491
2970	0.50781
2982	0.391623
2994	0.127359
3006	0.0339725
3018	0.0149804
3030	0.00939448
3042	0.00685544
3054	0.00543357
3066	0.00548435
3078	0.00548435
3090	0.00472263
3102	0.00457029
3114	0.00457029
3126	0.00416404
3138	0.00411326
3150	0.00487498
3162	0.00528122
3174	0.00578903
3186	0.00583981
3198	0.00502732
3210	0.00492576
3222	0.00396092
3234	0.00243749
3246	0.00167577
3258	0.00157421
3270	0.00121874
3282	0.00126953
3294	0.00132031
3306	0.00101562
3318	0.00172655
3330	0.00238671
3342	0.00228515
3354	0.00198046
3366	0.00203124
3378	0.00157421
3390	0.00101562
3402	0.00121874
3414	0.000863277
3426	0.000660153
3438	0.00121874
3450	0.000710934
3462	0.000812496
3474	0.000863277
3486	0.000457029
3498	0
3510	0.000203124
3522	0.000101562
3534	0.000101562
3546	0.000660153
3558	0.000558591
3570	0.000355467
3582	0.000660153
3594	0.000761715
3606	0.000761715
3618	0.00137109
3630	0.00284374
3642	0.000964839
3654	0.00192968
3666	0.00192968
3678	0.00279296
3690	0.00350389
3702	0.00258983
3714	0.00304686
3726	0.00335155
3738	0.00411326
3750	0.00467185
3762	0.00421482
3774	0.00416404
3786	0.0042656
3798	0.00543357
3810	0.0058906
3822	0.00538279
3834	0.00543357
3846	0.00583981
3858	0.00553513
3870	0.00609372
3882	0.00609372
3894	0.00543357
3906	0.00517966
3918	0.00523044
3930	0.00578903
3942	0.00528122
3954	0.0010664
3966	0.00147265
