Infrared Spectrum: Cyclohexane, methyl-
Formula: C 7 H 14
CAS: 108-87-2
Origin: Sadtler Research Labs Under US-EPA Contract
1/CM	ABSORBANCE
450	0.00220504
462	0.00220504
474	0.00130669
486	0.00130669
498	0.00212337
510	0.00220504
522	0.00294005
534	0.00253171
546	0.00334839
558	0.00253171
570	0.00106168
582	0.0017967
594	0.00359339
606	0.00187836
618	0.00212337
630	0.00155169
642	0.00187836
654	0.00187836
666	0.00106168
678	0.00155169
690	0.0020417
702	0.00212337
714	0.0017967
726	0.00236837
738	0.0022867
750	0.00220504
762	0.00196003
774	0.00171503
786	0.00212337
798	0.00040834
810	0.00277671
822	0.00277671
834	0.00514508
846	0.00645177
858	0.00498175
870	0.00490008
882	0.00563509
894	0.00416507
906	0.00563509
918	0.00506342
930	0.00302172
942	0.00310338
954	0.00710512
966	0.0124952
978	0.00963682
990	0.00351172
1002	0.00253171
1014	0.00236837
1026	0.00236837
1038	0.00236837
1050	0.0022867
1062	0.00285838
1074	0.0040834
1086	0.00571676
1098	0.00579843
1110	0.00326672
1122	0.00269504
1134	0.00187836
1146	0.00212337
1158	0.00220504
1170	0.00212337
1182	0.00212337
1194	0.00212337
1206	0.0020417
1218	0.00212337
1230	0.00220504
1242	0.00530842
1254	0.00906515
1266	0.0099635
1278	0.00735012
1290	0.00351172
1302	0.00318505
1314	0.00351172
1326	0.00294005
1338	0.00498175
1350	0.00653344
1362	0.00898348
1374	0.0148636
1386	0.0147819
1398	0.00824847
1410	0.0040834
1422	0.00530842
1434	0.0204987
1446	0.0530025
1458	0.0742362
1470	0.0474491
1482	0.0196003
1494	0.00547176
1506	0.00236837
1518	0.00196003
1530	0.00187836
1542	0.0020417
1554	0.00171503
1566	0.00171503
1578	0.00163336
1590	0.00163336
1602	0.00147002
1614	0.00147002
1626	0.00155169
1638	0.00163336
1650	0.00163336
1662	0.00130669
1674	0.00147002
1686	0.00171503
1698	0.00171503
1710	0.00130669
1722	0.00138836
1734	0.00155169
1746	0.00147002
1758	0.00130669
1770	0.00138836
1782	0.00130669
1794	0.00138836
1806	0.00122502
1818	0.00122502
1830	0.00122502
1842	0.00114335
1854	0.00106168
1866	0.00114335
1878	0.00106168
1890	0.00114335
1902	0.00147002
1914	0.000980016
1926	0.00106168
1938	0.00106168
1950	0.000980016
1962	0.000898348
1974	0.000980016
1986	0.000898348
1998	0.000898348
2010	0.00122502
2022	0.000898348
2034	0.000898348
2046	0.00114335
2058	0.000735012
2070	0.000735012
2082	0.00122502
2094	0.000735012
2106	0.000735012
2118	0.000735012
2130	0.000653344
2142	0.000735012
2154	0.000735012
2166	0.000898348
2178	0.00155169
2190	0.00106168
2202	0.00106168
2214	0.00106168
2226	0.00147002
2238	0.00155169
2250	0.00138836
2262	0.000980016
2274	0.000980016
2286	0.00138836
2298	0.00138836
2310	0.00130669
2322	0.00122502
2334	0.0017967
2346	0.00114335
2358	0.00106168
2370	0.00040834
2382	0.000735012
2394	0.00122502
2406	0.00122502
2418	0.00163336
2430	0.00114335
2442	0.00106168
2454	8.1668e-05
2466	0.000571676
2478	0.000653344
2490	8.1668e-05
2502	8.1668e-05
2514	8.1668e-05
2526	0.000490008
2538	0.00081668
2550	0.00106168
2562	0.00163336
2574	0.0020417
2586	0.0022867
2598	0.0040834
2610	0.00457341
2622	0.00359339
2634	0.00359339
2646	0.00530842
2658	0.0084118
2670	0.0101268
2682	0.00751346
2694	0.00547176
2706	0.00457341
2718	0.00416507
2730	0.00416507
2742	0.00416507
2754	0.00367506
2766	0.00416507
2778	0.00653344
2790	0.0101268
2802	0.0132302
2814	0.0137202
2826	0.0181303
2838	0.0544726
2850	0.163989
2862	0.256356
2874	0.228262
2886	0.159824
2898	0.175423
2910	0.314667
2922	0.557384
2934	0.786055
2946	0.591848
2958	0.362443
2970	0.163336
2982	0.0478574
2994	0.0104535
3006	0.00522675
3018	0.00392006
3030	0.00351172
3042	0.0038384
3054	0.00375673
3066	0.00424674
3078	0.00522675
3090	0.00522675
3102	0.00481841
3114	0.0043284
3126	0.00400173
3138	0.0043284
3150	0.00490008
3162	0.00473674
3174	0.0038384
3186	0.0022867
3198	0.00163336
3210	0.000898348
3222	0.00138836
3234	0.0017967
3246	0.00171503
3258	0.00253171
3270	0.00343006
3282	0.00187836
3294	0.00171503
3306	0.00147002
3318	0.00147002
3330	0.00187836
3342	0.00196003
3354	0.00261338
3366	0.00236837
3378	0.000980016
3390	0.000980016
3402	0.00138836
3414	0.000490008
3426	0.00106168
3438	0.000898348
3450	0.000490008
3462	0.00147002
3474	0.00138836
3486	0.00147002
3498	0.000980016
3510	0.000326672
3522	0.000653344
3534	0.00114335
3546	0
3558	0.00081668
3570	0.00081668
3582	0.00130669
3594	0.00106168
3606	0.00138836
3618	0.000980016
3630	0.000653344
3642	0.00155169
3654	0.000980016
3666	0.00122502
3678	0.00261338
3690	0.00187836
3702	0.0020417
3714	0.00285838
3726	0.00236837
3738	0.00236837
3750	0.00261338
3762	0.00261338
3774	0.00269504
3786	0.00187836
3798	0.00212337
3810	0.0020417
3822	0.00261338
3834	0.00310338
3846	0.0020417
3858	0.00277671
3870	0.00261338
3882	0.00196003
3894	0.00253171
3906	0.00253171
3918	0.00269504
3930	0.00171503
3942	0.00277671
3954	0.00367506
3966	0.00326672
