Infrared Spectrum: Pentane, 2,4-dimethyl-
Formula: C 7 H 16
CAS: 108-08-7
Origin: Sadtler Research Labs Under US-EPA Contract
1/CM	ABSORBANCE
450	0.00329776
462	0.00287497
474	0.00236762
486	0.00152204
498	0.00329776
510	0.0032132
522	0.00219851
534	0.00228307
546	0.00202939
558	0.00363599
570	0.00143749
582	0.00228307
594	0.00355144
606	0.00143749
618	0.00295953
630	0.00236762
642	0.00245218
654	0.0026213
666	0.00186028
678	0.00219851
690	0.00228307
702	0.0026213
714	0.0026213
726	0.00304409
738	0.00253674
750	0.00245218
762	0.00304409
774	0.00287497
786	0.00279041
798	0.00727199
810	0.00693376
822	0.00574994
834	0.00177572
846	0.00355144
858	0.00439702
870	0.00541171
882	0.00405878
894	0.00346688
906	0.00549627
918	0.00811757
930	0.0074411
942	0.00380511
954	0.00338232
966	0.00541171
978	0.0123455
990	0.0120918
1002	0.00549627
1014	0.0026213
1026	0.00295953
1038	0.00253674
1050	0.00253674
1062	0.00304409
1074	0.00338232
1086	0.00346688
1098	0.00287497
1110	0.00295953
1122	0.00439702
1134	0.00668008
1146	0.010908
1158	0.0249446
1170	0.0349225
1182	0.0155587
1194	0.00490436
1206	0.00363599
1218	0.00355144
1230	0.00414334
1242	0.00448157
1254	0.00507348
1266	0.00439702
1278	0.00498892
1290	0.00498892
1302	0.0052426
1314	0.00913226
1326	0.0141212
1338	0.0159815
1350	0.027735
1362	0.059106
1374	0.0737346
1386	0.077286
1398	0.0515804
1410	0.015305
1422	0.00938594
1434	0.0134447
1446	0.0329776
1458	0.0722971
1470	0.0971571
1482	0.0699295
1494	0.0261284
1506	0.00803301
1518	0.0032132
1530	0.00228307
1542	0.00202939
1554	0.00177572
1566	0.0016066
1578	0.00279041
1590	0.00219851
1602	0.00177572
1614	0.00202939
1626	0.0016066
1638	0.00219851
1650	0.00194483
1662	0.00211395
1674	0.00186028
1686	0.00236762
1698	0.00186028
1710	0.00143749
1722	0.00177572
1734	0.00169116
1746	0.000507348
1758	0.0010147
1770	0.000338232
1782	0.000591906
1794	0.000761022
1806	0.00042279
1818	0.00084558
1830	0.00042279
1842	0.000338232
1854	0.000930138
1866	0.000338232
1878	0.000507348
1890	0.000253674
1902	0.000253674
1914	0.000338232
1926	0.000253674
1938	0.000253674
1950	0.000253674
1962	0.000253674
1974	0.000253674
1986	0.000253674
1998	0.000253674
2010	0.000253674
2022	0.000253674
2034	0.000253674
2046	8.4558e-05
2058	8.4558e-05
2070	8.4558e-05
2082	8.4558e-05
2094	8.4558e-05
2106	8.4558e-05
2118	8.4558e-05
2130	0.000507348
2142	0.00042279
2154	0.000507348
2166	0.000507348
2178	0.00042279
2190	0.000507348
2202	0.0010147
2214	0.00042279
2226	0.000507348
2238	0
2250	0.000507348
2262	0.00042279
2274	0.000507348
2286	0.000507348
2298	0.000761022
2310	0.00042279
2322	0.000507348
2334	0.000507348
2346	0.000507348
2358	0.00084558
2370	0.000591906
2382	0.00118381
2394	0.00186028
2406	0.0016066
2418	0.0010147
2430	0.00109925
2442	0.00109925
2454	0.00109925
2466	0.000591906
2478	0.000930138
2490	0.00143749
2502	0.0016066
2514	0.00109925
2526	0.00109925
2538	0.00143749
2550	0.00177572
2562	0.00219851
2574	0.0032132
2586	0.00490436
2598	0.00541171
2610	0.00558083
2622	0.0052426
2634	0.00558083
2646	0.00532715
2658	0.00473525
2670	0.0042279
2682	0.00481981
2694	0.00498892
2706	0.00659552
2718	0.0100624
2730	0.0136984
2742	0.0125991
2754	0.010147
2766	0.0103161
2778	0.0117536
2790	0.0134447
2802	0.0169116
2814	0.0219851
2826	0.0323857
2838	0.053948
2850	0.0782161
2862	0.104767
2874	0.205307
2886	0.264751
2898	0.284369
2910	0.364107
2922	0.341699
2934	0.324449
2946	0.399029
2958	0.686273
2970	0.80254
2982	0.32614
2994	0.0647714
3006	0.0282424
3018	0.0184336
3030	0.013191
3042	0.0100624
3054	0.00938594
3066	0.0104852
3078	0.010147
3090	0.00930138
3102	0.00769478
3114	0.00761022
3126	0.00777934
3138	0.00904771
3150	0.00904771
3162	0.0100624
3174	0.00972417
3186	0.00997784
3198	0.00921682
3210	0.0074411
3222	0.00490436
3234	0.00346688
3246	0.00304409
3258	0.00346688
3270	0.00295953
3282	0.0026213
3294	0.0026213
3306	0.00287497
3318	0.00405878
3330	0.00219851
3342	0.00279041
3354	0.00397423
3366	0.00448157
3378	0.00380511
3390	0.00329776
3402	0.00228307
3414	0.00295953
3426	0.00228307
3438	0.00245218
3450	0.00202939
3462	0.00202939
3474	0.00202939
3486	0.00118381
3498	0.0016066
3510	0.00169116
3522	0.00211395
3534	0.00135293
3546	0.00219851
3558	0.000930138
3570	0.00084558
3582	0
3594	0.00135293
3606	0.00084558
3618	0.00135293
3630	0.000930138
3642	0.0016066
3654	0.0010147
3666	0.00245218
3678	0.00109925
3690	0.00253674
3702	0.0016066
3714	0.00245218
3726	0.00126837
3738	0.00152204
3750	0.00253674
3762	0.00245218
3774	0.0026213
3786	0.00245218
3798	0.00236762
3810	0.00287497
3822	0.00329776
3834	0.00346688
3846	0.00431246
3858	0.00312865
3870	0.00312865
3882	0.0026213
3894	0.00346688
3906	0.00397423
3918	0.00312865
3930	0.00405878
3942	0.00405878
3954	0.00279041
3966	0.00245218
