Infrared Spectrum: Benzene, bromo-
Formula: C 6 H 5 Br
CAS: 108-86-1
Origin: Sadtler Research Labs Under US-EPA Contract
1/CM	ABSORBANCE
450	0.0711693
462	0.0814588
474	0.036559
486	0.020735
498	0.00919822
510	0.00514477
522	0.00880846
534	0.00483296
546	0.00452116
558	0.0125501
570	0.00678174
582	0.00857461
594	0.00787305
606	0.00631403
618	0.0162918
630	0.0179287
642	0.0185523
654	0.0416258
666	0.257784
678	0.396693
690	0.211949
702	0.11794
714	0.173597
726	0.428263
738	0.635924
750	0.348753
762	0.0670379
774	0.00646993
786	0.00615813
798	0.00163697
810	0.0042873
822	0.00444321
834	0.00685969
846	0.00826281
858	0.00849666
870	0.00873051
882	0.0116927
894	0.0277506
906	0.0400668
918	0.0208129
930	0.00740534
942	0.00444321
954	0.0042873
966	0.00873051
978	0.0205011
990	0.0458352
1002	0.0988419
1014	0.209298
1026	0.271036
1038	0.0237751
1050	0.0321938
1062	0.178586
1074	0.453207
1086	0.102194
1098	0.00849666
1110	0.0076392
1122	0.00483296
1134	0.00420935
1146	0.00561247
1158	0.00304009
1170	0.00420935
1182	0.00569042
1194	0.00639198
1206	0.00444321
1218	0.00943207
1230	0.0139532
1242	0.0101336
1254	0.0108352
1266	0.00849666
1278	0.00670379
1290	0.0076392
1302	0.00951002
1314	0.0150445
1326	0.0133296
1338	0.00826281
1350	0.0120824
1362	0.0131737
1374	0.00943207
1386	0.00888641
1398	0.00506681
1410	0.00849666
1422	0.0341425
1434	0.0806793
1446	0.07951
1458	0.0708575
1470	0.359432
1482	0.522895
1494	0.0367929
1506	0.00896437
1518	0.00935412
1530	0.00514477
1542	0.0112249
1554	0.0344543
1566	0.109443
1578	0.338931
1590	0.301904
1602	0.0237751
1614	0.00787305
1626	0.00865256
1638	0.0155902
1650	0.00522272
1662	0.00452116
1674	0.00491091
1686	0.00569042
1698	0.00584633
1710	0.011069
1722	0.0162138
1734	0.0162138
1746	0.0136414
1758	0.00951002
1770	0.00927617
1782	0.025412
1794	0.023853
1806	0.00989978
1818	0.00646993
1830	0.00576837
1842	0.0116147
1854	0.0210468
1866	0.0260356
1878	0.0252561
1890	0.0101336
1902	0.00335189
1914	0.00732739
1926	0.0167595
1938	0.0219042
1950	0.0284521
1962	0.0182405
1974	0.00475501
1986	0.00436526
1998	0.0036637
2010	0.00296214
2022	0.00272828
2034	0.00257238
2046	0.00249443
2058	0.00226058
2070	0.00194878
2082	0.00210468
2094	0.00148107
2106	0.00179287
2118	0.00194878
2130	0.00179287
2142	0.00304009
2154	0.00335189
2166	0.00210468
2178	0.00202673
2190	0.00226058
2202	0.00194878
2214	0.00210468
2226	0.00319599
2238	0.0041314
2250	0.00483296
2262	0.0041314
2274	0.00358575
2286	0.00304009
2298	0.00249443
2310	0.00615813
2322	0.00935412
2334	0.00639198
2346	0.00436526
2358	0.00475501
2370	0.000857461
2382	0.00296214
2394	0.00483296
2406	0.00452116
2418	0.0038196
2430	0.00257238
2442	0.00226058
2454	0.00265033
2466	0.00249443
2478	0.00288419
2490	0.00304009
2502	0.00319599
2514	0.00335189
2526	0.00311804
2538	0.00498886
2550	0.00608018
2562	0.0042873
2574	0.0039755
2586	0.00522272
2598	0.00584633
2610	0.00459911
2622	0.00311804
2634	0.0036637
2646	0.00506681
2658	0.00475501
2670	0.00116927
2682	0.000467706
2694	0.00116927
2706	0.00116927
2718	0.00171492
2730	0.00194878
2742	0.00226058
2754	0.00210468
2766	0.0036637
2778	0.00296214
2790	0.00148107
2802	0.00171492
2814	0.00202673
2826	0.00272828
2838	0.00272828
2850	0.00304009
2862	0.00296214
2874	0.0035078
2886	0.0038196
2898	0.00311804
2910	0.00335189
2922	0.0035078
2934	0.00257238
2946	0.00327394
2958	0.00257238
2970	0.00210468
2982	0.00459911
2994	0.0107572
3006	0.0225278
3018	0.0339866
3030	0.0499666
3042	0.0505902
3054	0.0643875
3066	0.139922
3078	0.279688
3090	0.197762
3102	0.0979844
3114	0.0236971
3126	0.00545657
3138	0.0035078
3150	0.00389755
3162	0.00436526
3174	0.0038196
3186	0.00194878
3198	0.00202673
3210	0.00171492
3222	0.00124722
3234	0.00179287
3246	0.00210468
3258	0.00163697
3270	0.00116927
3282	0.00163697
3294	0.00163697
3306	0.00148107
3318	0.00140312
3330	0.00132517
3342	0.00187082
3354	0.00194878
3366	0.00179287
3378	0.00179287
3390	0.00171492
3402	0.00124722
3414	0.00194878
3426	0.00148107
3438	0.00163697
3450	0.00179287
3462	0.00210468
3474	0.0041314
3486	0.00335189
3498	0.00187082
3510	0.00202673
3522	0.00179287
3534	0.00132517
3546	0.00171492
3558	0.00116927
3570	0.000857461
3582	0.00140312
3594	0.00077951
3606	0.00194878
3618	0.00187082
3630	0.00124722
3642	0.00226058
3654	0.00132517
3666	0.0035078
3678	0.000701559
3690	0.0038196
3702	0.00483296
3714	0.0035078
3726	0.00202673
3738	0.00210468
3750	0.00498886
3762	0.0038196
3774	0.0041314
3786	0.00210468
3798	0.00311804
3810	0.00163697
3822	0.000233853
3834	0.00077951
3846	0.000233853
3858	0.000467706
3870	0.000467706
3882	0.00116927
3894	0.00179287
3906	0.000467706
3918	0.00124722
3930	0.00187082
3942	0.00171492
3954	0.00202673
3966	0.00187082
