Infrared Spectrum: Benzene, 1,3-dibromo-
Formula: C 6 H 4 Br 2
CAS: 108-36-1
Origin: Sadtler Research Labs Under US-EPA Contract
1/CM	ABSORBANCE
450	0
462	0.0239206
474	0.0370383
486	0.0144405
498	0.022708
510	0.0263457
522	0.0203931
534	0.0265662
546	0.0250229
558	0.0192908
570	0.0219364
582	0.0220466
594	0.0201726
606	0.0249127
618	0.0238103
630	0.0313062
642	0.0514788
654	0.0496048
666	0.122689
678	0.129303
690	0.0443137
702	0.0418885
714	0.0541244
726	0.555133
738	0.352194
750	0.076171
762	0.251221
774	0.39761
786	0.097005
798	0.0246922
810	0.0254638
822	0.0207238
834	0.021275
846	0.0242513
858	0.0449751
870	0.1088
882	0.0605179
894	0.0229285
906	0.0229285
918	0.0217159
930	0.0220466
942	0.0243615
954	0.0222671
966	0.0192908
978	0.0275582
990	0.0640454
1002	0.0634942
1014	0.0442034
1026	0.0505969
1038	0.0442034
1050	0.0810213
1062	0.177144
1074	0.290023
1086	0.123351
1098	0.078045
1110	0.0611793
1122	0.0414476
1134	0.0200624
1146	0.0250229
1158	0.020834
1170	0.0207238
1182	0.0221568
1194	0.0266764
1206	0.0213852
1218	0.0185191
1230	0.0173066
1242	0.0225978
1254	0.0273378
1266	0.0202829
1278	0.0445341
1290	0.0504867
1302	0.0206136
1314	0.0276685
1326	0.0447546
1338	0.0218261
1350	0.0252434
1362	0.0275582
1374	0.0488332
1386	0.117508
1398	0.112327
1410	0.140768
1422	0.0752891
1434	0.0489435
1446	0.100422
1458	0.630974
1470	0.239757
1482	0.111886
1494	0.0289913
1506	0.0244717
1518	0.0302038
1530	0.0329597
1542	0.0713208
1554	0.193569
1566	0.862794
1578	0.418665
1590	0.104942
1602	0.0339518
1614	0.0210545
1626	0.0181884
1638	0.0223773
1650	0.0238103
1662	0.0347234
1674	0.0285503
1686	0.0214954
1698	0.0230387
1710	0.0190703
1722	0.0250229
1734	0.0396839
1746	0.0353848
1758	0.0221568
1770	0.0252434
1782	0.0283299
1794	0.027448
1806	0.0180782
1818	0.0164247
1830	0.0192908
1842	0.0217159
1854	0.0325187
1866	0.0285503
1878	0.0168656
1890	0.0164247
1902	0.0156531
1914	0.0185191
1926	0.0256843
1938	0.0251331
1950	0.0170861
1962	0.0143303
1974	0.0137791
1986	0.0136689
1998	0.0135587
2010	0.0138894
2022	0.0141098
2034	0.0136689
2046	0.0139996
2058	0.0135587
2070	0.0134484
2082	0.0136689
2094	0.0135587
2106	0.0133382
2118	0.0134484
2130	0.0134484
2142	0.0137791
2154	0.0141098
2166	0.0141098
2178	0.0143303
2190	0.0148815
2202	0.0131177
2214	0.0134484
2226	0.0135587
2238	0.0135587
2250	0.0135587
2262	0.0126768
2274	0.0128973
2286	0.0125666
2298	0.011354
2310	0.0108028
2322	0.0119052
2334	0.0133382
2346	0.0125666
2358	0.0141098
2370	0.0136689
2382	0.0136689
2394	0.0155429
2406	0.014661
2418	0.0131177
2430	0.013228
2442	0.0131177
2454	0.0137791
2466	0.013228
2478	0.0135587
2490	0.0144405
2502	0.0144405
2514	0.0135587
2526	0.0136689
2538	0.0128973
2550	0.0134484
2562	0.0142201
2574	0.0143303
2586	0.0134484
2598	0.0135587
2610	0.0137791
2622	0.016094
2634	0.016094
2646	0.0149917
2658	0.0152122
2670	0.0147712
2682	0.014661
2694	0.0136689
2706	0.0128973
2718	0.012787
2730	0.0130075
2742	0.0131177
2754	0.0119052
2766	0.0116847
2778	0.0117949
2790	0.0135587
2802	0.0141098
2814	0.0144405
2826	0.0148815
2838	0.0138894
2850	0.0141098
2862	0.0148815
2874	0.0134484
2886	0.0126768
2898	0.0130075
2910	0.0135587
2922	0.0128973
2934	0.0125666
2946	0.0131177
2958	0.0126768
2970	0.0131177
2982	0.0137791
2994	0.0155429
3006	0.017527
3018	0.0156531
3030	0.0141098
3042	0.0149917
3054	0.0243615
3066	0.0609588
3078	0.0722026
3090	0.0437625
3102	0.017968
3114	0.0141098
3126	0.014661
3138	0.0173066
3150	0.0159838
3162	0.0133382
3174	0.0123461
3186	0.0124563
3198	0.0125666
3210	0.0124563
3222	0.0123461
3234	0.0125666
3246	0.0125666
3258	0.0122359
3270	0.0128973
3282	0.0126768
3294	0.012787
3306	0.012787
3318	0.0126768
3330	0.0125666
3342	0.0124563
3354	0.012787
3366	0.012787
3378	0.0123461
3390	0.0126768
3402	0.0125666
3414	0.0124563
3426	0.012787
3438	0.0128973
3450	0.0125666
3462	0.0124563
3474	0.0116847
3486	0.0120154
3498	0.0121256
3510	0.0120154
3522	0.0125666
3534	0.0124563
3546	0.0120154
3558	0.0119052
3570	0.0126768
3582	0.0126768
3594	0.0124563
3606	0.0122359
3618	0.0131177
3630	0.0139996
3642	0.0125666
3654	0.0125666
3666	0.0123461
3678	0.0139996
3690	0.0117949
3702	0.0131177
3714	0.0137791
3726	0.0154326
3738	0.0152122
3750	0.0145508
3762	0.012787
3774	0.0121256
3786	0.0120154
3798	0.0123461
3810	0.0147712
3822	0.0156531
3834	0.0125666
3846	0.013228
3858	0.0133382
3870	0.0126768
3882	0.0138894
3894	0.0121256
3906	0.0131177
3918	0.0124563
3930	0.0117949
3942	0.0125666
3954	0.013228
3966	0.011354
