Infrared Spectrum: Pyridine, 4-methyl-
Formula: C 6 H 7 N
CAS: 108-89-4
Origin: Sadtler Research Labs Under US-EPA Contract
1/CM	ABSORBANCE
450	0.0794461
462	0.0617179
474	0.0898978
486	0.225241
498	0.148176
510	0.0875826
522	0.0631733
534	0.01323
546	0.0107824
558	0.0056889
570	0.00853335
582	0.0030429
594	0.0133623
606	0.0104517
618	0.011047
630	0.0087318
642	0.0070119
654	0.0139576
666	0.0093933
678	0.0218295
690	0.0105178
702	0.0231525
714	0.029106
726	0.057352
738	0.0340673
750	0.02646
762	0.048091
774	0.154857
786	0.269429
798	0.34226
810	0.288083
822	0.0703174
834	0.0138915
846	0.0119731
858	0.00575505
870	0.00813645
882	0.0080703
894	0.007938
906	0.00945945
918	0.011907
930	0.0140899
942	0.0120393
954	0.0209034
966	0.0239463
978	0.0349933
990	0.0545737
1002	0.0528538
1014	0.0166698
1026	0.0149499
1038	0.0218956
1050	0.0328104
1062	0.0303628
1074	0.0219618
1086	0.0132961
1098	0.011047
1110	0.0096579
1122	0.007938
1134	0.00496125
1146	0.00615195
1158	0.00721035
1170	0.00601965
1182	0.0059535
1194	0.0115101
1206	0.033538
1218	0.0653562
1230	0.0583443
1242	0.0101871
1254	0.00337365
1266	0.0072765
1278	0.0074088
1290	0.0070119
1302	0.005292
1314	0.0087318
1326	0.0130315
1338	0.0222264
1350	0.0222925
1362	0.0253354
1374	0.0327442
1386	0.05292
1398	0.0979681
1410	0.148374
1422	0.175761
1434	0.128926
1446	0.0797107
1458	0.0665469
1470	0.0713097
1482	0.0732942
1494	0.0890379
1506	0.0939991
1518	0.0771309
1530	0.0646285
1542	0.0738234
1554	0.100945
1566	0.124296
1578	0.168021
1590	0.336373
1602	0.643573
1614	0.545539
1626	0.103525
1638	0.0222264
1650	0.0261292
1662	0.0270553
1674	0.0106501
1686	0.0041013
1698	0.001323
1710	0.0056889
1722	0.0087318
1734	0.0129654
1746	0.0115762
1758	0.00853335
1770	0.0044982
1782	0.00562275
1794	0.00310905
1806	0.0042336
1818	0.00575505
1830	0.00959175
1842	0.0115101
1854	0.0089964
1866	0.0037044
1878	0.0035721
1890	0.0058212
1902	0.0117747
1914	0.0257985
1926	0.0279814
1938	0.0296352
1950	0.0119731
1962	0.00575505
1974	0.00284445
1986	0.0019845
1998	0.00350595
2010	0.0050274
2022	0.0056889
2034	0.00271215
2046	0.0019845
2058	0.00165375
2070	0.00165375
2082	0.00152145
2094	0.0017199
2106	0.0011907
2118	0.0009261
2130	0.00125685
2142	0.0022491
2154	0.00271215
2166	0.00324135
2178	0.00535815
2190	0.0070119
2202	0.0055566
2214	0.00403515
2226	0.0017199
2238	0.00046305
2250	0.0001323
2262	0.0005292
2274	0.00178605
2286	0.0042336
2298	0.005292
2310	0.00522585
2322	0.00363825
2334	0.00072765
2346	0.001323
2358	0.00205065
2370	0.002646
2382	0.0033075
2394	0.00469665
2406	0.0058212
2418	0.0068796
2430	0.0083349
2442	0.0100548
2454	0.00985635
2466	0.0067473
2478	0.0037044
2490	0.0027783
2502	0.0022491
2514	0.00205065
2526	0.00191835
2538	0.00231525
2550	0.0023814
2562	0.00257985
2574	0.00231525
2586	0.0031752
2598	0.00535815
2610	0.0055566
2622	0.00509355
2634	0.0042336
2646	0.0037044
2658	0.0034398
2670	0.0034398
2682	0.0037044
2694	0.0031752
2706	0.00363825
2718	0.00482895
2730	0.00760725
2742	0.00972405
2754	0.0100548
2766	0.0054243
2778	0.0044982
2790	0.00562275
2802	0.0080703
2814	0.0115101
2826	0.0134284
2838	0.0165375
2850	0.0240786
2862	0.0431298
2874	0.0694575
2886	0.0808353
2898	0.0757417
2910	0.0801738
2922	0.128662
2934	0.16941
2946	0.160348
2958	0.115432
2970	0.114506
2982	0.146059
2994	0.183302
3006	0.197524
3018	0.238801
3030	0.289142
3042	0.302504
3054	0.288083
3066	0.34226
3078	0.294235
3090	0.186808
3102	0.0655546
3114	0.0293706
3126	0.0142222
3138	0.00707805
3150	0.0059535
3162	0.00456435
3174	0.0043659
3186	0.00350595
3198	0.003969
3210	0.00271215
3222	0.00297675
3234	0.00377055
3246	0.00337365
3258	0.00324135
3270	0.00363825
3282	0.00337365
3294	0.0037044
3306	0.00350595
3318	0.00363825
3330	0.00337365
3342	0.00350595
3354	0.00377055
3366	0.0035721
3378	0.0034398
3390	0.0041013
3402	0.00429975
3414	0.0042336
3426	0.00363825
3438	0.00416745
3450	0.0031752
3462	0.0027783
3474	0.0042336
3486	0.00271215
3498	0.00390285
3510	0.00271215
3522	0.0043659
3534	0.0044982
3546	0.00509355
3558	0.0037044
3570	0.00628425
3582	0.0038367
3594	0.00390285
3606	0.00363825
3618	0.0031752
3630	0.00271215
3642	0.0029106
3654	0.0027783
3666	0.00562275
3678	0
3690	0.0042336
3702	0.0062181
3714	0.00535815
3726	0.00615195
3738	0.0033075
3750	0.0041013
3762	0.0041013
3774	0.00429975
3786	0.0042336
3798	0.0038367
3810	0.00588735
3822	0.00033075
3834	0.00350595
3846	0.0044982
3858	0.0010584
3870	0.00324135
3882	0.00615195
3894	0.00469665
3906	0.0070119
3918	0.00601965
3930	0.00549045
3942	0.0046305
3954	0.00416745
3966	0.003969
