Infrared Spectrum: Cyclohexane, bromo-
Formula: C 6 H 11 Br
CAS: 108-85-0
Origin: Sadtler Research Labs Under US-EPA Contract
1/CM	ABSORBANCE
450	0.0525937
462	0.0452992
474	0.0153245
486	0.0300973
498	0.0185733
510	0.028381
522	0.0259904
534	0.0233545
546	0.0264194
558	0.0210252
570	0.0090721
582	0.0261129
594	0.0166118
606	0.0159988
618	0.0147115
630	0.0158149
642	0.0148341
654	0.0240901
666	0.0294843
678	0.0224964
690	0.0811586
702	0.0836718
714	0.0163053
726	0.0134856
738	0.0134856
750	0.013792
762	0.0125048
774	0.00760095
786	0.0134243
798	0.0219447
810	0.0389855
822	0.0328557
834	0.0175925
846	0.0261129
858	0.0326105
870	0.0221899
882	0.0383112
894	0.0280132
906	0.0142824
918	0.0152632
930	0.0154471
942	0.0117079
954	0.010911
966	0.0176538
978	0.0293617
990	0.0496514
1002	0.0333461
1014	0.0314459
1026	0.0223738
1038	0.0163053
1050	0.0144663
1062	0.0129339
1074	0.0151406
1086	0.019738
1098	0.0191863
1110	0.0209639
1122	0.0266646
1134	0.0161214
1146	0.0141598
1158	0.0131178
1170	0.0145889
1182	0.0375144
1194	0.0921922
1206	0.0379435
1218	0.0147728
1230	0.0136695
1242	0.0255
1254	0.0893725
1266	0.0795648
1278	0.0193089
1290	0.0115853
1302	0.0133017
1314	0.0150793
1326	0.0173473
1338	0.0334687
1350	0.0293617
1362	0.0164279
1374	0.0120144
1386	0.0106046
1398	0.0103594
1410	0.0105433
1422	0.0158149
1434	0.0303425
1446	0.0691441
1458	0.0914566
1470	0.0460961
1482	0.0163053
1494	0.0102368
1506	0.00943989
1518	0.00833653
1530	0.00815263
1542	0.00772355
1554	0.00858172
1566	0.00766225
1578	0.00901081
1590	0.00766225
1602	0.00692667
1614	0.00723316
1626	0.00760095
1638	0.00668148
1650	0.00821393
1662	0.00680408
1674	0.00735576
1686	0.00735576
1698	0.00778485
1710	0.0061911
1722	0.00631369
1734	0.0060685
1746	0.00551682
1758	0.0061911
1770	0.00588461
1782	0.00539422
1794	0.00582331
1806	0.0060072
1818	0.00588461
1830	0.00490384
1842	0.00514903
1854	0.00539422
1866	0.00551682
1878	0.00594591
1890	0.00521033
1902	0.00508773
1914	0.00447475
1926	0.00447475
1938	0.00447475
1950	0.00576201
1962	0.00557812
1974	0.00521033
1986	0.00502644
1998	0.00386177
2010	0.00331009
2022	0.0029423
2034	0.0029423
2046	0.00269711
2058	0.00386177
2070	0.00465865
2082	0.00416826
2094	0.00404567
2106	0.00367788
2118	0.00361658
2130	0.00361658
2142	0.00398437
2154	0.00367788
2166	0.00422956
2178	0.00392307
2190	0.00343269
2202	0.0030036
2214	0.0031262
2226	0.00343269
2238	0.0029423
2250	0.00263581
2262	0.00263581
2274	0.00196154
2286	0.00171634
2298	0.00134856
2310	0.00202283
2322	0.0031875
2334	0.00251322
2346	0
2358	0.000796874
2370	0
2382	0
2394	0
2406	0
2418	0.000367788
2430	0.000735576
2442	0.000490384
2454	0.000429086
2466	0.00110336
2478	0.00177764
2490	0.00134856
2502	0.00091947
2514	0.000735576
2526	0.00110336
2538	0.00091947
2550	0.00159375
2562	0.00239062
2574	0.00190024
2586	0.00190024
2598	0.00171634
2610	0.00177764
2622	0.00116466
2634	0.00214543
2646	0.00435216
2658	0.00686538
2670	0.00760095
2682	0.00723316
2694	0.00545552
2706	0.00288101
2718	0.00122596
2730	0.000551682
2742	0.00110336
2754	0.00159375
2766	0.00232932
2778	0.00386177
2790	0.0060072
2802	0.00803004
2814	0.00790744
2826	0.00901081
2838	0.0228029
2850	0.060072
2862	0.162133
2874	0.169673
2886	0.083304
2898	0.0654663
2910	0.0692054
2922	0.131055
2934	0.331929
2946	0.586193
2958	0.392859
2970	0.153061
2982	0.0507547
2994	0.0134856
3006	0.00380048
3018	0.00337139
3030	0.0031875
3042	0.00367788
3054	0.00392307
3066	0.00386177
3078	0.00324879
3090	0.00214543
3102	0.0030036
3114	0.00232932
3126	0.00239062
3138	0.00183894
3150	0.00202283
3162	0.0029423
3174	0.00361658
3186	0.0031262
3198	0.00429086
3210	0.00190024
3222	0.00183894
3234	0.00202283
3246	0.00183894
3258	0.00398437
3270	0.00324879
3282	0.00441346
3294	0.0030649
3306	0.0030649
3318	0.00159375
3330	0.000980768
3342	0.00232932
3354	0.00288101
3366	0.00361658
3378	0.00490384
3390	0.00404567
3402	0.00245192
3414	0.00220673
3426	0.00337139
3438	0.0030036
3450	0.00386177
3462	0.00380048
3474	0.00239062
3486	0.00153245
3498	0.0029423
3510	0.00343269
3522	0.00202283
3534	0.00104207
3546	0.00232932
3558	0.00398437
3570	0.00251322
3582	0.00190024
3594	0.0030649
3606	0.00251322
3618	0.00349399
3630	0.00343269
3642	0.00404567
3654	0.00226803
3666	0.00447475
3678	0.00110336
3690	0.00373918
3702	0.00263581
3714	0.00275841
3726	0.00245192
3738	0.00269711
3750	0.00373918
3762	0.00361658
3774	0.00429086
3786	0.00245192
3798	0.00140985
3810	0.00594591
3822	0.00239062
3834	0.00521033
3846	0.00668148
3858	0.00447475
3870	0.00429086
3882	0.0031262
3894	0.00545552
3906	0.00373918
3918	0.000490384
3930	0.000980768
3942	0.00404567
3954	0.00974638
3966	0.00772355
