Infrared Spectrum: Benzene, 1,1'-(1,3-propanediyl)bis-
Formula: C 15 H 16
CAS: 1081-75-0
Origin: Sadtler Research Labs Under US-EPA Contract
1/CM	ABSORBANCE
450	0.0212676
462	0.0269565
474	0.0600394
486	0.131719
498	0.121829
510	0.0261688
522	0.0139158
534	0.0201298
546	0.0363212
558	0.0440231
570	0.0265189
582	0.0189045
594	0.0413099
606	0.021005
618	0.00516374
630	0.0123405
642	0.0140909
654	0.0244184
666	0.0503246
678	0.139333
690	0.445657
702	0.713296
714	0.299147
726	0.301947
738	0.502371
750	0.497469
762	0.142834
774	0.0461236
786	0.0158413
798	0.00717672
810	0.0294946
822	0.0266939
834	0.02083
846	0.0149661
858	0.0145285
870	0.014616
882	0.0154037
894	0.0252936
906	0.0559259
918	0.0165415
930	0.00953979
942	0.00752681
954	0.01024
966	0.0164539
978	0.0203924
990	0.0128656
1002	0.0224929
1014	0.0291445
1026	0.0820072
1038	0.0592517
1050	0.016804
1062	0.0167165
1074	0.050062
1086	0.0490118
1098	0.0353585
1110	0.0505871
1122	0.0280942
1134	0.0171541
1146	0.0168916
1158	0.0167165
1170	0.0172416
1182	0.0251185
1194	0.0265189
1206	0.0294071
1218	0.0170666
1230	0.0169791
1242	0.0223179
1254	0.0197797
1266	0.0222303
1278	0.0169791
1290	0.0214426
1302	0.0234556
1314	0.0293195
1326	0.0368463
1338	0.0526876
1350	0.0734301
1362	0.0470863
1374	0.029057
1386	0.0227555
1398	0.0193421
1410	0.0176792
1422	0.027044
1434	0.0565386
1446	0.169003
1458	0.232018
1470	0.0911094
1482	0.0664284
1494	0.35516
1506	0.166552
1518	0.0303698
1530	0.0268689
1542	0.0308949
1554	0.0205674
1566	0.0234556
1578	0.0405222
1590	0.0931223
1602	0.205499
1614	0.103187
1626	0.0259937
1638	0.0209175
1650	0.0216177
1662	0.0130406
1674	0.012428
1686	0.0152287
1698	0.0183794
1710	0.0140909
1722	0.0158413
1734	0.0262563
1746	0.0259937
1758	0.0164539
1770	0.0154912
1782	0.020655
1794	0.0509372
1806	0.0322077
1818	0.016629
1830	0.0117278
1842	0.0120779
1854	0.0179418
1866	0.0328204
1878	0.0336956
1890	0.0167165
1902	0.0066516
1914	0.00936475
1926	0.0210926
1938	0.0448108
1950	0.0410473
1962	0.0194297
1974	0.00437605
1986	0.00402597
1998	0.00201298
2010	0.00157538
2022	0.00183794
2034	0.00131282
2046	0.000612647
2058	0.000612647
2070	0.00105025
2082	0.00175042
2094	0.00131282
2106	0.000437605
2118	0.000262563
2130	0.000350084
2142	0.000612647
2154	0.00157538
2166	0.00183794
2178	0.0021005
2190	0.00175042
2202	0.00148786
2214	0.00113777
2226	0.000962731
2238	0.000962731
2250	0.00113777
2262	0.00157538
2274	0.00131282
2286	0.0016629
2298	0.00175042
2310	0.00455109
2322	0.00507622
2334	0.00411349
2346	0.00323828
2358	0.00218803
2370	0.000612647
2382	0.00140034
2394	0.00192546
2406	0.00227555
2418	0.00245059
2430	0.00201298
2442	0.00183794
2454	0.00175042
2466	0.00218803
2478	0.0021005
2490	0.00253811
2502	0.00245059
2514	0.00218803
2526	0.00236307
2538	0.00262563
2550	0.00306324
2562	0.0033258
2574	0.00385092
2586	0.00525126
2598	0.00630151
2610	0.00726424
2622	0.00682664
2634	0.0087521
2646	0.00866458
2658	0.00726424
2670	0.00691416
2682	0.00656407
2694	0.00603895
2706	0.0049887
2718	0.00472613
2730	0.00533878
2742	0.00577639
2754	0.00595143
2766	0.00822697
2778	0.0122529
2790	0.0171541
2802	0.0182919
2814	0.0203924
2826	0.0267814
2838	0.0466487
2850	0.116928
2862	0.256699
2874	0.227292
2886	0.126643
2898	0.136008
2910	0.211888
2922	0.37529
2934	0.57125
2946	0.694829
2958	0.256174
2970	0.0758807
2982	0.0466487
2994	0.0530377
3006	0.113602
3018	0.212063
3030	0.578776
3042	0.470425
3054	0.236044
3066	0.430253
3078	0.453184
3090	0.275341
3102	0.156137
3114	0.100124
3126	0.0329079
3138	0.0140034
3150	0.0100649
3162	0.00962731
3174	0.00796441
3186	0.00280067
3198	0.00218803
3210	0.0016629
3222	0.0016629
3234	0.00175042
3246	0.00192546
3258	0.0021005
3270	0.00271315
3282	0.00245059
3294	0.00253811
3306	0.00192546
3318	0.00113777
3330	0.00105025
3342	0.000962731
3354	0.000962731
3366	0.00105025
3378	0.00175042
3390	0.000787689
3402	0.00113777
3414	0.00201298
3426	0.0021005
3438	0.00262563
3450	0.00218803
3462	0.00183794
3474	0.00148786
3486	0.00148786
3498	0.00140034
3510	0.00297571
3522	0.00183794
3534	0.00192546
3546	0.00192546
3558	0.00140034
3570	0.00131282
3582	0.00157538
3594	0.00262563
3606	0.00183794
3618	0.0033258
3630	0.00297571
3642	0.00507622
3654	0.00752681
3666	0.00472613
3678	0.00446357
3690	0.00367588
3702	0.00306324
3714	0.0037634
3726	0.00315076
3738	0.00253811
3750	0.00306324
3762	0.00271315
3774	0.00280067
3786	0.00341332
3798	0.00280067
3810	0.00306324
3822	0.00315076
3834	0.00306324
3846	0.00315076
3858	0.00393845
3870	0.00402597
3882	0.00288819
3894	0.00420101
3906	0.00271315
3918	0.00367588
3930	0.00472613
3942	0.00236307
3954	0.00236307
3966	0.00253811
