Infrared Spectrum: Diallyl isophthalate
Formula: C 14 H 14 O 4
CAS: 1087-21-4
Origin: Sadtler Research Labs Under US-EPA Contract
1/CM	ABSORBANCE
450	0.00015586
462	0.00093516
474	0.00109102
486	0.00132481
498	0.00225997
510	0.00194825
522	0.0046758
534	0.00459787
546	0.00506545
558	0.00568889
570	0.00444201
582	0.00342892
594	0.00483166
606	0.00522131
618	0.00709163
630	0.013326
642	0.0175342
654	0.0164432
666	0.0123129
678	0.013404
690	0.0159756
702	0.0195604
714	0.0395884
726	0.0815927
738	0.0664743
750	0.0143391
762	0.0123129
774	0.00966332
786	0.00865023
798	0.0114557
810	0.0124688
822	0.014495
834	0.010053
846	0.0121571
858	0.0127805
870	0.0148846
882	0.0162874
894	0.0183915
906	0.0242362
918	0.0452773
930	0.072397
942	0.0508104
954	0.0366271
966	0.0553303
978	0.102946
990	0.127649
1002	0.0518234
1014	0.0290679
1026	0.0230673
1038	0.0201059
1050	0.0239245
1062	0.0471476
1074	0.10427
1086	0.120168
1098	0.149002
1110	0.0907105
1122	0.117441
1134	0.113388
1146	0.0628895
1158	0.0592268
1170	0.0755921
1182	0.0420822
1194	0.0515117
1206	0.0988932
1218	0.313746
1230	0.7793
1242	0.252104
1254	0.087905
1266	0.0766831
1278	0.112921
1290	0.190773
1302	0.224984
1314	0.0764493
1326	0.0297693
1338	0.0229114
1350	0.02673
1362	0.0506545
1374	0.0338216
1386	0.0241583
1398	0.0184694
1410	0.0202618
1422	0.0247817
1434	0.0369388
1446	0.0296913
1458	0.0278989
1470	0.018937
1482	0.0139495
1494	0.0101309
1506	0.00763714
1518	0.00826058
1530	0.00748128
1542	0.00459787
1554	0.00740335
1566	0.00740335
1578	0.00771507
1590	0.0108323
1602	0.0139495
1614	0.0165212
1626	0.00880609
1638	0.00958539
1650	0.0147288
1662	0.0112998
1674	0.00974125
1686	0.0093516
1698	0.0184694
1710	0.0286782
1722	0.0418484
1734	0.141053
1746	0.495791
1758	0.136845
1770	0.0374843
1782	0.0254052
1794	0.0169887
1806	0.0113778
1818	0.007793
1830	0.00584475
1842	0.00662405
1854	0.007793
1866	0.00880609
1878	0.00818265
1890	0.00600061
1902	0.00576682
1914	0.00568889
1926	0.0062344
1938	0.00529924
1950	0.00459787
1962	0.00514338
1974	0.00451994
1986	0.00397443
1998	0.00303927
2010	0.00366271
2022	0.00350685
2034	0.0031172
2046	0.00358478
2058	0.00288341
2070	0.00335099
2082	0.00296134
2094	0.00280548
2106	0.00280548
2118	0.00225997
2130	0.0023379
2142	0.00272755
2154	0.00225997
2166	0.00218204
2178	0.00218204
2190	0.00171446
2202	0.00218204
2214	0.00218204
2226	0.0015586
2238	0.00202618
2250	0.00148067
2262	0.00148067
2274	0.0015586
2286	0.00194825
2298	0.00296134
2310	0.00506545
2322	0.00794886
2334	0.00981918
2346	0.00974125
2358	0.0136377
2370	0.0107543
2382	0.0031172
2394	0.00116895
2406	0.00116895
2418	0.00124688
2430	0.00093516
2442	0.0007793
2454	0.00109102
2466	0.00062344
2478	0.00062344
2490	0.00062344
2502	0.00054551
2514	0.00101309
2526	0.00046758
2538	0.00093516
2550	0.0007793
2562	0.00085723
2574	0.00031172
2586	0.00085723
2598	0.0007793
2610	0.0007793
2622	0.00023379
2634	0.00031172
2646	0.00015586
2658	0.00015586
2670	0.00015586
2682	7.793e-05
2694	7.793e-05
2706	0.00062344
2718	0.00062344
2730	0.00046758
2742	0.00046758
2754	0.00046758
2766	7.793e-05
2778	0.00038965
2790	0.00054551
2802	0.00054551
2814	0.00109102
2826	0.00163653
2838	0.00171446
2850	0.00225997
2862	0.00280548
2874	0.0046758
2886	0.00826058
2898	0.00989711
2910	0.00841644
2922	0.00740335
2934	0.0112998
2946	0.0229114
2958	0.0338996
2970	0.0190149
2982	0.0136377
2994	0.0153522
3006	0.0129364
3018	0.011144
3030	0.0125467
3042	0.00826058
3054	0.00685784
3066	0.00748128
3078	0.017846
3090	0.0213528
3102	0.0190149
3114	0.00794886
3126	0.00303927
3138	0.00171446
3150	0.00187032
3162	0.00194825
3174	0.00194825
3186	0.00148067
3198	0.00163653
3210	0.00171446
3222	0.00124688
3234	0.00085723
3246	0.00132481
3258	0.00140274
3270	0.00140274
3282	0.00148067
3294	0.00101309
3306	0.00132481
3318	0.00163653
3330	0.00124688
3342	0.00140274
3354	0.0015586
3366	0.00163653
3378	0.00109102
3390	0.0015586
3402	0.00116895
3414	0.00109102
3426	0.00132481
3438	0.00132481
3450	0.00187032
3462	0.00335099
3474	0.00358478
3486	0.00257169
3498	0.0015586
3510	0.00148067
3522	0.00109102
3534	0.00132481
3546	0.00085723
3558	0.00101309
3570	0.00023379
3582	0.00101309
3594	0.00163653
3606	0.00116895
3618	0.00116895
3630	0.0007793
3642	0.00132481
3654	0.00101309
3666	0.0015586
3678	0.00163653
3690	0.00210411
3702	0.00366271
3714	0.00327306
3726	0.0046758
3738	0.0038965
3750	0.0038965
3762	0.00490959
3774	0.00615647
3786	0.00685784
3798	0.00639026
3810	0.00662405
3822	0.0062344
3834	0.00724749
3846	0.00716956
3858	0.00685784
3870	0.00787093
3882	0.00833851
3894	0.007793
3906	0.00755921
3918	0.00716956
3930	0.00670198
3942	0.00685784
3954	0.00038965
3966	0.00109102
