Infrared Spectrum: Butanoic acid, butyl ester
Formula: C 8 H 16 O 2
CAS: 109-21-7
Origin: Sadtler Research Labs Under US-EPA Contract
1/CM	ABSORBANCE
450	0.00152566
462	0.00284327
474	0.00388349
486	0.00492371
498	0.00575588
510	0.00617197
522	0.00124826
534	0.000416088
546	0.00145631
558	0.00325936
570	0.00381414
582	0.00742024
594	0.00832176
606	0.0086685
618	0.00859915
630	0.00651871
642	0.00783632
654	0.00603328
666	0.0036061
678	0.00554784
690	0.00638002
702	0.00755893
714	0.00908459
726	0.0110957
738	0.0153953
750	0.0160887
762	0.014355
774	0.0147711
786	0.0178224
798	0.0197642
810	0.0176837
822	0.0162274
834	0.0166435
846	0.0165048
858	0.0161581
870	0.0160887
882	0.017545
894	0.0185159
906	0.0190014
918	0.0203883
930	0.0205964
942	0.0261442
954	0.0497225
966	0.0551317
978	0.0515949
990	0.0445908
1002	0.0544382
1014	0.066366
1026	0.0559638
1038	0.0554091
1050	0.0720526
1062	0.0949374
1074	0.11914
1086	0.160541
1098	0.200069
1110	0.150763
1122	0.09785
1134	0.0846739
1146	0.114979
1158	0.2095
1170	0.500068
1182	0.674409
1194	0.408668
1206	0.265672
1218	0.175242
1230	0.171498
1242	0.207628
1254	0.250762
1266	0.211234
1278	0.146671
1290	0.133842
1302	0.141331
1314	0.0958389
1326	0.0651178
1338	0.0796809
1350	0.119833
1362	0.121151
1374	0.0824548
1386	0.0809291
1398	0.0716365
1410	0.0379334
1422	0.0391816
1434	0.0578362
1446	0.0662967
1458	0.0942439
1470	0.099445
1482	0.0581136
1494	0.0274618
1506	0.0170596
1518	0.0119972
1530	0.00894589
1542	0.00783632
1554	0.00748958
1566	0.00651871
1578	0.0067961
1590	0.00596393
1602	0.00644936
1614	0.00658806
1626	0.00658806
1638	0.0070735
1650	0.00769763
1662	0.00873785
1674	0.00998611
1686	0.0134535
1698	0.0212898
1710	0.0382801
1722	0.0680997
1734	0.154785
1746	0.458529
1758	0.658459
1770	0.277877
1782	0.0893896
1794	0.0425797
1806	0.0218446
1818	0.0124826
1830	0.00894589
1842	0.00735089
1854	0.00617197
1866	0.00547849
1878	0.00464632
1890	0.00450762
1902	0.00443827
1914	0.00450762
1926	0.00457697
1938	0.00464632
1950	0.00457697
1962	0.00499306
1974	0.00457697
1986	0.00471566
1998	0.00402218
2010	0.00450762
2022	0.00499306
2034	0.0050624
2046	0.00492371
2058	0.00492371
2070	0.00450762
2082	0.00388349
2094	0.00402218
2106	0.00339805
2118	0.0034674
2130	0.0034674
2142	0.00284327
2154	0.00298196
2166	0.00284327
2178	0.00284327
2190	0.00284327
2202	0.00228848
2214	0.00201109
2226	0.00194174
2238	0.0017337
2250	0.00221914
2262	0.00228848
2274	0.00242718
2286	0.00270457
2298	0.00201109
2310	0.00228848
2322	0.00256588
2334	0.00228848
2346	0.00270457
2358	0.00284327
2370	0.00180305
2382	0.00194174
2394	0.00208044
2406	0.00208044
2418	0.00201109
2430	0.001595
2442	0.001595
2454	0.00104022
2466	0.00104022
2478	0.00104022
2490	0.00104022
2502	0.000485436
2514	0.000485436
2526	0.000485436
2538	0.000485436
2550	0.000416088
2562	0.000970872
2574	0.00138696
2586	0.0018724
2598	0.00256588
2610	0.00194174
2622	0.00194174
2634	0.00194174
2646	0.00256588
2658	0.00249653
2670	0.00339805
2682	0.00388349
2694	0.00395284
2706	0.00416088
2718	0.00443827
2730	0.00540914
2742	0.00700415
2754	0.00846046
2766	0.00783632
2778	0.00783632
2790	0.00894589
2802	0.0110957
2814	0.0130374
2826	0.0176144
2838	0.0241331
2850	0.0400831
2862	0.0649791
2874	0.120666
2886	0.199306
2898	0.16172
2910	0.152011
2922	0.192163
2934	0.262829
2946	0.370318
2958	0.388279
2970	0.528085
2982	0.407766
2994	0.170388
3006	0.0705963
3018	0.0371012
3030	0.0257975
3042	0.0185853
3054	0.0130374
3066	0.0100555
3078	0.0086685
3090	0.00742024
3102	0.00658806
3114	0.00561719
3126	0.00513175
3138	0.00485436
3150	0.00429958
3162	0.00423023
3174	0.00423023
3186	0.00402218
3198	0.00284327
3210	0.00284327
3222	0.0017337
3234	0.00138696
3246	0.000832176
3258	0.000416088
3270	0.000416088
3282	0.00034674
3294	0.00034674
3306	0.00152566
3318	0.00034674
3330	0.000832176
3342	0.00034674
3354	0.000901524
3366	0.000832176
3378	0.00138696
3390	0.000901524
3402	0.000832176
3414	0.00124826
3426	0.000832176
3438	0.000416088
3450	0.00138696
3462	0.00152566
3474	0.00325936
3486	0.00617197
3498	0.00561719
3510	0.00228848
3522	0.00124826
3534	0
3546	0.000762828
3558	0.000832176
3570	0.00256588
3582	0.0018724
3594	0.00131761
3606	0.00034674
3618	0.000762828
3630	0.000762828
3642	0.000416088
3654	0.00034674
3666	0.00110957
3678	0.00104022
3690	0.00180305
3702	0.000970872
3714	0.00069348
3726	0.00131761
3738	0.000832176
3750	0.000624132
3762	0.00145631
3774	0.00104022
3786	0.00069348
3798	0.00145631
3810	0.00152566
3822	0.0018724
3834	0.00194174
3846	0.00145631
3858	0.00235783
3870	0.00180305
3882	0.00180305
3894	0.00263522
3906	0.00235783
3918	0.00249653
3930	0.00305131
3942	0.00263522
3954	0.00270457
3966	0.00298196
