Infrared Spectrum: Pyridine, 2-chloro-
Formula: C 5 H 4 Cl N
CAS: 109-09-1
Origin: Sadtler Research Labs Under US-EPA Contract
1/CM	ABSORBANCE
450	0.0413892
462	0.0286182
474	0.0637618
486	0.0627364
498	0.0389655
510	0.00904224
522	0.0184574
534	0.00960156
546	0.0388723
558	0.0181777
570	0.0194828
582	0.0156608
594	0.0249827
606	0.0461434
618	0.0328131
630	0.0330927
642	0.024703
654	0.0208811
666	0.0261013
678	0.0237708
690	0.0408299
702	0.0511772
714	0.103193
726	0.351715
738	0.491823
750	0.351156
762	0.680499
774	0.321885
786	0.125846
798	0.0316945
810	0.0282454
822	0.0241437
834	0.0213472
846	0.0207878
858	0.0189235
870	0.0206946
882	0.020415
894	0.0222793
906	0.02172
918	0.0192963
930	0.0246098
942	0.0312284
954	0.0388723
966	0.0401774
978	0.0552789
990	0.050245
1002	0.0543467
1014	0.0266606
1026	0.0413892
1038	0.112795
1050	0.10832
1062	0.0440926
1074	0.10571
1086	0.159964
1098	0.120812
1110	0.384249
1122	0.87253
1134	0.706227
1146	0.184946
1158	0.287487
1170	0.212073
1182	0.0228387
1194	0.0172455
1206	0.0140761
1218	0.0166862
1230	0.0192963
1242	0.0199489
1254	0.0192963
1266	0.0222793
1278	0.0583551
1290	0.0563975
1302	0.0180845
1314	0.0147286
1326	0.0137964
1338	0.018737
1350	0.0301097
1362	0.0332792
1374	0.0231183
1386	0.0291775
1398	0.0503383
1410	0.445494
1422	0.747337
1434	0.464883
1446	0.38891
1458	0.505154
1470	0.217946
1482	0.0644143
1494	0.018737
1506	0.0253556
1518	0.0316945
1530	0.0430672
1542	0.0960156
1554	0.194734
1566	0.544399
1578	0.929766
1590	0.435892
1602	0.0905156
1614	0.0309487
1626	0.0265674
1638	0.0299233
1650	0.025542
1662	0.0170591
1674	0.0194828
1686	0.0189235
1698	0.0219997
1710	0.0192031
1722	0.0205082
1734	0.0250759
1746	0.0231183
1758	0.0190167
1770	0.0167794
1782	0.0116524
1794	0.0138896
1806	0.0144489
1818	0.018737
1830	0.0245166
1842	0.027686
1854	0.0269403
1866	0.0219997
1878	0.0126778
1890	0.0162201
1902	0.0186438
1914	0.0191099
1926	0.020415
1938	0.0226522
1950	0.0233047
1962	0.0201353
1974	0.0178048
1986	0.0131439
1998	0.00960156
2010	0.00857615
2022	0.00913546
2034	0.00941512
2046	0.0093219
2058	0.0078304
2070	0.00811005
2082	0.00894902
2094	0.00960156
2106	0.00950834
2118	0.00969478
2130	0.0088558
2142	0.00894902
2154	0.00894902
2166	0.0088558
2178	0.00848293
2190	0.00904224
2202	0.00997443
2214	0.0116524
2226	0.0105337
2238	0.00699142
2250	0.00652533
2262	0.00764396
2274	0.00988121
2286	0.0109998
2298	0.0113727
2310	0.0116524
2322	0.0105337
2334	0.0088558
2346	0.00755074
2358	0.0054067
2370	0.0073643
2382	0.00708464
2394	0.00727108
2406	0.00773718
2418	0.00922868
2430	0.00857615
2442	0.00848293
2454	0.00829649
2466	0.0073643
2478	0.00652533
2490	0.00577958
2502	0.00652533
2514	0.00904224
2526	0.00904224
2538	0.00689821
2550	0.00671177
2562	0.00801683
2574	0.00829649
2586	0.00829649
2598	0.00708464
2610	0.00624567
2622	0.00568636
2634	0.00456773
2646	0.00484739
2658	0.00596602
2670	0.00577958
2682	0.00652533
2694	0.00671177
2706	0.00419485
2718	0.00270335
2730	0.00316945
2742	0.00233048
2754	0.00121185
2766	0.00177116
2778	0.00242369
2790	0.00419485
2802	0.00419485
2814	0.00372876
2826	0.0039152
2838	0.00428807
2850	0.00522026
2862	0.00512705
2874	0.00494061
2886	0.00531348
2898	0.00652533
2910	0.00661855
2922	0.00354232
2934	0.00307623
2946	0.00288979
2958	0.00438129
2970	0.00643211
2982	0.011932
2994	0.0223726
3006	0.0320673
3018	0.0291775
3030	0.0172455
3042	0.0336521
3054	0.108414
3066	0.147379
3078	0.177955
3090	0.136845
3102	0.0551856
3114	0.0186438
3126	0.0123049
3138	0.0125846
3150	0.0123049
3162	0.00652533
3174	0.00410164
3186	0.00288979
3198	0.00214404
3210	0.00205082
3222	0.00288979
3234	0.00186438
3246	0.00270335
3258	0.00335588
3270	0.00307623
3282	0.00354232
3294	0.0034491
3306	0.00484739
3318	0.00494061
3330	0.00438129
3342	0.00494061
3354	0.00475417
3366	0.00410164
3378	0.0034491
3390	0.00335588
3402	0.00382198
3414	0.00428807
3426	0.0019576
3438	0.00233048
3450	0.00214404
3462	0.00214404
3474	0.00233048
3486	0.0034491
3498	0.00288979
3510	0.00475417
3522	0.00484739
3534	0.00354232
3546	0.00456773
3558	0.00466095
3570	0.00568636
3582	0.00419485
3594	0.00503383
3606	0.00447451
3618	0.00372876
3630	0.0039152
3642	0.00233048
3654	0.00316945
3666	0.0019576
3678	0.00568636
3690	0.00279657
3702	0.00102541
3714	0.00233048
3726	0.00298301
3738	0.00139828
3750	0.00233048
3762	0.00205082
3774	0.00400842
3786	0.00438129
3798	0.00577958
3810	0.00792362
3822	0.00755074
3834	0.00680499
3846	0.00615245
3858	0.00233048
3870	0.00475417
3882	0.00671177
3894	0.00512705
3906	0.00130507
3918	0.00428807
3930	0.00661855
3942	0.00549992
3954	0.00475417
3966	0.0058728
