Infrared Spectrum: Pyridine, 2-bromo-
Formula: C 5 H 4 Br N
CAS: 109-04-6
Origin: Sadtler Research Labs Under US-EPA Contract
1/CM	ABSORBANCE
450	0.0189907
462	0.0263938
474	0.0146454
486	0.00619611
498	0.00458673
510	0.0023336
522	0.0057133
534	0.00329923
546	0.00402345
558	8.0469e-05
570	0.00748362
582	0.00683987
594	0.0178641
606	0.026072
618	0.0226923
630	0.011668
642	0.00152891
654	0.0140821
666	0.0127946
678	0.0197954
690	0.0441775
702	0.237544
714	0.135188
726	0.0376595
738	0.129716
750	0.250983
762	0.244062
774	0.136154
786	0.0279227
798	0.0046672
810	0.00627658
822	0.00523048
834	0.00716174
846	0.00523048
858	0.00273595
870	0.00740315
882	0.00523048
894	0.00764456
906	0.00780549
918	0.00788596
930	0.0117485
942	0.0106219
954	0.00788596
966	0.0127141
978	0.0394298
990	0.0391884
1002	0.0305782
1014	0.0234165
1026	0.0548799
1038	0.0922175
1050	0.0624439
1062	0.0251868
1074	0.198758
1086	0.231107
1098	0.20415
1110	0.719634
1122	0.21268
1134	0.038947
1146	0.0411197
1158	0.0200368
1170	0.00498908
1182	0.00217266
1194	0.00346017
1206	0.00297735
1218	0.00844925
1230	0.0143235
1242	0.0115071
1254	0.00305782
1266	0.0129555
1278	0.031061
1290	0.0174618
1302	0.0044258
1314	0.00249454
1326	0.00539142
1338	0.0143235
1350	0.0167376
1362	0.00788596
1374	0.00844925
1386	0.0136797
1398	0.0510978
1410	0.405644
1422	0.535682
1434	0.131406
1446	0.28486
1458	0.393654
1470	0.0987355
1482	0.00893206
1494	0.00852971
1506	0.00869065
1518	0.0093344
1530	0.0127946
1542	0.0451431
1554	0.204552
1566	0.749891
1578	0.401862
1590	0.0627658
1602	0.0206805
1614	0.0115875
1626	0.0125532
1638	0.0126336
1650	0.00788596
1662	0.00394298
1674	0.00498908
1686	0.00732268
1698	0.00764456
1710	0.00603518
1722	0.00619611
1734	0.00772502
1746	0.00852971
1758	0.00780549
1770	0.00249454
1782	0.00297735
1794	0.00289688
1806	0.0046672
1818	0.00901253
1830	0.00885159
1842	0.00973675
1854	0.0102196
1866	0.00869065
1878	0.00217266
1890	0.00394298
1902	0.00692033
1914	0.00877112
1926	0.00740315
1938	0.00917347
1950	0.0102196
1962	0.00885159
1974	0.00869065
1986	0.00362111
1998	0.00209219
2010	0.000402345
2022	0.00241407
2034	0.00241407
2046	0.00120703
2058	0.00225313
2070	0.00080469
2082	0.00144844
2094	0.00249454
2106	0.00313829
2118	0.00225313
2130	0.00257501
2142	0.000724221
2154	0.00144844
2166	0.00281642
2178	0.00329923
2190	0.0057133
2202	0.00474767
2214	0.00643752
2226	0.00313829
2238	0.00193126
2250	0.00193126
2262	0.00281642
2274	0.00506955
2286	0.00450626
2298	0.00651799
2310	0.00515002
2322	0.00474767
2334	0.00354064
2346	0.00515002
2358	0.00241407
2370	0.00643752
2382	0.0033797
2394	0.000885159
2406	0.0033797
2418	0.00265548
2430	0.00579377
2442	0.00611564
2454	0.00402345
2466	0.00305782
2478	0.00249454
2490	0.00329923
2502	0.00418439
2514	0.00780549
2526	0.00378204
2538	0.00297735
2550	0.00386251
2562	0.00490861
2574	0.00378204
2586	0.00289688
2598	0.0033797
2610	0.00168985
2622	0.00257501
2634	0.00217266
2646	0.00418439
2658	0.00305782
2670	0.00563283
2682	0.0046672
2694	0.00217266
2706	0.00120703
2718	0.0010461
2730	0.00297735
2742	0.0010461
2754	0.0023336
2766	0.000885159
2778	0.00112657
2790	0.00354064
2802	0.00321876
2814	0.00281642
2826	0.00080469
2838	0.00249454
2850	0.0012875
2862	0.00273595
2874	0.00257501
2886	0.00410392
2898	0.00482814
2910	0.00209219
2922	0.00281642
2934	0.00160938
2946	0.00305782
2958	0.00225313
2970	0.00523048
2982	0.00877112
2994	0.0170594
3006	0.0177836
3018	0.00683987
3030	0.0080469
3042	0.0235774
3054	0.0813542
3066	0.115393
3078	0.11668
3090	0.0664674
3102	0.0308196
3114	0.0114266
3126	0.0106219
3138	0.0133579
3150	0.0067594
3162	0.0033797
3174	0.00209219
3186	0.00354064
3198	0.00144844
3210	0.00209219
3222	0.00120703
3234	0.00120703
3246	0.00313829
3258	0.00177032
3270	0.0033797
3282	0.00168985
3294	0.00265548
3306	0.000885159
3318	0.00225313
3330	0.00321876
3342	0.00249454
3354	0.00370157
3366	0.00136797
3378	0.00265548
3390	0.00201173
3402	0.00313829
3414	0.00201173
3426	0.00321876
3438	0.00289688
3450	0.0023336
3462	0.00394298
3474	0.000563283
3486	0.00370157
3498	0.00281642
3510	0.0033797
3522	0.00273595
3534	0.00273595
3546	0.00201173
3558	0.00297735
3570	0.00547189
3582	0.00249454
3594	0.00426486
3606	0.00136797
3618	0.00362111
3630	0.00531095
3642	0.00378204
3654	0.00305782
3666	0.0023336
3678	0.00531095
3690	0.00370157
3702	0.00490861
3714	0.00297735
3726	0.00209219
3738	0.00402345
3750	0.00378204
3762	0.00418439
3774	0.00346017
3786	0.00434533
3798	0.0023336
3810	0.00498908
3822	0.00177032
3834	0.00217266
3846	0.00193126
3858	0.00193126
3870	0.00426486
3882	0.00225313
3894	0.00160938
3906	0.000241407
3918	0.00265548
3930	0.00112657
3942	0.0033797
3954	0.000160938
3966	0.000482814
