Infrared Spectrum: Ethanol, 2-[(1-methylethyl)amino]-
Formula: C 5 H 13 N O
CAS: 109-56-8
Origin: Sadtler Research Labs Under US-EPA Contract
1/CM	ABSORBANCE
450	0
462	0.0239825
474	0.0210896
486	0.0240758
498	0.01913
510	0.0223961
522	0.0347139
534	0.0371402
546	0.0345273
558	0.0271552
570	0.0263154
582	0.0239825
594	0.0221161
606	0.0195966
618	0.0201565
630	0.0251023
642	0.0243557
654	0.0279951
666	0.0421793
678	0.0562702
690	0.0816524
702	0.105821
714	0.121405
726	0.118139
738	0.096863
750	0.0772665
762	0.0554303
774	0.0349939
786	0.0324743
798	0.0231426
810	0.0237958
822	0.0315411
834	0.0368602
846	0.0377934
858	0.0539372
870	0.0804393
882	0.0889311
894	0.0735338
906	0.0621491
918	0.0503912
930	0.0502045
942	0.0472184
954	0.0681214
966	0.0763333
978	0.0651353
990	0.0631756
1002	0.0732538
1014	0.0921972
1026	0.138669
1038	0.256808
1050	0.4189
1062	0.492807
1074	0.368416
1086	0.263994
1098	0.275192
1110	0.187847
1122	0.165824
1134	0.163865
1146	0.153413
1158	0.210896
1170	0.294229
1182	0.289656
1194	0.157332
1206	0.137549
1218	0.155186
1230	0.142402
1242	0.129244
1254	0.134563
1266	0.104795
1278	0.100969
1290	0.0937836
1302	0.126165
1314	0.144548
1326	0.210803
1338	0.241411
1350	0.201098
1362	0.203058
1374	0.261381
1386	0.3058
1398	0.253916
1410	0.197832
1422	0.142028
1434	0.139602
1446	0.167411
1458	0.219015
1470	0.247103
1482	0.183181
1494	0.0976096
1506	0.0530974
1518	0.0391931
1530	0.0334075
1542	0.0335941
1554	0.0356471
1566	0.0300481
1578	0.0399397
1590	0.0427392
1602	0.0363936
1614	0.049738
1626	0.0427392
1638	0.0460053
1650	0.0336874
1662	0.0317278
1674	0.0349006
1686	0.0653219
1698	0.0690546
1710	0.0450721
1722	0.0322877
1734	0.0231426
1746	0.015024
1758	0.0262221
1770	0.0291149
1782	0.0315411
1794	0.0296748
1806	0.028835
1818	0.025009
1830	0.022956
1842	0.024729
1854	0.0217429
1866	0.0223961
1878	0.0215562
1890	0.0219295
1902	0.0217429
1914	0.0221161
1926	0.0218362
1938	0.022676
1950	0.0214629
1962	0.0205297
1974	0.0201565
1986	0.0195966
1998	0.0192233
2010	0.0181968
2022	0.0190367
2034	0.0186634
2046	0.0192233
2058	0.0181035
2070	0.01885
2082	0.0185701
2094	0.0184768
2106	0.0183834
2118	0.0189434
2130	0.0189434
2142	0.0181968
2154	0.0171703
2166	0.0169837
2178	0.0167971
2190	0.0163305
2202	0.0166104
2214	0.0163305
2226	0.0156773
2238	0.0161438
2250	0.0166104
2262	0.0164238
2274	0.0161438
2286	0.0167037
2298	0.0179169
2310	0.0190367
2322	0.0177302
2334	0.0160505
2346	0.0167971
2358	0.0159572
2370	0.0156773
2382	0.0177302
2394	0.017077
2406	0.0168904
2418	0.017077
2430	0.0172636
2442	0.017357
2454	0.0171703
2466	0.0178235
2478	0.0181035
2490	0.0182901
2502	0.0189434
2514	0.0190367
2526	0.0184768
2538	0.01913
2550	0.0197832
2562	0.0208097
2574	0.0222094
2586	0.024729
2598	0.0294882
2610	0.0357404
2622	0.0407795
2634	0.0390065
2646	0.0364869
2658	0.0377934
2670	0.0398464
2682	0.0418993
2694	0.0449788
2706	0.049458
2718	0.0530974
2730	0.0560835
2742	0.0577632
2754	0.0614026
2766	0.0743736
2778	0.0980762
2790	0.127004
2802	0.155186
2814	0.194193
2826	0.251863
2838	0.311399
2850	0.357684
2862	0.368882
2874	0.373641
2886	0.389412
2898	0.375228
2910	0.388012
2922	0.438497
2934	0.526961
2946	0.581272
2958	0.66647
2970	0.93317
2982	0.734405
2994	0.275005
3006	0.0901442
3018	0.049458
3030	0.0365803
3042	0.030608
3054	0.0273419
3066	0.0253822
3078	0.0244491
3090	0.0220228
3102	0.0208097
3114	0.0195033
3126	0.0183834
3138	0.0187567
3150	0.0179169
3162	0.01885
3174	0.0192233
3186	0.0203431
3198	0.0196899
3210	0.0197832
3222	0.0195033
3234	0.0196899
3246	0.01885
3258	0.0176369
3270	0.0171703
3282	0.0171703
3294	0.017077
3306	0.0163305
3318	0.0155839
3330	0.0157706
3342	0.0194099
3354	0.0197832
3366	0.0190367
3378	0.0190367
3390	0.0187567
3402	0.0182901
3414	0.017077
3426	0.0172636
3438	0.0159572
3450	0.01885
3462	0.022676
3474	0.0237025
3486	0.0224894
3498	0.0194099
3510	0.0208097
3522	0.0265953
3534	0.0372335
3546	0.0584164
3558	0.07624
3570	0.0798794
3582	0.0537506
3594	0.0319144
3606	0.0222094
3618	0.0220228
3630	0.0275285
3642	0.0293949
3654	0.0416194
3666	0.0542172
3678	0.0483382
3690	0.0360204
3702	0.0149307
3714	0.0144641
3726	0.0144641
3738	0.0144641
3750	0.0144641
3762	0.0144641
3774	0.0144641
3786	0.0144641
3798	0.0144641
3810	0.0144641
3822	0.0144641
3834	0.0144641
3846	0.0144641
3858	0.0144641
3870	0.0144641
3882	0.0144641
3894	0.0144641
3906	0.0144641
3918	0.0144641
3930	0.0144641
3942	0.0144641
3954	0.0144641
3966	0.0144641
