Infrared Spectrum: Pyridine, 2-methyl-
Formula: C 6 H 7 N
CAS: 109-06-8
Origin: Sadtler Research Labs Under US-EPA Contract
1/CM	ABSORBANCE
450	0.0601227
462	0.0245237
474	0.0614082
486	0.0191839
498	0.0111741
510	0.00969083
522	0.00336212
534	0.0502341
546	0.0580461
558	0.0388622
570	0.0144374
582	0.0106797
594	0.0201727
606	0.0238315
618	0.0456853
630	0.0351045
642	0.0334235
654	0.0063287
666	0.00761422
678	0.0085042
690	0.0122619
702	0.0357967
714	0.0784166
726	0.284297
738	0.439548
750	0.98886
762	0.446668
774	0.182445
786	0.0369834
798	0.0160195
810	0.0180961
822	0.0129541
834	0.00840531
846	0.00870197
858	0.00870197
870	0.00870197
882	0.00929528
894	0.00781199
906	0.0131518
918	0.0195794
930	0.0205683
942	0.0213594
954	0.0333246
966	0.0525085
978	0.061606
990	0.0712968
1002	0.059826
1014	0.0421254
1026	0.0423232
1038	0.115796
1050	0.124695
1062	0.111543
1074	0.0478608
1086	0.0350056
1098	0.0302591
1110	0.0274903
1122	0.0185906
1134	0.0688247
1146	0.087613
1158	0.0966116
1170	0.0194805
1182	0.010383
1194	0.00969083
1206	0.0128552
1218	0.0351045
1230	0.071099
1242	0.0887996
1254	0.0603205
1266	0.0203705
1278	0.0440043
1290	0.105017
1302	0.0924584
1314	0.0406421
1326	0.0185906
1338	0.0232382
1350	0.0319402
1362	0.0410377
1374	0.0688247
1386	0.0847453
1398	0.0595294
1410	0.0827676
1422	0.276386
1434	0.396335
1446	0.425111
1458	0.333444
1470	0.579769
1482	0.520041
1494	0.278562
1506	0.100963
1518	0.0847453
1530	0.0908762
1542	0.106896
1554	0.166821
1566	0.307437
1578	0.558508
1590	0.860209
1602	0.692103
1614	0.373492
1626	0.0663525
1638	0.0326324
1650	0.0153273
1662	0.00830642
1674	0.00889974
1686	0.0110752
1698	0.013053
1710	0.0126574
1722	0.00692202
1734	0.00899863
1746	0.0157229
1758	0.0151296
1770	0.0159206
1782	0.0108775
1794	0.0102841
1806	0.00959194
1818	0.0119652
1830	0.0125585
1842	0.0176017
1854	0.0238315
1866	0.019085
1878	0.00998749
1890	0.0107786
1902	0.018195
1914	0.0233371
1926	0.0275892
1938	0.0272925
1950	0.0275892
1962	0.0232382
1974	0.0176017
1986	0.00820754
1998	0.00237326
2010	0.00237326
2022	0.00336212
2034	0.00543873
2046	0.00603205
2058	0.00365878
2070	0.00217549
2082	0.00237326
2094	0.00247215
2106	0.00237326
2118	0.00128552
2130	0.000791088
2142	0.0013844
2154	0.00217549
2166	0.00336212
2178	0.00652648
2190	0.0107786
2202	0.0106797
2214	0.00791088
2226	0.00514207
2238	0.00553762
2250	0.00415321
2262	0.00365878
2274	0.0042521
2286	0.00751534
2298	0.00622982
2310	0.00306547
2322	9.8886e-05
2334	0.00108775
2346	0.00177995
2358	0.00177995
2370	0.00365878
2382	0.00583427
2394	0.0063287
2406	0.00524096
2418	0.00504319
2430	0.00533984
2442	0.00514207
2454	0.00454876
2466	0.00415321
2478	0.0049443
2490	0.00435098
2502	0.00217549
2514	0.00286769
2526	0.00385655
2538	0.00296658
2550	0.00168106
2562	0.0013844
2574	0.00237326
2586	0.0035599
2598	0.00533984
2610	0.00959194
2622	0.0110752
2634	0.00603205
2646	0.00177995
2658	0.00197772
2670	0.00257104
2682	0.00306547
2694	0.00336212
2706	0.00346101
2718	0.0042521
2730	0.00662536
2742	0.00820754
2754	0.00791088
2766	0.00346101
2778	0.00316435
2790	0.00524096
2802	0.00810865
2814	0.0114708
2826	0.0150307
2838	0.0212605
2850	0.0361923
2862	0.0602216
2874	0.0790099
2886	0.0807899
2898	0.0797021
2910	0.105116
2922	0.181456
2934	0.261356
2946	0.245929
2958	0.152779
2970	0.125783
2982	0.12964
2994	0.14734
3006	0.255324
3018	0.367658
3030	0.398609
3042	0.260268
3054	0.269464
3066	0.380414
3078	0.511438
3090	0.399203
3102	0.198563
3114	0.0547828
3126	0.024326
3138	0.0217549
3150	0.0201727
3162	0.0116685
3174	0.00672425
3186	0.0049443
3198	0.00286769
3210	0.00217549
3222	0.00098886
3234	0.00168106
3246	0.00197772
3258	0.0013844
3270	0.00227438
3282	0.00177995
3294	0.00177995
3306	0.00177995
3318	0.0013844
3330	0.00098886
3342	0.00148329
3354	0.00108775
3366	0.00217549
3378	0.00197772
3390	0.00276881
3402	0.00237326
3414	0.0013844
3426	0.00168106
3438	0.0013844
3450	0.00207661
3462	0.0013844
3474	0.000593316
3486	0.000197772
3498	0.000395544
3510	0.00177995
3522	0.00148329
3534	0.00227438
3546	0.00187883
3558	0.00187883
3570	0.00207661
3582	0.00237326
3594	0.00385655
3606	0.00257104
3618	0.00435098
3630	0.00573539
3642	0.00415321
3654	0.00316435
3666	0.00207661
3678	0.00731756
3690	0.00286769
3702	0.00395544
3714	0.00444987
3726	0.00227438
3738	0.000889974
3750	0.00306547
3762	0.00237326
3774	0.00227438
3786	0.0013844
3798	0.000889974
3810	0.00346101
3822	0.0063287
3834	0.00395544
3846	0.00504319
3858	0.0063287
3870	0.00652648
3882	0.00761422
3894	0.00405433
3906	0.00464764
3918	0.00336212
3930	0.00128552
3942	0.00276881
3954	0.00276881
3966	0.00316435
