Infrared Spectrum: 10-Undecenoic acid, butyl ester
Formula: C 15 H 28 O 2
CAS: 109-42-2
Origin: Sadtler Research Labs Under US-EPA Contract
1/CM	ABSORBANCE
450	0
462	0.0385662
474	0.033029
486	0.0621722
498	0.0363319
510	0.032349
522	0.0415776
534	0.035069
546	0.0356518
558	0.0404119
570	0.0372062
582	0.0362347
594	0.0413833
606	0.0420634
618	0.0484749
630	0.0552749
642	0.0433262
654	0.0402176
666	0.0361376
678	0.034389
690	0.0380804
702	0.0397319
714	0.0450748
726	0.0508063
738	0.0504177
750	0.046532
762	0.0442005
774	0.0419662
786	0.0416748
798	0.0418691
810	0.0420634
822	0.0442005
834	0.049932
846	0.0490577
858	0.0515835
870	0.0551778
882	0.0596464
894	0.0730523
906	0.114727
918	0.139207
930	0.086361
942	0.0802409
954	0.0880125
966	0.0943268
978	0.095104
990	0.110258
1002	0.114921
1014	0.121139
1026	0.121916
1038	0.10171
1050	0.097144
1062	0.130367
1074	0.146979
1086	0.14183
1098	0.153585
1110	0.168836
1122	0.185545
1134	0.222751
1146	0.316689
1158	0.40305
1170	0.433359
1182	0.387119
1194	0.313484
1206	0.271032
1218	0.267243
1230	0.286672
1242	0.291335
1254	0.250146
1266	0.203905
1278	0.170293
1290	0.147173
1302	0.143676
1314	0.134544
1326	0.12279
1338	0.130756
1350	0.153779
1362	0.136682
1374	0.102001
1386	0.0990869
1398	0.0832524
1410	0.0668351
1422	0.0771323
1434	0.097824
1446	0.122693
1458	0.15271
1470	0.134059
1482	0.076938
1494	0.0494463
1506	0.0400233
1518	0.0352633
1530	0.0332232
1542	0.0347776
1554	0.0326404
1566	0.0314747
1578	0.0334175
1590	0.0322518
1602	0.033029
1614	0.0372062
1626	0.0449777
1638	0.0692637
1650	0.0587721
1662	0.0393433
1674	0.0370119
1686	0.0414805
1698	0.0510006
1710	0.0723723
1722	0.106567
1734	0.198271
1746	0.509423
1758	0.601224
1770	0.229357
1782	0.12075
1794	0.0738294
1806	0.0511949
1818	0.0442977
1830	0.0430348
1842	0.0348747
1854	0.033029
1866	0.0297261
1878	0.0288518
1890	0.0290461
1902	0.0288518
1914	0.027686
1926	0.0287546
1938	0.0282689
1950	0.0282689
1962	0.0294346
1974	0.0287546
1986	0.0286575
1998	0.028366
2010	0.028366
2022	0.0297261
2034	0.0309889
2046	0.0307946
2058	0.0313775
2070	0.0335147
2082	0.0310861
2094	0.0281718
2106	0.0272003
2118	0.0261317
2130	0.0272003
2142	0.0267146
2154	0.0261317
2166	0.0259374
2178	0.0252574
2190	0.0250632
2202	0.0253546
2214	0.0250632
2226	0.0252574
2238	0.025646
2250	0.0262289
2262	0.0267146
2274	0.0269089
2286	0.028366
2298	0.0312804
2310	0.0332232
2322	0.0305032
2334	0.0284632
2346	0.0304061
2358	0.0274918
2370	0.0325432
2382	0.0322518
2394	0.0272003
2406	0.0273946
2418	0.0272003
2430	0.0272975
2442	0.027686
2454	0.0278803
2466	0.0278803
2478	0.0288518
2490	0.0285603
2502	0.0299204
2514	0.0303089
2526	0.0295318
2538	0.0296289
2550	0.0301146
2562	0.0303089
2574	0.0317661
2586	0.0324461
2598	0.0306004
2610	0.0301146
2622	0.0293375
2634	0.0312804
2646	0.0325432
2658	0.0322518
2670	0.0369147
2682	0.0408005
2694	0.0395376
2706	0.0385662
2718	0.0374976
2730	0.0363319
2742	0.0378862
2754	0.0397319
2766	0.039829
2778	0.0411891
2790	0.0446862
2802	0.0493492
2814	0.0567321
2826	0.070138
2838	0.0945211
2850	0.167379
2862	0.340878
2874	0.32893
2886	0.264523
2898	0.257917
2910	0.368176
2922	0.597727
2934	0.954828
2946	0.783175
2958	0.509909
2970	0.481543
2982	0.313095
2994	0.176511
3006	0.126481
3018	0.0904411
3030	0.0705265
3042	0.0611036
3054	0.0578978
3066	0.0644065
3078	0.0794638
3090	0.0977269
3102	0.0529435
3114	0.0419662
3126	0.0373033
3138	0.0345833
3150	0.0311832
3162	0.0312804
3174	0.0301146
3186	0.0291432
3198	0.0291432
3210	0.0285603
3222	0.0254517
3234	0.027006
3246	0.0279775
3258	0.0272975
3270	0.0284632
3282	0.0295318
3294	0.0280746
3306	0.0296289
3318	0.0297261
3330	0.0306975
3342	0.0310861
3354	0.0297261
3366	0.0305032
3378	0.0296289
3390	0.0312804
3402	0.0311832
3414	0.0306975
3426	0.0286575
3438	0.0313775
3450	0.0307946
3462	0.0316689
3474	0.0310861
3486	0.0328347
3498	0.0319604
3510	0.0289489
3522	0.0277832
3534	0.0274918
3546	0.0275889
3558	0.0289489
3570	0.0326404
3582	0.0345833
3594	0.0272975
3606	0.0255489
3618	0.0280746
3630	0.0274918
3642	0.0269089
3654	0.0273946
3666	0.0258403
3678	0.0280746
3690	0.026326
3702	0.0248689
3714	0.0282689
3726	0.0244803
3738	0.0288518
3750	0.025646
3762	0.0272003
3774	0.0289489
3786	0.0266175
3798	0.0275889
3810	0.0267146
3822	0.0340004
3834	0.0288518
3846	0.0292403
3858	0.0332232
3870	0.0306004
3882	0.0288518
3894	0.0275889
3906	0.0271032
3918	0.0266175
3930	0.0309889
3942	0.0269089
3954	0.0335147
3966	0.0302118
