Infrared Spectrum: Decanedioic acid, dibutyl ester
Formula: C 18 H 34 O 4
CAS: 109-43-3
Origin: Sadtler Research Labs Under US-EPA Contract
1/CM	ABSORBANCE
450	0.00472603
462	0.00472603
474	0.00724249
486	0.0031916
498	0.00564668
510	0.00282334
522	0.00583082
534	0.0108637
546	0.000552393
558	0.00392813
570	0.00184131
582	0.00141167
594	0.0111092
606	0.00638321
618	0.00902242
630	0.00859278
642	0.00675147
654	0.00681285
666	0.00448052
678	0.00632183
690	0.00724249
702	0.0101272
714	0.0133188
726	0.0154056
738	0.0157125
750	0.0173083
762	0.0147305
774	0.0130733
786	0.0155284
798	0.0138712
810	0.0151601
822	0.0160808
834	0.0190882
846	0.0171242
858	0.0167559
870	0.0175538
882	0.0184745
894	0.0195793
906	0.0188427
918	0.0196406
930	0.0228322
942	0.0313636
954	0.0438232
966	0.0474444
978	0.0430867
990	0.0419819
1002	0.0547483
1014	0.0745117
1026	0.0817542
1038	0.0632797
1050	0.0578171
1062	0.0887511
1074	0.101518
1086	0.109803
1098	0.115634
1110	0.109312
1122	0.139203
1134	0.197941
1146	0.271348
1158	0.345
1170	0.386552
1182	0.309524
1194	0.258274
1206	0.226051
1218	0.223658
1230	0.24158
1242	0.244956
1254	0.203833
1266	0.159887
1278	0.128892
1290	0.107226
1302	0.101947
1314	0.0948275
1326	0.0845161
1338	0.0915131
1350	0.106919
1362	0.0920655
1374	0.0629728
1386	0.0635866
1398	0.0479968
1410	0.0316092
1422	0.03744
1434	0.0547483
1446	0.0631569
1458	0.0850071
1470	0.0771509
1482	0.0392813
1494	0.0195179
1506	0.0123368
1518	0.00914517
1530	0.00822452
1542	0.0061377
1554	0.00754937
1566	0.00662872
1578	0.00632183
1590	0.00638321
1602	0.00619908
1614	0.00626045
1626	0.00558531
1638	0.00552393
1650	0.0061377
1662	0.00791763
1674	0.0100658
1686	0.0145463
1698	0.0231391
1710	0.0444983
1722	0.0776419
1734	0.167559
1746	0.466649
1758	0.525203
1770	0.173636
1782	0.0684967
1794	0.0329594
1806	0.0191496
1818	0.012705
1830	0.00859278
1842	0.00687422
1854	0.00558531
1866	0.00484878
1878	0.00460328
1890	0.00386675
1902	0.00392813
1914	0.00448052
1926	0.00349849
1938	0.00423501
1950	0.0045419
1962	0.0039895
1974	0.00405088
1986	0.00448052
1998	0.00423501
2010	0.00448052
2022	0.00448052
2034	0.00497154
2046	0.00540118
2058	0.00503291
2070	0.00448052
2082	0.00349849
2094	0.00300747
2106	0.00300747
2118	0.00251646
2130	0.00251646
2142	0.00263921
2154	0.00177993
2166	0.00257783
2178	0.00251646
2190	0.00202544
2202	0.00165718
2214	0.00171856
2226	0.00202544
2238	0.00190269
2250	0.00147305
2262	0.00135029
2274	0.00122754
2286	0.00276197
2298	0.00251646
2310	0.00306885
2322	0.00368262
2334	0.0029461
2346	0.00177993
2358	0.00263921
2370	6.1377e-05
2382	0.00135029
2394	0.00141167
2406	0.00147305
2418	0.00147305
2430	0.00147305
2442	0.00110479
2454	0.00141167
2466	0.000982032
2478	0.000552393
2490	0.000429639
2502	0
2514	0.000552393
2526	0.000859278
2538	0
2550	0.000184131
2562	6.1377e-05
2574	0.000675147
2586	0.000736524
2598	0.00147305
2610	0.00110479
2622	0.000675147
2634	0.00061377
2646	0.00110479
2658	0.00171856
2670	0.0021482
2682	0.00325298
2694	0.00472603
2706	0.00411226
2718	0.00472603
2730	0.00527842
2742	0.00724249
2754	0.0077335
2766	0.0077335
2778	0.00779488
2790	0.00982032
2802	0.0127664
2814	0.0157739
2826	0.0212978
2838	0.031916
2850	0.0611929
2862	0.142456
2874	0.165043
2886	0.148164
2898	0.133188
2910	0.176397
2922	0.277117
2934	0.415093
2946	0.438293
2958	0.345184
2970	0.3566
2982	0.2077
2994	0.0912062
3006	0.043639
3018	0.0265762
3030	0.0185972
3042	0.0133802
3054	0.00926793
3066	0.00681285
3078	0.00540118
3090	0.00491016
3102	0.00435777
3114	0.00343711
3126	0.00343711
3138	0.00282334
3150	0.00386675
3162	0.00405088
3174	0.00300747
3186	0.00331436
3198	0.00411226
3210	0.00355987
3222	0.00362124
3234	0.00435777
3246	0.00423501
3258	0.00380537
3270	0.00380537
3282	0.00282334
3294	0.00245508
3306	0.0021482
3318	0.00147305
3330	0.0023937
3342	0.00104341
3354	0.00184131
3366	0.000736524
3378	0.00190269
3390	0.00147305
3402	0.00251646
3414	0.0023937
3426	0.00196406
3438	0.00202544
3450	0.0023937
3462	0.00306885
3474	0.00300747
3486	0.00546255
3498	0.00503291
3510	0.00208682
3522	0.00177993
3534	0.00116616
3546	0.000797901
3558	0.000736524
3570	0.000736524
3582	0.00141167
3594	0.00190269
3606	0.00227095
3618	0.00300747
3630	0.00355987
3642	0.00153443
3654	0.0023937
3666	0.00349849
3678	0.0015958
3690	0.00276197
3702	0.00306885
3714	0.00306885
3726	0.00380537
3738	0.00362124
3750	0.00171856
3762	0.00270059
3774	0.00245508
3786	0.00337574
3798	0.00288472
3810	0.00276197
3822	0.00202544
3834	0.00208682
3846	0.00227095
3858	0.00368262
3870	0.00128892
3882	0.00270059
3894	0.00331436
3906	0.00313023
3918	0.00386675
3930	0.00423501
3942	0.00331436
3954	0.00417364
3966	0.00411226
