Infrared Spectrum: 2-Butoxyethyl stearate
Formula: C 24 H 48 O 3
CAS: 109-38-6
Origin: Sadtler Research Labs Under US-EPA Contract
1/CM	ABSORBANCE
450	0.00429608
462	0.00448286
474	0.00547906
486	0.00155655
498	0.00460739
510	0.00734692
522	0.00448286
534	0.00635072
546	0.00653751
558	0.00554132
570	0.00211691
582	0.00529227
594	0.00292631
606	0.00404703
618	0.00485644
630	0.00267727
642	0.00454513
654	0.00460739
666	0.00510548
678	0.0049187
690	0.00579037
702	0.00909025
714	0.0127637
726	0.012826
738	0.00958835
750	0.0098374
762	0.0088412
774	0.00796954
786	0.00821858
798	0.00834311
810	0.00821858
822	0.00921478
834	0.0107713
846	0.013075
858	0.0119543
870	0.0119543
882	0.0117675
894	0.0138844
906	0.0139467
918	0.0141957
930	0.0145693
942	0.0170598
954	0.0186163
966	0.022103
978	0.0234105
990	0.0239086
1002	0.0255274
1014	0.0314423
1026	0.0376685
1038	0.0399722
1050	0.0448909
1062	0.0463852
1074	0.0504322
1086	0.0643166
1098	0.0920232
1110	0.127077
1122	0.160947
1134	0.182179
1146	0.146876
1158	0.127513
1170	0.126641
1182	0.10653
1194	0.0859838
1206	0.0770804
1218	0.0780765
1230	0.0841782
1242	0.0878517
1254	0.0803802
1266	0.0643166
1278	0.055849
1290	0.0518642
1302	0.0461361
1314	0.0397232
1326	0.0336215
1338	0.0412174
1350	0.05037
1362	0.0480663
1374	0.0438324
1386	0.0455758
1398	0.0233482
1410	0.0179315
1422	0.0191144
1434	0.0316914
1446	0.0469455
1458	0.0664958
1470	0.0552887
1482	0.0242199
1494	0.0118298
1506	0.00697334
1518	0.00523001
1530	0.00479417
1542	0.00280179
1554	0.00342441
1566	0.00323762
1578	0.00161881
1590	0.00342441
1602	0.00273953
1614	0.00286405
1626	0.00267727
1638	0.00236596
1650	0.00323762
1662	0.00336215
1674	0.00466965
1686	0.00466965
1698	0.00971287
1710	0.0162504
1722	0.0276443
1734	0.0603941
1746	0.146876
1758	0.194631
1770	0.0714145
1782	0.0295744
1794	0.0139467
1806	0.00946382
1818	0.00728465
1830	0.0057281
1842	0.00485644
1854	0.00435834
1866	0.00423382
1878	0.00429608
1890	0.00373572
1902	0.00317536
1914	0.00410929
1926	0.00398477
1938	0.00398477
1950	0.00417155
1962	0.0044206
1974	0.00454513
1986	0.00448286
1998	0.00404703
2010	0.00398477
2022	0.0031131
2034	0.00348667
2046	0.00329989
2058	0.002615
2070	0.00298858
2082	0.00367346
2094	0.0036112
2106	0.00367346
2118	0.00323762
2130	0.00317536
2142	0.00329989
2154	0.00317536
2166	0.00267727
2178	0.00323762
2190	0.00323762
2202	0.00286405
2214	0.00286405
2226	0.00292631
2238	0.00193012
2250	0.00242822
2262	0.00205465
2274	0.00236596
2286	0.00342441
2298	0.00504322
2310	0.00597715
2322	0.00684882
2334	0.00423382
2346	0.002615
2358	0.00635072
2370	0.000124524
2382	0.000124524
2394	0.00118298
2406	0.00224143
2418	0.00205465
2430	0.00161881
2442	0.00124524
2454	0.0013075
2466	0.00143203
2478	0.00093393
2490	0.00093393
2502	0.000124524
2514	0.000560358
2526	0.00062262
2538	0.000560358
2550	0.00062262
2562	0.00118298
2574	0.00168107
2586	0.00217917
2598	0.002615
2610	0.00317536
2622	0.00392251
2634	0.00485644
2646	0.00516775
2658	0.00666203
2670	0.00691108
2682	0.00653751
2694	0.00641299
2706	0.00597715
2718	0.00759596
2730	0.00821858
2742	0.00915251
2754	0.0101487
2766	0.0103355
2778	0.0122034
2790	0.0162504
2802	0.0207955
2814	0.0260255
2826	0.0356139
2838	0.0559735
2850	0.126205
2862	0.273766
2874	0.22103
2886	0.169913
2898	0.162442
2910	0.231428
2922	0.392749
2934	0.62262
2946	0.409497
2958	0.255461
2970	0.215613
2982	0.110702
2994	0.0574056
3006	0.0325008
3018	0.0201729
3030	0.0137599
3042	0.00965061
3054	0.00703561
3066	0.00547906
3078	0.00485644
3090	0.00485644
3102	0.0044206
3114	0.00336215
3126	0.00367346
3138	0.0031131
3150	0.00342441
3162	0.002615
3174	0.00298858
3186	0.00354893
3198	0.00267727
3210	0.00249048
3222	0.00193012
3234	0.00267727
3246	0.002615
3258	0.00186786
3270	0.00267727
3282	0.0018056
3294	0.00292631
3306	0.00367346
3318	0.00242822
3330	0.00143203
3342	0.00336215
3354	0.00423382
3366	0.00342441
3378	0.00354893
3390	0.00386024
3402	0.00379798
3414	0.00273953
3426	0.00336215
3438	0.00342441
3450	0.0018056
3462	0.00230369
3474	0.00460739
3486	0.00678656
3498	0.00466965
3510	0.00317536
3522	0.00249048
3534	0.00242822
3546	0.00286405
3558	0.00354893
3570	0.00367346
3582	0.00286405
3594	0.00155655
3606	0.00354893
3618	0.00367346
3630	0.00367346
3642	0.00373572
3654	0.00255274
3666	0.00155655
3678	0.000498096
3690	0.00062262
3702	0.00062262
3714	0.000124524
3726	0.00230369
3738	0.000124524
3750	0.000498096
3762	0.000684882
3774	0.00031131
3786	0.00118298
3798	0.00205465
3810	0.00193012
3822	0.00143203
3834	0.00199238
3846	0.00211691
3858	0.000124524
3870	0.00118298
3882	0.00199238
3894	0.00136976
3906	0.000747144
3918	0.00373572
3930	0.00186786
3942	0.000498096
3954	0.0018056
3966	0.0018056
