Infrared Spectrum: Pentanoic acid
Formula: C 5 H 10 O 2
CAS: 109-52-4
Origin: Sadtler Research Labs Under US-EPA Contract
1/CM	ABSORBANCE
450	0.0922729
462	0.0700661
474	0.0759369
486	0.0862745
498	0.0992922
510	0.119585
522	0.118691
534	0.131581
546	0.159148
558	0.194756
570	0.208284
582	0.207008
594	0.232277
606	0.237255
618	0.233809
630	0.2273
642	0.168593
654	0.0966121
666	0.0713424
678	0.0611324
690	0.0562826
702	0.0516881
714	0.0488804
726	0.0468384
738	0.0649611
750	0.0589628
762	0.0319062
774	0.0139111
786	0.00944425
798	0.00650887
810	0.00701937
822	0.00536025
834	0.00382875
846	0.00433925
858	0.00650887
870	0.00689175
882	0.00944425
894	0.0144216
906	0.0195266
918	0.0191438
930	0.0190161
942	0.0215686
954	0.016336
966	0.0150598
978	0.0156979
990	0.0159531
1002	0.0167189
1014	0.0218239
1026	0.0343311
1038	0.0645783
1050	0.124051
1062	0.213899
1074	0.336037
1086	0.498631
1098	0.519944
1110	0.368709
1122	0.363476
1134	0.538195
1146	0.609027
1158	0.475786
1170	0.316638
1182	0.217856
1194	0.147407
1206	0.128263
1218	0.123541
1230	0.104908
1242	0.0968674
1254	0.100951
1266	0.0983989
1278	0.0912519
1290	0.080659
1302	0.0718529
1314	0.0631744
1326	0.0661097
1338	0.0895927
1350	0.119585
1362	0.139111
1374	0.171656
1386	0.203179
1398	0.152767
1410	0.0820629
1422	0.0758092
1434	0.0789999
1446	0.0824457
1458	0.0953359
1470	0.0901032
1482	0.0546235
1494	0.0246316
1506	0.01021
1518	0.005105
1530	0.00191438
1542	0.00165913
1554	0.00114862
1566	0.000127625
1578	0.0005105
1590	0
1602	0.00076575
1614	0.00216963
1626	0.00165913
1638	0.00229725
1650	0.00293538
1662	0.00433925
1674	0.007147
1686	0.0127625
1698	0.022462
1710	0.0433925
1722	0.0897204
1734	0.152129
1746	0.265715
1758	0.548787
1770	1.04997
1782	1.27625
1794	0.864277
1806	0.356967
1818	0.132092
1830	0.053092
1842	0.0256526
1854	0.0146769
1866	0.0105929
1878	0.00791275
1890	0.00689175
1902	0.00587075
1914	0.00497738
1926	0.00446688
1938	0.0045945
1950	0.00497738
1962	0.00484975
1974	0.00382875
1986	0.00319062
1998	0.0025525
2010	0.00280775
2022	0.00216963
2034	0.00165913
2046	0.00216963
2058	0.00216963
2070	0.0015315
2082	0.00140387
2094	0.00178675
2106	0.00165913
2118	0.00140387
2130	0.00165913
2142	0.00191438
2154	0.00140387
2166	0.00216963
2178	0.00242487
2190	0.00293538
2202	0.0025525
2214	0.00293538
2226	0.00331825
2238	0.00370112
2250	0.00319062
2262	0.00178675
2274	0.002042
2286	0.00178675
2298	0.002042
2310	0.00178675
2322	0.00114862
2334	0.000127625
2346	0.00114862
2358	0.000638125
2370	0.00114862
2382	0.00242487
2394	0.002042
2406	0.00191438
2418	0.00165913
2430	0.00216963
2442	0.00229725
2454	0.00178675
2466	0.00178675
2478	0.00229725
2490	0.00216963
2502	0.00178675
2514	0.00268012
2526	0.00268012
2538	0.0025525
2550	0.002042
2562	0.00268012
2574	0.00242487
2586	0.003063
2598	0.00331825
2610	0.00331825
2622	0.00395637
2634	0.00370112
2646	0.00421163
2658	0.00523263
2670	0.00548787
2682	0.006126
2694	0.006126
2706	0.0066365
2718	0.0056155
2730	0.006126
2742	0.00893375
2754	0.00982712
2766	0.00842325
2778	0.0086785
2790	0.00995475
2802	0.0126349
2814	0.016336
2826	0.0225896
2838	0.0339482
2850	0.0536025
2862	0.100951
2874	0.179951
2886	0.230874
2898	0.193479
2910	0.167572
2922	0.232022
2934	0.349565
2946	0.449495
2958	0.486251
2970	0.5664
2982	0.425885
2994	0.17089
3006	0.0779789
3018	0.0445411
3030	0.0321615
3042	0.0271841
3054	0.0238659
3066	0.0213134
3078	0.0187609
3090	0.0182504
3102	0.0171017
3114	0.0162084
3126	0.0162084
3138	0.0155702
3150	0.0137835
3162	0.0135283
3174	0.0131454
3186	0.0136559
3198	0.0121244
3210	0.0109757
3222	0.0107205
3234	0.00906137
3246	0.00880612
3258	0.00791275
3270	0.00701937
3282	0.00650887
3294	0.00497738
3306	0.00752988
3318	0.005105
3330	0.00433925
3342	0.00421163
3354	0.003063
3366	0.002042
3378	0.00229725
3390	0.00268012
3402	0.0015315
3414	0.00344588
3426	0.002042
3438	0.00178675
3450	0.00191438
3462	0.0015315
3474	0.00331825
3486	0.00216963
3498	0.00587075
3510	0.008168
3522	0.0107205
3534	0.0171017
3546	0.0260355
3558	0.064323
3570	0.356584
3582	0.416951
3594	0.102866
3606	0.0210581
3618	0.00893375
3630	0.00638125
3642	0.00574312
3654	0.00523263
3666	0.00484975
3678	0.00587075
3690	0.00689175
3702	0.00599838
3714	0.00587075
3726	0.004084
3738	0.00740225
3750	0.006126
3762	0.00676413
3774	0.00599838
3786	0.00740225
3798	0.00650887
3810	0.00319062
3822	0.00344588
3834	0.0066365
3846	0.005105
3858	0.00701937
3870	0.00625362
3882	0.0107205
3894	0.00842325
3906	0.00995475
3918	0.00944425
3930	0.0066365
3942	0.00829562
3954	0.00599838
3966	0.00727462
