Infrared Spectrum: Morpholine, 4-methyl-
Formula: C 5 H 11 N O
CAS: 109-02-4
Origin: Sadtler Research Labs Under US-EPA Contract
1/CM	ABSORBANCE
450	0.187501
462	0.0531988
474	0.0130487
486	0.0400496
498	0.0402504
510	0.0219821
522	0.0300121
534	0.0284061
546	0.0233874
558	0.0366369
570	0.00893338
582	0.0316181
594	0.0336256
606	0.0519942
618	0.0805007
630	0.0776903
642	0.0301125
654	0.0268001
666	0.0243911
678	0.024893
690	0.028105
702	0.027302
714	0.0283058
726	0.0294099
738	0.0293095
750	0.0367372
762	0.050589
774	0.0763854
786	0.13109
798	0.0710655
810	0.040953
822	0.0282054
834	0.0351313
846	0.067452
858	0.167927
870	0.278641
882	0.188002
894	0.114729
906	0.100977
918	0.0889323
930	0.0405515
942	0.0312166
954	0.028105
966	0.0292091
978	0.03212
990	0.067452
1002	0.229257
1014	0.253146
1026	0.145544
1038	0.092345
1050	0.0716678
1062	0.0756828
1074	0.0817053
1086	0.0935495
1098	0.145845
1110	0.411939
1122	0.817554
1134	0.951455
1146	0.726213
1158	0.462126
1170	0.124365
1182	0.0479793
1194	0.0541021
1206	0.0560093
1218	0.0506894
1230	0.0351313
1242	0.0308151
1254	0.0442654
1266	0.134804
1278	0.34539
1290	0.375704
1302	0.21691
1314	0.0708648
1326	0.0423583
1338	0.0367372
1350	0.0507898
1362	0.12055
1374	0.145744
1386	0.102081
1398	0.0367372
1410	0.0381425
1422	0.0443658
1434	0.0708648
1446	0.206973
1458	0.348201
1470	0.182181
1482	0.0948544
1494	0.036938
1506	0.018469
1518	0.0148555
1530	0.01606
1542	0.0148555
1554	0.016863
1566	0.0165619
1578	0.0162608
1590	0.0148555
1602	0.0157589
1614	0.01606
1626	0.0148555
1638	0.0145544
1650	0.0124465
1662	0.013651
1674	0.0121454
1686	0.0115431
1698	0.0129484
1710	0.0180675
1722	0.0159596
1734	0.0116435
1746	0.0122457
1758	0.012045
1770	0.0121454
1782	0.0129484
1794	0.0116435
1806	0.012848
1818	0.0117439
1830	0.00983675
1842	0.010439
1854	0.0114427
1866	0.0111416
1878	0.0130487
1890	0.0131491
1902	0.01606
1914	0.0173649
1926	0.0213799
1938	0.0205769
1950	0.0147551
1962	0.0131491
1974	0.0174653
1986	0.0234878
1998	0.0230862
2010	0.015257
2022	0.00993712
2034	0.0092345
2046	0.0102383
2058	0.0133499
2070	0.01606
2082	0.0151566
2094	0.0118443
2106	0.00943525
2118	0.00913412
2130	0.0103386
2142	0.010439
2154	0.0103386
2166	0.0102383
2178	0.00903375
2190	0.00853187
2202	0.00903375
2214	0.00943525
2226	0.00943525
2238	0.0108405
2250	0.011242
2262	0.00993712
2274	0.0107401
2286	0.0129484
2298	0.0145544
2310	0.00983675
2322	0.00511913
2334	0.0068255
2346	0.00983675
2358	0.00511913
2370	0.019272
2382	0.0172645
2394	0.0117439
2406	0.0092345
2418	0.00993712
2430	0.0118443
2442	0.0123461
2454	0.012045
2466	0.0130487
2478	0.0137514
2490	0.0162608
2502	0.0179671
2514	0.0182682
2526	0.016863
2538	0.0156585
2550	0.0162608
2562	0.017666
2574	0.0188705
2586	0.0189709
2598	0.0177664
2610	0.0193724
2622	0.0223836
2634	0.0247926
2646	0.0357335
2658	0.0507898
2670	0.0739764
2682	0.103286
2694	0.122959
2706	0.100475
2718	0.0927465
2730	0.13119
2742	0.193824
2754	0.223435
2766	0.289783
2778	0.435226
2790	0.677632
2802	0.976548
2814	0.639288
2826	0.345892
2838	0.323007
2850	0.533895
2862	0.718685
2874	0.560695
2886	0.425791
2898	0.358339
2910	0.376306
2922	0.540519
2934	0.676226
2946	0.744682
2958	0.718484
2970	0.737455
2982	0.660668
2994	0.203862
3006	0.0437635
3018	0.023287
3030	0.0213799
3042	0.0196735
3054	0.0175656
3066	0.0179671
3078	0.0181679
3090	0.0170637
3102	0.0158592
3114	0.0154577
3126	0.0154577
3138	0.0143536
3150	0.0138517
3162	0.0130487
3174	0.0138517
3186	0.0139521
3198	0.0164615
3210	0.0130487
3222	0.012045
3234	0.00973638
3246	0.00993712
3258	0.00913412
3270	0.009636
3282	0.00873263
3294	0.0084315
3306	0.00913412
3318	0.0101379
3330	0.00903375
3342	0.00943525
3354	0.0068255
3366	0.00712663
3378	0.00582175
3390	0.00662475
3402	0.0068255
3414	0.007227
3426	0.008833
3438	0.00943525
3450	0.00943525
3462	0.009636
3474	0.00973638
3486	0.0105394
3498	0.0102383
3510	0.0118443
3522	0.0141529
3534	0.00903375
3546	0.0108405
3558	0.0119446
3570	0.0126473
3582	0.0109409
3594	0.0118443
3606	0.0123461
3618	0.0124465
3630	0.0119446
3642	0.0113424
3654	0.0124465
3666	0.0121454
3678	0.00873263
3690	0.0182682
3702	0.0182682
3714	0.0166622
3726	0.0137514
3738	0.0159596
3750	0.0177664
3762	0.012045
3774	0.0157589
3786	0.0117439
3798	0.0151566
3810	0.01606
3822	0.0189709
3834	0.017666
3846	0.0158592
3858	0.0138517
3870	0.0194728
3882	0.017666
3894	0.0166622
3906	0.015257
3918	0.012045
3930	0.0190713
3942	0.0186697
3954	0.0147551
3966	0.0165619
