Infrared Spectrum: n-Propyl acetate
Formula: C 5 H 10 O 2
CAS: 109-60-4
Origin: Sadtler Research Labs Under US-EPA Contract
1/CM	ABSORBANCE
450	0.0590907
462	0.00535386
474	0.0140787
486	0.0216137
498	0.0166564
510	0.00951797
522	0.00297436
534	0.00912139
546	0.0065436
558	0.00257778
570	0.00753506
582	0.0105094
594	0.0192342
606	0.036089
618	0.037477
630	0.0473915
642	0.0473915
654	0.0180445
666	0.00713848
678	0.00575044
690	0.00456069
702	0.00475898
714	0.00594873
726	0.00237949
738	0.00674189
750	0.0130872
762	0.0162599
774	0.0130872
786	0.00575044
798	0.00575044
810	0.0105094
822	0.0182428
834	0.0273642
846	0.0309334
858	0.0297436
870	0.0309334
882	0.037477
894	0.0471933
906	0.0507625
918	0.0402531
930	0.0273642
942	0.0263727
954	0.0551249
966	0.0914122
978	0.0888344
990	0.0751523
1002	0.120561
1014	0.200472
1026	0.215741
1038	0.200472
1050	0.262339
1062	0.311515
1074	0.26333
1086	0.156848
1098	0.100732
1110	0.0682121
1122	0.0481847
1134	0.0368821
1146	0.0311317
1158	0.0321231
1170	0.0376753
1182	0.0533403
1194	0.0929985
1206	0.216732
1218	0.634333
1230	1.57344
1242	1.89328
1254	0.869506
1266	0.375563
1278	0.223672
1290	0.14277
1302	0.0955763
1314	0.0628582
1326	0.0394599
1338	0.0339078
1350	0.0642463
1362	0.223672
1374	0.327378
1386	0.229819
1398	0.15546
1410	0.0836788
1422	0.0479864
1434	0.0507625
1446	0.0703933
1458	0.0969643
1470	0.104301
1482	0.0781267
1494	0.0491762
1506	0.0321231
1518	0.0243898
1530	0.0208206
1542	0.0160616
1554	0.0140787
1566	0.0134838
1578	0.0128889
1590	0.0120958
1602	0.0130872
1614	0.0116992
1626	0.0113026
1638	0.0132855
1650	0.0138804
1662	0.0158633
1674	0.0166564
1686	0.0188376
1698	0.027959
1710	0.0541334
1722	0.0935934
1734	0.189963
1746	0.49196
1758	0.996611
1770	1.02397
1782	0.464001
1794	0.146537
1806	0.0567112
1818	0.0285539
1830	0.0178462
1842	0.0150701
1854	0.0132855
1866	0.0111043
1878	0.0103111
1890	0.00971626
1902	0.00912139
1914	0.00852651
1926	0.00793164
1938	0.00713848
1950	0.00674189
1962	0.0065436
1974	0.00634531
1986	0.00674189
1998	0.00793164
2010	0.0087248
2022	0.00892309
2034	0.00852651
2046	0.00852651
2058	0.0107077
2070	0.00991455
2082	0.00495727
2094	0.00515557
2106	0.00733677
2118	0.00852651
2130	0.00931968
2142	0.00852651
2154	0.0065436
2166	0.00495727
2178	0.00495727
2190	0.00456069
2202	0.00495727
2214	0.00535386
2226	0.00515557
2238	0.00495727
2250	0.00495727
2262	0.00495727
2274	0.00535386
2286	0.00475898
2298	0.00257778
2310	0
2322	0.000396582
2334	0.00515557
2346	0.00634531
2358	0
2370	0.0134838
2382	0.00971626
2394	0.00674189
2406	0.00594873
2418	0.00575044
2430	0.00694018
2442	0.0065436
2454	0.00773335
2466	0.00753506
2478	0.00773335
2490	0.00713848
2502	0.00674189
2514	0.00555215
2526	0.00475898
2538	0.00495727
2550	0.00416411
2562	0.00475898
2574	0.00495727
2586	0.00594873
2598	0.00713848
2610	0.00852651
2622	0.00694018
2634	0.00555215
2646	0.00674189
2658	0.00337095
2670	0.000594873
2682	0.0021812
2694	0.00277607
2706	0.00396582
2718	0.00594873
2730	0.00793164
2742	0.0101128
2754	0.0116992
2766	0.0113026
2778	0.00991455
2790	0.00971626
2802	0.00991455
2814	0.0124923
2826	0.015665
2838	0.020424
2850	0.0295454
2862	0.0481847
2874	0.0723762
2886	0.123337
2898	0.145744
2910	0.123734
2922	0.131269
2934	0.179453
2946	0.248855
2958	0.304575
2970	0.378934
2982	0.417997
2994	0.262339
3006	0.0955763
3018	0.0471933
3030	0.0366838
3042	0.0325197
3054	0.0293471
3066	0.0249847
3078	0.0212171
3090	0.0188376
3102	0.015665
3114	0.0132855
3126	0.0111043
3138	0.00951797
3150	0.0087248
3162	0.00812993
3174	0.00753506
3186	0.00674189
3198	0.00614702
3210	0.00674189
3222	0.00594873
3234	0.00634531
3246	0.00555215
3258	0.00634531
3270	0.00733677
3282	0.00456069
3294	0.00198291
3306	0.00317266
3318	0.00237949
3330	0.00396582
3342	0.00317266
3354	0.00317266
3366	0.00317266
3378	0.00416411
3390	0.00356924
3402	0.00356924
3414	0.0043624
3426	0.00297436
3438	0.00376753
3450	0.00138804
3462	0.00277607
3474	0.00337095
3486	0.00515557
3498	0.0103111
3510	0.0118975
3522	0.00812993
3534	0.00416411
3546	0.00337095
3558	0.00337095
3570	0.00376753
3582	0.00456069
3594	0.00475898
3606	0.00575044
3618	0.00515557
3630	0.00475898
3642	0.0065436
3654	0.0065436
3666	0.00555215
3678	0.0065436
3690	0.00634531
3702	0.00773335
3714	0.00773335
3726	0.00594873
3738	0.00812993
3750	0.00773335
3762	0.00773335
3774	0.00753506
3786	0.00812993
3798	0.0065436
3810	0.00594873
3822	0.00892309
3834	0.00634531
3846	0.00634531
3858	0.00733677
3870	0.00773335
3882	0.0065436
3894	0.00753506
3906	0.00713848
3918	0.00812993
3930	0.00495727
3942	0.00416411
3954	0.00634531
3966	0.00535386
