Infrared Spectrum: Decanedioic acid, diethyl ester
Formula: C 14 H 26 O 4
CAS: 110-40-7
Origin: Sadtler Research Labs Under US-EPA Contract
1/CM	ABSORBANCE
450	0
462	0.0665621
474	0.066465
486	0.0579139
498	0.0374108
510	0.0605375
522	0.0588856
534	0.0359533
546	0.0374108
558	0.0417835
570	0.043727
582	0.0570394
594	0.0493629
606	0.0382854
618	0.0514035
630	0.0441156
642	0.04946
654	0.0452817
666	0.044893
678	0.0463506
690	0.0418807
702	0.055679
714	0.0524723
726	0.0524723
738	0.0438241
750	0.040909
762	0.0531525
774	0.0544158
786	0.0580111
798	0.0506261
810	0.0359533
822	0.0440185
834	0.0509176
846	0.0549016
858	0.0633555
870	0.0519865
882	0.0555818
894	0.048294
906	0.0548044
918	0.0696716
930	0.0779311
942	0.0689914
954	0.0613149
966	0.0548044
978	0.04946
990	0.0499459
1002	0.0560677
1014	0.0815265
1026	0.145854
1038	0.22806
1050	0.188415
1062	0.142064
1074	0.141967
1086	0.184625
1098	0.2267
1110	0.229032
1122	0.222716
1134	0.302979
1146	0.414531
1158	0.539008
1170	0.625101
1182	0.58701
1194	0.47915
1206	0.417349
1218	0.38917
1230	0.412588
1242	0.40773
1254	0.371873
1266	0.28131
1278	0.223007
1290	0.194245
1302	0.191621
1314	0.198132
1326	0.170341
1338	0.170632
1350	0.184625
1362	0.155085
1374	0.226117
1386	0.136331
1398	0.0984342
1410	0.085219
1422	0.0938672
1434	0.114565
1446	0.120103
1458	0.143813
1470	0.13429
1482	0.0859963
1494	0.0599545
1506	0.0449902
1518	0.0413948
1530	0.0423666
1542	0.0428524
1554	0.0467393
1566	0.0468364
1578	0.0472251
1590	0.0446015
1602	0.0418807
1614	0.0412005
1626	0.0466421
1638	0.0385769
1650	0.0344957
1662	0.038091
1674	0.0390627
1686	0.0480996
1698	0.0686999
1710	0.09377
1722	0.14906
1734	0.319693
1746	0.730532
1758	0.907188
1770	0.406758
1782	0.157611
1794	0.082401
1806	0.0584969
1818	0.0499459
1830	0.0429496
1842	0.042075
1854	0.0400345
1866	0.0386741
1878	0.0397429
1890	0.0395486
1902	0.0407146
1914	0.0386741
1926	0.0389656
1938	0.0386741
1950	0.0390627
1962	0.0394514
1974	0.0379939
1986	0.0389656
1998	0.0383825
2010	0.0387712
2022	0.0395486
2034	0.0390627
2046	0.0390627
2058	0.0377023
2070	0.0386741
2082	0.0379939
2094	0.037508
2106	0.0372165
2118	0.0358561
2130	0.0359533
2142	0.0352731
2154	0.0356618
2166	0.0353702
2178	0.0350787
2190	0.0353702
2202	0.0350787
2214	0.0349816
2226	0.0354674
2238	0.0352731
2250	0.0353702
2262	0.0347872
2274	0.0353702
2286	0.0355646
2298	0.0353702
2310	0.0356618
2322	0.03469
2334	0.0357589
2346	0.0342042
2358	0.0367306
2370	0.0337183
2382	0.0353702
2394	0.0354674
2406	0.0356618
2418	0.0353702
2430	0.0357589
2442	0.0351759
2454	0.0351759
2466	0.0350787
2478	0.0354674
2490	0.0354674
2502	0.0349816
2514	0.0354674
2526	0.0359533
2538	0.0359533
2550	0.0361476
2562	0.0357589
2574	0.036925
2586	0.0357589
2598	0.0365363
2610	0.0372165
2622	0.037508
2634	0.0376052
2646	0.037508
2658	0.0389656
2670	0.0389656
2682	0.040326
2694	0.0405203
2706	0.0393543
2718	0.0405203
2730	0.0402288
2742	0.0415892
2754	0.0418807
2766	0.0433383
2778	0.0451845
2790	0.0453789
2802	0.0487798
2814	0.0510148
2826	0.05908
2838	0.0698659
2850	0.10028
2862	0.216983
2874	0.219704
2886	0.162761
2898	0.156057
2910	0.227186
2922	0.363031
2934	0.546198
2946	0.562329
2958	0.356035
2970	0.280824
2982	0.314251
2994	0.258378
3006	0.159749
3018	0.101641
3030	0.071615
3042	0.0575252
3054	0.0500431
3066	0.0465449
3078	0.0440185
3090	0.0439213
3102	0.0419779
3114	0.0408118
3126	0.0412005
3138	0.0399373
3150	0.0404231
3162	0.0391599
3174	0.0398401
3186	0.0383825
3198	0.0379939
3210	0.0382854
3222	0.036925
3234	0.0364391
3246	0.0364391
3258	0.0357589
3270	0.0358561
3282	0.0357589
3294	0.0372165
3306	0.036342
3318	0.0372165
3330	0.0374108
3342	0.0361476
3354	0.0370222
3366	0.0374108
3378	0.0381882
3390	0.037508
3402	0.0373137
3414	0.0397429
3426	0.0386741
3438	0.0410062
3450	0.0415892
3462	0.0421722
3474	0.0445043
3486	0.047711
3498	0.0463506
3510	0.0421722
3522	0.0398401
3534	0.0405203
3546	0.0398401
3558	0.0390627
3570	0.0397429
3582	0.0400345
3594	0.0395486
3606	0.0393543
3618	0.0412005
3630	0.0391599
3642	0.0405203
3654	0.0406175
3666	0.0401316
3678	0.0401316
3690	0.0411033
3702	0.0413948
3714	0.0398401
3726	0.0418807
3738	0.0410062
3750	0.040326
3762	0.041492
3774	0.0413948
3786	0.0415892
3798	0.0412977
3810	0.0392571
3822	0.0400345
3834	0.0381882
3846	0.042075
3858	0.0392571
3870	0.0398401
3882	0.0411033
3894	0.0381882
3906	0.0422694
3918	0.0387712
3930	0.0418807
3942	0.0401316
3954	0.0426581
3966	0.0417835
