Infrared Spectrum: 2,5-Hexanedione
Formula: C 6 H 10 O 2
CAS: 110-13-4
Origin: Sadtler Research Labs Under US-EPA Contract
1/CM	ABSORBANCE
450	0.0193389
462	0.011226
474	0.0081129
486	0.00443379
498	0.0125467
510	0.0139617
522	0.0209426
534	0.0124524
546	0.00981094
558	0.0141504
570	0.0183955
582	0.00896192
594	0.00924493
606	0.00867891
618	0.0160371
630	0.0133014
642	0
654	0.00556582
666	0.00782989
678	0.00792422
690	0.00962227
702	0.012358
714	0.0176408
726	0.0201879
738	0.0333006
750	0.0243387
762	0.0137731
774	0.0141504
786	0.011509
798	0.0105656
810	0.011226
822	0.0125467
834	0.0111316
846	0.0104713
858	0.011509
870	0.0127354
882	0.012075
894	0.0138674
906	0.0151881
918	0.0176408
930	0.0242444
942	0.033678
954	0.0526395
966	0.069337
978	0.0591487
990	0.0374514
1002	0.0333006
1014	0.0282065
1026	0.0328289
1038	0.0439606
1050	0.0371684
1062	0.0294328
1074	0.0310365
1086	0.0292442
1098	0.0266971
1110	0.0280178
1122	0.0385834
1134	0.0792422
1146	0.290083
1158	0.436398
1170	0.229614
1182	0.130467
1194	0.148862
1206	0.131127
1218	0.0942417
1230	0.0882042
1242	0.07245
1254	0.0646202
1266	0.0771668
1278	0.0894305
1290	0.0834874
1302	0.0790536
1314	0.0804686
1326	0.0904682
1338	0.127259
1350	0.234048
1362	0.412909
1374	0.357062
1386	0.165748
1398	0.134523
1410	0.168861
1422	0.169899
1434	0.128674
1446	0.0851854
1458	0.05896
1470	0.0415078
1482	0.0313196
1494	0.0278291
1506	0.0278291
1518	0.0269801
1530	0.0273574
1542	0.0273574
1554	0.0257537
1566	0.0232067
1578	0.0228293
1590	0.0185842
1602	0.0175465
1614	0.0183955
1626	0.0194332
1638	0.021886
1650	0.023301
1662	0.0298102
1674	0.0436776
1686	0.0687709
1698	0.111033
1710	0.2415
1722	0.629881
1734	0.94336
1746	0.628183
1758	0.210464
1770	0.0845251
1782	0.0532998
1794	0.0329233
1806	0.0232067
1818	0.0173578
1830	0.0138674
1842	0.0122637
1854	0.010094
1866	0.00962227
1878	0.00915059
1890	0.00867891
1902	0.00830157
1914	0.00792422
1926	0.00782989
1938	0.00764122
1950	0.00716954
1962	0.00716954
1974	0.00716954
1986	0.00632051
1998	0.00594317
2010	0.00499981
2022	0.0047168
2034	0.00584883
2046	0.00764122
2058	0.00905626
2070	0.0101883
2082	0.0107543
2094	0.0101883
2106	0.00981094
2118	0.00867891
2130	0.0081129
2142	0.00773555
2154	0.00726387
2166	0.00632051
2178	0.00613184
2190	0.00594317
2202	0.00613184
2214	0.00622618
2226	0.0060375
2238	0.0057545
2250	0.00641485
2262	0.00528282
2274	0.00566016
2286	0.0070752
2298	0.00877325
2310	0.0111316
2322	0.0119807
2334	0.00962227
2346	0.0083959
2358	0.0114147
2370	0.00311309
2382	0.00396211
2394	0.00556582
2406	0.00547149
2418	0.00584883
2430	0.00499981
2442	0.00433946
2454	0.00415078
2466	0.00415078
2478	0.00499981
2490	0.00499981
2502	0.00556582
2514	0.00594317
2526	0.00556582
2538	0.00462246
2550	0.00452813
2562	0.00405645
2574	0.0036791
2586	0.0033961
2598	0.00226406
2610	0.00094336
2622	0.00179238
2634	0.00396211
2646	0.00264141
2658	0.00443379
2670	0.00632051
2682	0.00698086
2694	0.00660352
2706	0.00433946
2718	0.00433946
2730	0.00499981
2742	0.00499981
2754	0.0060375
2766	0.00660352
2778	0.00716954
2790	0.00782989
2802	0.00952794
2814	0.0121693
2826	0.0131127
2838	0.0142447
2850	0.0177352
2862	0.0205652
2874	0.0240557
2886	0.0302819
2898	0.0560356
2910	0.124524
2922	0.163013
2934	0.129523
2946	0.0930153
2958	0.0730161
2970	0.0731104
2982	0.0636768
2994	0.0516018
3006	0.05896
3018	0.0604694
3030	0.0378287
3042	0.0240557
3054	0.0222633
3066	0.0213199
3078	0.0194332
3090	0.0158484
3102	0.0138674
3114	0.00981094
3126	0.00726387
3138	0.00537715
3150	0.00462246
3162	0.00311309
3174	0.00415078
3186	0.00273574
3198	0.00358477
3210	0.00330176
3222	0.00330176
3234	0.00320742
3246	0.00358477
3258	0.00499981
3270	0.00264141
3282	0.00264141
3294	0.00226406
3306	0.00396211
3318	0.00320742
3330	0.00254707
3342	0.0013207
3354	0.00301875
3366	0.0033961
3378	0.00405645
3390	0.00499981
3402	0.00358477
3414	0.00594317
3426	0.00924493
3438	0.0149994
3450	0.0205652
3462	0.0168861
3474	0.00830157
3486	0.00433946
3498	0.00245274
3510	0.00113203
3522	0.00188672
3534	0.00179238
3546	0.0023584
3558	0.0047168
3570	0.00207539
3582	0.00150938
3594	0.00490547
3606	0.00216973
3618	0.00188672
3630	0.00405645
3642	0.00301875
3654	0.00273574
3666	0.00386778
3678	0.00377344
3690	0.00216973
3702	0.00358477
3714	0.00226406
3726	0.00330176
3738	0.0013207
3750	0.00745254
3762	0.00207539
3774	0.00433946
3786	0.000660352
3798	0.00377344
3810	0.00396211
3822	0.000849024
3834	0.00490547
3846	0.00509414
3858	0.000660352
3870	0.00169805
3882	0.00047168
3894	0.00141504
3906	0.00613184
3918	0.00113203
3930	0.00462246
3942	0.00358477
3954	0.00499981
3966	0.00481114
