Infrared Spectrum: Butanedioic acid
Formula: C 4 H 6 O 4
CAS: 110-15-6
Origin: Sadtler Research Labs Under US-EPA Contract
1/CM	ABSORBANCE
450	0.00289577
462	0.016892
474	0.0254184
486	0.019466
498	0.0281533
510	0.0308882
522	0.0395755
534	0.0513194
546	0.060972
558	0.103926
570	0.115187
582	0.15428
594	0.156693
606	0.122266
618	0.0891253
630	0.0595241
642	0.0657983
654	0.0781857
666	0.08816
678	0.0777031
690	0.0553413
702	0.0199486
714	0.00997431
726	0.0162485
738	0.0109396
750	0.00659592
762	0.000643504
774	0.00321752
786	0.0111004
798	0.0370015
810	0.0542152
822	0.0423104
834	0.0236488
846	0.013031
858	0.0101352
870	0.0329796
882	0.137871
894	0.448683
906	0.59862
918	0.478445
930	0.0508368
942	0.0191442
954	0.0186616
966	0.023327
978	0.0281533
990	0.0424713
1002	0.0633851
1014	0.107787
1026	0.216217
1038	0.638356
1050	0.8631
1062	0.67761
1074	0.166668
1086	0.118244
1098	0.174229
1110	0.318374
1122	0.478606
1134	0.421012
1146	0.253058
1158	0.185329
1170	0.177768
1182	0.230857
1194	0.276224
1206	0.306469
1218	0.278155
1230	0.213804
1242	0.173585
1254	0.133849
1266	0.13771
1278	0.144949
1290	0.121622
1302	0.112774
1314	0.0923428
1326	0.0801162
1338	0.0617764
1350	0.0694984
1362	0.0931472
1374	0.107465
1386	0.108913
1398	0.0862295
1410	0.0611329
1422	0.0730377
1434	0.100708
1446	0.0712681
1458	0.0580762
1470	0.0244532
1482	0.0123875
1494	0.0104569
1506	0.0133527
1518	0.0146397
1530	0.0107787
1542	0.0186616
1554	0.0152832
1566	0.00949168
1578	0.0102961
1590	0.0074003
1602	0.0101352
1614	0.0106178
1626	0.0046654
1638	0.0104569
1650	0.015605
1662	0.00949168
1674	0.0222009
1686	0.0331405
1698	0.0495498
1710	0.0722333
1722	0.0944342
1734	0.117439
1746	0.163611
1758	0.266732
1770	0.460266
1782	0.687423
1794	1.11905
1806	1.51256
1818	1.55197
1830	0.764322
1842	0.328187
1854	0.194177
1866	0.224261
1878	0.254667
1890	0.235362
1902	0.11937
1914	0.0445627
1926	0.024614
1938	0.0180181
1950	0.0139962
1962	0.0112613
1974	0.00997431
1986	0.00788292
1998	0.00675679
2010	0.00756117
2022	0.00546978
2034	0.00370015
2046	0.00257402
2058	0.000321752
2070	0.00128701
2082	0.00144788
2094	0.00273489
2106	0.00257402
2118	0.00273489
2130	0.00112613
2142	0.000965256
2154	0.00080438
2166	0.00193051
2178	0.00353927
2190	0.00305664
2202	0.000643504
2214	0.00128701
2226	0.00289577
2238	0.00611329
2250	0.00772205
2262	0.00707854
2274	0.00627416
2286	0.00482628
2298	0.00579154
2310	0.00820468
2322	0.00659592
2334	0.00321752
2346	0.00643504
2358	0.00273489
2370	0.00482628
2382	0.00482628
2394	0.000160876
2406	0.00080438
2418	0.00144788
2430	0.00193051
2442	0.00241314
2454	0.00144788
2466	0.00128701
2478	0.00128701
2490	0.00209139
2502	0.00144788
2514	0.000965256
2526	0.000965256
2538	0.000321752
2550	0.000160876
2562	0.000643504
2574	0.000643504
2586	0.000160876
2598	0.000643504
2610	0.00193051
2622	0.00225226
2634	0.00241314
2646	0.00128701
2658	0.00112613
2670	0.00112613
2682	0.00257402
2694	0.00273489
2706	0.00353927
2718	0.00353927
2730	0.00450453
2742	0.00386102
2754	0.00257402
2766	0.00193051
2778	0.00160876
2790	0.00257402
2802	0.00273489
2814	0.00353927
2826	0.00482628
2838	0.00627416
2850	0.00691767
2862	0.00723942
2874	0.00675679
2886	0.0074003
2898	0.00916993
2910	0.00997431
2922	0.0138353
2934	0.0223618
2946	0.0305664
2958	0.038932
2970	0.0382885
2982	0.0299229
2994	0.0201095
3006	0.0157658
3018	0.0148006
3030	0.0117439
3042	0.0104569
3054	0.0106178
3066	0.0112613
3078	0.0114222
3090	0.0107787
3102	0.0104569
3114	0.00916993
3126	0.00852643
3138	0.0080438
3150	0.00788292
3162	0.0074003
3174	0.0086873
3186	0.00852643
3198	0.0074003
3210	0.00563066
3222	0.0040219
3234	0.0080438
3246	0.00836555
3258	0.00675679
3270	0.00691767
3282	0.00691767
3294	0.00643504
3306	0.00723942
3318	0.00643504
3330	0.00691767
3342	0.00772205
3354	0.00659592
3366	0.00723942
3378	0.00530891
3390	0.0111004
3402	0.00530891
3414	0.000482628
3426	0.00611329
3438	0.00595241
3450	0.00643504
3462	0.00595241
3474	0.00450453
3486	0.00434365
3498	0.00530891
3510	0.00450453
3522	0.0074003
3534	0.0086873
3546	0.016892
3558	0.0222009
3570	0.146558
3582	0.199164
3594	0.0770596
3606	0.0148006
3618	0.00997431
3630	0.0107787
3642	0.00434365
3654	0.013031
3666	0.0149615
3678	0.0188225
3690	0.0133527
3702	0.00675679
3714	0.00659592
3726	0.0033784
3738	0.00900906
3750	0.0297621
3762	0.0146397
3774	0.000160876
3786	0.00128701
3798	0.000160876
3810	0.00080438
3822	0.00434365
3834	0.00128701
3846	0.00756117
3858	0.00595241
3870	0.00305664
3882	0.00386102
3894	0.00273489
3906	0.0128701
3918	0.00772205
3930	0.000160876
3942	0
3954	0.0185007
3966	0.00788292
