Infrared Spectrum: 1,3-Propanediamine, N,N,N',N'-tetramethyl-
Formula: C 7 H 18 N 2
CAS: 110-95-2
Origin: Sadtler Research Labs Under US-EPA Contract
1/CM	ABSORBANCE
450	0.093231
462	0.0370618
474	0.0250373
486	0.0102126
498	0.011695
510	0.039862
522	0.0192721
534	0.0378854
546	0.0385442
558	0.0202604
570	0.00988314
582	0.0159777
594	0.0107067
606	0.0141658
618	0.0141658
630	0.0118598
642	0.0148247
654	0.0123539
666	0.00905955
678	0.00856539
690	0.0156483
702	0.0196016
714	0.0182838
726	0.0383795
738	0.0472744
750	0.0408503
762	0.0296494
774	0.0299789
786	0.0408503
798	0.0520512
810	0.0737941
822	0.0991608
834	0.104267
846	0.0896071
858	0.0810417
870	0.0685231
882	0.0528748
894	0.0370618
906	0.0276728
918	0.0265198
930	0.0237195
942	0.0271786
954	0.0663818
966	0.15253
978	0.115468
990	0.083842
1002	0.13754
1014	0.148741
1026	0.207711
1038	0.35744
1050	0.36024
1062	0.303577
1074	0.314284
1086	0.236042
1098	0.148412
1110	0.100643
1122	0.0706645
1134	0.108385
1146	0.13787
1158	0.154836
1170	0.17559
1182	0.163731
1194	0.162578
1206	0.167519
1218	0.136717
1230	0.110197
1242	0.117445
1254	0.227148
1266	0.290564
1278	0.208699
1290	0.135564
1302	0.125351
1314	0.124857
1326	0.0991608
1338	0.0887835
1350	0.0859833
1362	0.0917485
1374	0.162907
1386	0.156977
1398	0.0798887
1410	0.0512276
1422	0.0617696
1434	0.123869
1446	0.268821
1458	0.452318
1470	0.450671
1482	0.209193
1494	0.0826889
1506	0.0484274
1518	0.0377207
1530	0.0228959
1542	0.0182838
1554	0.0138364
1566	0.0102126
1578	0.0095537
1590	0.00658876
1602	0.00823595
1614	0.00971842
1626	0.00757707
1638	0.0115303
1650	0.015813
1662	0.0110362
1674	0.0164719
1686	0.015813
1698	0.0228959
1710	0.0331085
1722	0.0232254
1734	0.0118598
1746	0.0060946
1758	0.00560045
1770	0.00625932
1782	0.00428269
1794	0.00527101
1806	0.00527101
1818	0.00378854
1830	0.00444741
1842	0.00329438
1854	0.00362382
1866	0.0069182
1878	0.00543573
1890	0.00510629
1902	0.00329438
1914	0.00214135
1926	0.00247079
1938	0.00148247
1950	0.000164719
1962	0.000823595
1974	0.00164719
1986	0.0026355
1998	0.00296494
2010	0.00296494
2022	0.00378854
2034	0.0034591
2046	0.00362382
2058	0.00428269
2070	0.00543573
2082	0.00675348
2094	0.00658876
2106	0.00477685
2118	0.00362382
2130	0.00247079
2142	0.00181191
2154	0.00115303
2166	0.000329438
2178	0.000329438
2190	0.000823595
2202	0.00115303
2214	0.000494157
2226	0.000494157
2238	0.00115303
2250	0.00164719
2262	0.00148247
2274	0.00115303
2286	0.00164719
2298	0.00214135
2310	0.00214135
2322	0.00312966
2334	0.00329438
2346	0.00312966
2358	0.00362382
2370	0.00148247
2382	0.0026355
2394	0.00411797
2406	0.00592988
2418	0.00741235
2430	0.00823595
2442	0.00774179
2454	0.00774179
2466	0.00823595
2478	0.0103773
2490	0.0166366
2502	0.0215782
2514	0.0204252
2526	0.0192721
2538	0.0177897
2550	0.0161425
2562	0.015813
2574	0.0163072
2586	0.0184485
2598	0.0224018
2610	0.0261903
2622	0.0291553
2634	0.0349204
2646	0.0428269
2658	0.0500746
2670	0.0619343
2682	0.0787357
2694	0.10262
2706	0.150718
2718	0.235383
2730	0.321367
2742	0.379018
2754	0.548185
2766	1.23259
2778	1.60832
2790	1.20426
2802	0.930333
2814	0.860986
2826	0.922262
2838	0.496134
2850	0.375395
2862	0.46006
2874	0.456931
2886	0.409821
2898	0.423163
2910	0.459072
2922	0.509311
2934	0.720975
2946	1.13986
2958	1.20558
2970	1.01401
2982	0.986008
2994	0.400102
3006	0.11135
3018	0.0648993
3030	0.0472744
3042	0.033438
3054	0.0288258
3066	0.0266845
3078	0.0235548
3090	0.0205899
3102	0.0177897
3114	0.0161425
3126	0.0144953
3138	0.0138364
3150	0.0144953
3162	0.0131775
3174	0.0140011
3186	0.0149894
3198	0.0151541
3210	0.013507
3222	0.0118598
3234	0.00873011
3246	0.00527101
3258	0.00461213
3270	0.00362382
3282	0.00395326
3294	0.00444741
3306	0.00428269
3318	0.00411797
3330	0.00329438
3342	0.00395326
3354	0.00428269
3366	0.00378854
3378	0.0034591
3390	0.00444741
3402	0.00543573
3414	0.00477685
3426	0.00428269
3438	0.00296494
3450	0.00247079
3462	0.0026355
3474	0.00280022
3486	0.00214135
3498	0.00214135
3510	0.00214135
3522	0.0026355
3534	0.00280022
3546	0.00378854
3558	0.000988314
3570	0.00625932
3582	0.0034591
3594	0.00247079
3606	0.00378854
3618	0.00329438
3630	0.00560045
3642	0.000658876
3654	0.00395326
3666	0.00362382
3678	0.00181191
3690	0.00214135
3702	0.00131775
3714	0.00181191
3726	0.00247079
3738	0.00461213
3750	0.00592988
3762	0.00247079
3774	0.00197663
3786	0.00395326
3798	0.0034591
3810	0.00444741
3822	0.00527101
3834	0.00560045
3846	0.00675348
3858	0.00757707
3870	0.00576517
3882	0.00461213
3894	0.00312966
3906	0.00658876
3918	0.00856539
3930	0.00560045
3942	0.00823595
3954	0.00856539
3966	0.0102126
