Infrared Spectrum: Butanoic acid, octyl ester
Formula: C 12 H 24 O 2
CAS: 110-39-4
Origin: Sadtler Research Labs Under US-EPA Contract
1/CM	ABSORBANCE
450	0
462	0.0209225
474	0.0195505
486	0.0205795
498	0.0163779
510	0.019722
522	0.0208368
534	0.0146629
546	0.0186073
558	0.0198935
570	0.0198078
582	0.0222945
594	0.0249527
606	0.0232377
618	0.0199793
630	0.0252099
642	0.0268391
654	0.0208368
666	0.0192933
678	0.020065
690	0.0206653
702	0.0246097
714	0.0320698
726	0.0347279
738	0.0324985
750	0.031641
762	0.031984
774	0.031641
786	0.0357569
798	0.0354139
810	0.0320698
822	0.0296688
834	0.0289828
846	0.031298
858	0.0339562
870	0.0346422
882	0.0342135
894	0.0328415
906	0.0332702
918	0.0343849
930	0.0365286
942	0.0399586
954	0.0509343
966	0.0665404
978	0.0747723
990	0.084033
1002	0.085748
1014	0.0732288
1026	0.0744293
1038	0.0917504
1050	0.114902
1062	0.115331
1074	0.13411
1086	0.180414
1098	0.206481
1110	0.157176
1122	0.115074
1134	0.111815
1146	0.141313
1158	0.247383
1170	0.550931
1182	0.652457
1194	0.417764
1206	0.292143
1218	0.208368
1230	0.205795
1242	0.235378
1254	0.277052
1266	0.228261
1278	0.164122
1290	0.161292
1302	0.163007
1314	0.114131
1326	0.08712
1338	0.10487
1350	0.14903
1362	0.138569
1374	0.0984387
1386	0.103326
1398	0.0852335
1410	0.053078
1422	0.0557362
1434	0.0785452
1446	0.0922648
1458	0.135053
1470	0.139941
1482	0.073143
1494	0.0402158
1506	0.0304405
1518	0.0237522
1530	0.021437
1542	0.0216942
1554	0.0198078
1566	0.0172353
1578	0.021437
1590	0.0171496
1602	0.0170639
1614	0.0189503
1626	0.0170639
1638	0.020408
1650	0.0177498
1662	0.0178356
1674	0.021094
1686	0.0278681
1698	0.0342992
1710	0.0559077
1722	0.0903784
1734	0.186073
1746	0.48439
1758	0.687099
1770	0.264447
1782	0.118246
1794	0.0666262
1806	0.0373004
1818	0.0238379
1830	0.019379
1842	0.0183501
1854	0.0162064
1866	0.0164636
1878	0.0146629
1890	0.0144057
1902	0.0145772
1914	0.0138054
1926	0.0140627
1938	0.0146629
1950	0.0143199
1962	0.0145772
1974	0.0144057
1986	0.0138912
1998	0.0142342
2010	0.0144914
2022	0.0156919
2034	0.0174068
2046	0.0175783
2058	0.0173211
2070	0.0181786
2082	0.0168924
2094	0.0147487
2106	0.0132052
2118	0.0123477
2130	0.0120905
2142	0.0125192
2154	0.012262
2166	0.011919
2178	0.0118332
2190	0.011919
2202	0.0117475
2214	0.0120047
2226	0.0116617
2238	0.0120905
2250	0.012605
2262	0.0124335
2274	0.0127765
2286	0.0133767
2298	0.0143199
2310	0.0155204
2322	0.0157776
2334	0.0142342
2346	0.0144057
2358	0.0156919
2370	0.0136339
2382	0.0136339
2394	0.0133767
2406	0.0137197
2418	0.0138912
2430	0.0135482
2442	0.0133767
2454	0.0133767
2466	0.0131194
2478	0.0132052
2490	0.0132052
2502	0.0133767
2514	0.0143199
2526	0.0145772
2538	0.0144914
2550	0.0155204
2562	0.0156919
2574	0.0148344
2586	0.0144057
2598	0.0135482
2610	0.0132909
2622	0.0135482
2634	0.0138912
2646	0.0132052
2658	0.0145772
2670	0.0195505
2682	0.020751
2694	0.0203223
2706	0.0195505
2718	0.0194648
2730	0.02178
2742	0.0241809
2754	0.0252957
2766	0.0248669
2778	0.0262389
2790	0.0291543
2802	0.0336132
2814	0.0391868
2826	0.0488764
2838	0.0675694
2850	0.120476
2862	0.280224
2874	0.309722
2886	0.295402
2898	0.252528
2910	0.318211
2922	0.502826
2934	0.820265
2946	0.754239
2958	0.557962
2970	0.635736
2982	0.40756
2994	0.192933
3006	0.0961235
3018	0.0592519
3030	0.0441602
3042	0.0360142
3054	0.0301833
3066	0.0255529
3078	0.0249527
3090	0.0220372
3102	0.0206653
3114	0.020751
3126	0.0196363
3138	0.0192933
3150	0.0186073
3162	0.0166351
3174	0.0156061
3186	0.0170639
3198	0.0167209
3210	0.0162064
3222	0.0150059
3234	0.0144057
3246	0.0147487
3258	0.0140627
3270	0.0150059
3282	0.0145772
3294	0.0140627
3306	0.0134624
3318	0.0147487
3330	0.0156061
3342	0.0146629
3354	0.0161206
3366	0.0150059
3378	0.0146629
3390	0.0162921
3402	0.0161206
3414	0.0156061
3426	0.0155204
3438	0.0165494
3450	0.0147487
3462	0.0173211
3474	0.0174926
3486	0.0212655
3498	0.0192076
3510	0.0144914
3522	0.0159491
3534	0.0150916
3546	0.0123477
3558	0.0148344
3570	0.0172353
3582	0.0195505
3594	0.0169781
3606	0.0131194
3618	0.0141484
3630	0.0153489
3642	0.0143199
3654	0.0135482
3666	0.0154346
3678	0.0127765
3690	0.0136339
3702	0.0139769
3714	0.0142342
3726	0.0151774
3738	0.0143199
3750	0.0161206
3762	0.0148344
3774	0.0168924
3786	0.012262
3798	0.0173211
3810	0.0156061
3822	0.0188646
3834	0.0145772
3846	0.0158634
3858	0.0178356
3870	0.0167209
3882	0.0146629
3894	0.0169781
3906	0.0111472
3918	0.0175783
3930	0.0170639
3942	0.0135482
3954	0.0162064
3966	0.0149202
