Infrared Spectrum: Propanenitrile, 3-methoxy-
Formula: C 4 H 7 N O
CAS: 110-67-8
Origin: Sadtler Research Labs Under US-EPA Contract
1/CM	ABSORBANCE
450	0
462	0.00580649
474	0.0079541
486	0.0101017
498	0.0093063
510	0.00994263
522	0.0103403
534	0.0147946
546	0.0150332
558	0.0138401
570	0.0209193
582	0.0198057
594	0.0153514
606	0.0163059
618	0.0124084
630	0.0108176
642	0.0156696
654	0.0161468
666	0.0101812
678	0.0133629
690	0.0151923
702	0.0139992
714	0.0162264
726	0.0157491
738	0.0119311
750	0.0141583
762	0.0132833
774	0.0151128
786	0.0167036
798	0.0186921
810	0.0237828
822	0.0322141
834	0.0341231
846	0.0260894
858	0.0217147
870	0.0189308
882	0.0186126
894	0.0268053
906	0.0371456
918	0.0522584
930	0.0598944
942	0.0590194
954	0.0580649
966	0.0609284
978	0.0628374
990	0.0713483
1002	0.0824045
1014	0.0718255
1026	0.0482018
1038	0.0410432
1050	0.0519403
1062	0.0688825
1074	0.0765184
1086	0.0831203
1098	0.141106
1110	0.329379
1122	0.664645
1134	0.79541
1146	0.498563
1158	0.2115
1170	0.158207
1182	0.185887
1194	0.232896
1206	0.203943
1218	0.120743
1230	0.0897222
1242	0.0764389
1254	0.0574286
1266	0.0474064
1278	0.0412022
1290	0.0322936
1302	0.0282371
1314	0.0325323
1326	0.0366684
1338	0.0364298
1350	0.03293
1362	0.0415204
1374	0.088211
1386	0.130765
1398	0.121777
1410	0.059258
1422	0.0625192
1434	0.0686439
1446	0.070871
1458	0.0890064
1470	0.0849498
1482	0.0652236
1494	0.0415204
1506	0.0300665
1518	0.0219533
1530	0.0165445
1542	0.0182944
1554	0.0158287
1566	0.0139197
1578	0.0150332
1590	0.0130447
1602	0.0118516
1614	0.0112153
1626	0.0116925
1638	0.0124084
1650	0.012647
1662	0.0113744
1674	0.0104199
1686	0.0117721
1698	0.0114539
1710	0.00946538
1722	0.00986308
1734	0.0113744
1746	0.00866997
1758	0.00874951
1770	0.00890859
1782	0.0066019
1794	0.00747685
1806	0.00644282
1818	0.00580649
1830	0.00644282
1842	0.00676099
1854	0.00556787
1866	0.00612466
1878	0.00636328
1890	0.00612466
1902	0.00580649
1914	0.00684053
1926	0.0075564
1938	0.00866997
1950	0.00978354
1962	0.00954492
1974	0.00843135
1986	0.00843135
1998	0.00835181
2010	0.00898813
2022	0.009704
2034	0.0101812
2046	0.0108971
2058	0.0118516
2070	0.0108971
2082	0.0104199
2094	0.0112948
2106	0.011613
2118	0.0125675
2130	0.0111357
2142	0.00938584
2154	0.00684053
2166	0.00676099
2178	0.00636328
2190	0.0062042
2202	0.00612466
2214	0.00556787
2226	0.00540879
2238	0.00843135
2250	0.0160673
2262	0.0188512
2274	0.0120902
2286	0.00540879
2298	0.00461338
2310	0.00684053
2322	0.00866997
2334	0.00882905
2346	0.00835181
2358	0.0113744
2370	0.00827226
2382	0.00540879
2394	0.00453384
2406	0.00405659
2418	0.00453384
2430	0.00381797
2442	0.00334072
2454	0.00326118
2466	0.00318164
2478	0.00206807
2490	0.00254531
2502	0.00262485
2514	0.00182944
2526	0.0031021
2538	0.00357935
2550	0.00373843
2562	0.00413613
2574	0.00469292
2586	0.00477246
2598	0.00628374
2610	0.00707915
2622	0.0066019
2634	0.00668144
2646	0.00779502
2658	0.00723823
2670	0.00723823
2682	0.00692007
2694	0.00723823
2706	0.0093063
2718	0.0128061
2730	0.0171809
2742	0.0235441
2754	0.0258508
2766	0.0224306
2778	0.0214761
2790	0.0271235
2802	0.0443839
2814	0.0975173
2826	0.152878
2838	0.182626
2850	0.186762
2862	0.18549
2874	0.237669
2886	0.291438
2898	0.306631
2910	0.278791
2922	0.256758
2934	0.271394
2946	0.255327
2958	0.200761
2970	0.153355
2982	0.133629
2994	0.156298
3006	0.150651
3018	0.0942561
3030	0.0408045
3042	0.0256917
3054	0.0190898
3066	0.0167036
3078	0.0161468
3090	0.0139992
3102	0.0127266
3114	0.0108176
3126	0.00811318
3138	0.00652236
3150	0.00628374
3162	0.00564741
3174	0.00556787
3186	0.00604512
3198	0.00540879
3210	0.00532925
3222	0.00540879
3234	0.00453384
3246	0.00477246
3258	0.00556787
3270	0.00524971
3282	0.004852
3294	0.00501108
3306	0.00405659
3318	0.00342026
3330	0.00413613
3342	0.00373843
3354	0.00318164
3366	0.00357935
3378	0.00294302
3390	0.00206807
3402	0.00294302
3414	0.00262485
3426	0.00246577
3438	0.00278393
3450	0.00206807
3462	0.00198853
3474	0.00246577
3486	0.00254531
3498	0.00198853
3510	0.00270439
3522	0.00318164
3534	0.00334072
3546	0.00437476
3558	0.00357935
3570	0.00365889
3582	0.00453384
3594	0.00509062
3606	0.00469292
3618	0.00493154
3630	0.00692007
3642	0.00469292
3654	0.00652236
3666	0.00604512
3678	0.00652236
3690	0.00811318
3702	0.00819272
3714	0.00819272
3726	0.00866997
3738	0.00946538
3750	0.0101017
3762	0.00946538
3774	0.00906767
3786	0.00906767
3798	0.0112948
3810	0.0119311
3822	0.0112948
3834	0.0114539
3846	0.0121698
3858	0.0117721
3870	0.0132038
3882	0.0125675
3894	0.011613
3906	0.0129652
3918	0.0128856
3930	0.0136015
3942	0.0132038
3954	0.000715869
3966	0.00167036
