Infrared Spectrum: 2-Propanol, 1,1'-oxybis-
Formula: C 6 H 14 O 3
CAS: 110-98-5
Origin: Sadtler Research Labs Under US-EPA Contract
1/CM	ABSORBANCE
450	0.0771477
462	0.0762423
474	0.0735258
486	0.0678212
498	0.0594907
510	0.0557782
522	0.0588569
534	0.0505263
546	0.0423769
558	0.0392983
570	0.0272552
582	0.0191058
594	0.0169327
606	0.0154839
618	0.0109564
630	0.00796831
642	0.00996039
654	0.0199208
666	0.02309
678	0.0135823
690	0.00534239
702	0.00280702
714	0.00199208
726	0.00190153
738	0.00190153
750	0.00271647
762	0.000724392
774	0.00271647
786	0.0145784
798	0.0300623
810	0.0437352
822	0.0549632
834	0.0661913
846	0.0833956
858	0.0867459
870	0.0612111
882	0.0402038
894	0.0494398
906	0.071081
918	0.0888286
930	0.127221
942	0.172586
954	0.169146
966	0.160453
978	0.19794
990	0.228998
1002	0.223837
1014	0.212519
1026	0.247561
1038	0.414262
1050	0.609848
1062	0.68618
1074	0.72412
1086	0.840385
1098	0.902955
1110	0.830878
1122	0.858133
1134	0.830878
1146	0.729372
1158	0.500827
1170	0.269655
1182	0.147685
1194	0.114997
1206	0.134737
1218	0.169779
1230	0.191964
1242	0.233616
1254	0.323803
1266	0.31339
1278	0.201834
1290	0.146237
1302	0.162717
1314	0.231353
1326	0.245297
1338	0.225376
1350	0.211432
1362	0.210436
1374	0.326339
1386	0.415982
1398	0.314748
1410	0.207357
1422	0.112371
1434	0.0848444
1446	0.119615
1458	0.175212
1470	0.153028
1482	0.0814941
1494	0.0327787
1506	0.0164799
1518	0.0103226
1530	0.00778721
1542	0.00733447
1554	0.00706282
1566	0.00588568
1578	0.0042558
1590	0.00353141
1602	0.00488965
1614	0.00579514
1626	0.00516129
1638	0.0042558
1650	0.00262592
1662	0.00244482
1674	0.00289757
1686	0.00407471
1698	0.00244482
1710	0.00126769
1722	0.000452745
1734	0.00117714
1746	0.00389361
1758	0.00371251
1770	0.00316921
1782	0.00144878
1794	0.000543294
1806	0.000996039
1818	0.00162988
1830	0.00172043
1842	0.000814941
1854	0.000452745
1866	0.00135823
1878	0.00253537
1890	0.00362196
1902	0.00362196
1914	0.00235427
1926	0.00172043
1938	0.00244482
1950	0.00335031
1962	0.00416525
1974	0.00389361
1986	0.00353141
1998	0.00307867
2010	0.00380306
2022	0.004618
2034	0.00561404
2046	0.00615733
2058	0.00642898
2070	0.00688172
2082	0.00986984
2094	0.00959819
2106	0.00670063
2118	0.004618
2130	0.00280702
2142	0.00271647
2154	0.00362196
2166	0.00407471
2178	0.00398416
2190	0.00371251
2202	0.00353141
2214	0.00407471
2226	0.00371251
2238	0.00353141
2250	0.00208263
2262	0.00108659
2274	0.000633843
2286	0.00244482
2298	0.00407471
2310	0.00335031
2322	0.00153933
2334	0.000181098
2346	0.000181098
2358	0.00244482
2370	0.000181098
2382	0.000181098
2394	0.00162988
2406	0.00235427
2418	0.00344086
2430	0.00470855
2442	0.00380306
2454	0.00289757
2466	0.00244482
2478	0.00172043
2490	0.00307867
2502	0.00407471
2514	0.004618
2526	0.00335031
2538	0.00298812
2550	0.00353141
2562	0.00561404
2574	0.00742502
2586	0.00778721
2598	0.00697227
2610	0.00769667
2622	0.00968874
2634	0.0140351
2646	0.0152122
2658	0.0175665
2670	0.0190153
2682	0.0201019
2694	0.0237238
2706	0.0276174
2718	0.0289757
2730	0.0300623
2742	0.0325071
2754	0.0376684
2766	0.0454556
2778	0.0534239
2790	0.0609395
2802	0.065648
2814	0.0723487
2826	0.0876514
2838	0.125682
2850	0.211975
2862	0.356401
2874	0.519208
2886	0.606497
2898	0.625422
2910	0.602694
2922	0.564845
2934	0.571002
2946	0.511873
2958	0.388546
2970	0.483803
2982	0.707097
2994	0.500736
3006	0.124867
3018	0.0402038
3030	0.0224562
3042	0.0157555
3054	0.0144878
3066	0.011047
3078	0.0106848
3090	0.00878325
3102	0.00823996
3114	0.00996039
3126	0.00661008
3138	0.00624788
3150	0.00316921
3162	0.0042558
3174	0.00878325
3186	0.0106848
3198	0.00968874
3210	0.00606678
3222	0.00181098
3234	0.00325976
3246	0.00516129
3258	0.00642898
3270	0.00597623
3282	0.00552349
3294	0.00371251
3306	0.00697227
3318	0.00814941
3330	0.00670063
3342	0.0088738
3354	0.00914545
3366	0.00896435
3378	0.00814941
3390	0.0126769
3402	0.012858
3414	0.0117714
3426	0.0094171
3438	0.00878325
3450	0.0152122
3462	0.0178382
3474	0.0151217
3486	0.0165705
3498	0.0169327
3510	0.0217318
3522	0.0292473
3534	0.0410187
3546	0.0520657
3558	0.0532428
3570	0.0504358
3582	0.0522468
3594	0.0636559
3606	0.105761
3618	0.224109
3630	0.269112
3642	0.135099
3654	0.091545
3666	0.0885569
3678	0.0680023
3690	0.0339559
3702	0.00778721
3714	0.00597623
3726	0.010232
3738	0.0117714
3750	0.0088738
3762	0.00470855
3774	0.00543294
3786	0.00407471
3798	0.00896435
3810	0.0111375
3822	0.0139445
3834	0.00914545
3846	0.00289757
3858	0.00371251
3870	0.0123147
3882	0.0106848
3894	0.00751557
3906	0.00244482
3918	0.000181098
3930	0.0108659
3942	0.0187436
3954	0.0246293
3966	0.01485
