Infrared Spectrum: 2-Hexanone, 5-methyl-
Formula: C 7 H 14 O
CAS: 110-12-3
Origin: Sadtler Research Labs Under US-EPA Contract
1/CM	ABSORBANCE
450	0.00627264
462	0.00306504
474	0.00919512
486	0.0111197
498	0.010692
510	0.0139709
522	0.0164657
534	0.0186754
546	0.019602
558	0.0081972
570	0.0120463
582	0.0219542
594	0.020101
606	0.0108346
618	0.00228096
630	0.0010692
642	0.001782
654	0.00156816
666	0
678	0.001782
690	0.00235224
702	0.00228096
714	0.0049896
726	0.0057024
738	0.00912384
750	0.00755568
762	0.00327888
774	0.00370656
786	0.00292248
798	0.0039204
810	0.00277992
822	0.00206712
834	0.0039204
846	0.00449064
858	0.00413424
870	0.0074844
882	0.00826848
894	0.0103356
906	0.014755
918	0.0217404
930	0.0241639
942	0.0169646
954	0.0161806
966	0.0216691
978	0.0208138
990	0.0179626
1002	0.0204574
1014	0.023166
1026	0.0206712
1038	0.0151826
1050	0.011975
1062	0.00898128
1074	0.00869616
1086	0.0116186
1098	0.0206712
1110	0.034357
1122	0.0417701
1134	0.0454054
1146	0.083754
1158	0.185471
1170	0.21163
1182	0.122459
1194	0.0662904
1206	0.0543154
1218	0.0658627
1230	0.080689
1242	0.0733471
1254	0.066433
1266	0.0672883
1278	0.0573091
1290	0.0388476
1302	0.0312206
1314	0.0501811
1326	0.0734184
1338	0.0958003
1350	0.163017
1362	0.252688
1374	0.201509
1386	0.134648
1398	0.0910958
1410	0.0650786
1422	0.0737035
1434	0.0726343
1446	0.0793346
1458	0.0981526
1470	0.103998
1482	0.0694267
1494	0.0320047
1506	0.0198158
1518	0.0149688
1530	0.0134006
1542	0.0130442
1554	0.011975
1566	0.0099792
1578	0.00948024
1590	0.00798336
1602	0.00791208
1614	0.00826848
1626	0.00919512
1638	0.0100505
1650	0.0102643
1662	0.0146124
1674	0.0227383
1686	0.040986
1698	0.074345
1710	0.155533
1722	0.366949
1734	0.531179
1746	0.353406
1758	0.122245
1770	0.0489694
1782	0.0268013
1794	0.0156816
1806	0.010193
1818	0.00670032
1830	0.00548856
1842	0.00413424
1854	0.00349272
1866	0.00377784
1878	0.00306504
1890	0.00256608
1902	0.00235224
1914	0.0028512
1926	0.00220968
1938	0.00199584
1950	0.00220968
1962	0.00149688
1974	0.00185328
1986	0.00135432
1998	0.0010692
2010	0.00099792
2022	0.00128304
2034	0.00085536
2046	0.00128304
2058	0.00156816
2070	0.00185328
2082	0.001782
2094	0.00220968
2106	0.00277992
2118	0.00228096
2130	0.00270864
2142	0.00220968
2154	0.00206712
2166	0.00156816
2178	0.00263736
2190	0.00220968
2202	0.00149688
2214	0.00114048
2226	0.00163944
2238	0.00156816
2250	0.00171072
2262	0.001782
2274	0.00135432
2286	0.00199584
2298	0.00185328
2310	0.0028512
2322	0.00242352
2334	0.0003564
2346	0.00121176
2358	0.00128304
2370	0
2382	0
2394	0.0010692
2406	0.00099792
2418	0.00085536
2430	0.00064152
2442	0.0003564
2454	0.00049896
2466	0.00085536
2478	0.0010692
2490	0.00206712
2502	0.0010692
2514	0.00092664
2526	0.00078408
2538	0.00057024
2550	0.00099792
2562	0.00092664
2574	0.0024948
2586	0.0021384
2598	0.00242352
2610	0.00299376
2622	0.00242352
2634	0.003564
2646	0.0039204
2658	0.00384912
2670	0.00306504
2682	0.00342144
2694	0.0032076
2706	0.00327888
2718	0.00506088
2730	0.00805464
2742	0.00948024
2754	0.00776952
2766	0.00798336
2778	0.00841104
2790	0.0104782
2802	0.0146124
2814	0.0206712
2826	0.0259459
2838	0.0339293
2850	0.0546718
2862	0.0971546
2874	0.186041
2886	0.236792
2898	0.223463
2910	0.251048
2922	0.300588
2934	0.354475
2946	0.387549
2958	0.526474
2970	0.677231
2982	0.294173
2994	0.0848945
3006	0.056525
3018	0.0491119
3030	0.029795
3042	0.0223106
3054	0.0206712
3066	0.019602
3078	0.0174636
3090	0.014755
3102	0.0120463
3114	0.00948024
3126	0.00912384
3138	0.0081972
3150	0.00841104
3162	0.00905256
3174	0.00898128
3186	0.0085536
3198	0.00812592
3210	0.00734184
3222	0.00520344
3234	0.00327888
3246	0.00299376
3258	0.00220968
3270	0.00292248
3282	0.00206712
3294	0.00256608
3306	0.00363528
3318	0.00420552
3330	0.00342144
3342	0.00256608
3354	0.00449064
3366	0.0042768
3378	0.00306504
3390	0.00270864
3402	0.00377784
3414	0.00548856
3426	0.00670032
3438	0.0099792
3450	0.0107633
3462	0.00905256
3474	0.00434808
3486	0.00263736
3498	0.00327888
3510	0.00277992
3522	0.00242352
3534	0.00220968
3546	0.00277992
3558	0.00156816
3570	0.0028512
3582	0.00292248
3594	0.00277992
3606	0.00185328
3618	0.00342144
3630	0.00384912
3642	0.003564
3654	0.00335016
3666	0.0032076
3678	0.0024948
3690	0.00306504
3702	0.00149688
3714	0.00256608
3726	0.00399168
3738	0.00256608
3750	0.0032076
3762	0.00206712
3774	0.00228096
3786	0.003564
3798	0.00342144
3810	0.00121176
3822	0.00206712
3834	0.0046332
3846	0.0049896
3858	0.00306504
3870	0.00292248
3882	0.00235224
3894	0.00277992
3906	0.0039204
3918	0.00206712
3930	0.00128304
3942	0.00192456
3954	0.00220968
3966	0.00206712
