Infrared Spectrum: Isopropyl Myristate
Formula: C 17 H 34 O 2
CAS: 110-27-0
Origin: Sadtler Research Labs Under US-EPA Contract
1/CM	ABSORBANCE
450	0.00876159
462	0.0100272
474	0.00710662
486	0.00525695
498	0.00778808
510	0.00447815
522	0.00379669
534	0.00330993
546	0.00175232
558	0.00447815
570	0.0047702
582	0.00915099
594	0.00769073
606	0.00944305
618	0.00788543
630	0.00808013
642	0.00730133
654	0.00681457
666	0.00369934
678	0.00671722
690	0.00876159
702	0.0131424
714	0.019957
726	0.0193728
738	0.0179126
750	0.0136291
762	0.0122662
774	0.0124609
786	0.013045
798	0.0133371
810	0.0172311
822	0.0239483
834	0.0193728
846	0.0142132
858	0.0137265
870	0.0168417
882	0.0192755
894	0.0192755
906	0.0187887
918	0.0217093
930	0.0304709
942	0.038843
954	0.0503305
966	0.053251
978	0.0391351
990	0.0296921
1002	0.0257007
1014	0.025506
1026	0.0258954
1038	0.027453
1050	0.0319311
1062	0.0401086
1074	0.0498437
1086	0.0705795
1098	0.139115
1110	0.301593
1122	0.254281
1134	0.186622
1146	0.184772
1158	0.18925
1170	0.226146
1182	0.24036
1194	0.191489
1206	0.162187
1218	0.151576
1230	0.161408
1242	0.178834
1254	0.166957
1266	0.125583
1278	0.0957934
1290	0.082651
1302	0.0803146
1314	0.0782702
1326	0.0750576
1338	0.0808013
1350	0.0852795
1362	0.100953
1374	0.121202
1386	0.0998821
1398	0.0433212
1410	0.0272583
1422	0.033294
1434	0.0443921
1446	0.0655172
1458	0.0985192
1470	0.090147
1482	0.0400113
1494	0.0174258
1506	0.0122662
1518	0.00798278
1530	0.00535431
1542	0.00759338
1554	0.00613311
1566	0.0045755
1578	0.00778808
1590	0.00447815
1602	0.00535431
1614	0.00467285
1626	0.00428344
1638	0.00759338
1650	0.00389404
1662	0.00661987
1674	0.00613311
1686	0.0132397
1698	0.0188861
1710	0.0303735
1722	0.0612338
1734	0.187011
1746	0.417052
1758	0.28115
1770	0.0810934
1782	0.0273556
1794	0.0162576
1806	0.0103192
1818	0.00749603
1830	0.0047702
1842	0.00301788
1854	0.00360199
1866	0.00136291
1878	0.00165497
1890	0.00126556
1902	0.00116821
1914	0.00116821
1926	0.00126556
1938	0.00165497
1950	0.00116821
1962	0.00116821
1974	0.00107086
1986	0.00165497
1998	0.00184967
2010	0.00223907
2022	0.00399139
2034	0.00428344
2046	0.00467285
2058	0.00389404
2070	0.0045755
2082	0.00107086
2094	0.000389404
2106	0.000584106
2118	0.000584106
2130	0.000486755
2142	0.000389404
2154	0.000389404
2166	0.000292053
2178	9.7351e-05
2190	0.00116821
2202	0.00097351
2214	0.000584106
2226	0.000876159
2238	0.000292053
2250	0.000778808
2262	0.00097351
2274	0.00184967
2286	0.00146026
2298	0.00243378
2310	0.00233642
2322	0.00243378
2334	0.00184967
2346	0.0051596
2358	0.00321258
2370	0.00632781
2382	0.00700927
2394	0.00262848
2406	0.00301788
2418	0.00204437
2430	0.00214172
2442	0.00262848
2454	0.00262848
2466	0.00223907
2478	0.00340728
2490	0.00301788
2502	0.00369934
2514	0.00379669
2526	0.00486755
2538	0.00545166
2550	0.00623046
2562	0.00671722
2574	0.00681457
2586	0.00730133
2598	0.00749603
2610	0.00788543
2622	0.00681457
2634	0.00632781
2646	0.00817748
2658	0.00691192
2670	0.00837219
2682	0.0118768
2694	0.0141159
2706	0.0140185
2718	0.0128503
2730	0.0128503
2742	0.0149921
2754	0.0146027
2766	0.0158682
2778	0.0168417
2790	0.0204437
2802	0.0257007
2814	0.0328073
2826	0.0431265
2838	0.0615258
2850	0.131424
2862	0.345207
2874	0.282026
2886	0.202977
2898	0.194507
2910	0.300912
2922	0.555874
2934	0.97351
2946	0.647774
2958	0.34472
2970	0.303735
2982	0.277061
2994	0.180002
3006	0.0805093
3018	0.0418609
3030	0.0276477
3042	0.021904
3054	0.0174258
3066	0.0148947
3078	0.0125583
3090	0.0122662
3102	0.011098
3114	0.0114874
3126	0.00924834
3138	0.00846954
3150	0.00710662
3162	0.00827483
3174	0.00671722
3186	0.00720397
3198	0.00613311
3210	0.0051596
3222	0.00389404
3234	0.00146026
3246	0.00126556
3258	0.00194702
3270	0.00165497
3282	0.00107086
3294	0.00223907
3306	0.00311523
3318	0.00214172
3330	0.00311523
3342	0.00350464
3354	0.00253113
3366	0.00379669
3378	0.00369934
3390	0.00330993
3402	0.00282318
3414	0.00175232
3426	0.00311523
3438	0.00330993
3450	0.00136291
3462	0.00262848
3474	0.00652252
3486	0.00301788
3498	0.00321258
3510	0.00223907
3522	0.00330993
3534	0.00243378
3546	0.00292053
3558	0.00184967
3570	0.00282318
3582	0.00350464
3594	0.00311523
3606	0.00350464
3618	0.00447815
3630	0.00827483
3642	0.00691192
3654	0.00778808
3666	0.00730133
3678	0.0104166
3690	0.0093457
3702	0.00798278
3714	0.00856689
3726	0.0104166
3738	0.00915099
3750	0.0097351
3762	0.0116821
3774	0.0107086
3786	0.00817748
3798	0.00885894
3810	0.0116821
3822	0.0129477
3834	0.0107086
3846	0.0128503
3858	0.0135318
3870	0.0136291
3882	0.0123636
3894	0.0139212
3906	0.0134344
3918	0.0129477
3930	0.0093457
3942	0.0102219
3954	0.0106113
3966	0.0137265
