Infrared Spectrum: 1,4-Butanediol
Formula: C 4 H 10 O 2
CAS: 110-63-4
Origin: Sadtler Research Labs Under US-EPA Contract
1/CM	ABSORBANCE
450	0.330289
462	0.137098
474	0
486	0.077225
498	0.0943193
510	0.109352
522	0.112616
534	0.0816059
546	0.0507675
558	0.0219907
570	0.0371092
582	0.0430364
594	0.0392568
606	0.0379682
618	0.0463865
630	0.0670887
642	0.0745621
654	0.06245
666	0.0411466
678	0.0353053
690	0.0301513
702	0.0273165
714	0.0288627
726	0.0249972
738	0.0286909
750	0.0411466
762	0.0490495
774	0.0551484
786	0.0440672
798	0.0320411
810	0.0249113
822	0.0232792
834	0.0304949
846	0.0280896
858	0.0445826
870	0.114162
882	0.226435
894	0.235283
906	0.187178
918	0.165703
930	0.199806
942	0.162439
954	0.0978412
966	0.107204
978	0.174207
990	0.303231
1002	0.398237
1014	0.398323
1026	0.380456
1038	0.44909
1050	0.576911
1062	0.693135
1074	0.757819
1086	0.73892
1098	0.663671
1110	0.56772
1122	0.436205
1134	0.325822
1146	0.264146
1158	0.224717
1170	0.173262
1182	0.139246
1194	0.137528
1206	0.170342
1218	0.215697
1230	0.270588
1242	0.319466
1254	0.361557
1266	0.369288
1278	0.294984
1290	0.215783
1302	0.189498
1314	0.21209
1326	0.232276
1338	0.228239
1350	0.226435
1362	0.276773
1374	0.386555
1386	0.466013
1398	0.397893
1410	0.257961
1422	0.161064
1434	0.142252
1446	0.16828
1458	0.190099
1470	0.139417
1482	0.0830663
1494	0.0427787
1506	0.0317834
1518	0.0298935
1530	0.0264575
1542	0.0215612
1554	0.0232792
1566	0.0212175
1578	0.0189841
1590	0.0187264
1602	0.0194136
1614	0.0189841
1626	0.0197572
1638	0.0180392
1650	0.0194136
1662	0.0197572
1674	0.0185546
1686	0.0160635
1698	0.0160635
1710	0.0161494
1722	0.0158058
1734	0.0153763
1746	0.0152045
1758	0.015634
1770	0.0153763
1782	0.0137442
1794	0.0133147
1806	0.0141737
1818	0.0140019
1830	0.0140878
1842	0.0129711
1854	0.0132288
1866	0.0135724
1878	0.0140878
1890	0.0140878
1902	0.0140019
1914	0.0129711
1926	0.013057
1938	0.0117684
1950	0.0115966
1962	0.0108235
1974	0.0115966
1986	0.0129711
1998	0.0132288
2010	0.0119402
2022	0.0111671
2034	0.0102222
2046	0.00936321
2058	0.00910551
2070	0.00910551
2082	0.0089337
2094	0.008676
2106	0.0088478
2118	0.00936321
2130	0.00944911
2142	0.0089337
2154	0.00927731
2166	0.0085901
2178	0.0082465
2190	0.0083324
2202	0.00790289
2214	0.00790289
2226	0.00790289
2238	0.00910551
2250	0.00970681
2262	0.00979271
2274	0.00970681
2286	0.00979271
2298	0.00970681
2310	0.0109094
2322	0.012112
2334	0.010394
2346	0.00953501
2358	0.0142596
2370	0.00807469
2382	0.0084183
2394	0.0108235
2406	0.0116825
2418	0.0117684
2430	0.0119402
2442	0.012112
2454	0.0125415
2466	0.0125415
2478	0.0119402
2490	0.0116825
2502	0.0114248
2514	0.0110812
2526	0.0110812
2538	0.011253
2550	0.0117684
2562	0.0125415
2574	0.0146891
2586	0.0167507
2598	0.0195854
2610	0.0228497
2622	0.0261139
2634	0.0280896
2646	0.0283473
2658	0.0268011
2670	0.0265434
2682	0.0268011
2694	0.0274024
2706	0.0291204
2718	0.0315257
2730	0.0347899
2742	0.0374528
2754	0.0393427
2766	0.0414902
2778	0.0445826
2790	0.0483623
2802	0.0530009
2814	0.061591
2826	0.0769673
2838	0.100848
2850	0.13203
2862	0.191473
2874	0.322816
2886	0.483021
2898	0.585329
2910	0.515148
2922	0.427443
2934	0.386984
2946	0.364822
2958	0.376676
2970	0.596582
2982	0.840369
2994	0.6836
3006	0.317318
3018	0.0792007
3030	0.0303231
3042	0.0216471
3054	0.0203585
3066	0.0211316
3078	0.022592
3090	0.0216471
3102	0.0194136
3114	0.0175238
3126	0.016493
3138	0.0167507
3150	0.016493
3162	0.0176097
3174	0.0200149
3186	0.0194136
3198	0.0205303
3210	0.0176097
3222	0.0143455
3234	0.0123697
3246	0.0120261
3258	0.0109094
3270	0.00936321
3282	0.00970681
3294	0.00764519
3306	0.00807469
3318	0.00936321
3330	0.0101363
3342	0.0108235
3354	0.0111671
3366	0.00979271
3378	0.00987862
3390	0.00927731
3402	0.0108235
3414	0.0100504
3426	0.0107376
3438	0.0109953
3450	0.0105658
3462	0.0115966
3474	0.0114248
3486	0.0106517
3498	0.0131429
3510	0.0140878
3522	0.0153763
3534	0.01907
3546	0.0198431
3558	0.020788
3570	0.026887
3582	0.0429505
3594	0.0796302
3606	0.146032
3618	0.207193
3630	0.222226
3642	0.20453
3654	0.202984
3666	0.197658
3678	0.138043
3690	0.0609897
3702	0.0307526
3714	0.0212175
3726	0.0210457
3738	0.0163212
3750	0.0155481
3762	0.014775
3774	0.0143455
3786	0.0145173
3798	0.0119402
3810	0.0104799
3822	0.0115966
3834	0.0142596
3846	0.0137442
3858	0.0161494
3870	0.0149468
3882	0.0201867
3894	0.0157199
3906	0.0140019
3918	0.0150327
3930	0.013057
3942	0.016493
3954	0.0142596
3966	0.0132288
