Infrared Spectrum: Decanoic acid, ethyl ester
Formula: C 12 H 24 O 2
CAS: 110-38-3
Origin: Sadtler Research Labs Under US-EPA Contract
1/CM	ABSORBANCE
450	0.0157312
462	0.01045
474	0.00848363
486	0.00853982
498	0.00410136
510	0.00483174
522	0.0036519
534	0.00516884
546	0.00640486
558	0.00612395
570	0
582	0.0100568
594	0.00882073
606	0.00876455
618	0.0110119
630	0.00842745
642	0.0092702
654	0.00820272
666	0.0052812
678	0.00612395
690	0.00932638
702	0.0112928
714	0.0151694
726	0.0162369
738	0.0163493
750	0.0141581
762	0.0148885
774	0.0148885
786	0.0148323
798	0.013821
810	0.0128659
822	0.0138772
834	0.0116861
846	0.0160122
858	0.0198326
870	0.0182033
882	0.013821
894	0.0134839
906	0.0155627
918	0.017192
930	0.0188775
942	0.0183157
954	0.0158998
966	0.0137648
978	0.0125288
990	0.0134839
1002	0.01781
1014	0.0243834
1026	0.0508456
1038	0.0824205
1050	0.0815777
1062	0.0665207
1074	0.0509018
1086	0.0514074
1098	0.0809597
1110	0.110737
1122	0.101579
1134	0.0880949
1146	0.129277
1158	0.224395
1170	0.246587
1182	0.230126
1194	0.203776
1206	0.167819
1218	0.146301
1230	0.146132
1242	0.158324
1254	0.14293
1266	0.105849
1278	0.0821957
1290	0.0710153
1302	0.0747234
1314	0.0721952
1326	0.0605653
1338	0.0609586
1350	0.0718581
1362	0.0603405
1374	0.0919716
1386	0.0577561
1398	0.034384
1410	0.0242711
1422	0.0291028
1434	0.0432609
1446	0.0537109
1458	0.0730941
1470	0.0744987
1482	0.0353391
1494	0.0172482
1506	0.0108995
1518	0.0082589
1530	0.00691051
1542	0.00612395
1554	0.00466319
1566	0.00404518
1578	0.00426991
1590	0.00241587
1602	0.00174167
1614	0.00303388
1626	0.00443846
1638	0.00505647
1650	0.00488792
1662	0.0052812
1674	0.00696669
1686	0.00898928
1698	0.014439
1710	0.0247205
1722	0.0415192
1734	0.0963538
1746	0.262262
1758	0.395191
1770	0.169841
1782	0.0633182
1794	0.0267431
1806	0.0144952
1818	0.00904546
1830	0.00668578
1842	0.00544975
1854	0.00455082
1866	0.00387663
1878	0.00449464
1890	0.00432609
1902	0.00387663
1914	0.00398899
1926	0.00387663
1938	0.00353953
1950	0.00370808
1962	0.0036519
1974	0.0033148
1986	0.00320243
1998	0.00314625
2010	0.00449464
2022	0.00589922
2034	0.00657341
2046	0.00533739
2058	0.00398899
2070	0.00567448
2082	0.0026406
2094	0.00117984
2106	0.00303388
2118	0.00269678
2130	0.00252824
2142	0.00235969
2154	0.0026406
2166	0.00213495
2178	0.00241587
2190	0.00207877
2202	0.00252824
2214	0.00247205
2226	0.0023035
2238	0.0023035
2250	0.00213495
2262	0.00224732
2274	0.00219114
2286	0.00252824
2298	0.00162931
2310	0.00123603
2322	0.000393281
2334	0.00252824
2346	0.00500029
2358	0.000337098
2370	0.00932638
2382	0.00842745
2394	0.00382044
2406	0.00353953
2418	0.00359571
2430	0.00387663
2442	0.00387663
2454	0.00359571
2466	0.00370808
2478	0.0036519
2490	0.00376426
2502	0.00449464
2514	0.00449464
2526	0.00449464
2538	0.00505647
2550	0.00505647
2562	0.00584303
2574	0.0056183
2586	0.00516884
2598	0.00651723
2610	0.00735997
2622	0.00646105
2634	0.0059554
2646	0.00668578
2658	0.00370808
2670	0.00511265
2682	0.00876455
2694	0.00932638
2706	0.00904546
2718	0.00915783
2730	0.0105624
2742	0.0112366
2754	0.0109557
2766	0.0116299
2778	0.0130345
2790	0.0137648
2802	0.0163493
2814	0.0205068
2826	0.0281477
2838	0.0382606
2850	0.075229
2862	0.20254
2874	0.198382
2886	0.14984
2898	0.124614
2910	0.183494
2922	0.328839
2934	0.56183
2946	0.448397
2958	0.275072
2970	0.290073
2982	0.182539
2994	0.125063
3006	0.0710153
3018	0.0411821
3030	0.0250576
3042	0.0180909
3054	0.0134277
3066	0.011349
3078	0.00988821
3090	0.0103377
3102	0.00831508
3114	0.00691051
3126	0.00769707
3138	0.00831508
3150	0.008596
3162	0.00466319
3174	0.00685433
3186	0.00415754
3198	0.00820272
3210	0.00685433
3222	0.0062925
3234	0.00359571
3246	0.00426991
3258	0.00449464
3270	0.00382044
3282	0.00219114
3294	0.00269678
3306	0.00174167
3318	0.00207877
3330	0.00191022
3342	0.00320243
3354	0.000112366
3366	0.00140457
3378	0.00376426
3390	0.00275297
3402	0.00151694
3414	0.00174167
3426	0.000618013
3438	0.00539357
3450	0.00191022
3462	0.00292152
3474	0.00280915
3486	0.00455082
3498	0.00657341
3510	0.00466319
3522	0.00252824
3534	0.00353953
3546	0.00353953
3558	0.00438227
3570	0.00550593
3582	0.00691051
3594	0.00398899
3606	0.0036519
3618	0.0049441
3630	0.00522502
3642	0.00533739
3654	0.00516884
3666	0.00516884
3678	0.00578685
3690	0.00853982
3702	0.00797799
3714	0.00809035
3726	0.00719142
3738	0.0082589
3750	0.00752852
3762	0.00797799
3774	0.0100006
3786	0.00707906
3798	0.00702288
3810	0.00882073
3822	0.00685433
3834	0.00904546
3846	0.00786562
3858	0.00786562
3870	0.0092702
3882	0.0089331
3894	0.00949493
3906	0.0106186
3918	0.00887691
3930	0.00674196
3942	0.00831508
3954	0.0101129
3966	0.00735997
