Infrared Spectrum: 5-Hepten-2-one, 6-methyl-
Formula: C 8 H 14 O
CAS: 110-93-0
Origin: Sadtler Research Labs Under US-EPA Contract
1/CM	ABSORBANCE
450	0.036343
462	0.0344302
474	0.0263443
486	0.0233013
498	0.0343433
510	0.0522539
522	0.0762508
534	0.0808588
546	0.0408642
558	0.0246924
570	0.0195626
582	0.0155632
594	0.0301699
606	0.0310394
618	0.0113898
630	0.0069556
642	0.00582532
654	0.00356475
666	0.00547754
678	0.00278224
690	0.0044342
702	0.00634699
714	0.0120854
726	0.0257357
738	0.0279963
750	0.0146068
762	0.012694
774	0.0174759
786	0.0249532
798	0.0361691
810	0.0495587
822	0.0487761
834	0.0495587
846	0.0508628
858	0.0422553
870	0.0293874
882	0.0244315
894	0.0286919
906	0.0351258
918	0.0427769
930	0.0509498
942	0.0562534
954	0.0565143
966	0.0546015
978	0.0523409
990	0.0462547
1002	0.0419944
1014	0.0378211
1026	0.0382558
1038	0.0439942
1050	0.0484284
1062	0.0439942
1074	0.0365169
1086	0.0377341
1098	0.058427
1110	0.0933789
1122	0.0814675
1134	0.104421
1146	0.222144
1158	0.314741
1170	0.228752
1182	0.1938
1194	0.155545
1206	0.144155
1218	0.141981
1230	0.142416
1242	0.129722
1254	0.106855
1266	0.0959873
1278	0.0881622
1290	0.0581662
1302	0.0515584
1314	0.0728599
1326	0.112855
1338	0.170325
1350	0.269703
1362	0.422814
1374	0.333956
1386	0.233882
1398	0.148937
1410	0.135286
1422	0.163109
1434	0.183715
1446	0.188062
1458	0.16363
1470	0.111811
1482	0.0690343
1494	0.0455592
1506	0.0397339
1518	0.0371255
1530	0.0368647
1542	0.0372125
1554	0.0351258
1566	0.0303438
1578	0.0296482
1590	0.0254749
1602	0.0242577
1614	0.0249532
1626	0.028431
1638	0.0293005
1650	0.039473
1662	0.0412119
1674	0.0622526
1686	0.0872928
1698	0.129113
1710	0.262748
1722	0.580271
1734	0.8538
1746	0.603746
1758	0.215276
1770	0.093292
1782	0.0466025
1794	0.0301699
1806	0.0239099
1818	0.0153893
1830	0.0121723
1842	0.0108681
1854	0.00878145
1866	0.00947701
1878	0.00878145
1890	0.00704254
1902	0.00660782
1914	0.00565142
1926	0.00565142
1938	0.00634699
1950	0.00678171
1962	0.00712949
1974	0.00730338
1986	0.00512975
1998	0.00417336
2010	0.00452114
2022	0.00399947
2034	0.00399947
2046	0.00478197
2058	0.0044342
2070	0.00530365
2082	0.00599921
2094	0.00573837
2106	0.00608615
2118	0.00573837
2130	0.00565142
2142	0.00634699
2154	0.00591226
2166	0.00565142
2178	0.00565142
2190	0.00469503
2202	0.00478197
2214	0.0052167
2226	0.0042603
2238	0.00434725
2250	0.0042603
2262	0.00399947
2274	0.0044342
2286	0.00417336
2298	0.00260835
2310	0.00147806
2322	0.000956395
2334	0.000956395
2346	0.0017389
2358	0.000956395
2370	0.00121723
2382	0.00399947
2394	0.00512975
2406	0.00504281
2418	0.00565142
2430	0.00504281
2442	0.00539059
2454	0.00565142
2466	0.00512975
2478	0.00547754
2490	0.00573837
2502	0.00599921
2514	0.00660782
2526	0.00608615
2538	0.00539059
2550	0.00591226
2562	0.00608615
2574	0.00634699
2586	0.00660782
2598	0.00617309
2610	0.00599921
2622	0.00626004
2634	0.00608615
2646	0.00617309
2658	0.00704254
2670	0.00730338
2682	0.00834672
2694	0.00895534
2706	0.00947701
2718	0.0121723
2730	0.019041
2742	0.0295613
2754	0.0248663
2766	0.0201712
2778	0.0193018
2790	0.0229535
2802	0.0312133
2814	0.0418205
2826	0.0532103
2838	0.0730338
2850	0.118767
2862	0.219797
2874	0.299612
2886	0.310394
2898	0.377428
2910	0.43829
2922	0.576185
2934	0.5934
2946	0.450636
2958	0.379776
2970	0.433769
2982	0.435594
2994	0.323783
3006	0.233621
3018	0.174064
3030	0.121984
3042	0.0985087
3054	0.0834672
3066	0.0699907
3078	0.0563404
3090	0.0435594
3102	0.0339955
3114	0.0266052
3126	0.0210407
3138	0.0161718
3150	0.0129548
3162	0.011129
3174	0.00947701
3186	0.00799894
3198	0.00747727
3210	0.00669477
3222	0.00599921
3234	0.00608615
3246	0.00591226
3258	0.00547754
3270	0.00539059
3282	0.00512975
3294	0.00530365
3306	0.00504281
3318	0.00486892
3330	0.0052167
3342	0.00565142
3354	0.00512975
3366	0.00660782
3378	0.00669477
3390	0.00652087
3402	0.00791199
3414	0.00886839
3426	0.0120854
3438	0.0168673
3450	0.0178237
3462	0.0152154
3474	0.00860755
3486	0.00452114
3498	0.0044342
3510	0.00365169
3522	0.00365169
3534	0.0044342
3546	0.00382558
3558	0.00321697
3570	0.00478197
3582	0.00591226
3594	0.00469503
3606	0.0042603
3618	0.00556448
3630	0.00652087
3642	0.00417336
3654	0.00460809
3666	0.00721644
3678	0.00356475
3690	0.00269529
3702	0.00539059
3714	0.00539059
3726	0.00539059
3738	0.00330391
3750	0.00843366
3762	0.00573837
3774	0.00504281
3786	0.00539059
3798	0.00286919
3810	0.00773811
3822	0.0052167
3834	0.00495587
3846	0.00626004
3858	0.00547754
3870	0.00486892
3882	0.00573837
3894	0.00295613
3906	0.00747727
3918	0.00495587
3930	0.00495587
3942	0.00591226
3954	0.00452114
3966	0.00591226
