Infrared Spectrum: 1-Butanol, 3-methyl-, formate
Formula: C 6 H 12 O 2
CAS: 110-45-2
Origin: Sadtler Research Labs Under US-EPA Contract
1/CM	ABSORBANCE
450	0.00318567
462	0.00595059
474	0.0068522
486	0.00450802
498	0.000240428
510	0.00240428
522	0.00546974
534	0.0051692
546	0.00402717
558	0.00540963
570	0.00739316
582	0.00486867
594	0.00462824
606	0.00697241
618	0.00697241
630	0.00739316
642	0.0111799
654	0.0076937
666	0.00751338
678	0.00552984
690	0.00733305
702	0.00583038
714	0.0051091
726	0.0069123
738	0.00871552
750	0.00871552
762	0.0094368
774	0.00925648
786	0.0103384
798	0.00907616
810	0.0128629
822	0.00979744
834	0.00871552
846	0.00546974
858	0.00577027
870	0.0051692
882	0.00709263
894	0.0107592
906	0.017431
918	0.0295726
930	0.0310152
942	0.0245237
954	0.0174911
966	0.0124421
978	0.0124421
990	0.0102783
1002	0.0117209
1014	0.0125624
1026	0.0156879
1038	0.0177917
1050	0.0202561
1062	0.0182725
1074	0.017972
1086	0.0186933
1098	0.0216385
1110	0.031436
1122	0.0513314
1134	0.0844503
1146	0.19072
1158	0.422733
1170	0.60107
1182	0.486927
1194	0.233997
1206	0.0783795
1218	0.04496
1230	0.035403
1242	0.0352828
1254	0.0335998
1266	0.0301136
1278	0.0283104
1290	0.0224199
1302	0.0183326
1314	0.0153273
1326	0.0133438
1338	0.0141853
1350	0.0150268
1362	0.0198353
1374	0.0298732
1386	0.0367855
1398	0.0272886
1410	0.0113001
1422	0.0103384
1434	0.0122618
1446	0.019655
1458	0.0410531
1470	0.0517521
1482	0.0383483
1494	0.0172507
1506	0.0138246
1518	0.00895594
1530	0.00613091
1542	0.0120815
1554	0.00625113
1566	0.00486867
1578	0.00787402
1590	0.00396706
1602	0.00450802
1614	0.00450802
1626	0.00565006
1638	0.00805434
1650	0.00697241
1662	0.00667188
1674	0.00865541
1686	0.0166496
1698	0.0246439
1710	0.040993
1722	0.0817455
1734	0.200457
1746	0.571497
1758	0.453808
1770	0.121176
1782	0.058965
1794	0.0417143
1806	0.0147262
1818	0.00667188
1830	0.00607081
1842	0.00486867
1854	0.00330588
1866	0.00330588
1878	0.00276492
1890	0.00300535
1902	0.00306546
1914	0.00318567
1926	0.00312556
1938	0.00312556
1950	0.00366653
1962	0.00354631
1974	0.00402717
1986	0.00402717
1998	0.00282503
2010	0.00276492
2022	0.00294524
2034	0.00282503
2046	0.00282503
2058	0.00330588
2070	0.00372663
2082	0.00378674
2094	0.00420749
2106	0.00366653
2118	0.00318567
2130	0.00312556
2142	0.00216385
2154	0.00156278
2166	0.00156278
2178	0.00156278
2190	0.00150267
2202	0.00156278
2214	0.00144257
2226	0.00144257
2238	0.000961712
2250	0.00144257
2262	0.00138246
2274	0.00180321
2286	0.00276492
2298	0.0042676
2310	0.00583038
2322	0.0069123
2334	0.00637134
2346	0.00703252
2358	0.00655166
2370	0.00462824
2382	0.00324578
2394	0.00150267
2406	0.00108193
2418	0.000961712
2430	0.00102182
2442	0.00102182
2454	0.000961712
2466	0.000420749
2478	0.000360642
2490	0.000961712
2502	0.000360642
2514	0.000841498
2526	0.000781391
2538	0.00060107
2550	0.000540963
2562	0.000180321
2574	0.000240428
2586	0.000661177
2598	0.000901605
2610	0.00060107
2622	0.00114203
2634	0.00156278
2646	0.001683
2658	0.0017431
2670	0.001683
2682	0.001683
2694	0.00162289
2706	0.00282503
2718	0.00450802
2730	0.00607081
2742	0.00522931
2754	0.00462824
2766	0.00414738
2778	0.00420749
2790	0.00462824
2802	0.00480856
2814	0.00655166
2826	0.0094368
2838	0.0124421
2850	0.0190539
2862	0.030354
2874	0.0625714
2886	0.0947286
2898	0.103144
2910	0.130192
2922	0.183326
2934	0.196309
2946	0.160666
2958	0.186692
2970	0.272525
2982	0.180381
2994	0.0636533
3006	0.0244034
3018	0.01124
3030	0.00643145
3042	0.00474845
3054	0.0043277
3066	0.00390696
3078	0.00366653
3090	0.00246439
3102	0.00330588
3114	0.0043277
3126	0.00474845
3138	0.00222396
3150	0.00180321
3162	0.00240428
3174	0.00294524
3186	0.00294524
3198	0.00186332
3210	0.00138246
3222	0.000961712
3234	0.000420749
3246	0.000480856
3258	0.000480856
3270	0.000480856
3282	6.0107e-05
3294	0.000480856
3306	0.000540963
3318	0.000540963
3330	0.000480856
3342	0.000420749
3354	0.000540963
3366	0.000540963
3378	0.000540963
3390	0.000480856
3402	6.0107e-05
3414	0.00060107
3426	0.000540963
3438	0.00060107
3450	0.000721284
3462	0.00204364
3474	0.00438781
3486	0.00546974
3498	0.00198353
3510	0.00060107
3522	0.000420749
3534	0.00060107
3546	0.00114203
3558	0.000961712
3570	0.00138246
3582	0.00060107
3594	0.00114203
3606	0.00114203
3618	0.00204364
3630	0.00360642
3642	0.00108193
3654	0.00312556
3666	0.00270482
3678	0.00589049
3690	0.00462824
3702	0.000661177
3714	0.00252449
3726	0.00192342
3738	0.00402717
3750	0.00486867
3762	0.001683
3774	0.00108193
3786	0.000781391
3798	0.00270482
3810	0.00180321
3822	0.00366653
3834	0.00324578
3846	0.00264471
3858	0.00294524
3870	0.00372663
3882	0.00222396
3894	0.00204364
3906	0.00150267
3918	0.000781391
3930	0.000300535
3942	0.000841498
3954	0
3966	6.0107e-05
