Infrared Spectrum: 1-Propanamine, 2-methyl-N-(2-methylpropyl)-
Formula: C 8 H 19 N
CAS: 110-96-3
Origin: Sadtler Research Labs Under US-EPA Contract
1/CM	ABSORBANCE
450	0.0109266
462	0.00849845
474	0.00895372
486	0.00607032
498	0.00386983
510	0.00318692
522	0.00349043
534	0.00637384
546	0.00652559
558	0.00493213
570	0.00515977
582	0.009409
594	0.00531153
606	0.00978839
618	0.00872608
630	0.0141135
642	0.0165416
654	0.020715
666	0.0306551
678	0.0334626
690	0.0355873
702	0.0408229
714	0.0392294
726	0.0425681
738	0.0424164
750	0.0284546
762	0.0184386
774	0.0110025
786	0.00910548
798	0.0110783
810	0.0126718
822	0.0148723
834	0.00811905
846	0.00675323
858	0.00660147
870	0.00857433
882	0.00910548
894	0.0122924
906	0.0111542
918	0.0168451
930	0.0160105
942	0.0144929
954	0.0160863
966	0.0145688
978	0.0113818
990	0.00971251
1002	0.0111542
1014	0.0122165
1026	0.00994015
1038	0.0107748
1050	0.0127477
1062	0.0143411
1074	0.0221567
1086	0.037636
1098	0.0742855
1110	0.106155
1122	0.132864
1134	0.153883
1146	0.0824805
1158	0.0431752
1170	0.0272406
1182	0.0223843
1194	0.0160863
1206	0.0103954
1218	0.0123683
1230	0.0202597
1242	0.0192733
1254	0.0147205
1266	0.0158587
1278	0.0183627
1290	0.0222325
1302	0.0165416
1314	0.0114577
1326	0.0179833
1338	0.0298204
1350	0.0380154
1362	0.0573645
1374	0.0773207
1386	0.112529
1398	0.0674564
1410	0.021322
1422	0.0206391
1434	0.0298963
1446	0.076486
1458	0.153276
1470	0.182034
1482	0.0945452
1494	0.0349043
1506	0.0231431
1518	0.0140376
1530	0.00819493
1542	0.0150999
1554	0.00865021
1566	0.00515977
1578	0.00827081
1590	0.00364219
1602	0.00386983
1614	0.00440098
1626	0.00485626
1638	0.0075879
1650	0.00675323
1662	0.00531153
1674	0.00880196
1686	0.0108507
1698	0.00963663
1710	0.00462862
1722	0.00409747
1734	0.0100919
1746	0.00523565
1758	0.00417335
1770	0.00508389
1782	0.00303516
1794	0.0047045
1806	0.00235225
1818	0.0018211
1830	0.00386983
1842	0.00280752
1854	0.00197285
1866	0.0028834
1878	0.00204873
1890	0.00273164
1902	0.00166934
1914	0.00189697
1926	0.00197285
1938	0.00136582
1950	0.00121406
1962	0.0014417
1974	0.00136582
1986	0.00174522
1998	0.00159346
2010	0.0014417
2022	0.00174522
2034	0.000910548
2046	0.00166934
2058	0.00189697
2070	0.00121406
2082	0.00212461
2094	0.00166934
2106	0.00197285
2118	0.00204873
2130	0.00257989
2142	0.00250401
2154	0.00257989
2166	0.00166934
2178	0.00159346
2190	0.000986427
2202	0.000834669
2214	0.000986427
2226	0.000607032
2238	0.000531153
2250	0.000986427
2262	0.0014417
2274	0.00174522
2286	0.00220049
2298	0.00349043
2310	0.00508389
2322	0.0072085
2334	0.00887784
2346	0.00409747
2358	0.0110025
2370	0.00394571
2382	0.00166934
2394	0.00265577
2406	0.00204873
2418	0.00204873
2430	0.00257989
2442	0.00159346
2454	0.00212461
2466	0.00265577
2478	0.00242813
2490	0.00318692
2502	0.00295928
2514	0.00311104
2526	0.00333868
2538	0.00273164
2550	0.00409747
2562	0.00508389
2574	0.00591856
2586	0.00751202
2598	0.00751202
2610	0.00872608
2622	0.0101678
2634	0.0116854
2646	0.0128236
2658	0.0126718
2670	0.0140376
2682	0.015707
2694	0.0193491
2706	0.0251918
2718	0.0321727
2730	0.0394571
2742	0.0454515
2754	0.0478796
2766	0.0553158
2778	0.0721609
2790	0.104485
2802	0.154566
2814	0.185069
2826	0.15927
2838	0.116247
2850	0.0984151
2862	0.121103
2874	0.250325
2886	0.35481
2898	0.310876
2910	0.310269
2922	0.313532
2934	0.328253
2946	0.380078
2958	0.591401
2970	0.692396
2982	0.263072
2994	0.0776242
3006	0.031338
3018	0.0185904
3030	0.0136582
3042	0.0107748
3054	0.0103954
3066	0.0101678
3078	0.0100919
3090	0.0104713
3102	0.00948488
3114	0.009409
3126	0.00971251
3138	0.009409
3150	0.0105472
3162	0.00994015
3174	0.0103954
3186	0.0090296
3198	0.00660147
3210	0.00531153
3222	0.00303516
3234	0.00174522
3246	0.00174522
3258	0.00151758
3270	0.00257989
3282	0.00151758
3294	0.00189697
3306	0.0028834
3318	0.0028834
3330	0.00311104
3342	0.00462862
3354	0.00303516
3366	0.00349043
3378	0.00364219
3390	0.00341455
3402	0.00341455
3414	0.0028834
3426	0.00227637
3438	0.0018211
3450	0.00113818
3462	0.00189697
3474	0.00197285
3486	0.00227637
3498	0.0028834
3510	0.00220049
3522	0.00356631
3534	0.00303516
3546	0.00235225
3558	0.0028834
3570	0.00265577
3582	0.00235225
3594	0.0028834
3606	0.00220049
3618	0.00356631
3630	0.0043251
3642	0.000986427
3654	0.00189697
3666	0.00166934
3678	0.00333868
3690	0.00364219
3702	0.000986427
3714	0.00273164
3726	0.00212461
3738	0.00409747
3750	0.00515977
3762	0.0014417
3774	0.000531153
3786	0.000303516
3798	0.00075879
3810	0.000607032
3822	0.000910548
3834	0.00121406
3846	0.00075879
3858	0.000227637
3870	0.000607032
3882	0.000227637
3894	0.000227637
3906	0.000227637
3918	0.000227637
3930	0.000227637
3942	0.000227637
3954	0.000227637
3966	0.000227637
