Infrared Spectrum: Octanoic acid, methyl ester
Formula: C 9 H 18 O 2
CAS: 111-11-5
Origin: Sadtler Research Labs Under US-EPA Contract
1/CM	ABSORBANCE
450	0
462	0.00802885
474	0.00216651
486	0.00828373
498	0.00261256
510	0.0159302
522	0.0066907
534	0.00866606
546	0.00732791
558	0.0189251
570	0.0179693
582	0.0240865
594	0.0150382
606	0.0188614
618	0.0167586
630	0.0166949
642	0.0165675
654	0.020773
666	0.014847
678	0.0221749
690	0.0233219
702	0.0228758
714	0.0310958
726	0.0333898
738	0.0306498
750	0.032434
762	0.0282284
774	0.0244051
786	0.0288656
798	0.0309684
810	0.0344731
822	0.0364484
834	0.0432666
846	0.0442224
858	0.0402717
870	0.0391247
882	0.0321791
894	0.0275912
906	0.0233856
918	0.0249149
930	0.0221112
942	0.02192
954	0.0212828
966	0.0251061
978	0.0313507
990	0.041801
1002	0.0609173
1014	0.0716861
1026	0.075828
1038	0.0764652
1050	0.0645494
1062	0.0546726
1074	0.0526973
1086	0.0622554
1098	0.0918857
1110	0.134642
1122	0.126614
1134	0.118266
1146	0.161278
1158	0.304204
1170	0.417373
1182	0.326124
1194	0.295347
1206	0.308155
1218	0.272662
1230	0.256031
1242	0.246664
1254	0.2394
1266	0.193648
1278	0.141015
1290	0.115399
1302	0.112276
1314	0.105267
1326	0.097302
1338	0.097748
1350	0.118521
1362	0.13203
1374	0.099341
1386	0.0681815
1398	0.0417373
1410	0.0384875
1422	0.0508494
1434	0.120496
1446	0.152676
1458	0.114889
1470	0.106605
1482	0.057094
1494	0.0333898
1506	0.0226847
1518	0.0207093
1530	0.0205182
1542	0.0128079
1554	0.0172684
1566	0.0170772
1578	0.0145284
1590	0.01644
1602	0.0156754
1614	0.0154842
1626	0.0135089
1638	0.012107
1650	0.0128716
1662	0.014847
1674	0.0142735
1686	0.0119795
1698	0.0191163
1710	0.0363847
1722	0.0662698
1734	0.135981
1746	0.310576
1758	0.610511
1770	0.461595
1782	0.193967
1794	0.0667159
1806	0.0298851
1818	0.0177144
1830	0.0118521
1842	0.0110875
1854	0.0108326
1866	0.00962187
1878	0.0101316
1890	0.0091121
1902	0.00930327
1914	0.0091121
1926	0.00949443
1938	0.0101316
1950	0.0101954
1962	0.00987675
1974	0.00943071
1986	0.0103865
1998	0.0110237
2010	0.0111512
2022	0.0123619
2034	0.0126168
2046	0.0124893
2058	0.0123619
2070	0.0117247
2082	0.0101954
2094	0.00923955
2106	0.00815629
2118	0.00675443
2130	0.00611722
2142	0.00586233
2154	0.00579861
2166	0.00560745
2178	0.00554373
2190	0.00535256
2202	0.00497024
2214	0.00433303
2226	0.00433303
2238	0.00375954
2250	0.00318605
2262	0.00337721
2274	0.00331349
2286	0.00337721
2298	0.00356838
2310	0.00229396
2322	0.00172047
2334	0.00133814
2346	0.00063721
2358	0.000828373
2370	0.00140186
2382	0.00223023
2394	0.0036321
2406	0.00312233
2418	0.00299489
2430	0.00433303
2442	0.00382326
2454	0.00382326
2466	0.00382326
2478	0.00293117
2490	0.0036321
2502	0.00286744
2514	0.00293117
2526	0.00337721
2538	0.00369582
2550	0.0036321
2562	0.00407814
2574	0.00560745
2586	0.00567117
2598	0.00643582
2610	0.0066907
2622	0.00675443
2634	0.0063721
2646	0.00732791
2658	0.00732791
2670	0.00847489
2682	0.00936699
2694	0.00872978
2706	0.00904838
2718	0.00841117
2730	0.00955815
2742	0.0107688
2754	0.0103228
2766	0.0105777
2778	0.0105777
2790	0.0137
2802	0.0165037
2814	0.0208368
2826	0.0309047
2838	0.0493201
2850	0.108071
2862	0.221367
2874	0.248894
2886	0.199064
2898	0.157773
2910	0.221048
2922	0.392458
2934	0.605095
2946	0.554182
2958	0.472427
2970	0.466756
2982	0.210343
2994	0.107561
3006	0.0800336
3018	0.0608536
3030	0.0516777
3042	0.0351103
3054	0.0248512
3066	0.01918
3078	0.0168861
3090	0.0160577
3102	0.0138275
3114	0.0124256
3126	0.0108963
3138	0.00968559
3150	0.00860233
3162	0.0075828
3174	0.00707303
3186	0.0063721
3198	0.00643582
3210	0.00579861
3222	0.0051614
3234	0.0048428
3246	0.00554373
3258	0.00458791
3270	0.00433303
3282	0.00458791
3294	0.00446047
3306	0.00446047
3318	0.00388698
3330	0.00401442
3342	0.00477907
3354	0.00471535
3366	0.0048428
3378	0.00618094
3390	0.00598977
3402	0.00662698
3414	0.00624466
3426	0.00567117
3438	0.00541628
3450	0.00522512
3462	0.00598977
3474	0.00554373
3486	0.00904838
3498	0.0103228
3510	0.0105777
3522	0.00822001
3534	0.00745536
3546	0.00713675
3558	0.00503396
3570	0.00465163
3582	0.00497024
3594	0.00426931
3606	0.00465163
3618	0.00477907
3630	0.00324977
3642	0.00548001
3654	0.00490652
3666	0.00497024
3678	0.00184791
3690	0.00286744
3702	0.00293117
3714	0.00127442
3726	0.0024214
3738	0.000573489
3750	0.00063721
3762	0.00261256
3774	0.00254884
3786	0.00261256
3798	0.00223023
3810	0.00063721
3822	0.000955815
3834	0.000764652
3846	0.000764652
3858	0.00114698
3870	0.00133814
3882	0.00127442
3894	0.00210279
3906	0.00267628
3918	0.00248512
3930	0.00458791
3942	0.00426931
3954	0.000254884
3966	0.00063721
