Infrared Spectrum: Dodecanoic acid, methyl ester
Formula: C 13 H 26 O 2
CAS: 111-82-0
Origin: Sadtler Research Labs Under US-EPA Contract
1/CM	ABSORBANCE
450	0.0109268
462	0.0126635
474	0.00817702
486	0.00578904
498	0.00803229
510	0.0117952
522	0.00940719
534	0.00506541
546	0.00969664
558	0.0115057
570	0.0144002
582	0.0101308
594	0.0182355
606	0.0174395
618	0.0166435
630	0.0162093
642	0.0160646
654	0.0136042
666	0.0132424
678	0.0149068
690	0.01715
702	0.0183802
714	0.0280045
726	0.0288005
738	0.0261954
750	0.0234456
762	0.0228667
774	0.0216365
786	0.0276427
798	0.0213471
810	0.0197551
822	0.0264125
834	0.0264849
846	0.0259783
858	0.0297412
870	0.025906
882	0.0242416
894	0.0212747
906	0.0180907
918	0.0170777
930	0.0157028
942	0.0166435
954	0.0168606
966	0.0188867
978	0.0232285
990	0.0272085
1002	0.0377735
1014	0.0463847
1026	0.0479767
1038	0.0416087
1050	0.03828
1062	0.0426942
1074	0.04624
1086	0.0437073
1098	0.0537657
1110	0.0735208
1122	0.0793098
1134	0.0874145
1146	0.126708
1158	0.18496
1170	0.214122
1182	0.199143
1194	0.181776
1206	0.170921
1218	0.15341
1230	0.147982
1242	0.148055
1254	0.139878
1266	0.109847
1278	0.0835793
1290	0.0722183
1302	0.0690343
1314	0.0655609
1326	0.061798
1338	0.0653438
1350	0.0798164
1362	0.0837964
1374	0.0624493
1386	0.043852
1398	0.0290176
1410	0.0281492
1422	0.036471
1434	0.0754022
1446	0.0933483
1458	0.0898025
1470	0.0775008
1482	0.0379906
1494	0.0224325
1506	0.0206235
1518	0.0159199
1530	0.0140384
1542	0.0152686
1554	0.0132424
1566	0.0132424
1578	0.0132424
1590	0.0120123
1602	0.0116504
1614	0.0102755
1626	0.010565
1638	0.0102032
1650	0.00991373
1662	0.0109992
1674	0.0120123
1686	0.0142555
1698	0.0174395
1710	0.025906
1722	0.0459505
1734	0.0952297
1746	0.187854
1758	0.353059
1770	0.249942
1782	0.122655
1794	0.0484832
1806	0.0215642
1818	0.0123017
1830	0.0091901
1842	0.00817702
1854	0.00716394
1866	0.00745339
1878	0.00687448
1890	0.00709157
1902	0.0066574
1914	0.00651267
1926	0.00607849
1938	0.00636794
1950	0.00680212
1962	0.0072363
1974	0.00651267
1986	0.00716394
1998	0.00730866
2010	0.00759811
2022	0.00767048
2034	0.00803229
2046	0.00803229
2058	0.00730866
2070	0.0066574
2082	0.0066574
2094	0.00593377
2106	0.00455887
2118	0.00434178
2130	0.00419705
2142	0.00463123
2154	0.00383524
2166	0.00383524
2178	0.00426942
2190	0.00412469
2202	0.00303925
2214	0.00231562
2226	0.00274979
2238	0.00318397
2250	0.00260507
2262	0.00246034
2274	0.00340106
2286	0.00289452
2298	0.00217089
2310	0.00224325
2322	0.00188144
2334	0.00180908
2346	0.000795993
2358	0.000578904
2370	0.00130253
2382	0.000940719
2394	0.00180908
2406	0.00130253
2418	0.00166435
2430	0.00159199
2442	0.000795993
2454	0.00130253
2466	0.000289452
2478	0.000940719
2490	0.000940719
2502	0.00144726
2514	0.00115781
2526	0.00130253
2538	0.00166435
2550	0.00173671
2562	0.00217089
2574	0.00209853
2586	0.00224325
2598	0.00325633
2610	0.00303925
2622	0.00369051
2634	0.00419705
2646	0.00434178
2658	0.00521014
2670	0.00564431
2682	0.0072363
2694	0.00672976
2706	0.00600613
2718	0.00607849
2730	0.00629558
2742	0.00774284
2754	0.00716394
2766	0.00767048
2778	0.00832175
2790	0.0117952
2802	0.0146897
2814	0.019538
2826	0.0288728
2838	0.0458781
2850	0.103407
2862	0.26398
2874	0.223167
2886	0.151383
2898	0.140167
2910	0.220128
2922	0.417173
2934	0.72363
2946	0.502706
2958	0.325055
2970	0.282216
2982	0.124826
2994	0.0700474
3006	0.0513777
3018	0.0379906
3030	0.030899
3042	0.0227943
3054	0.0164988
3066	0.0120123
3078	0.0101308
3090	0.00947955
3102	0.00810466
3114	0.00593377
3126	0.00578904
3138	0.00448651
3150	0.00434178
3162	0.00347342
3174	0.00340106
3186	0.00397997
3198	0.00347342
3210	0.0019538
3222	0.00108544
3234	0.0013749
3246	0.000795993
3258	0.00151962
3270	0.00151962
3282	0.00202616
3294	0.000434178
3306	0.00115781
3318	0.0013749
3330	0.000144726
3342	0.00260507
3354	0.00202616
3366	0.00202616
3378	0.00166435
3390	0.00202616
3402	0.00159199
3414	0.00180908
3426	0.00159199
3438	0.00159199
3450	0.00144726
3462	0.00151962
3474	0.00318397
3486	0.00318397
3498	0.0033287
3510	0.00405233
3522	0.00246034
3534	0.00238798
3546	0.00267743
3558	0.00303925
3570	0.00557195
3582	0.00709157
3594	0.00274979
3606	0.00260507
3618	0.00267743
3630	0.00470359
3642	0.00289452
3654	0.00224325
3666	0.00274979
3678	0.00354579
3690	0.00369051
3702	0.00274979
3714	0.0033287
3726	0.00123017
3738	0.00318397
3750	0.00311161
3762	0.0033287
3774	0.00224325
3786	0.00303925
3798	0.00224325
3810	0.0033287
3822	0.00325633
3834	0.00202616
3846	0.00318397
3858	0.00289452
3870	0.00383524
3882	0.00340106
3894	0.0039076
3906	0.00238798
3918	0.00303925
3930	0.00347342
3942	0.00180908
3954	0
3966	0.000144726
