Infrared Spectrum: 1-Hexanethiol
Formula: C 6 H 14 S
CAS: 111-31-9
Origin: Sadtler Research Labs Under US-EPA Contract
1/CM	ABSORBANCE
450	0
462	0.0644208
474	0.029957
486	0.0458633
498	0.03115
510	0.0265106
522	0.0395008
534	0.0294268
546	0.0278361
558	0.0286314
570	0.0302221
582	0.0315476
594	0.0217387
606	0.034994
618	0.0238595
630	0.0245223
642	0.0307523
654	0.0324755
666	0.0343312
678	0.0318127
690	0.0331382
702	0.048647
714	0.0554072
726	0.0645533
738	0.0695903
750	0.0542142
762	0.0437425
774	0.0389706
786	0.0422844
798	0.0352591
810	0.0331382
822	0.033801
834	0.0353917
846	0.0379102
858	0.0391031
870	0.0395008
882	0.0413565
894	0.0401636
906	0.0389706
918	0.0360544
930	0.0335359
942	0.0331382
954	0.0343312
966	0.0368497
978	0.0365846
990	0.0367172
1002	0.0397659
1014	0.0401636
1026	0.0392357
1038	0.0376451
1050	0.0369823
1062	0.034994
1074	0.033801
1086	0.0355242
1098	0.0395008
1110	0.0413565
1122	0.0381753
1134	0.0322104
1146	0.0298244
1158	0.0315476
1170	0.0364521
1182	0.0385729
1194	0.0379102
1206	0.0398985
1218	0.0469238
1230	0.0461284
1242	0.0608418
1254	0.0808573
1266	0.0872199
1278	0.0856292
1290	0.100343
1302	0.0967637
1314	0.078869
1326	0.0571303
1338	0.0548769
1350	0.0653486
1362	0.0589861
1374	0.0595163
1386	0.0695903
1398	0.0506352
1410	0.0396333
1422	0.0490446
1434	0.086292
1446	0.130167
1458	0.16145
1470	0.15058
1482	0.0921243
1494	0.050105
1506	0.0344638
1518	0.0291617
1530	0.0250525
1542	0.0270408
1554	0.02492
1566	0.0217387
1578	0.0220038
1590	0.0216061
1602	0.0224015
1614	0.0205457
1626	0.0204132
1638	0.021341
1650	0.0227991
1662	0.0201481
1674	0.0196178
1686	0.0224015
1698	0.0217387
1710	0.0188225
1722	0.0198829
1734	0.0192202
1746	0.0181598
1758	0.0182923
1770	0.0184249
1782	0.0180272
1794	0.0169668
1806	0.017497
1818	0.0173644
1830	0.0167017
1842	0.0167017
1854	0.0178947
1866	0.0170993
1878	0.0157738
1890	0.0167017
1902	0.0160389
1914	0.0165691
1926	0.0161715
1938	0.0164366
1950	0.0169668
1962	0.016304
1974	0.016304
1986	0.0161715
1998	0.0159064
2010	0.0165691
2022	0.0167017
2034	0.0176295
2046	0.0169668
2058	0.0164366
2070	0.016304
2082	0.0156413
2094	0.0159064
2106	0.0160389
2118	0.0156413
2130	0.0160389
2142	0.0160389
2154	0.0164366
2166	0.0161715
2178	0.0164366
2190	0.0157738
2202	0.0155087
2214	0.0159064
2226	0.015111
2238	0.0155087
2250	0.0153761
2262	0.0152436
2274	0.0153761
2286	0.0155087
2298	0.0156413
2310	0.0145808
2322	0.01246
2334	0.01246
2346	0.01246
2358	0.01246
2370	0.01246
2382	0.0147134
2394	0.015111
2406	0.015111
2418	0.0159064
2430	0.0155087
2442	0.0156413
2454	0.0145808
2466	0.0153761
2478	0.0157738
2490	0.015111
2502	0.0155087
2514	0.0153761
2526	0.0164366
2538	0.0169668
2550	0.0177621
2562	0.0188225
2574	0.0218712
2586	0.03115
2598	0.0344638
2610	0.0271734
2622	0.0231968
2634	0.0231968
2646	0.0238595
2658	0.0253176
2670	0.0267757
2682	0.0278361
2694	0.0278361
2706	0.026378
2718	0.0257153
2730	0.0283663
2742	0.0310174
2754	0.0312825
2766	0.0296919
2778	0.0310174
2790	0.0368497
2802	0.0434774
2814	0.0518282
2826	0.0669393
2838	0.109754
2850	0.240451
2862	0.44909
2874	0.51192
2886	0.454657
2898	0.360014
2910	0.471093
2922	0.846086
2934	1.28576
2946	1.18118
2958	0.893407
2970	0.964191
2982	0.521331
2994	0.173644
3006	0.0900035
3018	0.0664091
3030	0.0547444
3042	0.045068
3054	0.0372474
3066	0.0319453
3078	0.0296919
3090	0.0267757
3102	0.0254502
3114	0.0245223
3126	0.022534
3138	0.022534
3150	0.0220038
3162	0.0224015
3174	0.0214736
3186	0.0212085
3198	0.0202806
3210	0.0188225
3222	0.0177621
3234	0.0164366
3246	0.0168342
3258	0.0156413
3270	0.0148459
3282	0.0156413
3294	0.0149785
3306	0.0152436
3318	0.0153761
3330	0.0159064
3342	0.0153761
3354	0.0144483
3366	0.015111
3378	0.0145808
3390	0.0145808
3402	0.0148459
3414	0.0148459
3426	0.0148459
3438	0.0141832
3450	0.0143157
3462	0.0139181
3474	0.0145808
3486	0.0147134
3498	0.0141832
3510	0.0147134
3522	0.0127251
3534	0.0147134
3546	0.0139181
3558	0.013653
3570	0.0139181
3582	0.0129902
3594	0.0153761
3606	0.013653
3618	0.0143157
3630	0.0156413
3642	0.015111
3654	0.0189551
3666	0.0147134
3678	0.0176295
3690	0.0190876
3702	0.0133879
3714	0.0152436
3726	0.0132553
3738	0.0147134
3750	0.0189551
3762	0.0143157
3774	0.0152436
3786	0.0141832
3798	0.016304
3810	0.01246
3822	0.0176295
3834	0.0168342
3846	0.0160389
3858	0.0177621
3870	0.0160389
3882	0.0153761
3894	0.0152436
3906	0.0159064
3918	0.0139181
3930	0.0148459
3942	0.0156413
3954	0.016304
3966	0.0152436
