Infrared Spectrum: Ethanol, 2-(2-methoxyethoxy)-
Formula: C 5 H 12 O 3
CAS: 111-77-3
Origin: Sadtler Research Labs Under US-EPA Contract
1/CM	ABSORBANCE
450	0.0500756
462	0.0220736
474	0.0258577
486	0.0195509
498	0.0254793
510	0.0346871
522	0.0344349
534	0.0375882
546	0.034561
558	0.0272452
570	0.027119
582	0.0150101
594	0
606	0.0104692
618	0.0127396
630	0.0157669
642	0.0132442
654	0.0145055
666	0.0160191
678	0.0146317
690	0.0245963
702	0.0134964
714	0.0155146
726	0.0155146
738	0.0143794
750	0.0176589
762	0.0171544
774	0.021443
786	0.0276236
798	0.0368314
810	0.0464177
822	0.0591573
834	0.0806003
846	0.106836
858	0.113017
870	0.106962
882	0.118441
894	0.122351
906	0.111251
918	0.118188
930	0.11617
942	0.0932138
954	0.0826184
966	0.0882945
978	0.0986376
990	0.113522
1002	0.132063
1014	0.17785
1026	0.246342
1038	0.305373
1050	0.409813
1062	0.605196
1074	0.603178
1086	0.442608
1098	0.47288
1110	0.719348
1122	1.13269
1134	1.25
1146	0.883071
1158	0.543263
1170	0.320257
1182	0.241044
1194	0.2862
1206	0.298183
1218	0.196518
1230	0.144425
1242	0.14556
1254	0.159687
1266	0.14947
1278	0.138118
1290	0.133577
1302	0.114909
1314	0.0895559
1326	0.0968717
1338	0.121468
1350	0.204843
1362	0.216322
1374	0.149344
1386	0.136983
1398	0.135974
1410	0.115161
1422	0.080348
1434	0.069122
1446	0.0957365
1458	0.168895
1470	0.158173
1482	0.0851411
1494	0.0462915
1506	0.028002
1518	0.0175328
1530	0.0146317
1542	0.0146317
1554	0.0127396
1566	0.00857718
1578	0.0129919
1590	0.00794651
1602	0.00655902
1614	0.0075681
1626	0.00592835
1638	0.00668516
1650	0.00491927
1662	0.00315338
1674	0.00378405
1686	0.00920786
1698	0.00693743
1710	0.004667
1722	0.00630675
1734	0.00819878
1746	0.0153885
1758	0.0153885
1770	0.012109
1782	0.0075681
1794	0.00517154
1806	0.00378405
1818	0.00227043
1830	0.00113522
1842	0.00277497
1854	0.00151362
1866	0.00227043
1878	0.00290111
1890	0.00327951
1902	0.004667
1914	0.00643289
1926	0.00920786
1938	0.0119828
1950	0.0146317
1962	0.0153885
1974	0.0147578
1986	0.0141271
1998	0.0118567
2010	0.00933399
2022	0.00895559
2034	0.00920786
2046	0.00958626
2058	0.0097124
2070	0.0097124
2082	0.0103431
2094	0.0104692
2106	0.00946013
2118	0.00870332
2130	0.0100908
2142	0.00983853
2154	0.00933399
2166	0.00731583
2178	0.00630675
2190	0.00517154
2202	0.00428859
2214	0.00391019
2226	0.00302724
2238	0.00365792
2250	0.00365792
2262	0.00403632
2274	0.00365792
2286	0.00302724
2298	0.00264884
2310	0.00151362
2322	0.000630675
2334	0.00100908
2346	0.00126135
2358	0.00189203
2370	0.00025227
2382	0.00264884
2394	0.00353178
2406	0.00327951
2418	0.00365792
2430	0.00290111
2442	0.00302724
2454	0.00327951
2466	0.00327951
2478	0.00315338
2490	0.00353178
2502	0.00428859
2514	0.00441473
2526	0.00491927
2538	0.00693743
2550	0.0071897
2562	0.00731583
2574	0.00908172
2586	0.00908172
2598	0.0108476
2610	0.0103431
2622	0.0100908
2634	0.0104692
2646	0.0102169
2658	0.012109
2670	0.0162714
2682	0.0208123
2694	0.0261099
2706	0.0346871
2718	0.04667
2730	0.050454
2742	0.0496972
2754	0.0502017
2766	0.0558778
2778	0.0667254
2790	0.0853934
2802	0.117558
2814	0.191599
2826	0.30285
2838	0.346114
2850	0.394298
2862	0.542128
2874	0.707617
2886	0.77964
2898	0.72843
2910	0.654136
2922	0.647325
2934	0.686301
2946	0.617935
2958	0.52737
2970	0.382063
2982	0.245585
2994	0.2278
3006	0.147073
3018	0.0647073
3030	0.0387234
3042	0.0306508
3054	0.0232088
3066	0.0211907
3078	0.0170282
3090	0.0153885
3102	0.0114783
3114	0.0110999
3126	0.00819878
3138	0.00605448
3150	0.00529767
3162	0.0050454
3174	0.00365792
3186	0.00277497
3198	0.00227043
3210	0.00277497
3222	0.00163976
3234	0.0025227
3246	0.00428859
3258	0.00138749
3270	0.00277497
3282	0.00365792
3294	0.00365792
3306	0.00378405
3318	0.000882945
3330	0.00428859
3342	0.00441473
3354	0.004667
3366	0.00592835
3378	0.00353178
3390	0.00630675
3402	0.00618062
3414	0.00441473
3426	0.00630675
3438	0.00782037
3450	0.00592835
3462	0.00807264
3474	0.00996467
3486	0.012109
3498	0.0145055
3510	0.0185418
3522	0.0297679
3534	0.0402371
3546	0.039228
3558	0.0379666
3570	0.0353178
3582	0.0316599
3594	0.0285065
3606	0.0351917
3618	0.0638243
3630	0.105197
3642	0.0978808
3654	0.0471745
3666	0.0354439
3678	0.0356962
3690	0.0175328
3702	0.00857718
3714	0.00693743
3726	0.0050454
3738	0.00580221
3750	0.00782037
3762	0.004667
3774	0.00517154
3786	0.00479313
3798	0.00479313
3810	0.00655902
3822	0.0050454
3834	0.00655902
3846	0.00391019
3858	0.00302724
3870	0.00264884
3882	0.00428859
3894	0.00428859
3906	0.004667
3918	0.00353178
3930	0.00491927
3942	0.00983853
3954	0.0100908
3966	0.00706356
