Infrared Spectrum: 1-Heptanol
Formula: C 7 H 16 O
CAS: 111-70-6
Origin: Sadtler Research Labs Under US-EPA Contract
1/CM	ABSORBANCE
450	0
462	0.15523
474	0.0989223
486	0.0795379
498	0.0681533
510	0.0790763
522	0.0889224
534	0.0769225
546	0.0747687
558	0.0778456
570	0.0679995
582	0.0776917
594	0.0667687
606	0.0686149
618	0.0690764
630	0.0666149
642	0.0699995
654	0.0692303
666	0.0681533
678	0.0679995
690	0.065538
702	0.0749225
714	0.0850763
726	0.0893839
738	0.0783071
750	0.0789225
762	0.077384
774	0.0752302
786	0.0726148
798	0.0730764
810	0.0732302
822	0.0701533
834	0.0832301
846	0.0804609
858	0.088307
870	0.0918455
882	0.092307
894	0.0947685
906	0.100153
918	0.100768
930	0.102153
942	0.107384
954	0.115076
966	0.123538
978	0.134614
990	0.146153
1002	0.178153
1014	0.218152
1026	0.290459
1038	0.389997
1050	0.423997
1062	0.392305
1074	0.279383
1086	0.19846
1098	0.151537
1110	0.127076
1122	0.109384
1134	0.0976916
1146	0.0950762
1158	0.098307
1170	0.102768
1182	0.105845
1194	0.107076
1206	0.112615
1218	0.116922
1230	0.120922
1242	0.121845
1254	0.119845
1266	0.120153
1278	0.119845
1290	0.117999
1302	0.115691
1314	0.11123
1326	0.110461
1338	0.121538
1350	0.131845
1362	0.132461
1374	0.153383
1386	0.191845
1398	0.164306
1410	0.11723
1422	0.100768
1434	0.110461
1446	0.139691
1458	0.182768
1470	0.189691
1482	0.14323
1494	0.0926147
1506	0.0750764
1518	0.0693841
1530	0.065538
1542	0.0633841
1554	0.0624611
1566	0.0612303
1578	0.0596919
1590	0.0596919
1602	0.0598457
1614	0.0590765
1626	0.0581534
1638	0.0576919
1650	0.0573842
1662	0.0586149
1674	0.057538
1686	0.0570765
1698	0.056615
1710	0.0572303
1722	0.0569226
1734	0.0576919
1746	0.0576919
1758	0.0584611
1770	0.0578457
1782	0.0569226
1794	0.0563073
1806	0.0567688
1818	0.0570765
1830	0.0563073
1842	0.0564611
1854	0.0564611
1866	0.0567688
1878	0.0559996
1890	0.056615
1902	0.0569226
1914	0.0563073
1926	0.0567688
1938	0.0572303
1950	0.0572303
1962	0.0564611
1974	0.0563073
1986	0.0561534
1998	0.056615
2010	0.0559996
2022	0.0564611
2034	0.0570765
2046	0.0579996
2058	0.0578457
2070	0.0573842
2082	0.0569226
2094	0.056615
2106	0.0558457
2118	0.0556919
2130	0.0556919
2142	0.055538
2154	0.0553842
2166	0.0550765
2178	0.0556919
2190	0.0549227
2202	0.0547688
2214	0.0553842
2226	0.0553842
2238	0.0549227
2250	0.0549227
2262	0.0544611
2274	0.054615
2286	0.0549227
2298	0.0539996
2310	0.0550765
2322	0.0569226
2334	0.0552304
2346	0.0501535
2358	0.0559996
2370	0.0501535
2382	0.0501535
2394	0.0539996
2406	0.0541534
2418	0.054615
2430	0.0532304
2442	0.0533842
2454	0.0530765
2466	0.0521535
2478	0.0519996
2490	0.0515381
2502	0.0518458
2514	0.0513842
2526	0.0510765
2538	0.0512304
2550	0.0507688
2562	0.0501535
2574	0.0513842
2586	0.0523073
2598	0.0530765
2610	0.0535381
2622	0.0543073
2634	0.0563073
2646	0.0586149
2658	0.0606149
2670	0.0659995
2682	0.0679995
2694	0.0686149
2706	0.0687687
2718	0.0692303
2730	0.0738456
2742	0.0776917
2754	0.0792302
2766	0.0816917
2778	0.085384
2790	0.0927685
2802	0.102307
2814	0.111691
2826	0.130768
2838	0.178614
2850	0.324613
2862	0.593842
2874	0.732148
2886	0.685533
2898	0.564765
2910	0.689533
2922	1.10399
2934	1.52876
2946	1.33137
2958	0.931224
2970	0.856609
2982	0.451535
2994	0.190614
3006	0.127076
3018	0.102153
3030	0.0893839
3042	0.0807686
3054	0.0732302
3066	0.0673841
3078	0.0650764
3090	0.0638457
3102	0.0621534
3114	0.0592303
3126	0.0583073
3138	0.0590765
3150	0.0587688
3162	0.0581534
3174	0.0601534
3186	0.0601534
3198	0.0596919
3210	0.0589226
3222	0.0569226
3234	0.0556919
3246	0.056615
3258	0.0559996
3270	0.0553842
3282	0.0561534
3294	0.0519996
3306	0.052615
3318	0.0513842
3330	0.0519996
3342	0.0519996
3354	0.050615
3366	0.0527688
3378	0.0519996
3390	0.0518458
3402	0.0538457
3414	0.0553842
3426	0.0536919
3438	0.0544611
3450	0.0543073
3462	0.0559996
3474	0.0569226
3486	0.0543073
3498	0.0570765
3510	0.0556919
3522	0.0541534
3534	0.0536919
3546	0.0563073
3558	0.055538
3570	0.0550765
3582	0.0549227
3594	0.0569226
3606	0.0587688
3618	0.0629226
3630	0.0656918
3642	0.0787686
3654	0.110153
3666	0.148922
3678	0.141691
3690	0.0909224
3702	0.0689226
3714	0.0603072
3726	0.061538
3738	0.0564611
3750	0.0569226
3762	0.0570765
3774	0.0599995
3786	0.0609226
3798	0.0623072
3810	0.0587688
3822	0.0578457
3834	0.0589226
3846	0.0583073
3858	0.0578457
3870	0.0612303
3882	0.0618457
3894	0.0601534
3906	0.0599995
3918	0.0578457
3930	0.057538
3942	0.0579996
3954	0.0596919
3966	0.0596919
