Infrared Spectrum: Octane
Formula: C 8 H 18
CAS: 111-65-9
Origin: Sadtler Research Labs Under US-EPA Contract
1/CM	ABSORBANCE
450	0.0301903
462	0.00668886
474	0.0081351
486	0.00470028
498	0.0072312
510	0.0054234
522	0.00307326
534	0.00705042
546	0.00668886
558	0.00524262
570	0.00415794
582	0.00072312
594	0.00831588
606	0.0063273
618	0.00614652
630	0.00488106
642	0.0054234
654	0.00524262
666	0.00433872
678	0.00578496
690	0.00849666
702	0.0135585
714	0.027117
726	0.0327212
738	0.0267554
750	0.0233206
762	0.0220552
774	0.0193435
786	0.0131969
798	0.00921978
810	0.00885822
822	0.00741198
834	0.00795432
846	0.00940056
858	0.010666
870	0.0126546
882	0.0151855
894	0.014824
906	0.014824
918	0.0155471
930	0.0112084
942	0.0101237
954	0.012293
966	0.0139201
978	0.0117507
990	0.00867744
1002	0.00741198
1014	0.00759276
1026	0.00849666
1038	0.00921978
1050	0.0108468
1062	0.0130162
1074	0.0142816
1086	0.0137393
1098	0.0121123
1110	0.0133777
1122	0.0133777
1134	0.0126546
1146	0.0103045
1158	0.00958134
1170	0.0126546
1182	0.0216936
1194	0.0193435
1206	0.0101237
1218	0.00867744
1230	0.0104852
1242	0.00958134
1254	0.0115699
1266	0.0155471
1278	0.0160894
1290	0.0204281
1302	0.0260323
1314	0.0247669
1326	0.0242245
1338	0.0386869
1350	0.0480875
1362	0.0412178
1374	0.0549571
1386	0.0815318
1398	0.0471836
1410	0.028744
1422	0.0274786
1434	0.041941
1446	0.0874975
1458	0.167041
1470	0.186565
1482	0.102864
1494	0.0412178
1506	0.0209705
1518	0.0141008
1530	0.0108468
1542	0.00885822
1554	0.0072312
1566	0.00614652
1578	0.0063273
1590	0.0054234
1602	0.00488106
1614	0.0045195
1626	0.00470028
1638	0.00343482
1650	0.00470028
1662	0.00343482
1674	0.00325404
1686	0.00235014
1698	0.00216936
1710	0.00307326
1722	0.00289248
1734	0.00235014
1746	0.0018078
1758	0.00253092
1770	0.0027117
1782	0.00162702
1794	0.0018078
1806	0.00144624
1818	0.00126546
1830	0.00108468
1842	0.00054234
1854	0.0009039
1866	0.00072312
1878	0.00054234
1890	0.00072312
1902	0.00054234
1914	0.00072312
1926	0.0009039
1938	0.00054234
1950	0.00036156
1962	0.0009039
1974	0.00072312
1986	0.00036156
1998	0.00072312
2010	0.00126546
2022	0.00216936
2034	0.00289248
2046	0.00235014
2058	0.00235014
2070	0.00144624
2082	0.00126546
2094	0.00108468
2106	0.00108468
2118	0.0009039
2130	0.00108468
2142	0.00144624
2154	0.00126546
2166	0.00162702
2178	0.00144624
2190	0.00144624
2202	0.0018078
2214	0.0018078
2226	0.00144624
2238	0.00144624
2250	0.00144624
2262	0.00162702
2274	0.00144624
2286	0.0009039
2298	0.00054234
2310	0.00018078
2322	0.00018078
2334	0.0009039
2346	0.00036156
2358	0.00036156
2370	0.00018078
2382	0.00144624
2394	0.00235014
2406	0.0027117
2418	0.00307326
2430	0.0027117
2442	0.00235014
2454	0.00198858
2466	0.00162702
2478	0.00162702
2490	0.0018078
2502	0.00216936
2514	0.00289248
2526	0.00397716
2538	0.00433872
2550	0.0045195
2562	0.00506184
2574	0.00614652
2586	0.00741198
2598	0.00885822
2610	0.00940056
2622	0.0101237
2634	0.0110276
2646	0.012293
2658	0.0144624
2670	0.018078
2682	0.0186203
2694	0.0169933
2706	0.0155471
2718	0.016451
2730	0.0200666
2742	0.0263939
2754	0.0253092
2766	0.0233206
2778	0.0263939
2790	0.0363368
2802	0.0473644
2814	0.0596574
2826	0.0809894
2838	0.136489
2850	0.326669
2862	0.676479
2874	0.774281
2886	0.689856
2898	0.521912
2910	0.714985
2922	1.34717
2934	1.8078
2946	1.49451
2958	1.11451
2970	1.33759
2982	0.66744
2994	0.220009
3006	0.118953
3018	0.0847858
3030	0.0649
3042	0.0489914
3054	0.0363368
3066	0.0292864
3078	0.0253092
3090	0.0224167
3102	0.019705
3114	0.0173549
3126	0.0151855
3138	0.0146432
3150	0.0142816
3162	0.0133777
3174	0.0126546
3186	0.0126546
3198	0.0112084
3210	0.00867744
3222	0.00560418
3234	0.00433872
3246	0.00415794
3258	0.00235014
3270	0.00144624
3282	0.00108468
3294	0.00126546
3306	0.00108468
3318	0.00108468
3330	0.0009039
3342	0.00108468
3354	0.00126546
3366	0.00108468
3378	0.00072312
3390	0.00126546
3402	0.00162702
3414	0.0018078
3426	0.00162702
3438	0.00072312
3450	0.0009039
3462	0.00036156
3474	0.0009039
3486	0.00036156
3498	0.00018078
3510	0.00054234
3522	0
3534	0.00036156
3546	0.00054234
3558	0.00054234
3570	0.00054234
3582	0.00108468
3594	0.00216936
3606	0.0018078
3618	0.00289248
3630	0.00506184
3642	0.0027117
3654	0.0027117
3666	0.00289248
3678	0.0045195
3690	0.00198858
3702	0.00162702
3714	0.00325404
3726	0.00253092
3738	0.00235014
3750	0.00162702
3762	0.00216936
3774	0.00126546
3786	0.00126546
3798	0.00018078
3810	0.00235014
3822	0.00235014
3834	0.00198858
3846	0.0027117
3858	0.0027117
3870	0.00216936
3882	0.00108468
3894	0.00054234
3906	0.00289248
3918	0.0018078
3930	0.00144624
3942	0.00198858
3954	0.00162702
3966	0.00144624
