Infrared Spectrum: Hexanedinitrile
Formula: C 6 H 8 N 2
CAS: 111-69-3
Origin: Sadtler Research Labs Under US-EPA Contract
1/CM	ABSORBANCE
450	0
462	0.072723
474	0.0777655
486	0.0838724
498	0.078886
510	0.0867298
522	0.0881865
534	0.0846008
546	0.084993
558	0.0857773
570	0.080959
582	0.0822476
594	0.0732273
606	0.0783818
618	0.0780456
630	0.0774293
642	0.0765329
654	0.0783257
666	0.0785499
678	0.0801746
690	0.0825838
702	0.0886907
714	0.0952459
726	0.0999522
738	0.101857
750	0.0986635
762	0.091268
774	0.0874021
786	0.0858894
798	0.0856653
810	0.0828079
822	0.083032
834	0.083088
846	0.0834802
858	0.085161
870	0.0890829
882	0.097599
894	0.100008
906	0.0917162
918	0.0886347
930	0.084993
942	0.080959
954	0.0824717
966	0.0824157
978	0.078774
990	0.0775414
1002	0.0782137
1014	0.0793342
1026	0.0805108
1038	0.0821356
1050	0.0837604
1062	0.0818554
1074	0.0800066
1086	0.0805668
1098	0.0781016
1110	0.0769811
1122	0.0760847
1134	0.0753563
1146	0.0758045
1158	0.0770371
1170	0.0779336
1182	0.078774
1194	0.0800626
1206	0.0807909
1218	0.0825278
1230	0.0826398
1242	0.08292
1254	0.0837604
1266	0.0879064
1278	0.0878503
1290	0.0889709
1302	0.089251
1314	0.109197
1326	0.133568
1338	0.130151
1350	0.120626
1362	0.111886
1374	0.091324
1386	0.0872901
1398	0.0886907
1410	0.102249
1422	0.150432
1434	0.251001
1446	0.286466
1458	0.23705
1470	0.181808
1482	0.120346
1494	0.0910439
1506	0.0846008
1518	0.0796144
1530	0.0774853
1542	0.076813
1554	0.0753563
1566	0.0732273
1578	0.0740677
1590	0.0723869
1602	0.0723869
1614	0.0716025
1626	0.0714905
1638	0.0709862
1650	0.0718826
1662	0.0696976
1674	0.0696976
1686	0.0710983
1698	0.0696976
1710	0.0704259
1722	0.07065
1734	0.0715465
1746	0.0722748
1758	0.0696976
1770	0.0699777
1782	0.0698657
1794	0.0701458
1806	0.0700898
1818	0.0693054
1830	0.068577
1842	0.068521
1854	0.0682409
1866	0.0680728
1878	0.0681288
1890	0.068577
1902	0.0681288
1914	0.0679608
1926	0.0679047
1938	0.0671203
1950	0.0670643
1962	0.0670643
1974	0.0674005
1986	0.0679047
1998	0.0679047
2010	0.068409
2022	0.0688572
2034	0.0687451
2046	0.0688572
2058	0.068465
2070	0.0682409
2082	0.068409
2094	0.0679608
2106	0.0675686
2118	0.0676246
2130	0.0678487
2142	0.0675686
2154	0.0679608
2166	0.0677366
2178	0.0679047
2190	0.0677927
2202	0.0680728
2214	0.0686331
2226	0.0707621
2238	0.0800626
2250	0.0988316
2262	0.0965345
2274	0.0777094
2286	0.0713784
2298	0.0690253
2310	0.0679047
2322	0.0679608
2334	0.0683529
2346	0.0686891
2358	0.0682409
2370	0.0680728
2382	0.0680728
2394	0.0678487
2406	0.0672324
2418	0.0670643
2430	0.0669523
2442	0.0674565
2454	0.0672324
2466	0.0665601
2478	0.0661679
2490	0.0662799
2502	0.066504
2514	0.0661679
2526	0.0662239
2538	0.0658878
2550	0.0651594
2562	0.0649353
2574	0.0656076
2586	0.0668962
2598	0.0686891
2610	0.0702018
2622	0.0693054
2634	0.0681849
2646	0.0681849
2658	0.0689692
2670	0.068521
2682	0.0679608
2694	0.0688012
2706	0.0689692
2718	0.0688012
2730	0.068409
2742	0.0679608
2754	0.0688012
2766	0.07065
2778	0.0709302
2790	0.0703139
2802	0.0711543
2814	0.0731713
2826	0.0769811
2838	0.0844887
2850	0.0980472
2862	0.120682
2874	0.16147
2886	0.188475
2898	0.159677
2910	0.134857
2922	0.163543
2934	0.260974
2946	0.388659
2958	0.520379
2970	0.530856
2982	0.305067
2994	0.13609
3006	0.0901474
3018	0.0784378
3030	0.0735635
3042	0.0718826
3054	0.0709862
3066	0.070482
3078	0.0697536
3090	0.0691373
3102	0.0689692
3114	0.0681849
3126	0.0688572
3138	0.0701458
3150	0.0715465
3162	0.0711543
3174	0.070594
3186	0.0698096
3198	0.0689132
3210	0.0681849
3222	0.0679047
3234	0.0679047
3246	0.0679608
3258	0.068521
3270	0.0679608
3282	0.0678487
3294	0.0671203
3306	0.0670643
3318	0.0672884
3330	0.0671764
3342	0.066392
3354	0.0658317
3366	0.0651594
3378	0.0654395
3390	0.0653275
3402	0.0656636
3414	0.0653835
3426	0.0659438
3438	0.0655516
3450	0.0656076
3462	0.0657757
3474	0.0650473
3486	0.0662799
3498	0.0660558
3510	0.0662799
3522	0.0667282
3534	0.0662799
3546	0.0662239
3558	0.0658317
3570	0.0672324
3582	0.0671203
3594	0.0662799
3606	0.0659438
3618	0.0658317
3630	0.0657757
3642	0.0659998
3654	0.0668402
3666	0.0676246
3678	0.0655516
3690	0.0675125
3702	0.0675686
3714	0.0675125
3726	0.0680728
3738	0.068409
3750	0.0680728
3762	0.0668402
3774	0.0668962
3786	0.0689692
3798	0.0661119
3810	0.0678487
3822	0.0649913
3834	0.0671764
3846	0.0674005
3858	0.0659998
3870	0.0658317
3882	0.0652715
3894	0.0659998
3906	0.0682409
3918	0.0673445
3930	0.0680168
3942	0.068409
3954	0.0680168
3966	0.0694175
