Infrared Spectrum: s-Dichloroethyl ether
Formula: C 4 H 8 Cl 2 O
CAS: 111-44-4
Origin: Sadtler Research Labs Under US-EPA Contract
1/CM	ABSORBANCE
450	0.00355753
462	0.00499422
474	0.0103989
486	0.0118356
498	0.0123829
510	0.0114936
522	0.00718347
534	0.0202505
546	0.00143669
558	0.00560995
570	0.00841492
582	0.00348911
594	0.00451532
606	0.00458374
618	0.00656774
630	0.00909906
642	0.0142301
654	0.0308547
666	0.069577
678	0.12896
690	0.100979
702	0.0348911
714	0.017514
726	0.0222345
738	0.0441954
750	0.114799
762	0.194775
774	0.151605
786	0.0472741
798	0.0195664
810	0.0163509
822	0.0188823
834	0.023466
846	0.0268867
858	0.0190191
870	0.0158036
882	0.0161457
894	0.0121777
906	0.0103305
918	0.0146406
930	0.0223714
942	0.0348911
954	0.0414589
966	0.0473425
978	0.0444007
990	0.0416641
1002	0.0489844
1014	0.0555522
1026	0.070398
1038	0.0962585
1050	0.103647
1062	0.0793602
1074	0.0671825
1086	0.0825757
1098	0.170077
1110	0.414315
1122	0.623457
1134	0.673399
1146	0.424783
1158	0.167751
1170	0.0956428
1182	0.084286
1194	0.0961217
1206	0.109257
1218	0.0823705
1230	0.0545944
1242	0.0603411
1254	0.106384
1266	0.0721084
1278	0.0571257
1290	0.0936588
1302	0.147569
1314	0.112883
1326	0.0515842
1338	0.030239
1350	0.0400222
1362	0.0993371
1374	0.0814811
1386	0.0290075
1398	0.0169667
1410	0.0127934
1422	0.0229187
1434	0.0693034
1446	0.0640355
1458	0.0766237
1470	0.0538418
1482	0.0363278
1494	0.0181297
1506	0.0128618
1518	0.00602043
1530	0.00232608
1542	0.00656774
1554	0.00417325
1566	0.00287339
1578	0.00540471
1590	0.00218925
1602	0.00355753
1614	0.00403643
1626	0.00301022
1638	0.00506264
1650	0.00198401
1662	0.00362594
1674	0.00184718
1686	0.00444691
1698	0.00280497
1710	0.00198401
1722	0.00102621
1734	0.00485739
1746	0.00690981
1758	0.0110831
1770	0.0110147
1782	0.00868858
1794	0.00964637
1806	0.00513105
1818	0.00355753
1830	0.00321546
1842	0.000889382
1854	0.00232608
1866	0.00177876
1878	0.00301022
1890	0.00328387
1902	0.00321546
1914	0.00321546
1926	0.00526788
1938	0.0063625
1950	0.00560995
1962	0.00417325
1974	0.00465215
1986	0.00376277
1998	0.00273656
2010	0.00307863
2022	0.0029418
2034	0.00321546
2046	0.00424167
2058	0.00526788
2070	0.00602043
2082	0.00602043
2094	0.00533629
2106	0.00581519
2118	0.0063625
2130	0.00656774
2142	0.00608885
2154	0.00602043
2166	0.00608885
2178	0.00492581
2190	0.0038996
2202	0.00383118
2214	0.00355753
2226	0.00383118
2238	0.0043785
2250	0.0038996
2262	0.0034207
2274	0.00314704
2286	0.00301022
2298	0.00266815
2310	0.00396801
2322	0.00465215
2334	0.00513105
2346	0.00533629
2358	0.00410484
2370	0.00396801
2382	0.00287339
2394	0.00259973
2406	0.00266815
2418	0.00218925
2430	0.00184718
2442	0.00191559
2454	0.00205242
2466	0.00259973
2478	0.0034207
2490	0.00266815
2502	0.00259973
2514	0.0024629
2526	0.00150511
2538	0.00129987
2550	0.000889382
2562	0.000478898
2574	0.00143669
2586	0.000889382
2598	0.00143669
2610	0.00136828
2622	0.00232608
2634	0.00321546
2646	0.00355753
2658	0.00465215
2670	0.00485739
2682	0.00533629
2694	0.00649933
2706	0.00964637
2718	0.0130671
2730	0.0146406
2742	0.0171719
2754	0.01553
2766	0.0127934
2778	0.0154616
2790	0.0195664
2802	0.0230555
2814	0.0240133
2826	0.0289391
2838	0.0501475
2850	0.0996108
2862	0.147637
2874	0.161868
2886	0.167683
2898	0.158173
2910	0.138265
2922	0.125608
2934	0.110762
2946	0.10139
2958	0.136623
2970	0.178629
2982	0.140386
2994	0.0764184
3006	0.0740924
3018	0.0569204
3030	0.0307863
3042	0.0147774
3054	0.00855175
3066	0.00513105
3078	0.00362594
3090	0.00369436
3102	0.00212083
3114	0.00171035
3126	0.00143669
3138	0.00102621
3150	0.00205242
3162	0.00164194
3174	0.00171035
3186	0.00232608
3198	0.00150511
3210	0.00143669
3222	0.00157352
3234	0.00123145
3246	0.00205242
3258	0.00239449
3270	0.00157352
3282	0.00157352
3294	0.00123145
3306	0.00068414
3318	0.000410484
3330	0.000889382
3342	0.00157352
3354	0.000615726
3366	0.00102621
3378	0
3390	0.000547312
3402	0.00109462
3414	0.00129987
3426	0.00198401
3438	0.00116304
3450	0.00212083
3462	0.00164194
3474	0.00102621
3486	0.000752554
3498	0.00177876
3510	0.00116304
3522	0.00116304
3534	0.000957796
3546	0.00034207
3558	0.00239449
3570	0.00485739
3582	0.00424167
3594	0.00383118
3606	0.00239449
3618	0.00335229
3630	0.00608885
3642	0.00506264
3654	0.00472057
3666	0.00396801
3678	0.00814127
3690	0.00567836
3702	0.00424167
3714	0.00492581
3726	0.00615726
3738	0.00773078
3750	0.00547312
3762	0.00444691
3774	0.00465215
3786	0.00376277
3798	0.00554153
3810	0.00615726
3822	0.00690981
3834	0.00602043
3846	0.00615726
3858	0.00615726
3870	0.00663616
3882	0.00759395
3894	0.00752554
3906	0.00472057
3918	0.00499422
3930	0.00533629
3942	0.00328387
3954	0.00602043
3966	0.00574678
