Infrared Spectrum: 1-Hexanol
Formula: C 6 H 14 O
CAS: 111-27-3
Origin: Sadtler Research Labs Under US-EPA Contract
1/CM	ABSORBANCE
450	0
462	0.0514365
474	0.085068
486	0.050306
498	0.0498821
510	0.0518604
522	0.0549692
534	0.0309467
546	0.042534
558	0.0367403
570	0.0300988
582	0.0306641
594	0.0354686
606	0.0315119
618	0.0323598
630	0.0305227
642	0.0322185
654	0.0330663
666	0.0299575
678	0.031088
690	0.0350446
702	0.0354686
714	0.0453602
726	0.0538387
738	0.046208
750	0.0433819
762	0.0473385
774	0.028827
786	0.0303814
798	0.0274139
810	0.0411209
822	0.0309467
834	0.0387187
846	0.0421101
858	0.0446536
870	0.0473385
882	0.0507299
894	0.0592085
906	0.0743285
918	0.0901551
930	0.0935466
942	0.0843615
954	0.0796983
966	0.0852093
978	0.0979271
990	0.117852
1002	0.153603
1014	0.227507
1026	0.313989
1038	0.3821
1050	0.422797
1062	0.391285
1074	0.268628
1086	0.193311
1098	0.139048
1110	0.107677
1122	0.0857746
1134	0.0712197
1146	0.0647195
1158	0.0671218
1170	0.073622
1182	0.0761656
1194	0.0784265
1206	0.0845028
1218	0.0861985
1230	0.091003
1242	0.0953836
1254	0.094677
1266	0.0917095
1278	0.0897312
1290	0.0890247
1302	0.0856333
1314	0.0794157
1326	0.0799809
1338	0.0911443
1350	0.0977858
1362	0.102025
1374	0.127461
1386	0.167027
1398	0.145124
1410	0.0911443
1422	0.0709371
1434	0.0801222
1446	0.10796
1458	0.147103
1470	0.15332
1482	0.114743
1494	0.064013
1506	0.0401318
1518	0.0330663
1530	0.0302401
1542	0.0261422
1554	0.0264248
1566	0.025153
1578	0.0240225
1590	0.0238812
1602	0.0234573
1614	0.0221855
1626	0.0227507
1638	0.0211963
1650	0.0224681
1662	0.0227507
1674	0.0216203
1686	0.0200659
1698	0.0204898
1710	0.0206311
1722	0.0213377
1734	0.0206311
1746	0.0209137
1758	0.0211963
1770	0.0207724
1782	0.0199246
1794	0.0199246
1806	0.0199246
1818	0.0204898
1830	0.0197833
1842	0.0199246
1854	0.0199246
1866	0.0197833
1878	0.019642
1890	0.019218
1902	0.0197833
1914	0.0197833
1926	0.0199246
1938	0.0197833
1950	0.0204898
1962	0.0207724
1974	0.0206311
1986	0.0204898
1998	0.0204898
2010	0.021055
2022	0.0223268
2034	0.0220442
2046	0.0221855
2058	0.0221855
2070	0.0211963
2082	0.0203485
2094	0.019642
2106	0.0193593
2118	0.0186528
2130	0.0183702
2142	0.0185115
2154	0.0183702
2166	0.0180876
2178	0.0180876
2190	0.0185115
2202	0.0180876
2214	0.0186528
2226	0.0185115
2238	0.0180876
2250	0.0180876
2262	0.0183702
2274	0.0182289
2286	0.0185115
2298	0.0187941
2310	0.0186528
2322	0.0185115
2334	0.0178049
2346	0.017381
2358	0.0183702
2370	0.0165332
2382	0.0187941
2394	0.0182289
2406	0.0185115
2418	0.0186528
2430	0.0179462
2442	0.0179462
2454	0.0178049
2466	0.0178049
2478	0.017381
2490	0.0170984
2502	0.0165332
2514	0.0163918
2526	0.0170984
2538	0.0178049
2550	0.0179462
2562	0.0185115
2574	0.0190767
2586	0.019642
2598	0.0199246
2610	0.0209137
2622	0.0224681
2634	0.0231747
2646	0.0250117
2658	0.02699
2670	0.029251
2682	0.0308054
2694	0.0312293
2706	0.0327837
2718	0.0350446
2730	0.0399904
2742	0.0460667
2754	0.048469
2766	0.0500234
2778	0.05398
2790	0.062176
2802	0.0693827
2814	0.0780026
2826	0.0986337
2838	0.152048
2850	0.290107
2862	0.514082
2874	0.687327
2886	0.694534
2898	0.585867
2910	0.675457
2922	1.01234
2934	1.3625
2946	1.2951
2958	1.00132
2970	0.901834
2982	0.517191
2994	0.189213
3006	0.0979271
3018	0.0709371
3030	0.0577954
3042	0.0491755
3054	0.0415448
3066	0.0353272
3078	0.0332076
3090	0.0308054
3102	0.0289683
3114	0.0279792
3126	0.0276966
3138	0.0262835
3150	0.0258595
3162	0.0252943
3174	0.0241638
3186	0.025153
3198	0.0238812
3210	0.0227507
3222	0.0209137
3234	0.0200659
3246	0.0195006
3258	0.0186528
3270	0.0176636
3282	0.0170984
3294	0.0163918
3306	0.0170984
3318	0.0175223
3330	0.0180876
3342	0.0180876
3354	0.0180876
3366	0.0186528
3378	0.0180876
3390	0.0189354
3402	0.0183702
3414	0.0203485
3426	0.0186528
3438	0.0206311
3450	0.0200659
3462	0.0195006
3474	0.0221855
3486	0.0211963
3498	0.0211963
3510	0.0185115
3522	0.0204898
3534	0.0189354
3546	0.0193593
3558	0.0187941
3570	0.0206311
3582	0.0202072
3594	0.021479
3606	0.0234573
3618	0.0248704
3630	0.0325011
3642	0.0497408
3654	0.086905
3666	0.127885
3678	0.121384
3690	0.0618933
3702	0.0373056
3714	0.0267074
3726	0.025153
3738	0.0221855
3750	0.0227507
3762	0.0182289
3774	0.0183702
3786	0.0235986
3798	0.0206311
3810	0.0238812
3822	0.0217616
3834	0.0211963
3846	0.0237399
3858	0.0197833
3870	0.0237399
3882	0.0224681
3894	0.0207724
3906	0.0244465
3918	0.0224681
3930	0.0230334
3942	0.0199246
3954	0.0223268
3966	0.0197833
