Infrared Spectrum: 2-Nonynoic acid, methyl ester
Formula: C 10 H 16 O 2
CAS: 111-80-8
Origin: Sadtler Research Labs Under US-EPA Contract
1/CM	ABSORBANCE
450	0.0071924
462	0.00532238
474	0.00158233
486	0.00798356
498	0.00589777
510	0.0172618
522	0.0143848
534	0.0159671
546	0.0122271
558	0.0247419
570	0.0186283
582	0.02654
594	0.0156075
606	0.0200668
618	0.0219368
630	0.0348112
642	0.0224403
654	0.0187722
666	0.0207141
678	0.0193476
690	0.0253892
702	0.0193476
714	0.0189879
726	0.0194914
738	0.0335166
750	0.039774
762	0.0347393
774	0.0263961
786	0.0224403
798	0.027475
810	0.0325816
822	0.0228718
834	0.0218649
846	0.0210018
858	0.0253892
870	0.020858
882	0.0227999
894	0.0179091
906	0.0225841
918	0.0240226
930	0.0257488
942	0.0212895
954	0.0197072
966	0.0210737
978	0.021721
990	0.0210018
1002	0.0197072
1014	0.021721
1026	0.0278346
1038	0.0335885
1050	0.0419317
1062	0.0696224
1074	0.129607
1086	0.118171
1098	0.0497714
1110	0.0431544
1122	0.0357462
1134	0.0344516
1146	0.0347393
1158	0.0432982
1170	0.0450963
1182	0.0479014
1194	0.0500591
1206	0.0534395
1218	0.0809145
1230	0.157226
1242	0.422697
1254	0.71924
1266	0.326967
1278	0.131549
1290	0.0722836
1302	0.0529361
1314	0.0471821
1326	0.0537272
1338	0.0455279
1350	0.0367532
1362	0.0370409
1374	0.0297046
1386	0.0294888
1398	0.0220807
1410	0.0246699
1422	0.0266119
1434	0.0830722
1446	0.0674647
1458	0.0430106
1470	0.045456
1482	0.0287696
1494	0.0203545
1506	0.0150321
1518	0.0146006
1530	0.0140971
1542	0.0135217
1554	0.012299
1566	0.0120113
1578	0.012299
1590	0.0140252
1602	0.012299
1614	0.0119394
1626	0.0121552
1638	0.0145286
1650	0.0135936
1662	0.0163987
1674	0.0133779
1686	0.0180529
1698	0.0268277
1710	0.0531518
1722	0.121911
1734	0.278921
1746	0.319343
1758	0.14989
1770	0.0672489
1782	0.0317904
1794	0.0210018
1806	0.0192756
1818	0.0154637
1830	0.00978166
1842	0.00863088
1854	0.00812741
1866	0.00812741
1878	0.00654508
1890	0.00812741
1902	0.00740817
1914	0.00863088
1926	0.00676086
1938	0.00798356
1950	0.00611354
1962	0.00819934
1974	0.00762394
1986	0.00855896
1998	0.0074801
2010	0.0074801
2022	0.00827126
2034	0.00827126
2046	0.00877473
2058	0.00755202
2070	0.0069047
2082	0.00661701
2094	0.00661701
2106	0.005682
2118	0.00546622
2130	0.00517853
2142	0.00618546
2154	0.00632931
2166	0.00740817
2178	0.00683278
2190	0.0103571
2202	0.0148163
2214	0.025533
2226	0.0630054
2238	0.139245
2250	0.0971693
2262	0.0297765
2274	0.0150321
2286	0.0110044
2298	0.012299
2310	0.0154637
2322	0.0181968
2334	0.0153198
2346	0.015176
2358	0.0105009
2370	0.00913435
2382	0.00755202
2394	0.00453121
2406	0.00374005
2418	0.0033085
2430	0.00194195
2442	0.00302081
2454	0.00237349
2466	0.00280504
2478	0.00143848
2490	0.00287696
2502	0.00302081
2514	0.00345235
2526	0.00201387
2538	0.00100694
2550	0.00187002
2562	0.00165425
2574	0.00366812
2586	0.00237349
2598	0.00258926
2610	0.00215772
2622	0.00323658
2634	0.00273311
2646	0.00323658
2658	0.00273311
2670	0.00445929
2682	0.0038839
2694	0.00417159
2706	0.00266119
2718	0.0033085
2730	0.00194195
2742	0.0051066
2754	0.00345235
2766	0.0035962
2778	0.00366812
2790	0.00417159
2802	0.00661701
2814	0.00805549
2826	0.0122271
2838	0.0179091
2850	0.0389109
2862	0.0637966
2874	0.0865965
2886	0.0722836
2898	0.056748
2910	0.0743694
2922	0.115006
2934	0.18391
2946	0.224978
2958	0.177652
2970	0.178515
2982	0.0751606
2994	0.0374005
3006	0.0294169
3018	0.0249576
3030	0.0188441
3042	0.0145286
3054	0.0112921
3066	0.0087028
3078	0.00855896
3090	0.00496276
3102	0.00697663
3114	0.00625739
3126	0.0069047
3138	0.00381197
3150	0.00309273
3162	0.00345235
3174	0.0053943
3186	0.00460314
3198	0.00366812
3210	0.0015104
3222	0.00287696
3234	0.00201387
3246	0.00374005
3258	0.000791164
3270	0.00201387
3282	0.00222964
3294	0.00374005
3306	0.00316466
3318	0.00294888
3330	0.005682
3342	0.00323658
3354	0.00503468
3366	0.00266119
3378	0.00316466
3390	0.00237349
3402	0.00402774
3414	0.00366812
3426	0.00417159
3438	0.00445929
3450	0.00589777
3462	0.00553815
3474	0.0051066
3486	0.00251734
3498	0.00366812
3510	0.00244542
3522	0.00316466
3534	0.00237349
3546	0.00302081
3558	0.00352428
3570	0.00266119
3582	0.00409967
3594	0.00230157
3606	0.00467506
3618	0.00266119
3630	0.00489083
3642	0.00287696
3654	0.00431544
3666	0.0035962
3678	0.00460314
3690	0.00316466
3702	0.00345235
3714	0.00280504
3726	0.00417159
3738	0.00302081
3750	0.0035962
3762	0.00194195
3774	0.00409967
3786	0.00287696
3798	0.0038839
3810	0.00266119
3822	0.00158233
3834	0.00258926
3846	0.0017981
3858	0.00309273
3870	0.00122271
3882	0.00266119
3894	0.0015104
3906	0.00309273
3918	0.00230157
3930	0.00345235
3942	0.00438736
3954	0
3966	0.000503468
