Infrared Spectrum: 1,2-Ethanediamine, N,N'-diethyl-
Formula: C 6 H 16 N 2
CAS: 111-74-0
Origin: Sadtler Research Labs Under US-EPA Contract
1/CM	ABSORBANCE
450	0.00329125
462	0.000701415
474	0.00010791
486	0.00194238
498	0.00469408
510	0.00917235
522	0.00793139
534	0.00895653
546	0.00636669
558	0.00728393
570	0.00874071
582	0.0111687
594	0.0125715
606	0.0140283
618	0.0225532
630	0.0265459
642	0.0351787
654	0.0512573
666	0.0648539
678	0.0785585
690	0.0968492
702	0.110608
714	0.117514
726	0.111957
738	0.0986837
750	0.0848712
762	0.0730011
774	0.0570304
786	0.0425705
798	0.0314558
810	0.0229309
822	0.017967
834	0.0125715
846	0.0113305
858	0.0126255
870	0.0131111
882	0.0133269
894	0.0108989
906	0.013165
918	0.014352
930	0.01678
942	0.0159167
954	0.0178051
966	0.0110068
978	0.010845
990	0.0112766
1002	0.0169958
1014	0.027625
1026	0.0436496
1038	0.0454301
1050	0.0435956
1062	0.0425705
1074	0.0464553
1086	0.0568146
1098	0.086382
1110	0.149186
1122	0.20627
1134	0.245225
1146	0.205676
1158	0.158844
1170	0.133593
1182	0.0708429
1194	0.0427863
1206	0.0363657
1218	0.0420309
1230	0.0471027
1242	0.044351
1254	0.0475883
1266	0.0468869
1278	0.0452143
1290	0.0528219
1302	0.0626418
1314	0.0564369
1326	0.0778571
1338	0.120266
1350	0.112442
1362	0.0877848
1374	0.11487
1386	0.135211
1398	0.0747816
1410	0.0415454
1422	0.0456999
1434	0.0819576
1446	0.160031
1458	0.220244
1470	0.197637
1482	0.0933421
1494	0.0370671
1506	0.0214741
1518	0.0134888
1530	0.0081472
1542	0.00944213
1554	0.00528759
1566	0.00356103
1578	0.00437036
1590	0.00291357
1602	0.00393871
1614	0.00464013
1626	0.00512573
1638	0.00701415
1650	0.00690624
1662	0.00809325
1674	0.014406
1686	0.022823
1698	0.0296753
1710	0.0352866
1722	0.0158628
1734	0.00949608
1746	0.00393871
1758	0.00291357
1770	0.00302148
1782	0.00183447
1794	0.00269775
1806	0.00210425
1818	0.00280566
1830	0.00329125
1842	0.00264379
1854	0.00329125
1866	0.00188842
1878	0.00237402
1890	0.00237402
1902	0.00242798
1914	0.00248193
1926	0.00194238
1938	0.00188842
1950	0.00188842
1962	0.0016726
1974	0.00124097
1986	0.00086328
1998	0.00102515
2010	0.00140283
2022	0.00140283
2034	0.00043164
2046	0.00043164
2058	0.000485595
2070	0.000593505
2082	0.000593505
2094	0.00064746
2106	0.00075537
2118	0.00064746
2130	0.00064746
2142	0.00053955
2154	0.00102515
2166	0.00145678
2178	0.00097119
2190	0.000809325
2202	0.00086328
2214	0.00053955
2226	0.000269775
2238	0.00075537
2250	0.00118701
2262	0.0015647
2274	0.00172656
2286	0.00183447
2298	0.00183447
2310	0.00183447
2322	0.00210425
2334	0.00134888
2346	0.00140283
2358	0.00242798
2370	0.00129492
2382	0.00205029
2394	0.00205029
2406	0.00210425
2418	0.00210425
2430	0.00183447
2442	0.00172656
2454	0.0016726
2466	0.00221215
2478	0.00264379
2490	0.0032373
2502	0.00366894
2514	0.00426245
2526	0.00420849
2538	0.00550341
2550	0.0070681
2562	0.00922631
2574	0.010737
2586	0.0117622
2598	0.0130032
2610	0.0146218
2622	0.0172116
2634	0.0207727
2646	0.0249812
2658	0.0285962
2670	0.0333442
2682	0.0399267
2694	0.0460236
2706	0.0502861
2718	0.053901
2730	0.0634511
2742	0.0776412
2754	0.0911839
2766	0.112442
2778	0.148862
2790	0.210371
2802	0.313694
2814	0.423115
2826	0.434661
2838	0.341157
2850	0.24269
2862	0.191702
2874	0.223266
2886	0.292976
2898	0.310835
2910	0.309054
2922	0.311806
2934	0.36943
2946	0.402504
2958	0.385131
2970	0.512788
2982	0.453762
2994	0.179724
3006	0.0656093
3018	0.0372829
3030	0.0270315
3042	0.021636
3054	0.0166721
3066	0.0126794
3078	0.0106831
3090	0.00911839
3102	0.00787743
3114	0.00652856
3126	0.00652856
3138	0.00598901
3150	0.00561132
3162	0.00507177
3174	0.00507177
3186	0.00550341
3198	0.00528759
3210	0.00469408
3222	0.0032373
3234	0.00275171
3246	0.0021582
3258	0.00151074
3270	0.00188842
3282	0.00134888
3294	0.00199634
3306	0.00194238
3318	0.00329125
3330	0.00944213
3342	0.0124096
3354	0.0106831
3366	0.00620482
3378	0.0021582
3390	0.00221215
3402	0.00221215
3414	0.00205029
3426	0.00124097
3438	0.00134888
3450	0.00161865
3462	0.000917235
3474	0.00043164
3486	0.00086328
3498	0.000485595
3510	0.00113305
3522	0.000809325
3534	0.00043164
3546	0.0015647
3558	0.000701415
3570	0.00178052
3582	0.000485595
3594	0.0010791
3606	0.000269775
3618	0.00102515
3630	0.00237402
3642	0.00118701
3654	0.00172656
3666	0.00134888
3678	0.00237402
3690	0.00188842
3702	0.00183447
3714	0.00237402
3726	0.00291357
3738	0.00339916
3750	0.00318335
3762	0.00194238
3774	0.00199634
3786	0.00205029
3798	0.00199634
3810	0.00258984
3822	0.00307544
3834	0.00339916
3846	0.00307544
3858	0.00372289
3870	0.00361499
3882	0.00415453
3894	0.00356103
3906	0.00345312
3918	0.00329125
3930	0.00437036
3942	0.00426245
3954	0.00053955
3966	0.000917235
