Infrared Spectrum: Pentane, 1,5-dibromo-
Formula: C 5 H 10 Br 2
CAS: 111-24-0
Origin: Sadtler Research Labs Under US-EPA Contract
1/CM	ABSORBANCE
450	0.117375
462	0.0699206
474	0.00106982
486	0.0498996
498	0.0420288
510	0.0424873
522	0.0426401
534	0.0465373
546	0.0651828
558	0.124787
570	0.286636
582	0.196618
594	0.073665
606	0.053262
618	0.0537204
630	0.0742764
642	0.142363
654	0.28037
666	0.168956
678	0.0854331
690	0.0540261
702	0.0558601
714	0.0699206
726	0.120432
738	0.195014
750	0.13411
762	0.0768745
774	0.0994936
786	0.0498996
798	0.04776
810	0.0568535
822	0.072748
834	0.0586111
846	0.0585347
858	0.0586875
870	0.0598337
882	0.070532
894	0.0824529
906	0.0637309
918	0.0510459
930	0.0512751
942	0.0589167
954	0.0606743
966	0.0541789
978	0.0476836
990	0.0652593
1002	0.0579997
1014	0.0491355
1026	0.0580762
1038	0.0557073
1050	0.0519629
1062	0.0503581
1074	0.0498996
1086	0.0476836
1098	0.0392778
1110	0.0411882
1122	0.0464609
1134	0.0398127
1146	0.0387429
1158	0.0403476
1170	0.0454675
1182	0.0548667
1194	0.0864265
1206	0.134874
1218	0.383073
1230	0.576712
1242	0.262795
1254	0.355334
1266	0.478593
1278	0.396828
1290	0.28847
1302	0.273264
1314	0.180189
1326	0.0983474
1338	0.0740471
1350	0.0860444
1362	0.0913935
1374	0.0640366
1386	0.0463845
1398	0.0329353
1410	0.0350749
1422	0.0619734
1434	0.164524
1446	0.323087
1458	0.236508
1470	0.131359
1482	0.054561
1494	0.0302607
1506	0.0257522
1518	0.0211672
1530	0.0175757
1542	0.0217786
1554	0.0149011
1566	0.0149011
1578	0.0151304
1590	0.0128379
1602	0.0121501
1614	0.0138313
1626	0.0125322
1638	0.0153596
1650	0.0124558
1662	0.0109275
1674	0.0129143
1686	0.014519
1698	0.0130671
1710	0.0115388
1722	0.0110039
1734	0.0120737
1746	0.0118445
1758	0.0107747
1770	0.0105454
1782	0.0090935
1794	0.00962842
1806	0.00916992
1818	0.00741235
1830	0.00756518
1842	0.00748877
1854	0.0071831
1866	0.00687744
1878	0.00756518
1890	0.00695386
1902	0.00664819
1914	0.00664819
1926	0.00687744
1938	0.00710669
1950	0.00664819
1962	0.00672461
1974	0.00710669
1986	0.00695386
1998	0.00756518
2010	0.00733594
2022	0.0076416
2034	0.00779443
2046	0.00787085
2058	0.00687744
2070	0.00657178
2082	0.00626611
2094	0.00588403
2106	0.00611328
2118	0.00580762
2130	0.00481421
2142	0.00466138
2154	0.00519629
2166	0.00565478
2178	0.00557837
2190	0.00626611
2202	0.0061897
2214	0.00634253
2226	0.0057312
2238	0.00542554
2250	0.00542554
2262	0.00542554
2274	0.00511987
2286	0.00397363
2298	0.0023689
2310	0.00122266
2322	0.000916992
2334	0.00175757
2346	0.00229248
2358	0.00229248
2370	0.00580762
2382	0.00450854
2394	0.00435571
2406	0.00412646
2418	0.0033623
2430	0.00366797
2442	0.0033623
2454	0.00320947
2466	0.00343872
2478	0.00405005
2490	0.00405005
2502	0.00282739
2514	0.00252173
2526	0.00244531
2538	0.00152832
2550	0.00106982
2562	0.00175757
2574	0.00221606
2586	0.00206323
2598	0.00206323
2610	0.00320947
2622	0.00458496
2634	0.00588403
2646	0.0061897
2658	0.00916992
2670	0.0113096
2682	0.0101633
2694	0.0116152
2706	0.0126086
2718	0.0106982
2730	0.00863501
2742	0.00863501
2754	0.00771802
2766	0.00779443
2778	0.00978125
2790	0.0145955
2802	0.0175757
2814	0.0217021
2826	0.034158
2838	0.0805425
2850	0.187601
2862	0.242392
2874	0.28144
2886	0.243156
2898	0.270436
2910	0.303601
2922	0.302989
2934	0.43901
2946	0.725341
2958	0.658247
2970	0.614308
2982	0.412035
2994	0.159557
3006	0.173923
3018	0.269443
3030	0.0769509
3042	0.0280447
3054	0.0168115
3066	0.0129143
3078	0.00978125
3090	0.00756518
3102	0.00557837
3114	0.00565478
3126	0.00466138
3138	0.00511987
3150	0.00565478
3162	0.00489062
3174	0.00458496
3186	0.00557837
3198	0.00473779
3210	0.00359155
3222	0.00389722
3234	0.00244531
3246	0.00343872
3258	0.00282739
3270	0.00206323
3282	0.00206323
3294	0.00359155
3306	0.00221606
3318	0.00290381
3330	0.00343872
3342	0.0038208
3354	0.00244531
3366	0.0038208
3378	0.00328589
3390	0.00496704
3402	0.00366797
3414	0.00290381
3426	0.00168115
3438	0.00343872
3450	0.000687744
3462	0.0014519
3474	0.00275098
3486	0.0019104
3498	0.00290381
3510	0.0014519
3522	0.0019104
3534	0.00313306
3546	0.00175757
3558	0.00206323
3570	0.00122266
3582	0.00282739
3594	0.00267456
3606	0.00114624
3618	0.00298022
3630	0.00313306
3642	0.00259814
3654	0.00298022
3666	0.00397363
3678	0.00565478
3690	0.00473779
3702	0.00359155
3714	0.00328589
3726	0.00275098
3738	0.00183398
3750	0.00267456
3762	0.00397363
3774	0.00626611
3786	0.00320947
3798	0.00267456
3810	0.00343872
3822	0.000611328
3834	0.0033623
3846	0.00420288
3858	0.00359155
3870	0.0042793
3882	0.00129907
3894	0.00710669
3906	0.00458496
3918	0.00534912
3930	0.00519629
3942	0.00649536
3954	0.00733594
3966	0.00458496
