Infrared Spectrum: 1-Octanol
Formula: C 8 H 18 O
CAS: 111-87-5
Origin: Sadtler Research Labs Under US-EPA Contract
1/CM	ABSORBANCE
450	0.00447733
462	0.00333765
474	0.00236077
486	0.00398889
498	0.00529139
510	0.00423311
522	0.00398889
534	0.0026864
546	0.00301202
558	0.00366327
570	0.00309343
582	0.00219796
594	0.00211656
606	0.00219796
618	0.00227937
630	0.00309343
642	0.00301202
654	0.00284921
666	0.00170953
678	0.00244218
690	0.00333765
702	0.00643107
714	0.0119667
726	0.013432
738	0.0102572
750	0.00757076
762	0.00643107
774	0.00651248
786	0.0054542
798	0.00708232
810	0.00634967
822	0.0068381
834	0.00691951
846	0.00805919
858	0.0100129
870	0.0120481
882	0.0151415
894	0.0178279
906	0.0157114
918	0.0145717
930	0.0165254
942	0.0215726
954	0.0291433
966	0.0349232
978	0.0399703
990	0.0471341
1002	0.0529139
1014	0.070986
1026	0.10656
1038	0.144984
1050	0.168673
1062	0.141972
1074	0.0958963
1086	0.0616243
1098	0.040703
1110	0.032481
1122	0.0252359
1134	0.0197817
1146	0.018642
1158	0.0197817
1170	0.0206771
1182	0.0215726
1194	0.0236077
1206	0.0260499
1218	0.0280851
1230	0.029876
1242	0.0290619
1254	0.0288991
1266	0.0297946
1278	0.0297132
1290	0.0291433
1302	0.0286549
1314	0.0267826
1326	0.0258871
1338	0.0318297
1350	0.0374468
1362	0.0380166
1374	0.0475411
1386	0.0640665
1398	0.0474597
1410	0.027678
1422	0.0207585
1434	0.0263755
1446	0.0429824
1458	0.0664273
1470	0.0674856
1482	0.0408658
1494	0.0165254
1506	0.00985013
1518	0.00691951
1530	0.00512858
1542	0.00415171
1554	0.00325624
1566	0.00244218
1578	0.00187234
1590	0.00203515
1602	0.00203515
1614	0.00244218
1626	0.00154671
1638	0.00105828
1650	0.00105828
1662	0.0013839
1674	0.00154671
1686	0.00113968
1698	0.00146531
1710	0.000569842
1722	0.000488436
1734	0.00203515
1746	0.00236077
1758	0.00284921
1770	0.00227937
1782	0.0013839
1794	0.000732654
1806	0.000325624
1818	0.000732654
1830	0.000488436
1842	0.000651248
1854	0.000651248
1866	0.000162812
1878	0.000569842
1890	0.000244218
1902	0.000651248
1914	0.000488436
1926	0.000569842
1938	0.000488436
1950	0.000488436
1962	0.000488436
1974	0.00040703
1986	0.00040703
1998	0.000651248
2010	0.000895466
2022	0.00122109
2034	0.00187234
2046	0.00187234
2058	0.00195374
2070	0.00179093
2082	0.00162812
2094	0.00113968
2106	0.000651248
2118	8.1406e-05
2130	0.000162812
2142	0
2154	0.000488436
2166	0.000569842
2178	0.000569842
2190	0.000488436
2202	0
2214	0.000162812
2226	0.000488436
2238	0.00040703
2250	0.000488436
2262	0.000732654
2274	0.0013025
2286	0.00122109
2298	0.00187234
2310	0.0027678
2322	0.00244218
2334	0.00252359
2346	0.00211656
2358	0.0027678
2370	0.00113968
2382	0.00154671
2394	0.0013839
2406	0.00195374
2418	0.00154671
2430	0.0013025
2442	0.00154671
2454	0.0013839
2466	0.0013839
2478	0.0013025
2490	0.0013839
2502	0.00146531
2514	0.00146531
2526	0.00179093
2538	0.00236077
2550	0.00301202
2562	0.00293062
2574	0.00341905
2586	0.00398889
2598	0.00415171
2610	0.0040703
2622	0.00488436
2634	0.0053728
2646	0.0067567
2658	0.00732654
2670	0.00879185
2682	0.00985013
2694	0.0101758
2706	0.0103386
2718	0.0113154
2730	0.0123737
2742	0.0140018
2754	0.0153043
2766	0.0157114
2778	0.0182349
2790	0.0222238
2802	0.0269454
2814	0.032481
2826	0.0419241
2838	0.0651248
2850	0.14417
2862	0.30397
2874	0.354198
2886	0.306168
2898	0.248207
2910	0.320658
2922	0.549083
2934	0.80828
2946	0.669809
2958	0.419322
2970	0.387167
2982	0.180151
2994	0.0681368
3006	0.0392377
3018	0.0274338
3030	0.0203515
3042	0.0153043
3054	0.0118039
3066	0.00919888
3078	0.00797779
3090	0.00757076
3102	0.00634967
3114	0.00577983
3126	0.00504717
3138	0.00464014
3150	0.00382608
3162	0.00390749
3174	0.00374468
3186	0.00309343
3198	0.00293062
3210	0.00227937
3222	0.000895466
3234	0.000895466
3246	0.000569842
3258	0.00105828
3270	0.000895466
3282	0.000895466
3294	0.00122109
3306	0.00040703
3318	0.000976872
3330	0.00122109
3342	0.000976872
3354	0.00122109
3366	0.00170953
3378	0.00179093
3390	0.00113968
3402	0.00146531
3414	0.00203515
3426	0.00219796
3438	0.0026864
3450	0.00252359
3462	0.00244218
3474	0.00219796
3486	0.00211656
3498	0.00244218
3510	0.00227937
3522	0.00170953
3534	0.00195374
3546	0.00244218
3558	0.00187234
3570	0.00284921
3582	0.00293062
3594	0.00398889
3606	0.00423311
3618	0.00520998
3630	0.00748935
3642	0.0122923
3654	0.0275966
3666	0.0444477
3678	0.0414357
3690	0.0202701
3702	0.0094431
3714	0.00594264
3726	0.00529139
3738	0.00488436
3750	0.00423311
3762	0.00398889
3774	0.00464014
3786	0.00480295
3798	0.00480295
3810	0.00439592
3822	0.00561701
3834	0.00569842
3846	0.00626826
3858	0.00634967
3870	0.00667529
3882	0.00618686
3894	0.00626826
3906	0.00610545
3918	0.00594264
3930	0.00577983
3942	0.00586123
3954	0.00561701
3966	0.00643107
