Infrared Spectrum: 1,5-Pentanediol
Formula: C 5 H 12 O 2
CAS: 111-29-5
Origin: Sadtler Research Labs Under US-EPA Contract
1/CM	ABSORBANCE
450	0.0488876
462	0.0298297
474	0.0298297
486	0.0376423
498	0.0318421
510	0.0330258
522	0.0266337
534	0.0236744
546	0.0151516
558	0.0120739
570	0.011127
582	0.00509
594	0.00662883
606	0.00911464
618	0.00580023
630	0.00544511
642	0.00769418
654	0.00603697
666	0.00118372
678	0.0110086
690	0.000946976
702	0.00828604
714	0.0113637
726	0.0187028
738	0.0164537
750	0.0157435
762	0.0116005
774	0.0121923
786	0.0118372
798	0.0124291
810	0.0144414
822	0.0169272
834	0.0215437
846	0.0316053
858	0.0414302
870	0.0606065
882	0.0832155
894	0.0932771
906	0.10831
918	0.124527
930	0.120029
942	0.111506
954	0.121213
966	0.140152
978	0.163708
990	0.200522
1002	0.262076
1014	0.377133
1026	0.593636
1038	0.727988
1050	0.687741
1062	0.670341
1074	0.612338
1086	0.485917
1098	0.264798
1110	0.147728
1122	0.113519
1134	0.105233
1146	0.10109
1158	0.10322
1170	0.107127
1182	0.112453
1194	0.119319
1206	0.131393
1218	0.143467
1230	0.154831
1242	0.153765
1254	0.147492
1266	0.137548
1278	0.128789
1290	0.123107
1302	0.113164
1314	0.105351
1326	0.106416
1338	0.116123
1350	0.127368
1362	0.135654
1374	0.16726
1386	0.21011
1398	0.184424
1410	0.113755
1422	0.079546
1434	0.0821502
1446	0.0954078
1458	0.101208
1470	0.0937506
1482	0.0771785
1494	0.0419037
1506	0.0196498
1518	0.0113637
1530	0.00828604
1542	0.0067472
1554	0.00556348
1566	0.00331442
1578	0.00461651
1590	0.00236744
1602	0.00260418
1614	0.00402465
1626	0.00532674
1638	0.0110086
1650	0.00958813
1662	0.00698395
1674	0.00248581
1686	0.0029593
1698	0.00142046
1710	0
1722	0.0021307
1734	0.00260418
1746	0.00437976
1758	0.00603697
1770	0.00769418
1782	0.00840441
1794	0.00532674
1806	0.00260418
1818	0.00201232
1830	0.000710232
1842	0.00130209
1854	0.000355116
1866	0.000828604
1878	0.000946976
1890	0.000828604
1902	0.00130209
1914	0.00189395
1926	0.00201232
1938	0.00201232
1950	0.00260418
1962	0.00236744
1974	0.0029593
1986	0.00331442
1998	0.00355116
2010	0.00426139
2022	0.00509
2034	0.00580023
2046	0.00615534
2058	0.00509
2070	0.0037879
2082	0.00331442
2094	0.00272256
2106	0.00165721
2118	0.000946976
2130	0.000355116
2142	0.000710232
2154	0.000710232
2166	0.000710232
2178	0.00118372
2190	0.00118372
2202	0.00118372
2214	0.00118372
2226	0.000946976
2238	0.000710232
2250	0.00059186
2262	0.00059186
2274	0.000828604
2286	0.00165721
2298	0.00390628
2310	0.00580023
2322	0.00627372
2334	0.00473488
2346	0.00331442
2358	0.00828604
2370	0.000118372
2382	0.00118372
2394	0.00284093
2406	0.00355116
2418	0.0037879
2430	0.0037879
2442	0.00343279
2454	0.00284093
2466	0.00165721
2478	0.00201232
2490	0.00224907
2502	0.00130209
2514	0.0021307
2526	0.0029593
2538	0.00343279
2550	0.00307767
2562	0.0037879
2574	0.00414302
2586	0.00473488
2598	0.00497162
2610	0.00686558
2622	0.00816767
2634	0.0100616
2646	0.0112453
2658	0.0138495
2670	0.0163353
2682	0.0188211
2694	0.0234377
2706	0.0272256
2718	0.0303032
2730	0.0359851
2742	0.0416669
2754	0.0460467
2766	0.0514918
2778	0.0580023
2790	0.0645127
2802	0.0711416
2814	0.0806113
2826	0.103102
2838	0.1585
2850	0.272966
2862	0.444487
2874	0.624412
2886	0.677798
2898	0.625951
2910	0.691766
2922	0.896313
2934	1.14383
2946	1.13874
2958	0.82091
2970	0.466149
2982	0.219817
2994	0.104167
3006	0.05599
3018	0.03563
3030	0.0237928
3042	0.0177558
3054	0.0142046
3066	0.0126658
3078	0.0108902
3090	0.00852278
3102	0.00627372
3114	0.00414302
3126	0.00284093
3138	0.00366953
3150	0.0037879
3162	0.00485325
3174	0.00319604
3186	0.00355116
3198	0.00402465
3210	0.00284093
3222	0.00331442
3234	0.00284093
3246	0.00355116
3258	0.0021307
3270	0.00059186
3282	0.00130209
3294	0.00106535
3306	0.00130209
3318	0.00224907
3330	0.000946976
3342	0.00059186
3354	0.00307767
3366	0.00248581
3378	0.00473488
3390	0.00355116
3402	0.00580023
3414	0.00615534
3426	0.00828604
3438	0.0119556
3450	0.0106535
3462	0.0113637
3474	0.0145598
3486	0.0139679
3498	0.0124291
3510	0.0120739
3522	0.0121923
3534	0.0116005
3546	0.0149149
3558	0.0179925
3570	0.021307
3582	0.0243846
3594	0.026397
3606	0.026397
3618	0.0298297
3630	0.0390628
3642	0.0691292
3654	0.14252
3666	0.23923
3678	0.214017
3690	0.098959
3702	0.0443895
3714	0.02036
3726	0.0147965
3738	0.016217
3750	0.0139679
3762	0.0125474
3774	0.0142046
3786	0.0088779
3798	0.0117188
3810	0.0136128
3822	0.0120739
3834	0.0159802
3846	0.0125474
3858	0.021307
3870	0.0172823
3882	0.018466
3894	0.0170456
3906	0.0156251
3918	0.0153884
3930	0.0139679
3942	0.0139679
3954	0.0178742
3966	0.019413
