Infrared Spectrum: Methane, bis(2-chloroethoxy)-
Formula: C 5 H 10 Cl 2 O 2
CAS: 111-91-1
Origin: Sadtler Research Labs Under US-EPA Contract
1/CM	ABSORBANCE
450	0.0169342
462	0.0161594
474	0.0174876
486	0.00807971
498	0.000221362
510	0.0120642
522	0.00531269
534	0.00752631
546	0.00830107
558	0.0114001
570	0.0106254
582	0.0150526
594	0.0168235
606	0.0214721
618	0.0188158
630	0.0163808
642	0.0163808
654	0.0199226
666	0.0562259
678	0.151854
690	0.108246
702	0.0306586
714	0.0133924
726	0.0118429
738	0.0293305
750	0.0816826
762	0.224904
774	0.158163
786	0.0344218
798	0.0175983
810	0.025678
822	0.0291091
834	0.015606
846	0.0087438
858	0.0064195
870	0.00509133
882	0.00597677
894	0.00896516
906	0.0162701
918	0.0372995
930	0.0786942
942	0.124516
954	0.152961
966	0.174765
978	0.164804
990	0.19336
1002	0.30393
1014	0.329387
1026	0.606864
1038	0.780965
1050	0.560489
1062	0.527506
1074	0.75407
1086	1.10681
1098	0.864197
1110	0.56071
1122	0.583842
1134	0.548314
1146	0.380743
1158	0.531158
1170	0.406199
1182	0.188268
1194	0.136691
1206	0.154179
1218	0.109131
1230	0.0628668
1242	0.0533482
1254	0.0816826
1266	0.0733815
1278	0.0600998
1290	0.0991702
1302	0.154068
1314	0.105922
1326	0.0521308
1338	0.0291091
1350	0.0240178
1362	0.0307693
1374	0.0723854
1386	0.0747097
1398	0.0358606
1410	0.0578862
1422	0.0460433
1434	0.0807971
1446	0.066962
1458	0.06663
1470	0.051688
1482	0.0375209
1494	0.0192585
1506	0.00863312
1518	0.00498065
1530	0.00387384
1542	0.00343111
1554	0.00210294
1566	0.000774767
1578	0.00143885
1590	0.000442724
1602	0.000553405
1614	0.000774767
1626	0.00132817
1638	0.00254566
1650	0.00166022
1662	0.000996129
1674	0.00110681
1686	0.00121749
1698	0.0017709
1710	0.00121749
1722	0.00143885
1734	0.00210294
1746	0.00420588
1758	0.00365247
1770	0.00586609
1782	0.00398452
1794	0.00221362
1806	0.000774767
1818	0.000442724
1830	0.000885448
1842	0.000553405
1854	0.00143885
1866	0.0017709
1878	0.00110681
1890	0.0023243
1902	0.00298839
1914	0.00365247
1926	0.00398452
1938	0.00619814
1950	0.00719427
1962	0.00608746
1974	0.00619814
1986	0.0064195
1998	0.00608746
2010	0.00730495
2022	0.00819039
2034	0.00940789
2046	0.00996129
2058	0.010072
2070	0.0101827
2082	0.00863312
2094	0.00719427
2106	0.00597677
2118	0.00575541
2130	0.00597677
2142	0.0046486
2154	0.00254566
2166	0.00210294
2178	0.00166022
2190	0.000996129
2202	0.000110681
2214	0.00121749
2226	0.0017709
2238	0.00243498
2250	0.00309907
2262	0.00221362
2274	0.00199226
2286	0.0017709
2298	0.00199226
2310	0.000885448
2322	0.00110681
2334	0
2346	0.000442724
2358	0.000885448
2370	0
2382	0.00121749
2394	0.00121749
2406	0.00166022
2418	0.0017709
2430	0.00110681
2442	0.00188158
2454	0.0017709
2466	0.00221362
2478	0.00254566
2490	0.00287771
2502	0.00332043
2514	0.00376315
2526	0.00365247
2538	0.00354179
2550	0.00420588
2562	0.00354179
2574	0.00453792
2586	0.00442724
2598	0.00387384
2610	0.00343111
2622	0.00332043
2634	0.0040952
2646	0.00287771
2658	0.00398452
2670	0.00553405
2682	0.00730495
2694	0.00907584
2706	0.0108467
2718	0.0120642
2730	0.0161594
2742	0.0221362
2754	0.0292198
2766	0.0346432
2778	0.0408413
2790	0.0397345
2802	0.0451578
2814	0.0462647
2826	0.038849
2838	0.0463753
2850	0.0804651
2862	0.155064
2874	0.19347
2886	0.241727
2898	0.31367
2910	0.233094
2922	0.189375
2934	0.200775
2946	0.287549
2958	0.309685
2970	0.313781
2982	0.202768
2994	0.102159
3006	0.0862205
3018	0.0729388
3030	0.0374102
3042	0.0190371
3054	0.0121749
3066	0.00863312
3078	0.00763699
3090	0.00708358
3102	0.00653018
3114	0.0046486
3126	0.00531269
3138	0.00486996
3150	0.00431656
3162	0.00287771
3174	0.00276703
3186	0.00332043
3198	0.00210294
3210	0.00199226
3222	0.00132817
3234	0.00276703
3246	0.00199226
3258	0.000442724
3270	0.00154953
3282	0.000774767
3294	0.0023243
3306	0.00354179
3318	0.00298839
3330	0.00520201
3342	0.00221362
3354	0.00365247
3366	0.0040952
3378	0.00475928
3390	0.00486996
3402	0.00442724
3414	0.00376315
3426	0.00354179
3438	0.00387384
3450	0.00365247
3462	0.00199226
3474	0.00298839
3486	0.0017709
3498	0.000996129
3510	0.00132817
3522	0.00121749
3534	0.0017709
3546	0.000885448
3558	0.000774767
3570	0.00166022
3582	0.00199226
3594	0.000442724
3606	0.000885448
3618	0.00376315
3630	0.00298839
3642	0.00309907
3654	0.00110681
3666	0.00243498
3678	0.00376315
3690	0.00542337
3702	0.0046486
3714	0.00276703
3726	0.00564473
3738	0.00453792
3750	0.00254566
3762	0.00166022
3774	0.00564473
3786	0.00376315
3798	0.00686222
3810	0.00298839
3822	0.0046486
3834	0.00320975
3846	0.00531269
3858	0.00376315
3870	0.00686222
3882	0.00376315
3894	0.00918652
3906	0.00365247
3918	0.00354179
3930	0.00619814
3942	0.00962925
3954	0.000774767
3966	0.00730495
