Infrared Spectrum: 1,5-Cyclooctadiene
Formula: C 8 H 12
CAS: 111-78-4
Origin: Sadtler Research Labs Under US-EPA Contract
1/CM	ABSORBANCE
450	0
462	0.0289548
474	0.0293308
486	0.0424921
498	0.0382617
510	0.0258525
522	0.0177677
534	0.0138193
546	0.0198359
558	0.0172036
570	0.0201179
582	0.0266045
594	0.0200239
606	0.0227502
618	0.031023
630	0.0783095
642	0.169686
654	0.180215
666	0.107922
678	0.0658063
690	0.0925049
702	0.167994
714	0.173259
726	0.173259
738	0.126348
750	0.0910947
762	0.0650542
774	0.0505768
786	0.0723869
798	0.138569
810	0.10764
822	0.0775574
834	0.0549953
846	0.0381677
858	0.0274506
870	0.0190838
882	0.0217161
894	0.0266045
906	0.0290488
918	0.0258525
930	0.0219041
942	0.021152
954	0.0217161
966	0.0269806
978	0.031399
990	0.0535851
1002	0.0677805
1014	0.0610118
1026	0.0364755
1038	0.0261345
1050	0.0241603
1062	0.0298949
1074	0.0411759
1086	0.0531151
1098	0.0451243
1110	0.0259465
1122	0.0174857
1134	0.0187078
1146	0.0189898
1158	0.0196479
1170	0.021058
1182	0.0240663
1194	0.0362875
1206	0.0486967
1218	0.0514229
1230	0.0576275
1242	0.0533971
1254	0.0448423
1266	0.0405179
1278	0.0306469
1290	0.0224682
1302	0.0235963
1314	0.0263225
1326	0.0293308
1338	0.031023
1350	0.0350654
1362	0.0375096
1374	0.031211
1386	0.0268866
1398	0.0271686
1410	0.0325271
1422	0.0756772
1434	0.126254
1446	0.126254
1458	0.0861122
1470	0.0698487
1482	0.0814118
1494	0.107546
1506	0.0579095
1518	0.0251004
1530	0.0190838
1542	0.0163576
1554	0.0172036
1566	0.0172036
1578	0.0166396
1590	0.0188018
1602	0.0240663
1614	0.0291428
1626	0.0328091
1638	0.0407059
1650	0.0674045
1662	0.0777454
1674	0.0511409
1686	0.0306469
1698	0.0248184
1710	0.0222801
1722	0.0215281
1734	0.0190838
1746	0.0178617
1758	0.0216221
1770	0.0219981
1782	0.0188958
1794	0.0168276
1806	0.0168276
1818	0.0164516
1830	0.0154175
1842	0.0146654
1854	0.0152295
1866	0.0161695
1878	0.0166396
1890	0.0168276
1902	0.0160755
1914	0.0157935
1926	0.0165456
1938	0.0157935
1950	0.0160755
1962	0.0174857
1974	0.0169216
1986	0.0161695
1998	0.0147594
2010	0.0144774
2022	0.0141014
2034	0.0146654
2046	0.0152295
2058	0.0162636
2070	0.0161695
2082	0.0169216
2094	0.0160755
2106	0.0153235
2118	0.0157935
2130	0.0157935
2142	0.0158875
2154	0.0171096
2166	0.0171096
2178	0.0172977
2190	0.0164516
2202	0.0149474
2214	0.0151354
2226	0.0152295
2238	0.0156995
2250	0.0161695
2262	0.0155115
2274	0.0157935
2286	0.0150414
2298	0.0130673
2310	0.0120332
2322	0.0126912
2334	0.0133493
2346	0.0151354
2358	0.0134433
2370	0.0172977
2382	0.0154175
2394	0.0148534
2406	0.0151354
2418	0.0155115
2430	0.0158875
2442	0.0164516
2454	0.0152295
2466	0.0153235
2478	0.0148534
2490	0.0149474
2502	0.0143834
2514	0.0148534
2526	0.0150414
2538	0.0157935
2550	0.0158875
2562	0.0159815
2574	0.0159815
2586	0.0156995
2598	0.0158875
2610	0.0168276
2622	0.0189898
2634	0.0222801
2646	0.0223741
2658	0.0230322
2670	0.0286727
2682	0.0333732
2694	0.0361935
2706	0.0331852
2718	0.0282027
2730	0.0254764
2742	0.0262285
2754	0.0292368
2766	0.0318691
2778	0.0343133
2790	0.0378856
2802	0.041928
2814	0.0490727
2826	0.107734
2838	0.24715
2850	0.269054
2862	0.188018
2874	0.22675
2886	0.527202
2898	0.94009
2910	0.802743
2922	0.463182
2934	0.48095
2946	0.567156
2958	0.513665
2970	0.388539
2982	0.309854
2994	0.276198
3006	0.465533
3018	0.749064
3030	0.596863
3042	0.186984
3054	0.0534911
3066	0.0502948
3078	0.0559354
3090	0.0468165
3102	0.0332792
3114	0.0263225
3126	0.0199299
3138	0.0174857
3150	0.0174857
3162	0.0148534
3174	0.0153235
3186	0.0138193
3198	0.0135373
3210	0.0150414
3222	0.0140073
3234	0.0153235
3246	0.0160755
3258	0.0151354
3270	0.0157935
3282	0.0154175
3294	0.0152295
3306	0.0149474
3318	0.0144774
3330	0.0134433
3342	0.0160755
3354	0.0170156
3366	0.0155115
3378	0.0157935
3390	0.0142894
3402	0.0129732
3414	0.0141014
3426	0.0128792
3438	0.0133493
3450	0.0146654
3462	0.0131613
3474	0.0145714
3486	0.0141014
3498	0.0139133
3510	0.0158875
3522	0.0154175
3534	0.0140073
3546	0.0157935
3558	0.0138193
3570	0.0143834
3582	0.0162636
3594	0.0157935
3606	0.0144774
3618	0.0165456
3630	0.0156995
3642	0.0175797
3654	0.0172977
3666	0.0197419
3678	0.0157935
3690	0.0158875
3702	0.0179557
3714	0.0156055
3726	0.0180497
3738	0.0215281
3750	0.0168276
3762	0.0180497
3774	0.0184258
3786	0.0202119
3798	0.0178617
3810	0.0236903
3822	0.0189898
3834	0.0194599
3846	0.02087
3858	0.0169216
3870	0.0181437
3882	0.0179557
3894	0.0199299
3906	0.0172977
3918	0.0202119
3930	0.0184258
3942	0.0135373
3954	0.0201179
3966	0.0199299
