Infrared Spectrum: Ethanol, 2-butoxy-
Formula: C 6 H 14 O 2
CAS: 111-76-2
Origin: Sadtler Research Labs Under US-EPA Contract
1/CM	ABSORBANCE
450	0.00637191
462	0.00299403
474	0.011362
486	0.00168894
498	0.00852147
510	0.0141257
522	0.0150469
534	0.0213421
546	0.0165823
558	0.00859824
570	0.00667899
582	0.00368496
594	0.00115155
606	0.00092124
618	0.00199602
630	0.00092124
642	0.00268695
654	0.00161217
666	0.00353142
678	0.00199602
690	0.00053739
702	0.00138186
714	0.00291726
726	0.00491328
738	0.00783054
750	0.00913563
762	0.00729315
774	0.00529713
786	0.0105943
798	0.0134348
810	0.0202673
822	0.0289423
834	0.0329343
846	0.0358516
858	0.0390759
870	0.0511288
882	0.07677
894	0.0831419
906	0.0529713
918	0.0302474
930	0.0246432
942	0.028021
954	0.0403042
966	0.0532784
978	0.0638726
990	0.0610322
1002	0.068095
1014	0.0933523
1026	0.128667
1038	0.200677
1050	0.333719
1062	0.469449
1074	0.409338
1086	0.26025
1098	0.248581
1110	0.381163
1122	0.651931
1134	0.744976
1146	0.392295
1158	0.189085
1170	0.135883
1182	0.113696
1194	0.0938897
1206	0.0918937
1218	0.086443
1230	0.0825277
1242	0.0917401
1254	0.093122
1266	0.0829884
1278	0.0682485
1290	0.0575007
1302	0.0560421
1314	0.0491328
1326	0.0508985
1338	0.0749275
1350	0.141564
1362	0.189085
1374	0.129588
1386	0.113236
1398	0.108553
1410	0.0830651
1422	0.0575007
1434	0.0514359
1446	0.0608786
1458	0.103639
1470	0.113236
1482	0.0702446
1494	0.0340091
1506	0.0157379
1518	0.00852147
1530	0.00568098
1542	0.00406881
1554	0.00345465
1566	0.00314757
1578	0.00299403
1590	0.00237987
1602	0.00222633
1614	0.0015354
1626	0.00245664
1638	0.00138186
1650	0.00299403
1662	0.00145863
1674	0.00161217
1686	0.00176571
1698	0.00199602
1710	0.00483651
1722	0.00905886
1734	0.0196531
1746	0.0545067
1758	0.0561956
1770	0.0276372
1782	0.0145095
1794	0.0112084
1806	0.00591129
1818	0.00337788
1830	0.00184248
1842	0.00107478
1854	0.00145863
1866	0.00145863
1878	0.00184248
1890	0.0023031
1902	0.00276372
1914	0.00353142
1926	0.00491328
1938	0.00675576
1950	0.00798408
1962	0.00760023
1974	0.00606483
1986	0.00483651
1998	0.00368496
2010	0.00314757
2022	0.00291726
2034	0.00330111
2046	0.00337788
2058	0.00322434
2070	0.00345465
2082	0.00422235
2094	0.00475974
2106	0.00514359
2118	0.00529713
2130	0.00529713
2142	0.00491328
2154	0.00429912
2166	0.0038385
2178	0.00299403
2190	0.00276372
2202	0.0023031
2214	0.0023031
2226	0.00214956
2238	0.0023031
2250	0.00222633
2262	0.0023031
2274	0.0023031
2286	0.00161217
2298	0.00115155
2310	0.00053739
2322	0.00069093
2334	0.00130509
2346	0.00092124
2358	0.00138186
2370	0.00069093
2382	0.00176571
2394	0.0023031
2406	0.00261018
2418	0.00268695
2430	0.00261018
2442	0.0023031
2454	0.00261018
2466	0.00237987
2478	0.00184248
2490	0.00161217
2502	0.0015354
2514	0.00207279
2526	0.00237987
2538	0.00261018
2550	0.00322434
2562	0.00337788
2574	0.00429912
2586	0.00475974
2598	0.00545067
2610	0.00568098
2622	0.00606483
2634	0.00637191
2646	0.00706284
2658	0.00852147
2670	0.0119761
2682	0.0161985
2694	0.0201137
2706	0.0237987
2718	0.0269463
2730	0.030708
2742	0.0330879
2754	0.0341627
2766	0.037387
2778	0.0454478
2790	0.0565027
2802	0.0656383
2814	0.0735457
2826	0.087441
2838	0.131737
2850	0.245127
2862	0.412792
2874	0.567407
2886	0.604641
2898	0.466378
2910	0.395596
2922	0.470063
2934	0.595121
2946	0.658456
2958	0.633429
2970	0.644484
2982	0.358593
2994	0.130893
3006	0.0621069
3018	0.0387689
3030	0.0275604
3042	0.0205744
3054	0.0154308
3066	0.0115155
3078	0.00959625
3090	0.0084447
3102	0.00698607
3114	0.00621837
3126	0.00568098
3138	0.00506682
3150	0.00452943
3162	0.00483651
3174	0.00445266
3186	0.00429912
3198	0.00345465
3210	0.00284049
3222	0.00261018
3234	0.00168894
3246	0.00145863
3258	0.00130509
3270	0.0015354
3282	0.00145863
3294	0.00084447
3306	0.00069093
3318	0.00069093
3330	0.00084447
3342	0.00061416
3354	0.00038385
3366	0.00107478
3378	0.00053739
3390	0.00107478
3402	0.00168894
3414	0.00115155
3426	0.00138186
3438	0.00145863
3450	0.0015354
3462	0.00222633
3474	0.00268695
3486	0.00330111
3498	0.00353142
3510	0.00368496
3522	0.00391527
3534	0.00360819
3546	0.00399204
3558	0.00414558
3570	0.00736992
3582	0.00859824
3594	0.010364
3606	0.019039
3618	0.0439892
3630	0.109935
3642	0.0867501
3654	0.0360819
3666	0.031706
3678	0.0284817
3690	0.0191157
3702	0.00928917
3714	0.00675576
3726	0.00621837
3738	0.00376173
3750	0.00552744
3762	0.00491328
3774	0.0030708
3786	0.00199602
3798	0.00084447
3810	0.00122832
3822	0.00291726
3834	0.00138186
3846	0.00092124
3858	0.00061416
3870	0.00084447
3882	0.0007677
3894	0.00015354
3906	0.00107478
3918	0.00023031
3930	0.00023031
3942	0.00023031
3954	0.00023031
3966	0.00145863
