Infrared Spectrum: Ethyl Oleate
Formula: C 20 H 38 O 2
CAS: 111-62-6
Origin: Sadtler Research Labs Under US-EPA Contract
1/CM	ABSORBANCE
450	0
462	0.00913208
474	0.00948332
486	0.00199033
498	0.00561974
510	0.012059
522	0.00842962
534	0.0126444
546	0.00913208
558	0.00936624
570	0.0131127
582	0.0096004
594	0.0125273
606	0.016508
618	0.0146348
630	0.0126444
642	0.0152201
654	0.0159226
666	0.0184983
678	0.0211911
690	0.0305574
702	0.0381674
714	0.0476507
726	0.0515143
738	0.0380504
750	0.0289183
762	0.027045
774	0.0230644
786	0.0207228
798	0.0200203
810	0.0187325
822	0.0183812
834	0.0204887
846	0.0244693
858	0.0276304
870	0.0237668
882	0.0190837
894	0.0197862
906	0.0228302
918	0.0265767
930	0.0275133
942	0.0257572
954	0.0250547
966	0.0307915
978	0.0261084
990	0.025523
1002	0.0313769
1014	0.0487044
1026	0.0847645
1038	0.122698
1050	0.104434
1062	0.0847645
1074	0.0849986
1086	0.0954186
1098	0.12059
1110	0.127498
1122	0.132064
1134	0.159811
1146	0.223853
1158	0.281221
1170	0.312832
1182	0.300656
1194	0.249142
1206	0.206174
1218	0.193647
1230	0.200203
1242	0.209218
1254	0.181588
1266	0.140962
1278	0.115556
1290	0.103731
1302	0.105487
1314	0.104316
1326	0.0890964
1338	0.0924916
1350	0.105839
1362	0.0908525
1374	0.12059
1386	0.0757495
1398	0.0550267
1410	0.046597
1422	0.0478849
1434	0.0673199
1446	0.0942478
1458	0.128669
1470	0.112629
1482	0.0520997
1494	0.0266938
1506	0.0167422
1518	0.0124103
1530	0.0101858
1542	0.00889793
1554	0.00878085
1566	0.00784423
1578	0.0079613
1590	0.00761007
1602	0.00831254
1614	0.00831254
1626	0.00901501
1638	0.011942
1650	0.0132298
1662	0.0128786
1674	0.0144006
1686	0.0190837
1698	0.0272792
1710	0.0460117
1722	0.0758665
1734	0.168124
1746	0.384952
1758	0.448643
1770	0.19552
1782	0.0717688
1794	0.0339526
1806	0.0213082
1818	0.0146348
1830	0.00995163
1842	0.00737591
1854	0.00702468
1866	0.00655637
1878	0.0069076
1890	0.00655637
1902	0.00620513
1914	0.00550267
1926	0.00515143
1938	0.00526851
1950	0.00491728
1962	0.00456604
1974	0.0048002
1986	0.00515143
1998	0.00491728
2010	0.00550267
2022	0.00538559
2034	0.00597098
2046	0.00550267
2058	0.0048002
2070	0.00468312
2082	0.00398065
2094	0.00421481
2106	0.00339526
2118	0.00304403
2130	0.00222448
2142	0.00234156
2154	0.00257572
2166	0.00245864
2178	0.00257572
2190	0.00269279
2202	0.00280987
2214	0.00187325
2226	0.00234156
2238	0.00245864
2250	0.00234156
2262	0.00245864
2274	0.00327818
2286	0.00351234
2298	0.00421481
2310	0.00538559
2322	0.00456604
2334	0.00316111
2346	0.00433189
2358	0.00234156
2370	0.00468312
2382	0.0048002
2394	0.00234156
2406	0.00292695
2418	0.00257572
2430	0.00257572
2442	0.00199033
2454	0.00187325
2466	0.00187325
2478	0.00280987
2490	0.00280987
2502	0.00257572
2514	0.00339526
2526	0.00421481
2538	0.00386357
2550	0.00386357
2562	0.00398065
2574	0.00433189
2586	0.00456604
2598	0.00515143
2610	0.00538559
2622	0.00655637
2634	0.00749299
2646	0.00749299
2658	0.00971747
2670	0.0107712
2682	0.0117078
2694	0.010537
2706	0.010537
2718	0.0118249
2730	0.0125273
2742	0.0145177
2754	0.0147518
2766	0.0169763
2778	0.0179129
2790	0.0225961
2802	0.0290353
2814	0.0392211
2826	0.05409
2838	0.0845303
2850	0.181003
2862	0.433189
2874	0.358844
2886	0.262723
2898	0.264011
2910	0.406612
2922	0.718274
2934	1.17078
2946	0.808424
2958	0.46679
2970	0.40708
2982	0.274431
2994	0.18393
3006	0.157002
3018	0.152904
3030	0.0627538
3042	0.0364113
3054	0.0268109
3066	0.0227131
3078	0.0193179
3090	0.0155714
3102	0.0124103
3114	0.0125273
3126	0.0115907
3138	0.0104199
3150	0.0096004
3162	0.0108883
3174	0.00878085
3186	0.00878085
3198	0.00725884
3210	0.00620513
3222	0.00655637
3234	0.00608806
3246	0.00608806
3258	0.00538559
3270	0.00503435
3282	0.00351234
3294	0.00398065
3306	0.00503435
3318	0.0037465
3330	0.00456604
3342	0.00386357
3354	0.00573682
3366	0.00339526
3378	0.00257572
3390	0.0048002
3402	0.00444896
3414	0.00573682
3426	0.00269279
3438	0.00444896
3450	0.00421481
3462	0.00362942
3474	0.00573682
3486	0.00550267
3498	0.00620513
3510	0.00468312
3522	0.00234156
3534	0.00222448
3546	0.00351234
3558	0.00433189
3570	0.0069076
3582	0.00597098
3594	0.00444896
3606	0.00398065
3618	0.0048002
3630	0.00597098
3642	0.00503435
3654	0.00491728
3666	0.00398065
3678	0.00339526
3690	0.0048002
3702	0.00608806
3714	0.0048002
3726	0.0048002
3738	0.0048002
3750	0.00327818
3762	0.00550267
3774	0.00456604
3786	0.00772715
3798	0.00913208
3810	0.00608806
3822	0.00632221
3834	0.00515143
3846	0.00597098
3858	0.00772715
3870	0.00597098
3882	0.00772715
3894	0.0103029
3906	0.00433189
3918	0.0113566
3930	0.00784423
3942	0.00655637
3954	0.0124103
3966	0.0118249
