Infrared Spectrum: 1-Octene
Formula: C 8 H 16
CAS: 111-66-0
Origin: Sadtler Research Labs Under US-EPA Contract
1/CM	ABSORBANCE
450	0.0354003
462	0.0176034
474	0.0243739
486	0.0200215
498	0.0276625
510	0.0192477
522	0.0140247
534	0.0206985
546	0.0162493
558	0.0161526
570	0.0222461
582	0.0201182
594	0.0162493
606	0.01741
618	0.0147017
630	0.019151
642	0.0171198
654	0.0169263
666	0.0216657
678	0.0324019
690	0.0375281
702	0.0421708
714	0.0338527
726	0.0295002
738	0.025051
750	0.0178936
762	0.0158624
774	0.0176034
786	0.0057066
798	0.0118001
810	0.0108329
822	0.00909187
834	0.0126706
846	0.0152821
858	0.0158624
870	0.0184739
882	0.0204083
894	0.0262117
906	0.0437183
918	0.0537774
930	0.0449757
942	0.0485544
954	0.0760235
966	0.112971
978	0.0864695
990	0.0590971
1002	0.0450725
1014	0.0383986
1026	0.0365609
1038	0.0377216
1050	0.0391724
1062	0.036174
1074	0.0353035
1086	0.0328855
1098	0.030951
1110	0.0306609
1122	0.0276625
1134	0.0268887
1146	0.0268887
1158	0.0265018
1170	0.0307576
1182	0.0299838
1194	0.0238903
1206	0.0235034
1218	0.0241805
1230	0.0291133
1242	0.0353035
1254	0.0330789
1266	0.0277592
1278	0.0293068
1290	0.0315314
1302	0.0323051
1314	0.0328855
1326	0.032692
1338	0.0380117
1350	0.0453626
1362	0.0493282
1374	0.0571627
1386	0.0656742
1398	0.0496184
1410	0.0439118
1422	0.0408167
1434	0.0546479
1446	0.0891777
1458	0.115776
1470	0.105427
1482	0.0590004
1494	0.0295969
1506	0.0195378
1518	0.016346
1530	0.0150886
1542	0.0137345
1554	0.0118001
1566	0.0103493
1578	0.00996237
1590	0.0102525
1602	0.0106394
1614	0.0124771
1626	0.0172165
1638	0.030274
1650	0.0287264
1662	0.0209887
1674	0.018087
1686	0.0202149
1698	0.0294035
1710	0.0299838
1722	0.0306609
1734	0.0277592
1746	0.0291133
1758	0.0271789
1770	0.0228264
1782	0.0183772
1794	0.0153788
1806	0.0129607
1818	0.0103493
1830	0.00899515
1842	0.00706071
1854	0.00590004
1866	0.00580332
1878	0.00493282
1890	0.00502954
1902	0.00473938
1914	0.0048361
1926	0.00522299
1938	0.00512627
1950	0.00560988
1962	0.0057066
1974	0.00580332
1986	0.0057066
1998	0.00706071
2010	0.00619021
2022	0.00531971
2034	0.0065771
2046	0.0057066
2058	0.00493282
2070	0.00473938
2082	0.00444921
2094	0.00502954
2106	0.00464266
2118	0.00425577
2130	0.00502954
2142	0.00454593
2154	0.00444921
2166	0.00435249
2178	0.00493282
2190	0.00473938
2202	0.00464266
2214	0.00473938
2226	0.00435249
2238	0.00464266
2250	0.00435249
2262	0.00386888
2274	0.00386888
2286	0.00261149
2298	0.00164427
2310	0
2322	0.00116066
2334	0.00135411
2346	0.00290166
2358	0.00377216
2370	0.00522299
2382	0.0057066
2394	0.00464266
2406	0.00493282
2418	0.00512627
2430	0.00531971
2442	0.00454593
2454	0.00425577
2466	0.00386888
2478	0.00435249
2490	0.00425577
2502	0.00406232
2514	0.0048361
2526	0.0048361
2538	0.00599676
2550	0.00648037
2562	0.00686726
2574	0.00706071
2586	0.00677054
2598	0.00744759
2610	0.00783448
2622	0.00860826
2634	0.00860826
2646	0.00996237
2658	0.011123
2670	0.0115099
2682	0.0118968
2694	0.0108329
2706	0.0118001
2718	0.0126706
2730	0.015669
2742	0.0203116
2754	0.018087
2766	0.0165395
2778	0.0177001
2790	0.0226329
2802	0.0283395
2814	0.0356904
2826	0.0489413
2838	0.0842449
2850	0.179903
2862	0.340655
2874	0.406136
2886	0.357001
2898	0.307092
2910	0.397624
2922	0.676087
2934	0.96722
2946	0.787317
2958	0.572304
2970	0.643491
2982	0.389596
2994	0.19209
3006	0.147694
3018	0.16317
3030	0.155529
3042	0.0945941
3054	0.0552283
3066	0.0417839
3078	0.0404298
3090	0.0401396
3102	0.025051
3114	0.0183772
3126	0.014605
3138	0.0131542
3150	0.010446
3162	0.00957548
3174	0.0079312
3186	0.00744759
3198	0.00773776
3210	0.00493282
3222	0.00377216
3234	0.00377216
3246	0.00290166
3258	0.00299838
3270	0.00261149
3282	0.00386888
3294	0.00280494
3306	0.00319183
3318	0.00386888
3330	0.0048361
3342	0.00435249
3354	0.00377216
3366	0.00435249
3378	0.00377216
3390	0.00464266
3402	0.00415905
3414	0.00512627
3426	0.00444921
3438	0.0039656
3450	0.0057066
3462	0.00270822
3474	0.00357871
3486	0.00435249
3498	0.00348199
3510	0.00522299
3522	0.00338527
3534	0.00715743
3546	0
3558	0.00415905
3570	0.00773776
3582	0.00909187
3594	0.00744759
3606	0.0088017
3618	0.00628693
3630	0.00802793
3642	0.00822137
3654	0.011123
3666	0.00957548
3678	0.00735087
3690	0.00715743
3702	0.00764104
3714	0.00648037
3726	0.0065771
3738	0.00541643
3750	0.00754432
3762	0.00454593
3774	0.00619021
3786	0.00686726
3798	0.00531971
3810	0.00947876
3822	0.00947876
3834	0.00831809
3846	0.00580332
3858	0.0048361
3870	0.00686726
3882	0.00473938
3894	0.0057066
3906	0.00754432
3918	0.00541643
3930	0.00551315
3942	0.00938203
3954	0.00822137
3966	0.00735087
