Infrared Spectrum: Octadecanoic acid, ethenyl ester
Formula: C 20 H 38 O 2
CAS: 111-63-7
Origin: Sadtler Research Labs Under US-EPA Contract
1/CM	ABSORBANCE
450	0.0086985
462	0.00446371
474	0.00887018
486	0.00114454
498	0.00772564
510	0.00978582
522	0.0112737
534	0.00366253
546	0.0117315
558	0.00887018
570	0.0166531
582	0.0173398
594	0.0112165
606	0.0168247
618	0.00909909
630	0.0191138
642	0.0128761
654	0.0103581
666	0.0123038
678	0.00583715
690	0.0195144
702	0.0145357
714	0.0225474
726	0.0176831
738	0.0137917
750	0.0128761
762	0.00990027
774	0.0109876
786	0.0135056
798	0.0123038
810	0.0134483
822	0.0138489
834	0.0158519
846	0.018656
858	0.0219752
870	0.0387999
882	0.0309598
894	0.0203156
906	0.0152796
918	0.0183126
930	0.0206017
942	0.028499
954	0.0298153
966	0.026725
978	0.0275262
990	0.0253516
1002	0.0248937
1014	0.0234058
1026	0.0218035
1038	0.0231197
1050	0.0224902
1062	0.0248365
1074	0.0331917
1086	0.0406884
1098	0.0487002
1110	0.0637509
1122	0.0790877
1134	0.137459
1146	0.284819
1158	0.270626
1170	0.153712
1182	0.0998039
1194	0.0832653
1206	0.0773709
1218	0.0735939
1230	0.0658683
1242	0.0543084
1254	0.0452093
1266	0.0351946
1278	0.0340501
1290	0.037312
1302	0.0449804
1314	0.0400017
1326	0.0352518
1338	0.0385138
1350	0.0469261
1362	0.0483568
1374	0.038571
1386	0.0267822
1398	0.019171
1410	0.0170536
1422	0.0190566
1434	0.0239781
1446	0.0317038
1458	0.0488146
1470	0.0414896
1482	0.0176259
1494	0.0102436
1506	0.009328
1518	0.00881296
1530	0.00789733
1542	0.00640942
1554	0.0078401
1566	0.00892741
1578	0.00909909
1590	0.00858405
1602	0.0101864
1614	0.012361
1626	0.0207734
1638	0.044866
1650	0.0762836
1662	0.0287852
1674	0.0123038
1686	0.00955691
1698	0.0100147
1710	0.0124755
1722	0.0164241
1734	0.0247793
1746	0.0434925
1758	0.0917921
1770	0.178777
1782	0.144555
1794	0.0579137
1806	0.0243787
1818	0.0135056
1830	0.00955691
1842	0.00698169
1854	0.00681001
1866	0.00560825
1878	0.00515043
1890	0.00503598
1902	0.00446371
1914	0.00429202
1926	0.00366253
1938	0.00452093
1950	0.00412034
1962	0.00412034
1974	0.00452093
1986	0.00434925
1998	0.00480707
2010	0.0057227
2022	0.00526488
2034	0.00520766
2046	0.00440648
2058	0.00429202
2070	0.00394866
2082	0.00434925
2094	0.00377698
2106	0.00366253
2118	0.00371975
2130	0.00314748
2142	0.00314748
2154	0.0027469
2166	0.00246076
2178	0.00349085
2190	0.00331917
2202	0.00234631
2214	0.00263244
2226	0.00194572
2238	0.00257522
2250	0.00257522
2262	0.00286135
2274	0.00383421
2286	0.00377698
2298	0.00618052
2310	0.0078401
2322	0.00743951
2334	0.00812623
2346	0.00892741
2358	0.00898464
2370	0.0078401
2382	0.00555102
2394	0.00171681
2406	0.00108731
2418	0.00125899
2430	0.00108731
2442	0.00143067
2454	0.000343362
2466	0.00125899
2478	0.000801178
2490	0.00103009
2502	0.00143067
2514	0.00131622
2526	0.00188849
2538	0.00240353
2550	0.00188849
2562	0.00200294
2574	0.00188849
2586	0.00194572
2598	0.00188849
2610	0.00291858
2622	0.00349085
2634	0.00354807
2646	0.00400589
2658	0.00463539
2670	0.00560825
2682	0.00618052
2694	0.00658111
2706	0.00618052
2718	0.00566547
2730	0.00520766
2742	0.0057227
2754	0.00618052
2766	0.00709615
2778	0.0072106
2790	0.0107587
2802	0.0129333
2814	0.0160236
2826	0.0220324
2838	0.0326194
2850	0.071591
2862	0.210939
2874	0.147875
2886	0.0948251
2898	0.0959125
2910	0.160121
2922	0.3108
2934	0.57227
2946	0.328941
2958	0.155715
2970	0.122981
2982	0.0590583
2994	0.0307309
3006	0.0195144
3018	0.0140206
3030	0.0108159
3042	0.00967136
3054	0.00967136
3066	0.00675279
3078	0.00606606
3090	0.00927077
3102	0.00881296
3114	0.00681001
3126	0.00852682
3138	0.00526488
3150	0.00251799
3162	0.00291858
3174	0.00291858
3186	0.0014879
3198	0.00228908
3210	0.00200294
3222	0.00291858
3234	0.00183126
3246	0.00309026
3258	0.00108731
3270	0.00206017
3282	0.00263244
3294	0.00131622
3306	0.00200294
3318	0.00377698
3330	0.00165958
3342	0.00154513
3354	0.00331917
3366	0.00331917
3378	0.0027469
3390	0.00263244
3402	0.00228908
3414	0.000858405
3426	0.00343362
3438	0.00337639
3450	0.00326194
3462	0.00154513
3474	0.00354807
3486	0.00257522
3498	0.00286135
3510	0.00434925
3522	0.00412034
3534	0.00377698
3546	0.0036053
3558	0.0036053
3570	0.00761119
3582	0.00881296
3594	0.00417757
3606	0.00326194
3618	0.00326194
3630	0.0036053
3642	0.00234631
3654	0.00171681
3666	0.00114454
3678	0.000858405
3690	0.00131622
3702	0.000858405
3714	0.000858405
3726	0.000286135
3738	0.000629497
3750	0.000515043
3762	0.000286135
3774	0.000228908
3786	0.0014879
3798	0.000286135
3810	0.0014879
3822	0.00137345
3834	0.00160236
3846	0.000286135
3858	0.00280412
3870	0.00160236
3882	0.00165958
3894	0.0027469
3906	0.00246076
3918	0.00171681
3930	0.00125899
3942	0.0021174
3954	0.000114454
3966	0.000286135
