Infrared Spectrum: Ethanol, 2-(2-ethoxyethoxy)-
Formula: C 6 H 14 O 3
CAS: 111-90-0
Origin: Sadtler Research Labs Under US-EPA Contract
1/CM	ABSORBANCE
450	0.00125755
462	0.00075453
474	0.00050302
486	0.00130785
498	0.00216299
510	0.00417507
522	0.00699198
534	0.00774651
546	0.00578473
558	0.0051308
570	0.00291752
582	0.000905436
594	0.00100604
606	0.00110664
618	0.00115695
630	0.00075453
642	0.00160966
654	0.00236419
666	0.000804832
678	0.00206238
690	0.0024648
702	0.00145876
714	0.00120725
726	0.00176057
738	0.00130785
750	0.00165997
762	0.00271631
774	0.00367205
786	0.00669017
798	0.0108652
810	0.0139337
822	0.0163481
834	0.0229377
846	0.0243965
858	0.0223844
870	0.0257546
882	0.0317406
894	0.0337526
906	0.0319921
918	0.0345072
930	0.0380786
942	0.0340545
954	0.0232898
966	0.0174045
978	0.0189639
990	0.0253019
1002	0.0345072
1014	0.0501008
1026	0.0708252
1038	0.0972338
1050	0.139487
1062	0.197989
1074	0.185363
1086	0.132445
1098	0.152264
1110	0.265142
1122	0.468261
1134	0.460163
1146	0.291098
1158	0.167405
1170	0.0956241
1182	0.0637326
1194	0.0448191
1206	0.0420525
1218	0.0399398
1230	0.0362174
1242	0.0409961
1254	0.0469318
1266	0.04497
1278	0.0460263
1290	0.047133
1302	0.0394871
1314	0.0320927
1326	0.0365696
1338	0.0456742
1350	0.0824953
1362	0.0700204
1374	0.0644369
1386	0.0699701
1398	0.0605636
1410	0.04497
1422	0.0286218
1434	0.0230886
1446	0.0302818
1458	0.0437124
1470	0.036318
1482	0.0232395
1494	0.0136318
1506	0.00794772
1518	0.00437627
1530	0.00216299
1542	0.00186117
1554	0.00181087
1566	0.000955738
1578	0.000704228
1590	0.00100604
1602	0.00075453
1614	0.000704228
1626	0.00050302
1638	0.000402416
1650	0.000201208
1662	0.00050302
1674	0.000603624
1686	0.000301812
1698	0.000653926
1710	0.000553322
1722	0.000452718
1734	0.00100604
1746	0.00186117
1758	0.00191148
1770	0.00135815
1782	0.00050302
1794	0.00050302
1806	5.0302e-05
1818	0.000100604
1830	5.0302e-05
1842	5.0302e-05
1854	0.000150906
1866	0.00050302
1878	0.000804832
1890	0.00105634
1902	0.00160966
1914	0.00201208
1926	0.00296782
1938	0.00467809
1950	0.00543262
1962	0.00558352
1974	0.00553322
1986	0.00402416
1998	0.00301812
2010	0.00221329
2022	0.00115695
2034	0.00110664
2046	0.000955738
2058	0.000905436
2070	0.000653926
2082	0.00115695
2094	0.00165997
2106	0.00165997
2118	0.00171027
2130	0.00216299
2142	0.00216299
2154	0.00216299
2166	0.00221329
2178	0.00171027
2190	0.00165997
2202	0.00115695
2214	0.00120725
2226	0.00120725
2238	0.00115695
2250	0.00171027
2262	0.00171027
2274	0.00176057
2286	0.00120725
2298	0.00105634
2310	0.000905436
2322	0.000301812
2334	0
2346	5.0302e-05
2358	5.0302e-05
2370	5.0302e-05
2382	0.000352114
2394	0.000804832
2406	0.00075453
2418	0.000804832
2430	0.00075453
2442	0.000804832
2454	0.000804832
2466	0.000855134
2478	0.000553322
2490	0.000301812
2502	0.000352114
2514	0.000855134
2526	0.000905436
2538	0.000905436
2550	0.000905436
2562	0.000855134
2574	0.000905436
2586	0.00105634
2598	0.00130785
2610	0.00191148
2622	0.0024145
2634	0.00236419
2646	0.0024145
2658	0.00291752
2670	0.00387325
2682	0.00543262
2694	0.00855134
2706	0.0110664
2718	0.0132797
2730	0.0152415
2742	0.0157445
2754	0.0164991
2766	0.0182093
2778	0.0221329
2790	0.0272134
2802	0.0328975
2814	0.0398392
2826	0.0478875
2838	0.0671029
2850	0.115846
2862	0.200403
2874	0.265192
2886	0.255534
2898	0.209307
2910	0.183502
2922	0.17827
2934	0.190292
2946	0.186872
2958	0.167506
2970	0.142908
2982	0.130886
2994	0.0864691
3006	0.035815
3018	0.0184608
3030	0.0120222
3042	0.00865194
3054	0.00623745
3066	0.00467809
3078	0.00316903
3090	0.00271631
3102	0.00276661
3114	0.00231389
3126	0.00216299
3138	0.00176057
3150	0.00186117
3162	0.00186117
3174	0.00186117
3186	0.00191148
3198	0.00186117
3210	0.00140846
3222	0.00191148
3234	0.00150906
3246	0.000905436
3258	0.000955738
3270	0.00050302
3282	5.0302e-05
3294	0.00050302
3306	0.000352114
3318	0.000100604
3330	0.00050302
3342	0.000653926
3354	0
3366	0.000603624
3378	0.000553322
3390	0.000201208
3402	0.000855134
3414	0.00155936
3426	0.00155936
3438	0.00115695
3450	0.00171027
3462	0.00286721
3474	0.00306842
3486	0.00467809
3498	0.00684107
3510	0.00985919
3522	0.0141852
3534	0.0150403
3546	0.0140846
3558	0.0124749
3570	0.0118713
3582	0.00980889
3594	0.010161
3606	0.012324
3618	0.0196681
3630	0.0318915
3642	0.0279176
3654	0.0151409
3666	0.0111167
3678	0.00955738
3690	0.00648896
3702	0.00392356
3714	0.00331993
3726	0.0026157
3738	0.0024145
3750	0.0024145
3762	0.00206238
3774	0.00206238
3786	0.00191148
3798	0.00110664
3810	0.000653926
3822	0.00105634
3834	0.00120725
3846	0.000704228
3858	0.000150906
3870	0.000201208
3882	0.000201208
3894	0.000603624
3906	0.000201208
3918	0.00025151
3930	0.000301812
3942	0.000301812
3954	0.000301812
3966	0.000352114
