Infrared Spectrum: Octadecanoic acid, ethyl ester
Formula: C 20 H 40 O 2
CAS: 111-61-5
Origin: Sadtler Research Labs Under US-EPA Contract
1/CM	ABSORBANCE
450	0.0294456
462	0.0635713
474	0.0949669
486	0
498	0.048556
510	0.0674714
522	0.0432909
534	0.0610363
546	0.0585012
558	0.0670814
570	0.0627913
582	0.049336
594	0.0637663
606	0.0694214
618	0.0647413
630	0.0659114
642	0.0637663
654	0.0627913
666	0.0610363
678	0.0600612
690	0.0639613
702	0.0733215
714	0.0854118
726	0.0856068
738	0.0780016
750	0.0739065
762	0.0721515
774	0.0750765
786	0.0705914
798	0.0672764
810	0.0664964
822	0.0670814
834	0.0657163
846	0.0709815
858	0.0733215
870	0.0663014
882	0.0631813
894	0.0653263
906	0.0674714
918	0.0692264
930	0.0715665
942	0.0696164
954	0.0629863
966	0.0594762
978	0.0598662
990	0.0633763
1002	0.0719565
1014	0.0916519
1026	0.139623
1038	0.191884
1050	0.176479
1062	0.147033
1074	0.138258
1086	0.150933
1098	0.189739
1110	0.209239
1122	0.212749
1134	0.22757
1146	0.313566
1158	0.411263
1170	0.455334
1182	0.421599
1194	0.352957
1206	0.300696
1218	0.287046
1230	0.293481
1242	0.299136
1254	0.26579
1266	0.207289
1278	0.172384
1290	0.162048
1302	0.168288
1314	0.163413
1326	0.145083
1338	0.151518
1350	0.171409
1362	0.154053
1374	0.190324
1386	0.126168
1398	0.0887268
1410	0.0768316
1422	0.0858018
1434	0.109592
1446	0.144888
1458	0.201829
1470	0.190129
1482	0.097502
1494	0.0606462
1506	0.046801
1518	0.0409508
1530	0.0378308
1542	0.0345157
1554	0.0327607
1566	0.0325657
1578	0.0327607
1590	0.0308106
1602	0.0292506
1614	0.0300306
1626	0.0298356
1638	0.0290556
1650	0.0288606
1662	0.0304206
1674	0.0329557
1686	0.0368558
1698	0.0456309
1710	0.0664964
1722	0.108617
1734	0.22484
1746	0.50662
1758	0.612898
1770	0.284316
1782	0.121487
1794	0.0627913
1806	0.0413408
1818	0.0310056
1830	0.0259355
1842	0.0224255
1854	0.0212554
1866	0.0210604
1878	0.0206704
1890	0.0195004
1902	0.0196954
1914	0.0191104
1926	0.0183304
1938	0.0169653
1950	0.0161853
1962	0.0157953
1974	0.0152103
1986	0.0138453
1998	0.0136503
2010	0.0150153
2022	0.0154053
2034	0.0144303
2046	0.0146253
2058	0.0142353
2070	0.0134553
2082	0.0115052
2094	0.0105302
2106	0.0103352
2118	0.0101402
2130	0.00838517
2142	0.00780016
2154	0.00819017
2166	0.00838517
2178	0.00702014
2190	0.00526511
2202	0.00565512
2214	0.00624013
2226	0.00585012
2238	0.00565512
2250	0.00604512
2262	0.00721515
2274	0.00760516
2286	0.00838517
2298	0.0122853
2310	0.0163803
2322	0.0156003
2334	0.0130653
2346	0.0130653
2358	0.0148203
2370	0.00916519
2382	0.0107252
2394	0.00780016
2406	0.00877518
2418	0.00858018
2430	0.00838517
2442	0.00799516
2454	0.00819017
2466	0.00877518
2478	0.00819017
2490	0.00858018
2502	0.00936019
2514	0.00916519
2526	0.00897018
2538	0.0105302
2550	0.0103352
2562	0.0107252
2574	0.0111152
2586	0.0113102
2598	0.0136503
2610	0.0138453
2622	0.0146253
2634	0.0156003
2646	0.0179404
2658	0.0198904
2670	0.0212554
2682	0.0241805
2694	0.0255455
2706	0.0232055
2718	0.0214504
2730	0.0224255
2742	0.0255455
2754	0.0257405
2766	0.0273006
2778	0.0294456
2790	0.0370508
2802	0.046801
2814	0.0602562
2826	0.0842417
2838	0.125388
2850	0.270081
2862	0.741795
2874	0.535871
2886	0.367973
2898	0.377918
2910	0.620893
2922	1.15559
2934	1.95004
2946	1.18036
2958	0.623428
2970	0.527291
2982	0.348862
2994	0.231275
3006	0.140793
3018	0.0858018
3030	0.0586962
3042	0.0450459
3054	0.0339307
3066	0.0306156
3078	0.0237905
3090	0.0241805
3102	0.0220355
3114	0.0191104
3126	0.0181354
3138	0.0181354
3150	0.0185254
3162	0.0167703
3174	0.0148203
3186	0.0156003
3198	0.0157953
3210	0.0107252
3222	0.0105302
3234	0.0109202
3246	0.0111152
3258	0.00819017
3270	0.00819017
3282	0.00877518
3294	0.00936019
3306	0.0099452
3318	0.00838517
3330	0.0095552
3342	0.00702014
3354	0.00702014
3366	0.00702014
3378	0.00565512
3390	0.0099452
3402	0.00819017
3414	0.00877518
3426	0.0107252
3438	0.00916519
3450	0.00936019
3462	0.0101402
3474	0.0134553
3486	0.0159903
3498	0.0136503
3510	0.0099452
3522	0.0113102
3534	0.0115052
3546	0.0136503
3558	0.0117002
3570	0.0175504
3582	0.0183304
3594	0.0165753
3606	0.0117002
3618	0.0159903
3630	0.0163803
3642	0.0185254
3654	0.0136503
3666	0.0156003
3678	0.0150153
3690	0.0163803
3702	0.0146253
3714	0.0173554
3726	0.0187204
3738	0.0187204
3750	0.0216454
3762	0.0173554
3774	0.0214504
3786	0.0173554
3798	0.0183304
3810	0.0210604
3822	0.0222305
3834	0.0212554
3846	0.0210604
3858	0.0198904
3870	0.0220355
3882	0.0222305
3894	0.0202804
3906	0.0159903
3918	0.0222305
3930	0.0228155
3942	0.0218404
3954	0.0208654
3966	0.0195004
