Infrared Spectrum: 1,6-Hexanediamine, N,N,N',N'-tetramethyl-
Formula: C 10 H 24 N 2
CAS: 111-18-2
Origin: Sadtler Research Labs Under US-EPA Contract
1/CM	ABSORBANCE
450	0.0155297
462	0.0147597
474	0.0121928
486	0.0211769
498	0.0299044
510	0.021947
522	0.0232304
534	0.0125778
546	0.0130912
558	0.0147597
570	0.0166849
582	0.0201502
594	0.00718732
606	0.00731567
618	0.014888
630	0.0128345
642	0.00295194
654	0.00795739
666	0.00872746
678	0.00705898
690	0.0132195
702	0.0138613
714	0.0196368
726	0.0304178
738	0.0345248
750	0.0237438
762	0.0282359
774	0.0263107
786	0.0399153
798	0.0346532
810	0.0376051
822	0.0496695
834	0.0610922
846	0.0744401
858	0.0523648
870	0.0404287
882	0.0296477
894	0.0261824
906	0.0216903
918	0.0248989
930	0.0282359
942	0.033498
954	0.0379901
966	0.0418405
978	0.0395303
990	0.0519797
1002	0.0863762
1014	0.14426
1026	0.165308
1038	0.213053
1050	0.267214
1062	0.212668
1074	0.157993
1086	0.11089
1098	0.109607
1110	0.0849644
1122	0.0682795
1134	0.0969005
1146	0.119489
1158	0.119618
1170	0.0942052
1182	0.0693063
1194	0.0610922
1206	0.0580119
1218	0.0726433
1230	0.0831676
1242	0.0958737
1254	0.133094
1266	0.186999
1278	0.144773
1290	0.108708
1302	0.109478
1314	0.0838093
1326	0.0548033
1338	0.0518514
1350	0.0722582
1362	0.088558
1374	0.138998
1386	0.112045
1398	0.047231
1410	0.0367067
1422	0.0449208
1434	0.0929218
1446	0.184945
1458	0.323429
1470	0.322916
1482	0.13335
1494	0.0592954
1506	0.0358083
1518	0.022332
1530	0.0152731
1542	0.0142463
1554	0.014118
1566	0.00834243
1578	0.00795739
1590	0.0065456
1602	0.00834243
1614	0.00757236
1626	0.00667394
1638	0.00847077
1650	0.011166
1662	0.00847077
1674	0.0116794
1686	0.0136046
1698	0.01861
1710	0.0367067
1722	0.0193801
1734	0.0124495
1746	0.00808574
1758	0.00757236
1770	0.00731567
1782	0.00616056
1794	0.0051338
1806	0.00616056
1818	0.00616056
1830	0.0051338
1842	0.00474877
1854	0.00423539
1866	0.00628891
1878	0.00487711
1890	0.00564718
1902	0.00397869
1914	0.00359366
1926	0.00346532
1938	0.00231021
1950	0.00282359
1962	0.0025669
1974	0.00295194
1986	0.00372201
1998	0.00397869
2010	0.00449207
2022	0.00487711
2034	0.00500545
2046	0.00500545
2058	0.00474877
2070	0.00526215
2082	0.00590387
2094	0.00603222
2106	0.00462042
2118	0.00385035
2130	0.00295194
2142	0.00243856
2154	0.00243856
2166	0.00231021
2178	0.00243856
2190	0.00192518
2202	0.00179683
2214	0.00166849
2226	0.00166849
2238	0.00205352
2250	0.00179683
2262	0.00218187
2274	0.00192518
2286	0.00077007
2298	0.000128345
2310	0.000385035
2322	0.00231021
2334	0.00359366
2346	0.00385035
2358	0.00526215
2370	0.00166849
2382	0.000641725
2394	0.00308028
2406	0.00320863
2418	0.00410704
2430	0.00410704
2442	0.00372201
2454	0.00397869
2466	0.00410704
2478	0.00551884
2490	0.00936919
2502	0.0123211
2514	0.0120644
2526	0.0115511
2538	0.0121928
2550	0.0116794
2562	0.0114227
2574	0.0123211
2586	0.014118
2598	0.0164282
2610	0.0192518
2622	0.0214336
2634	0.0251556
2646	0.0325996
2658	0.0406854
2670	0.050953
2682	0.0596804
2694	0.0735417
2706	0.107938
2718	0.16518
2730	0.21716
2742	0.257717
2754	0.358853
2766	0.797664
2778	1.03382
2790	0.858885
2802	0.567927
2814	0.495155
2826	0.602323
2838	0.307001
2850	0.305846
2862	0.519284
2874	0.479369
2886	0.34512
2898	0.363473
2910	0.454726
2922	0.594366
2934	0.988
2946	1.28345
2958	0.887762
2970	0.620035
2982	0.645062
2994	0.247192
3006	0.0856061
3018	0.0497979
3030	0.0352949
3042	0.0275942
3054	0.0242572
3066	0.021947
3078	0.0205352
3090	0.01784
3102	0.0157864
3114	0.0142463
3126	0.0138613
3138	0.0127062
3150	0.0124495
3162	0.0125778
3174	0.0128345
3186	0.0128345
3198	0.0128345
3210	0.0112944
3222	0.00898415
3234	0.00821408
3246	0.00500545
3258	0.00487711
3270	0.00385035
3282	0.00372201
3294	0.00346532
3306	0.00346532
3318	0.00333697
3330	0.00243856
3342	0.00436373
3354	0.00320863
3366	0.00320863
3378	0.00385035
3390	0.00308028
3402	0.00320863
3414	0.00346532
3426	0.00295194
3438	0.00166849
3450	0.00205352
3462	0.00282359
3474	0.00179683
3486	0.00282359
3498	0.00166849
3510	0.00154014
3522	0.00154014
3534	0.00154014
3546	0.00333697
3558	0.00166849
3570	0.00436373
3582	0
3594	0.00462042
3606	0.00128345
3618	0.00385035
3630	0.00539049
3642	0.00282359
3654	0.00603222
3666	0.00141179
3678	0.00436373
3690	0.00269525
3702	0.0025669
3714	0.00551884
3726	0.00628891
3738	0.00436373
3750	0.00526215
3762	0.00243856
3774	0.00320863
3786	0.00141179
3798	0.00397869
3810	0.00141179
3822	0.00782904
3834	0.00333697
3846	0.00295194
3858	0.00680228
3870	0.00590387
3882	0.00385035
3894	0.00333697
3906	0.00449207
3918	0.00539049
3930	0.00102676
3942	0.00308028
3954	0.00462042
3966	0.00526215
