Infrared Spectrum: 2-Nonenoic acid, methyl ester
Formula: C 10 H 18 O 2
CAS: 111-79-5
Origin: Sadtler Research Labs Under US-EPA Contract
1/CM	ABSORBANCE
450	0
462	0.0169181
474	0.0216115
486	0.038093
498	0.0133162
510	0.0188828
522	0.022703
534	0.0215024
546	0.0187736
558	0.0199743
570	0.019756
582	0.0204109
594	0.0192102
606	0.018337
618	0.0193194
630	0.0237945
642	0.0220481
654	0.0222664
666	0.0185553
678	0.02565
690	0.0367832
702	0.0449694
714	0.0533739
726	0.0549019
738	0.032963
750	0.030016
762	0.0293611
774	0.0243402
786	0.0267415
798	0.0261958
810	0.0313258
822	0.0397302
834	0.0492262
846	0.0625424
858	0.0561026
870	0.0459517
882	0.0458426
894	0.0448602
906	0.0452968
918	0.0459517
930	0.0403851
942	0.0386387
954	0.0521732
966	0.094523
978	0.132616
990	0.103801
1002	0.0782598
1014	0.0922309
1026	0.140911
1038	0.167325
1050	0.206182
1062	0.13338
1074	0.0862277
1086	0.0713834
1098	0.0722566
1110	0.101399
1122	0.167653
1134	0.161977
1146	0.160122
1158	0.350259
1170	0.557315
1182	0.436269
1194	0.433758
1206	0.448384
1218	0.283569
1230	0.224519
1242	0.245258
1254	0.379293
1266	0.64136
1278	0.431466
1290	0.292847
1302	0.276365
1314	0.295575
1326	0.279531
1338	0.218625
1350	0.152809
1362	0.0957237
1374	0.0699645
1386	0.0649437
1398	0.0493353
1410	0.0516275
1422	0.0588313
1434	0.157939
1446	0.215788
1458	0.122138
1470	0.117117
1482	0.0640705
1494	0.037329
1506	0.0288153
1518	0.0249951
1530	0.0228121
1542	0.0228121
1554	0.0237945
1566	0.0236853
1578	0.0233579
1590	0.0216115
1602	0.022703
1614	0.0261958
1626	0.0349277
1638	0.0597045
1650	0.133926
1662	0.262176
1674	0.0920126
1686	0.0507543
1698	0.0625424
1710	0.0980158
1722	0.160122
1734	0.392827
1746	1.09149
1758	0.543125
1770	0.244057
1782	0.111769
1794	0.0525007
1806	0.0338362
1818	0.0255409
1830	0.0199743
1842	0.0179004
1854	0.0163724
1866	0.0154992
1878	0.0154992
1890	0.0157175
1902	0.0151717
1914	0.014626
1926	0.0137528
1938	0.0129887
1950	0.0135345
1962	0.0136436
1974	0.0133162
1986	0.0140802
1998	0.0141894
2010	0.0151717
2022	0.0154992
2034	0.0173547
2046	0.0193194
2058	0.0180096
2070	0.0191011
2082	0.02052
2094	0.0187736
2106	0.0173547
2118	0.0158266
2130	0.0135345
2142	0.0118972
2154	0.0115698
2166	0.0115698
2178	0.0111332
2190	0.011024
2202	0.0109149
2214	0.0109149
2226	0.0109149
2238	0.0113515
2250	0.0100417
2262	0.00971426
2274	0.00938681
2286	0.0103692
2298	0.0116789
2310	0.012443
2322	0.0126613
2334	0.0104783
2346	0.01026
2358	0.0128796
2370	0.00862277
2382	0.00938681
2394	0.00949596
2406	0.00927766
2418	0.00971426
2430	0.00895022
2442	0.00873192
2454	0.00873192
2466	0.00895022
2478	0.00873192
2490	0.00993256
2502	0.00905937
2514	0.0100417
2526	0.0105875
2538	0.01026
2550	0.01026
2562	0.0104783
2574	0.0105875
2586	0.0116789
2598	0.0117881
2610	0.0114606
2622	0.0105875
2634	0.0116789
2646	0.0121155
2658	0.0141894
2670	0.0168089
2682	0.017573
2694	0.0162632
2706	0.0148443
2718	0.0161541
2730	0.0159358
2742	0.017573
2754	0.0179004
2766	0.0173547
2778	0.0193194
2790	0.0216115
2802	0.0261958
2814	0.0319807
2826	0.0434413
2838	0.0669083
2850	0.146696
2862	0.26545
2874	0.290773
2886	0.235871
2898	0.198869
2910	0.268507
2922	0.446201
2934	0.791112
2946	0.662207
2958	0.517803
2970	0.526971
2982	0.228667
2994	0.131961
3006	0.108603
3018	0.0897205
3030	0.0873192
3042	0.0663626
3054	0.0539196
3066	0.0466066
3078	0.0344911
3090	0.0295794
3102	0.0255409
3114	0.0209566
3126	0.0193194
3138	0.0173547
3150	0.0158266
3162	0.0170272
3174	0.0157175
3186	0.01539
3198	0.0154992
3210	0.0135345
3222	0.013207
3234	0.0133162
3246	0.0122247
3258	0.0125521
3270	0.0123338
3282	0.01026
3294	0.0103692
3306	0.0112423
3318	0.0104783
3330	0.0100417
3342	0.0114606
3354	0.0104783
3366	0.0109149
3378	0.0118972
3390	0.0121155
3402	0.0113515
3414	0.0113515
3426	0.00905937
3438	0.0109149
3450	0.0120064
3462	0.0145168
3474	0.0170272
3486	0.0151717
3498	0.0123338
3510	0.0113515
3522	0.0103692
3534	0.00905937
3546	0.00905937
3558	0.00884107
3570	0.0108058
3582	0.0125521
3594	0.00982341
3606	0.00829532
3618	0.00938681
3630	0.00971426
3642	0.00993256
3654	0.00905937
3666	0.0104783
3678	0.011024
3690	0.0112423
3702	0.0125521
3714	0.0118972
3726	0.0126613
3738	0.00960511
3750	0.00993256
3762	0.0116789
3774	0.0105875
3786	0.0103692
3798	0.0116789
3810	0.0114606
3822	0.00971426
3834	0.00971426
3846	0.0126613
3858	0.0112423
3870	0.0123338
3882	0.0128796
3894	0.0136436
3906	0.0126613
3918	0.014626
3930	0.01539
3942	0.0148443
3954	0.0147351
3966	0.0150626
