Infrared Spectrum: Ethanol, 2-[(2-aminoethyl)amino]-
Formula: C 4 H 12 N 2 O
CAS: 111-41-1
Origin: Sadtler Research Labs Under US-EPA Contract
1/CM	ABSORBANCE
450	0
462	0.0314617
474	0.0225634
486	0.0280931
498	0.0336863
510	0.0300634
522	0.037182
534	0.0448727
546	0.0324786
558	0.0179236
570	0.0212287
582	0.0265041
594	0.0259321
606	0.0310804
618	0.0340676
630	0.0469065
642	0.0514828
654	0.062987
666	0.0799572
678	0.0983893
690	0.126737
702	0.146186
714	0.168813
726	0.209999
738	0.224808
750	0.277753
762	0.298727
774	0.286651
786	0.233071
798	0.189724
810	0.151779
822	0.116694
834	0.105826
846	0.0933682
858	0.099597
870	0.117266
882	0.122288
894	0.116504
906	0.0983258
918	0.078686
930	0.0878385
942	0.0562497
954	0.0579022
966	0.0859318
978	0.0636861
990	0.0794488
1002	0.104555
1014	0.152732
1026	0.218071
1038	0.325994
1050	0.426608
1062	0.433345
1074	0.354405
1086	0.238473
1098	0.148537
1110	0.124957
1122	0.156609
1134	0.20002
1146	0.185084
1158	0.12108
1170	0.0863767
1182	0.077542
1194	0.0723301
1206	0.0804021
1218	0.0828809
1230	0.0847877
1242	0.075953
1254	0.0731564
1266	0.0727751
1278	0.0705505
1290	0.0660378
1302	0.0666098
1314	0.0701056
1326	0.0880292
1338	0.125084
1350	0.143961
1362	0.137478
1374	0.117012
1386	0.124512
1398	0.140529
1410	0.128961
1422	0.0941944
1434	0.0868852
1446	0.132203
1458	0.218007
1470	0.21038
1482	0.108749
1494	0.0519277
1506	0.0301905
1518	0.0244702
1530	0.0202118
1542	0.0158898
1554	0.0168431
1566	0.0200211
1578	0.0223728
1590	0.0315253
1602	0.0518641
1614	0.0874572
1626	0.100677
1638	0.0738556
1650	0.0535167
1662	0.0383896
1674	0.0288558
1686	0.0195762
1698	0.0152542
1710	0.0162075
1722	0.017288
1734	0.0178601
1746	0.0183686
1758	0.0175423
1770	0.0155084
1782	0.0138559
1794	0.0140465
1806	0.0153177
1818	0.0134109
1830	0.0150635
1842	0.0144915
1854	0.0143008
1866	0.015127
1878	0.0146186
1890	0.0146821
1902	0.0154448
1914	0.0152542
1926	0.0168431
1938	0.0166525
1950	0.015572
1962	0.015572
1974	0.0162711
1986	0.0163347
1998	0.0160169
2010	0.0158262
2022	0.0160169
2034	0.0165889
2046	0.0174787
2058	0.0174152
2070	0.017288
2082	0.0176058
2094	0.0186228
2106	0.018305
2118	0.0188135
2130	0.0181143
2142	0.017288
2154	0.0169067
2166	0.0167796
2178	0.0162075
2190	0.0163347
2202	0.0155084
2214	0.016144
2226	0.0163347
2238	0.016716
2250	0.0174787
2262	0.0167796
2274	0.0168431
2286	0.017288
2298	0.0194491
2310	0.0204024
2322	0.0198304
2334	0.0183686
2346	0.0205931
2358	0.0203389
2370	0.0193855
2382	0.0193219
2394	0.016716
2406	0.0169067
2418	0.017288
2430	0.0174787
2442	0.017733
2454	0.0181779
2466	0.0180508
2478	0.018305
2490	0.0187499
2502	0.0188135
2514	0.0195126
2526	0.019894
2538	0.0205931
2550	0.021038
2562	0.0212923
2574	0.0221185
2586	0.0236439
2598	0.0249787
2610	0.0270761
2622	0.02911
2634	0.0320337
2646	0.0363557
2658	0.0418218
2670	0.048432
2682	0.0544065
2694	0.0606353
2706	0.0632412
2718	0.0674997
2730	0.0734742
2742	0.080847
2754	0.0868852
2766	0.0973724
2778	0.119936
2790	0.161631
2802	0.224427
2814	0.301397
2826	0.375189
2838	0.41682
2850	0.427689
2862	0.440019
2874	0.447392
2886	0.437858
2898	0.431883
2910	0.462137
2922	0.539997
2934	0.624531
2946	0.608705
2958	0.44879
2970	0.265232
2982	0.139512
2994	0.0723937
3006	0.0453811
3018	0.0342583
3030	0.0286016
3042	0.0244702
3054	0.0224363
3066	0.0206567
3078	0.0190041
3090	0.0180508
3102	0.017733
3114	0.0165889
3126	0.0155084
3138	0.0163982
3150	0.0157626
3162	0.0158898
3174	0.016144
3186	0.0165253
3198	0.0159533
3210	0.0163347
3222	0.0168431
3234	0.0174787
3246	0.0169703
3258	0.0175423
3270	0.0176694
3282	0.0193219
3294	0.0186228
3306	0.0212923
3318	0.0233897
3330	0.0293007
3342	0.0341947
3354	0.0362286
3366	0.0381354
3378	0.0363557
3390	0.0338134
3402	0.0339405
3414	0.0394701
3426	0.0369278
3438	0.0340041
3450	0.0330507
3462	0.0324151
3474	0.0313981
3486	0.0298092
3498	0.0287287
3510	0.0298727
3522	0.0329236
3534	0.0431566
3546	0.0526269
3558	0.0636861
3570	0.0722666
3582	0.0584743
3594	0.0443006
3606	0.0351481
3618	0.030127
3630	0.0279024
3642	0.0288558
3654	0.0424574
3666	0.0547879
3678	0.0570124
3690	0.0397879
3702	0.0232626
3714	0.018877
3726	0.0159533
3738	0.0147457
3750	0.0111864
3762	0.0115677
3774	0.0115677
3786	0.0115677
3798	0.0115677
3810	0.0115677
3822	0.0115677
3834	0.0115677
3846	0.0115677
3858	0.0135381
3870	0.0115677
3882	0.0115677
3894	0.0128389
3906	0.0117584
3918	0.0115677
3930	0.0126482
3942	0.0134745
3954	0.0129025
3966	0.0115677
