Infrared Spectrum: Ethanol, 2,2'-oxybis-
Formula: C 4 H 10 O 3
CAS: 111-46-6
Origin: Sadtler Research Labs Under US-EPA Contract
1/CM	ABSORBANCE
450	0.027484
462	0.0267896
474	0.0259217
486	0.0231444
498	0.0275418
510	0.0299141
522	0.0336751
534	0.0348323
546	0.0277154
558	0.0202514
570	0.0160854
582	0.0119772
594	0.01001
606	0.0081584
618	0.00810054
630	0.00717476
642	0.00590182
654	0.00567038
666	0.00405027
678	0.00503391
690	0.00416599
702	0.00433958
714	0.00567038
726	0.00335594
738	0.00410813
750	0.00416599
762	0.00729049
774	0.0117458
786	0.0194992
798	0.0278311
810	0.0335015
822	0.0325179
834	0.0314764
846	0.0403291
858	0.0554887
870	0.0803111
882	0.103745
894	0.11659
906	0.115433
918	0.0884695
930	0.055778
942	0.0402134
954	0.0374361
966	0.0392876
978	0.0455945
990	0.0595968
1002	0.0843613
1014	0.125501
1026	0.198868
1038	0.346298
1050	0.538802
1062	0.563855
1074	0.46364
1086	0.352605
1098	0.250538
1110	0.26373
1122	0.438586
1134	0.551531
1146	0.382288
1158	0.184056
1170	0.106638
1182	0.0860972
1194	0.0950078
1206	0.104613
1218	0.102009
1230	0.0941977
1242	0.0965121
1254	0.102356
1266	0.102125
1278	0.0910154
1290	0.0777073
1302	0.0635314
1314	0.0609855
1326	0.0674659
1338	0.0983058
1350	0.153852
1362	0.159291
1374	0.120929
1386	0.11497
1398	0.114102
1410	0.0898581
1422	0.0623742
1434	0.0438008
1446	0.047041
1458	0.0792696
1470	0.0727891
1482	0.0416599
1494	0.0222765
1506	0.0163747
1518	0.00977851
1530	0.00584396
1542	0.00879487
1554	0.00561252
1566	0.00306663
1578	0.00352952
1590	0.00121508
1602	0.000289305
1614	0.000636471
1626	0.0010415
1638	0.00231444
1650	0.00150439
1662	0.000347166
1674	0.00162011
1686	0.00433958
1698	0.00393455
1710	0.00150439
1722	0.00190941
1734	0.00717476
1746	0.00428171
1758	0.00335594
1770	0.00387669
1782	0.00173583
1794	0.00295091
1806	0.000752193
1818	0.000810054
1830	0.000867915
1842	0.000462888
1854	0
1866	0.00115722
1878	0.000810054
1890	0.00173583
1902	0.00196727
1914	0.00347166
1926	0.00613327
1938	0.00734835
1950	0.00752193
1962	0.00636471
1974	0.00497605
1986	0.00300877
1998	0.002083
2010	0.00173583
2022	0.000752193
2034	0.00144652
2046	0.00109936
2058	0.00156225
2070	0.00173583
2082	0.00277733
2094	0.00283519
2106	0.00283519
2118	0.00329808
2130	0.00457102
2142	0.00416599
2154	0.00381883
2166	0.00335594
2178	0.00289305
2190	0.00254588
2202	0.00214086
2214	0.00173583
2226	0.00219872
2238	0.00138866
2250	0.00202513
2262	0.00196727
2274	0.00173583
2286	0.002083
2298	0.00173583
2310	0.00324022
2322	0.002083
2334	0.00185155
2346	0.0010415
2358	0.00468674
2370	0.00381883
2382	0.00277733
2394	0.00335594
2406	0.00347166
2418	0.00300877
2430	0.00277733
2442	0.0037031
2454	0.00277733
2466	0.00277733
2478	0.00277733
2490	0.00219872
2502	0.00254588
2514	0.00312449
2526	0.00277733
2538	0.00393455
2550	0.0044553
2562	0.00364524
2574	0.00433958
2586	0.00433958
2598	0.00405027
2610	0.00480246
2622	0.00486032
2634	0.00601754
2646	0.00613327
2658	0.00792696
2670	0.00983637
2682	0.0131923
2694	0.0163747
2706	0.0190941
2718	0.0243595
2730	0.0257481
2742	0.0258639
2754	0.0273104
2766	0.0294512
2778	0.0327493
2790	0.0385933
2802	0.0440322
2814	0.0527114
2826	0.0654408
2838	0.0943713
2850	0.154952
2862	0.24128
2874	0.331717
2886	0.36788
2898	0.352894
2910	0.328014
2922	0.345372
2934	0.380957
2946	0.374303
2958	0.338892
2970	0.240297
2982	0.114449
2994	0.0539843
3006	0.0294512
3018	0.0168954
3030	0.013308
3042	0.0105886
3054	0.00821626
3066	0.00642257
3078	0.00659615
3090	0.00555466
3102	0.0047446
3114	0.00433958
3126	0.00439744
3138	0.00393455
3150	0.00347166
3162	0.00433958
3174	0.00243016
3186	0.00387669
3198	0.00364524
3210	0.00271947
3222	0.00457102
3234	0.00376097
3246	0.00225658
3258	0.00399241
3270	0.00347166
3282	0.00318235
3294	0.00248802
3306	0.00167797
3318	0.00295091
3330	0.00254588
3342	0.00231444
3354	0.00393455
3366	0.00364524
3378	0.00468674
3390	0.00254588
3402	0.00364524
3414	0.00225658
3426	0.00503391
3438	0.00584396
3450	0.00526535
3462	0.00671188
3474	0.00526535
3486	0.00584396
3498	0.00757979
3510	0.00862129
3522	0.0102993
3534	0.0109936
3546	0.0162011
3558	0.0186312
3570	0.0257481
3582	0.0238387
3594	0.0277154
3606	0.0346587
3618	0.0582082
3630	0.100389
3642	0.113928
3654	0.0907839
3666	0.0734835
3678	0.06492
3690	0.0422964
3702	0.0215243
3714	0.0148703
3726	0.0121508
3738	0.0129609
3750	0.0131344
3762	0.0114565
3774	0.0109936
3786	0.0101257
3798	0.0118615
3810	0.01001
3822	0.0131923
3834	0.0121508
3846	0.0129609
3858	0.0139445
3870	0.0152174
3882	0.0155646
3894	0.0162011
3906	0.0177055
3918	0.0172426
3930	0.0173583
3942	0.017474
3954	0.00717476
3966	0.00821626
