Infrared Spectrum: Hexane, 1-bromo-
Formula: C 6 H 13 Br
CAS: 111-25-1
Origin: Sadtler Research Labs Under US-EPA Contract
1/CM	ABSORBANCE
450	0.00791981
462	0.0045256
474	0.00266212
486	0.00738738
498	0.00938397
510	0.01757
522	0.00845223
534	0.0173703
546	0.0147748
558	0.0434591
570	0.0623602
582	0.0349403
594	0.0123789
606	0.0143089
618	0.0136434
630	0.0261553
642	0.0461878
654	0.0704796
666	0.0342748
678	0.0195
690	0.0209642
702	0.0204983
714	0.0238925
726	0.0344745
738	0.0378687
750	0.0223618
762	0.0226946
774	0.0196997
786	0.0170376
798	0.0199659
810	0.0280188
822	0.0179693
834	0.0183021
846	0.0181024
858	0.0250239
870	0.0210973
882	0.018169
894	0.01564
906	0.0179693
918	0.0195
930	0.0201656
942	0.0175034
954	0.022029
966	0.0229608
978	0.0193669
990	0.0198328
1002	0.0155068
1014	0.0128447
1026	0.0139761
1038	0.0208976
1050	0.0162389
1062	0.0187014
1074	0.0139761
1086	0.0136434
1098	0.0129778
1110	0.0176365
1122	0.011913
1134	0.0125785
1146	0.0110478
1158	0.0152406
1170	0.0171707
1182	0.0222953
1194	0.032611
1206	0.0549728
1218	0.0424608
1230	0.0641571
1242	0.103823
1254	0.115004
1266	0.0883824
1278	0.0743397
1290	0.0783329
1302	0.0531758
1314	0.040797
1326	0.0267543
1338	0.0304813
1350	0.0340751
1362	0.032012
1374	0.0286178
1386	0.0383345
1398	0.0235598
1410	0.0195666
1422	0.0254898
1434	0.0513789
1446	0.0863858
1458	0.0947049
1470	0.0920428
1482	0.0493823
1494	0.0231604
1506	0.0077867
1518	0.00918431
1530	0.00911776
1542	0.00532424
1554	0.00672185
1566	0.00658875
1578	0.00598977
1590	0.00925087
1602	0.00658875
1614	0.00672185
1626	0.00598977
1638	0.00559045
1650	0.00499147
1662	0.00672185
1674	0.00485837
1686	0.00598977
1698	0.00445905
1710	0.00698806
1722	0.00692151
1734	0.0045256
1746	0.0066553
1758	0.00519113
1770	0.00352731
1782	0.00465871
1794	0.00479182
1806	0.00492492
1818	0.0055239
1830	0.00399318
1842	0.00499147
1854	0.00532424
1866	0.00459216
1878	0.00366041
1890	0.00539079
1902	0.00465871
1914	0.00638909
1926	0.0045256
1938	0.00519113
1950	0.00519113
1962	0.00632253
1974	0.00572356
1986	0.00638909
1998	0.00412629
2010	0.00499147
2022	0.00505803
2034	0.00505803
2046	0.00492492
2058	0.00445905
2070	0.00479182
2082	0.00525769
2094	0.0055239
2106	0.00386007
2118	0.00485837
2130	0.00352731
2142	0.00445905
2154	0.00412629
2166	0.00485837
2178	0.00366041
2190	0.00525769
2202	0.00432594
2214	0.00579011
2226	0.00459216
2238	0.00499147
2250	0.0043925
2262	0.00419284
2274	0.00319454
2286	0.0033942
2298	0.0022628
2310	0.00179693
2322	0.00119795
2334	0.000732083
2346	0.00525769
2358	0.00066553
2370	0.0021297
2382	0.00312799
2394	0.00472526
2406	0.00359386
2418	0.00472526
2430	0.00306144
2442	0.00419284
2454	0.00379352
2466	0.00405973
2478	0.00366041
2490	0.00379352
2502	0.00405973
2514	0.00545735
2526	0.00432594
2538	0.00412629
2550	0.00445905
2562	0.00465871
2574	0.00572356
2586	0.00598977
2598	0.00579011
2610	0.00612288
2622	0.00825257
2634	0.00791981
2646	0.00945053
2658	0.00811947
2670	0.00998295
2682	0.0099164
2694	0.0109812
2706	0.00871844
2718	0.00951708
2730	0.00871844
2742	0.0136434
2754	0.0129778
2766	0.0117133
2778	0.0124454
2790	0.0147748
2802	0.0188345
2814	0.024425
2826	0.032611
2838	0.0561707
2850	0.119795
2862	0.224616
2874	0.284448
2886	0.274265
2898	0.214234
2910	0.247843
2922	0.39406
2934	0.599243
2946	0.632986
2958	0.463275
2970	0.574419
2982	0.339687
2994	0.117399
3006	0.0807953
3018	0.0806622
3030	0.0422612
3042	0.0246246
3054	0.0178362
3066	0.0143754
3078	0.0139761
3090	0.0105154
3102	0.0115802
3114	0.0115802
3126	0.0110478
3138	0.00938397
3150	0.00978329
3162	0.00825257
3174	0.0111809
3186	0.00851878
3198	0.00758704
3210	0.00545735
3222	0.00545735
3234	0.00465871
3246	0.00692151
3258	0.00405973
3270	0.005657
3282	0.00579011
3294	0.0055239
3306	0.00572356
3318	0.0043925
3330	0.0043925
3342	0.0045256
3354	0.00638909
3366	0.00579011
3378	0.00698806
3390	0.00512458
3402	0.00725428
3414	0.00672185
3426	0.0066553
3438	0.00618943
3450	0.00658875
3462	0.00266212
3474	0.00618943
3486	0.00352731
3498	0.00525769
3510	0.00485837
3522	0.00485837
3534	0.00519113
3546	0.00658875
3558	0.00559045
3570	0.00412629
3582	0.00472526
3594	0.0033942
3606	0.005657
3618	0.00392663
3630	0.00492492
3642	0.00505803
3654	0.00598977
3666	0.00592322
3678	0.00738738
3690	0.00432594
3702	0.00618943
3714	0.00512458
3726	0.00519113
3738	0.00366041
3750	0.00179693
3762	0.00332765
3774	0.0066553
3786	0.00532424
3798	0.00492492
3810	0.00419284
3822	0.0021297
3834	0.0045256
3846	0.00259557
3858	0.00332765
3870	0.00186348
3882	0.00319454
3894	0.00206314
3906	0.00432594
3918	0.00246246
3930	0.00519113
3942	0.00545735
3954	0
3966	0.00066553
