Infrared Spectrum: 2-Octanone
Formula: C 8 H 16 O
CAS: 111-13-7
Origin: Sadtler Research Labs Under US-EPA Contract
1/CM	ABSORBANCE
450	0.0793096
462	0.0210629
474	0.0207099
486	0.00929593
498	0.0181212
510	0.024946
522	0.0302412
534	0.0290645
546	0.0170622
558	0.0120023
570	0.00953127
582	0.0190625
594	0.034242
606	0.0192979
618	0.00400078
630	0.00035301
642	0.00623651
654	0.00541282
666	0.00305942
678	0.00870758
690	0.0101196
702	0.0195332
714	0.0375367
726	0.0370661
738	0.023887
750	0.0169445
762	0.0135321
774	0.0135321
786	0.0145911
798	0.0130614
810	0.012826
822	0.01212
834	0.0132967
846	0.0136497
858	0.0143557
870	0.0163561
882	0.0198862
894	0.0248284
906	0.0268288
918	0.0287115
930	0.0380074
942	0.0562463
954	0.0573053
966	0.0445969
978	0.0383604
990	0.0316532
1002	0.0298882
1014	0.0295352
1026	0.0321239
1038	0.035654
1050	0.0369484
1062	0.0350657
1074	0.0324769
1086	0.0351833
1098	0.0430672
1110	0.0555402
1122	0.0596587
1134	0.0684839
1146	0.123318
1158	0.289233
1170	0.278525
1182	0.136615
1194	0.118494
1206	0.125319
1218	0.140145
1230	0.124024
1242	0.0901352
1254	0.0755441
1266	0.0749558
1278	0.0793096
1290	0.0737791
1302	0.0704843
1314	0.0760148
1326	0.0854284
1338	0.121553
1350	0.226985
1362	0.38937
1374	0.281937
1386	0.15403
1398	0.100373
1410	0.103903
1422	0.119906
1434	0.118376
1446	0.131908
1458	0.168033
1470	0.154148
1482	0.0829573
1494	0.0403608
1506	0.0285938
1518	0.0250637
1530	0.0227103
1542	0.0203569
1554	0.0178858
1566	0.0158854
1578	0.0145911
1590	0.0122377
1602	0.0111787
1614	0.0105903
1626	0.010355
1638	0.011767
1650	0.0130614
1662	0.0183565
1674	0.0305942
1686	0.0582467
1698	0.110492
1710	0.225573
1722	0.523749
1734	0.796626
1746	0.492096
1758	0.177211
1770	0.0758971
1782	0.0365954
1794	0.0200039
1806	0.0123554
1818	0.00835457
1830	0.0058835
1842	0.00458913
1854	0.00411845
1866	0.00341243
1878	0.00282408
1890	0.0023534
1902	0.00247107
1914	0.00176505
1926	0.0011767
1938	0.00200039
1950	0.00270641
1962	0.00223573
1974	0.00188272
1986	0.00152971
1998	0.00164738
2010	0.00129437
2022	0.00188272
2034	0.00282408
2046	0.00223573
2058	0.00188272
2070	0.00329476
2082	0.00270641
2094	0.00223573
2106	0.00258874
2118	0.00282408
2130	0.00258874
2142	0.00270641
2154	0.00258874
2166	0.0023534
2178	0.0023534
2190	0.0023534
2202	0.00200039
2214	0.00176505
2226	0.00141204
2238	0.00094136
2250	0.00094136
2262	0.00094136
2274	0.00141204
2286	0.00152971
2298	0.00223573
2310	0.0035301
2322	0.00411845
2334	0.00258874
2346	0.00011767
2358	0.00341243
2370	0
2382	0.00023534
2394	0.00070602
2406	0.00058835
2418	0.00094136
2430	0.00035301
2442	0.00058835
2454	0
2466	0
2478	0.00023534
2490	0.00035301
2502	0.0011767
2514	0.00141204
2526	0.00141204
2538	0.00211806
2550	0.00223573
2562	0.00247107
2574	0.00376544
2586	0.00294175
2598	0.00341243
2610	0.00364777
2622	0.00458913
2634	0.00576583
2646	0.00729554
2658	0.0070602
2670	0.0109433
2682	0.0125907
2694	0.010002
2706	0.00929593
2718	0.00988428
2730	0.0118847
2742	0.0151794
2754	0.0161208
2766	0.0162385
2778	0.0184742
2790	0.024593
2802	0.0344773
2814	0.046362
2826	0.059894
2838	0.0913119
2850	0.19192
2862	0.398901
2874	0.491978
2886	0.461149
2898	0.413492
2910	0.511394
2922	0.798862
2934	1.1414
2946	1.06809
2958	0.826279
2970	0.873229
2982	0.443851
2994	0.165326
3006	0.117552
3018	0.0984898
3030	0.0637771
3042	0.047421
3054	0.0385958
3066	0.033536
3078	0.0289468
3090	0.0236517
3102	0.0196509
3114	0.0163561
3126	0.0118847
3138	0.0112963
3150	0.00976661
3162	0.00811923
3174	0.00741321
3186	0.00764855
3198	0.0070602
3210	0.00600117
3222	0.00388311
3234	0.00294175
3246	0.00223573
3258	0.00247107
3270	0.00270641
3282	0.0023534
3294	0.00105903
3306	0.00176505
3318	0.00094136
3330	0.00305942
3342	0.00247107
3354	0.00247107
3366	0.00341243
3378	0.0023534
3390	0.00423612
3402	0.00329476
3414	0.00647185
3426	0.00917826
3438	0.0130614
3450	0.0164738
3462	0.011061
3474	0.00682486
3486	0.00341243
3498	0.00152971
3510	0.00164738
3522	0.00200039
3534	0.00176505
3546	0.0023534
3558	0.00105903
3570	0.00152971
3582	0.00211806
3594	0.00164738
3606	0.00105903
3618	0.00270641
3630	0.00341243
3642	0.00611884
3654	0.00858991
3666	0.00882525
3678	0.00388311
3690	0.00517748
3702	0.00388311
3714	0.00364777
3726	0.00423612
3738	0.0011767
3750	0.00317709
3762	0.0035301
3774	0.00258874
3786	0.00258874
3798	0.00305942
3810	0.00247107
3822	0.00376544
3834	0.00376544
3846	0.00423612
3858	0.00223573
3870	0.00423612
3882	0.00247107
3894	0.00400078
3906	0.00258874
3918	0.00223573
3930	0.00411845
3942	0.00341243
3954	0.00658952
3966	0.00305942
