Infrared Spectrum: 1-Octanamine
Formula: C 8 H 19 N
CAS: 111-86-4
Origin: Sadtler Research Labs Under US-EPA Contract
1/CM	ABSORBANCE
450	0.0856842
462	0.033153
474	0.0120238
486	0.00805478
498	0.0254484
510	0.00968909
522	0.0169267
534	0.0215962
546	0.0122573
558	0.0102728
570	0.0158761
582	0.0149422
594	0.0109732
606	0.0152924
618	0.0191447
630	0.0189112
642	0.0187945
654	0.0218296
666	0.0256819
678	0.0319857
690	0.0388731
702	0.0476283
714	0.0612864
726	0.0819487
738	0.0970076
750	0.138682
762	0.176155
774	0.195299
786	0.172653
798	0.102027
810	0.0602358
822	0.0519475
834	0.0419082
846	0.035838
858	0.0242811
870	0.0234639
882	0.0271995
894	0.0239309
906	0.0213627
918	0.0191447
930	0.0182108
942	0.0213627
954	0.0203121
966	0.0192614
978	0.0176271
990	0.0156426
1002	0.016343
1014	0.0158761
1026	0.0220631
1038	0.0238141
1050	0.0335032
1062	0.0366551
1074	0.0491459
1086	0.0413245
1098	0.0326861
1110	0.0238141
1122	0.0102728
1134	0.0115569
1146	0.00980582
1158	0.0110899
1170	0.012841
1182	0.0142418
1194	0.0134246
1206	0.0173937
1218	0.012841
1230	0.0134246
1242	0.0141251
1254	0.0140083
1266	0.0136581
1278	0.0155259
1290	0.0177439
1302	0.0228803
1314	0.0227635
1326	0.0194949
1338	0.0267325
1350	0.0364216
1362	0.0441262
1374	0.0497295
1386	0.0580178
1398	0.0389898
1410	0.0221798
1422	0.0198451
1434	0.0298844
1446	0.0569672
1458	0.0916378
1470	0.0928051
1482	0.0528814
1494	0.0267325
1506	0.0189112
1518	0.016343
1530	0.0151757
1542	0.014592
1554	0.0148255
1566	0.0152924
1578	0.0173937
1590	0.0210125
1602	0.0300012
1614	0.0475116
1626	0.0577843
1638	0.0344371
1650	0.0176271
1662	0.0117903
1674	0.0110899
1686	0.00723763
1698	0.00572006
1710	0.00607027
1722	0.00665395
1734	0.00688742
1746	0.00688742
1758	0.0071209
1770	0.00618701
1782	0.00677069
1794	0.00653722
1806	0.0071209
1818	0.00642048
1830	0.00665395
1842	0.00653722
1854	0.00688742
1866	0.00572006
1878	0.00525312
1890	0.00478618
1902	0.00478618
1914	0.0042025
1926	0.0042025
1938	0.00466944
1950	0.0042025
1962	0.00431923
1974	0.00396902
1986	0.0042025
1998	0.0042025
2010	0.0042025
2022	0.00466944
2034	0.00466944
2046	0.00501965
2058	0.00466944
2070	0.00443597
2082	0.0045527
2094	0.00373555
2106	0.00396902
2118	0.00326861
2130	0.00315187
2142	0.00338534
2154	0.00315187
2166	0.0029184
2178	0.0029184
2190	0.00256819
2202	0.00198451
2214	0.00221798
2226	0.00245146
2238	0.00268493
2250	0.00245146
2262	0.00245146
2274	0.00186778
2286	0.00175104
2298	0.00140083
2310	0.00140083
2322	0.00233472
2334	0.00408576
2346	0.00268493
2358	0.00408576
2370	0.0029184
2382	0.00245146
2394	0.00303514
2406	0.00326861
2418	0.00408576
2430	0.00408576
2442	0.0042025
2454	0.00396902
2466	0.0042025
2478	0.00431923
2490	0.00431923
2502	0.00513638
2514	0.00548659
2526	0.00665395
2538	0.00700416
2550	0.00723763
2562	0.00770458
2574	0.00770458
2586	0.00828826
2598	0.00910541
2610	0.00910541
2622	0.0102728
2634	0.0116736
2646	0.0131912
2658	0.0144753
2670	0.0169267
2682	0.0184443
2694	0.0186778
2706	0.0179773
2718	0.018561
2730	0.0213627
2742	0.025215
2754	0.0273162
2766	0.0275497
2778	0.0284836
2790	0.0319857
2802	0.0406241
2814	0.0533484
2826	0.0771625
2838	0.130161
2850	0.26966
2862	0.477684
2874	0.435542
2886	0.328495
2898	0.287521
2910	0.43239
2922	0.81435
2934	1.16736
2946	0.826841
2958	0.47675
2970	0.446982
2982	0.205105
2994	0.0806646
3006	0.0484454
3018	0.035838
3030	0.0283668
3042	0.0211292
3054	0.0157594
3066	0.0133079
3078	0.0102728
3090	0.00805478
3102	0.00642048
3114	0.00443597
3126	0.00431923
3138	0.00513638
3150	0.0045527
3162	0.00478618
3174	0.00478618
3186	0.00490291
3198	0.0042025
3210	0.0029184
3222	0.00280166
3234	0.00245146
3246	0.0016343
3258	0.00140083
3270	0.0016343
3282	0.00116736
3294	0.0012841
3306	0.00186778
3318	0.00116736
3330	0.00373555
3342	0.00688742
3354	0.00548659
3366	0.00268493
3378	0.00198451
3390	0.00233472
3402	0.00221798
3414	0.00303514
3426	0.00221798
3438	0.00256819
3450	0.00198451
3462	0.00221798
3474	0.00385229
3486	0.00315187
3498	0.00338534
3510	0.00326861
3522	0.00303514
3534	0.00280166
3546	0.00280166
3558	0.00245146
3570	0.00326861
3582	0.00350208
3594	0.00303514
3606	0.00233472
3618	0.00303514
3630	0.00233472
3642	0.00361882
3654	0.00315187
3666	0.00198451
3678	0.00280166
3690	0.00315187
3702	0.00315187
3714	0.00350208
3726	0.00361882
3738	0.00280166
3750	0.00268493
3762	0.00385229
3774	0.00408576
3786	0.00373555
3798	0.00408576
3810	0.00490291
3822	0.0042025
3834	0.00536986
3846	0.00466944
3858	0.00431923
3870	0.00478618
3882	0.0058368
3894	0.00536986
3906	0.00326861
3918	0.00618701
3930	0.00770458
3942	0.00513638
3954	0.0029184
3966	0.00723763
