Infrared Spectrum: Octanoyl chloride
Formula: C 8 H 15 Cl O
CAS: 111-64-8
Origin: Sadtler Research Labs Under US-EPA Contract
1/CM	ABSORBANCE
450	0
462	0.0256874
474	0.0180262
486	0.0324472
498	0.0160546
510	0.0161673
522	0.0321656
534	0.0376298
546	0.0392634
558	0.054473
570	0.0825827
582	0.0879343
594	0.085174
606	0.0632045
618	0.0419673
630	0.0284477
642	0.0317149
654	0.026983
666	0.0376861
678	0.0708657
690	0.0745836
702	0.0499102
714	0.0730063
726	0.10106
738	0.0764989
750	0.0607822
762	0.0425307
774	0.041573
786	0.0332922
798	0.0382494
810	0.0382494
822	0.0277153
834	0.0267577
846	0.0310953
858	0.0339119
870	0.041911
882	0.0464176
894	0.0601062
906	0.0586416
918	0.0813434
930	0.114354
942	0.129057
954	0.133394
966	0.152209
978	0.138464
990	0.117171
1002	0.106411
1014	0.101116
1026	0.104721
1038	0.10382
1050	0.0919902
1062	0.0701333
1074	0.055656
1086	0.0531211
1098	0.0655704
1110	0.0683307
1122	0.0839347
1134	0.0872583
1146	0.0652325
1158	0.0476005
1170	0.0454036
1182	0.0451219
1194	0.0451219
1206	0.0385311
1218	0.029856
1230	0.0265887
1242	0.0284477
1254	0.0297996
1266	0.0297433
1278	0.0344189
1290	0.0372355
1302	0.0405027
1314	0.0347005
1326	0.0368975
1338	0.0421363
1350	0.0464176
1362	0.0454036
1374	0.0450656
1386	0.0474879
1398	0.0341935
1410	0.0401647
1422	0.0447276
1434	0.0452909
1446	0.0528957
1458	0.0807801
1470	0.0778508
1482	0.0418547
1494	0.0263634
1506	0.0230398
1518	0.0176882
1530	0.013407
1542	0.0123367
1554	0.0107594
1566	0.0103651
1578	0.00991443
1590	0.00929478
1602	0.0100271
1614	0.00935111
1626	0.0104214
1638	0.0108721
1650	0.012562
1662	0.0119987
1674	0.0163926
1686	0.0204485
1698	0.0219131
1710	0.0273774
1722	0.028166
1734	0.0343625
1746	0.0492342
1758	0.0756539
1770	0.121564
1782	0.184037
1794	0.292588
1806	0.527549
1818	0.477808
1830	0.2233
1842	0.0996513
1854	0.0506988
1866	0.0349822
1878	0.026307
1890	0.0221385
1902	0.0188149
1914	0.0163926
1926	0.0150406
1938	0.0138577
1950	0.0129
1962	0.0119987
1974	0.0116044
1986	0.0108721
1998	0.0101961
2010	0.0101398
2022	0.0104214
2034	0.0103088
2046	0.0098581
2058	0.00940744
2070	0.00929478
2082	0.00929478
2094	0.00974544
2106	0.0102524
2118	0.012393
2130	0.013914
2142	0.0111537
2154	0.00980177
2166	0.0096891
2178	0.00963277
2190	0.00974544
2202	0.00952011
2214	0.0101961
2226	0.0105904
2238	0.0107031
2250	0.0108157
2262	0.0110974
2274	0.0104778
2286	0.00980177
2298	0.00940744
2310	0.00935111
2322	0.00974544
2334	0.0103651
2346	0.00980177
2358	0.00940744
2370	0.0103088
2382	0.00997076
2394	0.0105904
2406	0.0107031
2418	0.0106467
2430	0.0108721
2442	0.0108157
2454	0.0106467
2466	0.0105904
2478	0.0107031
2490	0.0112664
2502	0.0112101
2514	0.0113227
2526	0.0114917
2538	0.0115481
2550	0.012055
2562	0.0124494
2574	0.0129564
2586	0.0128437
2598	0.0138577
2610	0.0136887
2622	0.014421
2634	0.014928
2646	0.015097
2658	0.0158856
2670	0.0169559
2682	0.0184769
2694	0.0168996
2706	0.0201105
2718	0.0178009
2730	0.0227581
2742	0.0208992
2754	0.0252367
2766	0.0202232
2778	0.028673
2790	0.0218005
2802	0.0318839
2814	0.029349
2826	0.0388691
2838	0.0483329
2850	0.0845543
2862	0.196993
2874	0.237946
2886	0.19412
2898	0.144323
2910	0.192205
2922	0.345709
2934	0.546589
2946	0.503664
2958	0.353314
2970	0.373087
2982	0.194852
2994	0.0784705
3006	0.0448966
3018	0.0384748
3030	0.0332922
3042	0.0251804
3054	0.0206175
3066	0.0187586
3078	0.0176882
3090	0.0172939
3102	0.015942
3114	0.0153786
3126	0.0146463
3138	0.0135197
3150	0.0141957
3162	0.0131817
3174	0.0130127
3186	0.0129564
3198	0.012224
3210	0.012055
3222	0.0114917
3234	0.0108157
3246	0.0109847
3258	0.0107594
3270	0.0100271
3282	0.0106467
3294	0.0103651
3306	0.0098581
3318	0.0105341
3330	0.0103651
3342	0.0103651
3354	0.0107594
3366	0.0103651
3378	0.0101961
3390	0.0112664
3402	0.0107031
3414	0.0102524
3426	0.0110974
3438	0.0102524
3450	0.0104214
3462	0.0109847
3474	0.00991443
3486	0.0105904
3498	0.00997076
3510	0.0105341
3522	0.0100271
3534	0.0104778
3546	0.0117171
3558	0.013914
3570	0.0282787
3582	0.0409534
3594	0.0207302
3606	0.0180826
3618	0.0148716
3630	0.0123367
3642	0.0108157
3654	0.0112664
3666	0.0107031
3678	0.0117171
3690	0.0131817
3702	0.0108721
3714	0.0109847
3726	0.0108157
3738	0.0111537
3750	0.0123367
3762	0.00997076
3774	0.0108721
3786	0.0103651
3798	0.0108721
3810	0.00923845
3822	0.0110974
3834	0.0103651
3846	0.0112101
3858	0.0119987
3870	0.0124494
3882	0.0107031
3894	0.0103088
3906	0.0105904
3918	0.0123367
3930	0.0128437
3942	0.0104214
3954	0.0104778
3966	0.0110411
