Infrared Spectrum: Octane, 1-chloro-
Formula: C 8 H 17 Cl
CAS: 111-85-3
Origin: Sadtler Research Labs Under US-EPA Contract
1/CM	ABSORBANCE
450	0.0686001
462	0.0233825
474	0.0165053
486	0.0108316
498	0.0241562
510	0.00197719
522	0.0185684
534	0.0170211
546	0.0101439
558	0.0151298
570	0.0140983
582	0.0116912
594	0.0141842
606	0.0107456
618	0.0105737
630	0.0166772
642	0.0194281
654	0.0446158
666	0.063786
678	0.0244141
690	0.0208035
702	0.0243281
714	0.0388562
726	0.0632702
738	0.076251
750	0.0673106
762	0.0480544
774	0.0309474
786	0.024586
798	0.0230386
810	0.0153018
822	0.0202018
834	0.0151298
846	0.0145281
858	0.0204597
870	0.0153018
882	0.0165912
894	0.0180526
906	0.0180526
918	0.0210614
930	0.0181386
942	0.0148719
954	0.0170211
966	0.0147
978	0.0151298
990	0.0165053
1002	0.0150439
1014	0.0150439
1026	0.0164193
1038	0.0156456
1050	0.0163333
1062	0.014786
1074	0.0136684
1086	0.0138404
1098	0.0104877
1110	0.0119491
1122	0.012379
1134	0.00962808
1146	0.0103158
1158	0.0104877
1170	0.0101439
1182	0.0112614
1194	0.00988597
1206	0.0110035
1218	0.0135825
1230	0.0154737
1242	0.0229527
1254	0.0272509
1266	0.0337842
1278	0.0484843
1290	0.066279
1302	0.0707492
1314	0.061293
1326	0.0453036
1338	0.0329246
1350	0.036793
1362	0.0324088
1374	0.0300877
1386	0.0342141
1398	0.0197719
1410	0.0160755
1422	0.0183965
1434	0.0314632
1446	0.0675685
1458	0.104362
1470	0.0925843
1482	0.0435843
1494	0.0181386
1506	0.0133246
1518	0.0101439
1530	0.00756492
1542	0.00799474
1554	0.00713509
1566	0.00575965
1578	0.0066193
1590	0.00507193
1602	0.0051579
1614	0.00575965
1626	0.0049
1638	0.00541579
1650	0.00472807
1662	0.00412632
1674	0.00532983
1686	0.00481404
1698	0.00464211
1710	0.0051579
1722	0.00464211
1734	0.00593158
1746	0.00472807
1758	0.00378246
1770	0.00447018
1782	0.00361053
1794	0.00386842
1806	0.00361053
1818	0.00275088
1830	0.0034386
1842	0.00335263
1854	0.00232105
1866	0.00292281
1878	0.00335263
1890	0.00292281
1902	0.0034386
1914	0.00275088
1926	0.00240702
1938	0.00300877
1950	0.00197719
1962	0.00257895
1974	0.00283684
1986	0.00214912
1998	0.00292281
2010	0.00206316
2022	0.00257895
2034	0.00361053
2046	0.00335263
2058	0.00335263
2070	0.00309474
2082	0.00214912
2094	0.00283684
2106	0.00257895
2118	0.00249298
2130	0.00275088
2142	0.0031807
2154	0.00275088
2166	0.0031807
2178	0.00257895
2190	0.00232105
2202	0.00266491
2214	0.00206316
2226	0.00257895
2238	0.0017193
2250	0.0014614
2262	0.00180526
2274	0.00180526
2286	0.00154737
2298	0.00232105
2310	0.00223509
2322	0.00361053
2334	0.00653334
2346	0.00369649
2358	0.00412632
2370	0.00653334
2382	0.00214912
2394	0.00214912
2406	0.00163333
2418	0.0014614
2430	0.00154737
2442	0.000945615
2454	0.00068772
2466	0.00128947
2478	0.000773685
2490	0.00111754
2502	0.000945615
2514	0.000257895
2526	0.00085965
2538	0.00068772
2550	0.00034386
2562	0.00128947
2574	0.00197719
2586	0.00214912
2598	0.00275088
2610	0.00257895
2622	0.00412632
2634	0.00455614
2646	0.00498597
2658	0.0068772
2670	0.00739299
2682	0.00816667
2694	0.00919825
2706	0.00747895
2718	0.00816667
2730	0.00902632
2742	0.0104018
2754	0.0110035
2766	0.00962808
2778	0.00980001
2790	0.0141842
2802	0.0181386
2814	0.0241562
2826	0.0340421
2838	0.054072
2850	0.127486
2862	0.302941
2874	0.335263
2886	0.266148
2898	0.2058
2910	0.284802
2922	0.519057
2934	0.841597
2946	0.721676
2958	0.481146
2970	0.523441
2982	0.237521
2994	0.126626
3006	0.0918106
3018	0.0400597
3030	0.0252737
3042	0.0184825
3054	0.0151298
3066	0.0116053
3078	0.00997194
3090	0.00885439
3102	0.00739299
3114	0.00739299
3126	0.00653334
3138	0.00524386
3150	0.00618948
3162	0.00636141
3174	0.00524386
3186	0.00524386
3198	0.0049
3210	0.00421228
3222	0.00429825
3234	0.00292281
3246	0.00361053
3258	0.00300877
3270	0.00197719
3282	0.00300877
3294	0.0034386
3306	0.00257895
3318	0.0034386
3330	0.00180526
3342	0.00369649
3354	0.00369649
3366	0.0017193
3378	0.00223509
3390	0.00292281
3402	0.00326667
3414	0.00275088
3426	0.00309474
3438	0.00309474
3450	0.00240702
3462	0.000945615
3474	0.00249298
3486	0.0017193
3498	0.000601755
3510	0.00275088
3522	0.00180526
3534	0.00163333
3546	0.00309474
3558	0.00429825
3570	0.00404035
3582	0.00352456
3594	0.00309474
3606	0.00283684
3618	0.00369649
3630	0.00455614
3642	0.00335263
3654	0.00249298
3666	0.00352456
3678	0.00352456
3690	0.00524386
3702	0.00197719
3714	0.00618948
3726	0.00163333
3738	0.00808071
3750	0.0049
3762	0.00498597
3774	0.00575965
3786	0.00627544
3798	0.00300877
3810	0.00696316
3822	0.00773685
3834	0.00257895
3846	0.00765088
3858	0.00472807
3870	0.00593158
3882	0.00386842
3894	0.00412632
3906	0.00335263
3918	0.00601755
3930	0.0051579
3942	0.0102298
3954	0.0066193
3966	0.000945615
