Infrared Spectrum: Nonane
Formula: C 9 H 20
CAS: 111-84-2
Origin: Sadtler Research Labs Under US-EPA Contract
1/CM	ABSORBANCE
450	0.0149967
462	0.0207646
474	0.00980552
486	0.0128048
498	0.00888264
510	0.00542187
522	0.0108437
534	0.00715226
546	0.00692154
558	0.0117666
570	0.00934408
582	0.00922872
594	0.0189189
606	0.00842121
618	0.00922872
630	0.00819049
642	0.00784441
654	0.00969016
666	0.00876728
678	0.00945944
690	0.0110745
702	0.0152274
714	0.0223796
726	0.0245715
738	0.0233025
750	0.0188035
762	0.0182267
774	0.0162656
786	0.0170731
798	0.011882
810	0.0117666
822	0.011882
834	0.0125741
846	0.0132663
858	0.0123434
870	0.0122281
882	0.0143045
894	0.0160349
906	0.0132663
918	0.0121127
930	0.0131509
942	0.0114205
954	0.0117666
966	0.0119973
978	0.0126895
990	0.0128048
1002	0.0119973
1014	0.0103823
1026	0.0108437
1038	0.0115359
1050	0.011882
1062	0.0121127
1074	0.0121127
1086	0.0131509
1098	0.0114205
1110	0.00980552
1122	0.0108437
1134	0.0116513
1146	0.0111898
1158	0.00969016
1170	0.00945944
1182	0.0104977
1194	0.010613
1206	0.0104977
1218	0.0109591
1230	0.0111898
1242	0.0116513
1254	0.0132663
1266	0.013497
1278	0.0145352
1290	0.0178806
1302	0.0205339
1314	0.0198417
1326	0.0185728
1338	0.0251483
1350	0.0303394
1362	0.0291858
1374	0.0338002
1386	0.0474125
1398	0.0263019
1410	0.0183421
1422	0.0201878
1434	0.0271094
1446	0.051104
1458	0.097363
1470	0.108553
1482	0.0575641
1494	0.0245715
1506	0.0162656
1518	0.0132663
1530	0.0101516
1542	0.00911336
1554	0.00876728
1566	0.00784441
1578	0.00772905
1590	0.00738298
1602	0.00726762
1614	0.00692154
1626	0.00715226
1638	0.00680618
1650	0.00715226
1662	0.00599867
1674	0.00611403
1686	0.00634475
1698	0.00542187
1710	0.00576795
1722	0.00576795
1734	0.00519116
1746	0.0050758
1758	0.00472972
1770	0.004499
1782	0.00472972
1794	0.00472972
1806	0.004499
1818	0.00438364
1830	0.00403756
1842	0.00415292
1854	0.00415292
1866	0.00403756
1878	0.00403756
1890	0.00392221
1902	0.00369149
1914	0.00369149
1926	0.00369149
1938	0.00357613
1950	0.00357613
1962	0.00334541
1974	0.00346077
1986	0.00357613
1998	0.00346077
2010	0.00392221
2022	0.00426828
2034	0.00472972
2046	0.004499
2058	0.00415292
2070	0.00357613
2082	0.00380685
2094	0.00346077
2106	0.00334541
2118	0.00323005
2130	0.00311469
2142	0.00334541
2154	0.00311469
2166	0.00311469
2178	0.00299933
2190	0.00323005
2202	0.00334541
2214	0.00323005
2226	0.00323005
2238	0.00299933
2250	0.00311469
2262	0.00311469
2274	0.00299933
2286	0.00346077
2298	0.00392221
2310	0.00403756
2322	0.00276862
2334	0.00230718
2346	0.00311469
2358	0.00311469
2370	0.00230718
2382	0.00334541
2394	0.00311469
2406	0.00323005
2418	0.00288397
2430	0.00288397
2442	0.0025379
2454	0.00242254
2466	0.0019611
2478	0.00184574
2490	0.0019611
2502	0.00242254
2514	0.0025379
2526	0.00299933
2538	0.00392221
2550	0.00380685
2562	0.00380685
2574	0.004499
2586	0.00553723
2598	0.0064601
2610	0.0070369
2622	0.00738298
2634	0.00784441
2646	0.00876728
2658	0.0101516
2670	0.0116513
2682	0.0123434
2694	0.0115359
2706	0.010613
2718	0.010613
2730	0.0125741
2742	0.0156888
2754	0.015112
2766	0.0145352
2778	0.0160349
2790	0.0205339
2802	0.0268786
2814	0.0348384
2826	0.0467204
2838	0.0733683
2850	0.180998
2862	0.408717
2874	0.433865
2886	0.365573
2898	0.278246
2910	0.392797
2922	0.781211
2934	1.15359
2946	0.856887
2958	0.573104
2970	0.715803
2982	0.320467
2994	0.109591
3006	0.064255
3018	0.046605
3030	0.0354152
3042	0.026994
3054	0.0205339
3066	0.0175346
3078	0.015112
3090	0.0136124
3102	0.0121127
3114	0.0108437
3126	0.00980552
3138	0.00969016
3150	0.00911336
3162	0.00853657
3174	0.00819049
3186	0.00784441
3198	0.00715226
3210	0.00576795
3222	0.00461436
3234	0.00392221
3246	0.00403756
3258	0.00392221
3270	0.00357613
3282	0.00323005
3294	0.00334541
3306	0.00265326
3318	0.00323005
3330	0.00323005
3342	0.00369149
3354	0.00357613
3366	0.00346077
3378	0.00334541
3390	0.00299933
3402	0.00288397
3414	0.00323005
3426	0.00288397
3438	0.00323005
3450	0.0025379
3462	0.00276862
3474	0.00265326
3486	0.00230718
3498	0.00207646
3510	0.00242254
3522	0.00207646
3534	0.00299933
3546	0.00173039
3558	0.0019611
3570	0.00265326
3582	0.0019611
3594	0.00323005
3606	0.00276862
3618	0.00403756
3630	0.00334541
3642	0.00392221
3654	0.00426828
3666	0.00415292
3678	0.00380685
3690	0.00380685
3702	0.00369149
3714	0.00357613
3726	0.00323005
3738	0.00265326
3750	0.00380685
3762	0.00403756
3774	0.00357613
3786	0.00426828
3798	0.00346077
3810	0.00380685
3822	0.00334541
3834	0.00334541
3846	0.00219182
3858	0.00380685
3870	0.00357613
3882	0.00299933
3894	0.00438364
3906	0.00265326
3918	0.0025379
3930	0.00403756
3942	0.00426828
3954	0.00323005
3966	0.0050758
