Infrared Spectrum: Hexadecanoic acid, butyl ester
Formula: C 20 H 40 O 2
CAS: 111-06-8
Origin: Sadtler Research Labs Under US-EPA Contract
1/CM	ABSORBANCE
450	0.0230115
462	0.0272421
474	0.0117942
486	0.00384594
498	0.00724319
510	0.00782008
522	0.0061535
534	0.00429463
546	0.00423053
558	0.00185887
570	0.00955075
582	0.00775598
594	0.00346135
606	0.0064099
618	0.00705089
630	0.00519202
642	0.00532022
654	0.00429463
666	0.00282036
678	0.00532022
690	0.0063458
702	0.00916616
714	0.014871
726	0.0153197
738	0.015512
750	0.0130121
762	0.0111532
774	0.0111532
786	0.010384
798	0.0104481
810	0.0122429
822	0.010384
834	0.0118583
846	0.0114737
858	0.00993534
870	0.0109609
882	0.0112173
894	0.0111532
906	0.0112173
918	0.0113455
930	0.011666
942	0.0144223
954	0.0180118
966	0.0196143
978	0.0193579
990	0.01814
1002	0.0208322
1014	0.0281395
1026	0.0302547
1038	0.0260883
1050	0.0248063
1062	0.0339725
1074	0.040767
1086	0.0386517
1098	0.0405747
1110	0.0496767
1122	0.0548046
1134	0.0567917
1146	0.0883284
1158	0.119096
1170	0.136146
1182	0.120378
1194	0.0956998
1206	0.0834569
1218	0.080957
1230	0.08679
1242	0.0914693
1254	0.0794187
1266	0.0627529
1278	0.0525612
1290	0.045318
1302	0.044677
1314	0.0422412
1326	0.0366646
1338	0.0401901
1350	0.0506382
1362	0.0467282
1374	0.0335879
1386	0.0322418
1398	0.0244217
1410	0.0167298
1422	0.0191015
1434	0.0283959
1446	0.0383953
1458	0.060894
1470	0.0590993
1482	0.0267934
1494	0.0133967
1506	0.00948665
1518	0.00833287
1530	0.00769188
1542	0.00583301
1554	0.0065381
1566	0.00532022
1578	0.0061535
1590	0.00538432
1602	0.00557661
1614	0.00519202
1626	0.00570481
1638	0.00474333
1650	0.00512792
1662	0.00557661
1674	0.00519202
1686	0.00782008
1698	0.00999944
1710	0.0167939
1722	0.0278831
1734	0.0535227
1746	0.156081
1758	0.205437
1770	0.0663425
1782	0.0300624
1794	0.0154479
1806	0.010384
1818	0.00756368
1830	0.00544841
1842	0.00557661
1854	0.00512792
1866	0.00429463
1878	0.00448693
1890	0.00435873
1902	0.00423053
1914	0.00423053
1926	0.00397414
1938	0.00403824
1950	0.00410234
1962	0.00371774
1974	0.00371774
1986	0.00391004
1998	0.00397414
2010	0.00448693
2022	0.00455103
2034	0.00506382
2046	0.00506382
2058	0.00493562
2070	0.00480742
2082	0.00499972
2094	0.00461513
2106	0.00448693
2118	0.00448693
2130	0.00448693
2142	0.00429463
2154	0.00410234
2166	0.00410234
2178	0.00429463
2190	0.00391004
2202	0.00397414
2214	0.00391004
2226	0.00403824
2238	0.00416643
2250	0.00352544
2262	0.00371774
2274	0.00352544
2286	0.00333315
2298	0.00205117
2310	0.000897386
2322	0.000705089
2334	0.00166657
2346	0.00160247
2358	0.000512792
2370	0.00288445
2382	0.00333315
2394	0.00384594
2406	0.00358954
2418	0.00391004
2430	0.00384594
2442	0.00339725
2454	0.00358954
2466	0.00314085
2478	0.00320495
2490	0.00378184
2502	0.00358954
2514	0.00384594
2526	0.00384594
2538	0.00339725
2550	0.00384594
2562	0.00378184
2574	0.00429463
2586	0.00442283
2598	0.00474333
2610	0.00487152
2622	0.00512792
2634	0.00583301
2646	0.0064099
2658	0.00698679
2670	0.00788418
2682	0.00890976
2694	0.00858927
2706	0.00801238
2718	0.00807647
2730	0.00839697
2742	0.00942255
2754	0.00980715
2766	0.00980715
2778	0.00999944
2790	0.0125634
2802	0.0150633
2814	0.0189092
2826	0.0253191
2838	0.036921
2850	0.0779444
2862	0.236718
2874	0.181657
2886	0.133711
2898	0.124544
2910	0.191592
2922	0.345814
2934	0.64099
2946	0.413631
2958	0.233769
2970	0.24505
2982	0.123326
2994	0.055061
3006	0.0306393
3018	0.0210886
3030	0.015512
3042	0.0126275
3054	0.00967895
3066	0.00814057
3078	0.00679449
3090	0.006474
3102	0.00557661
3114	0.00512792
3126	0.00448693
3138	0.00429463
3150	0.00429463
3162	0.00410234
3174	0.00391004
3186	0.00371774
3198	0.00320495
3210	0.00288445
3222	0.00275626
3234	0.00262806
3246	0.00269216
3258	0.00294855
3270	0.00217937
3282	0.00256396
3294	0.00282036
3306	0.00301265
3318	0.00275626
3330	0.00294855
3342	0.00269216
3354	0.00294855
3366	0.00314085
3378	0.00307675
3390	0.00288445
3402	0.00288445
3414	0.00371774
3426	0.00301265
3438	0.00307675
3450	0.00378184
3462	0.00320495
3474	0.00378184
3486	0.00429463
3498	0.00346135
3510	0.00275626
3522	0.00237166
3534	0.00294855
3546	0.00173067
3558	0.00224347
3570	0.00352544
3582	0.00410234
3594	0.00198707
3606	0.00282036
3618	0.00198707
3630	0.00211527
3642	0.00211527
3654	0.00243576
3666	0.00371774
3678	0.00134608
3690	0.00173067
3702	0.00179477
3714	0.00243576
3726	0.00198707
3738	0.000961485
3750	0.00166657
3762	0.00147428
3774	0.000961485
3786	0.00339725
3798	0.00141018
3810	0.00294855
3822	0.000576891
3834	0.00185887
3846	0.00211527
3858	0.00371774
3870	0.00243576
3882	0.00108968
3894	0.00275626
3906	0.00320495
3918	0.00224347
3930	0.00217937
3942	0.00205117
3954	0.00160247
3966	0.00314085
