Infrared Spectrum: Heptanoic acid
Formula: C 7 H 14 O 2
CAS: 111-14-8
Origin: Sadtler Research Labs Under US-EPA Contract
1/CM	ABSORBANCE
450	0.0144532
462	0.0156636
474	0.0182979
486	0.0259873
498	0.0376637
510	0.049269
522	0.0491266
534	0.0565312
546	0.0862208
558	0.112066
570	0.0902791
582	0.0991788
594	0.116338
606	0.119969
618	0.11648
630	0.10993
642	0.0766802
654	0.0466347
666	0.0375925
678	0.0322527
690	0.0294048
702	0.0278384
714	0.0331071
726	0.035955
738	0.0261297
750	0.0168739
762	0.0150228
774	0.00840136
786	0.00434308
798	0.00448547
810	0.00427188
822	0.00291912
834	0.000996772
846	0.00377349
858	0.0071198
870	0.0102525
882	0.0102525
894	0.00918454
906	0.0071198
918	0.00533985
930	0.00548225
942	0.00505506
954	0.00512626
966	0.00768938
978	0.0118901
990	0.0174435
1002	0.0232817
1014	0.0294048
1026	0.0323239
1038	0.034887
1050	0.0481298
1062	0.0791722
1074	0.138267
1086	0.237303
1098	0.324307
1110	0.258947
1122	0.234028
1134	0.313485
1146	0.303731
1158	0.201063
1170	0.138124
1182	0.10936
1194	0.103237
1206	0.0933406
1218	0.0739747
1230	0.0586672
1242	0.0512626
1254	0.0487706
1266	0.0505506
1278	0.0525441
1290	0.0501946
1302	0.0437156
1314	0.0415796
1326	0.0410812
1338	0.0531849
1350	0.0661429
1362	0.0800266
1374	0.101457
1386	0.116195
1398	0.0741883
1410	0.0427188
1422	0.0406541
1434	0.0469907
1446	0.0507642
1458	0.0676381
1470	0.0645766
1482	0.0317543
1494	0.0121749
1506	0.00598063
1518	0.0034887
1530	0.00220714
1542	0.000498386
1554	0.00106797
1566	0.000498386
1578	0.00071198
1590	0.00128156
1602	0.00121037
1614	0.00135276
1626	0.00220714
1638	0.00227834
1650	0.00291912
1662	0.0036311
1674	0.00576704
1686	0.00833017
1698	0.0135988
1710	0.0247769
1722	0.0511202
1734	0.0902079
1746	0.152008
1758	0.281019
1770	0.550361
1782	0.710485
1794	0.410599
1806	0.182053
1818	0.0734763
1830	0.0295472
1842	0.01545
1854	0.00925574
1866	0.0070486
1878	0.00491266
1890	0.00427188
1902	0.00320391
1914	0.00320391
1926	0.00263433
1938	0.00277672
1950	0.00277672
1962	0.00227834
1974	0.00242073
1986	0.00199354
1998	0.00206474
2010	0.00156636
2022	0.00220714
2034	0.00170875
2046	0.00177995
2058	0.00177995
2070	0.00135276
2082	0.00149516
2094	0.00156636
2106	0.00149516
2118	0.00149516
2130	0.00185115
2142	0.00185115
2154	0.00213594
2166	0.00227834
2178	0.00270552
2190	0.00320391
2202	0.00313271
2214	0.00320391
2226	0.00299032
2238	0.00299032
2250	0.00291912
2262	0.00291912
2274	0.00234953
2286	0.00234953
2298	0.00242073
2310	0.00256313
2322	0.00206474
2334	0.00149516
2346	0.00156636
2358	0.00177995
2370	0.00071198
2382	0.00199354
2394	0.00234953
2406	0.00234953
2418	0.00242073
2430	0.00206474
2442	0.00220714
2454	0.00163755
2466	0.00163755
2478	0.00156636
2490	0.00121037
2502	0.00156636
2514	0.00106797
2526	0.00199354
2538	0.00192235
2550	0.00206474
2562	0.00213594
2574	0.00270552
2586	0.00213594
2598	0.00249193
2610	0.00270552
2622	0.00320391
2634	0.00320391
2646	0.00434308
2658	0.00491266
2670	0.00491266
2682	0.00583824
2694	0.00548225
2706	0.00548225
2718	0.00491266
2730	0.00590943
2742	0.00747579
2754	0.00747579
2766	0.0070486
2778	0.00747579
2790	0.00954053
2802	0.0127444
2814	0.0162331
2826	0.022285
2838	0.0333207
2850	0.0690621
2862	0.149231
2874	0.200992
2886	0.186183
2898	0.136914
2910	0.172157
2922	0.291413
2934	0.434593
2946	0.447408
2958	0.366314
2970	0.380696
2982	0.208254
2994	0.0798842
3006	0.0428612
3018	0.0288352
3030	0.0218578
3042	0.0177995
3054	0.0145956
3066	0.012958
3078	0.0116765
3090	0.0112493
3102	0.0102525
3114	0.00968293
3126	0.00925574
3138	0.00904215
3150	0.00854376
3162	0.00889975
3174	0.00833017
3186	0.00747579
3198	0.00747579
3210	0.00647902
3222	0.00612303
3234	0.00562464
3246	0.00484146
3258	0.00455667
3270	0.00427188
3282	0.00377349
3294	0.00284792
3306	0.00277672
3318	0.00327511
3330	0.00234953
3342	0.00242073
3354	0.00206474
3366	0.00185115
3378	0.00192235
3390	0.00206474
3402	0.00142396
3414	0.00213594
3426	0.00177995
3438	0.00177995
3450	0.00206474
3462	0.00206474
3474	0.00227834
3486	0.0034175
3498	0.00306151
3510	0.00541105
3522	0.0070486
3534	0.0109645
3546	0.0158772
3558	0.0307575
3570	0.156351
3582	0.251044
3594	0.0554632
3606	0.0148092
3618	0.00783178
3630	0.00683501
3642	0.00412948
3654	0.00541105
3666	0.00234953
3678	0.00427188
3690	0.00484146
3702	0.00320391
3714	0.00562464
3726	0.00526865
3738	0.00541105
3750	0.00690621
3762	0.00313271
3774	0.00177995
3786	0.00263433
3798	0.0034175
3810	0.00299032
3822	0.00391589
3834	0.00320391
3846	0.00199354
3858	0.00391589
3870	0.00484146
3882	0.00526865
3894	0.00270552
3906	0.00548225
3918	0.00306151
3930	0.00242073
3942	0.00242073
3954	0.00220714
3966	0.00242073
