Infrared Spectrum: Butane, 1-(ethenyloxy)-
Formula: C 6 H 12 O
CAS: 111-34-2
Origin: Sadtler Research Labs Under US-EPA Contract
1/CM	ABSORBANCE
450	0.0606362
462	0.012714
474	0.0161914
486	0.015322
498	0.0182561
510	0.0164087
522	0.00293401
534	0.0170607
546	0.00554202
558	0
570	0.00608535
582	0.00815002
594	0.00891069
606	0.0108667
618	0.00347734
630	0.00836736
642	0.00662869
654	0.00575935
666	0.00652002
678	0.0098887
690	0.015974
702	0.0207554
714	0.0178214
726	0.0163
738	0.0244501
750	0.0309701
762	0.0311874
774	0.0341214
786	0.0499868
798	0.108124
810	0.202773
822	0.237003
834	0.194623
846	0.13942
858	0.0873683
870	0.0652002
882	0.0657435
894	0.0653089
906	0.0653089
918	0.0736762
930	0.0957356
942	0.137138
954	0.166152
966	0.180605
978	0.176584
990	0.145505
1002	0.12149
1014	0.144962
1026	0.173976
1038	0.163435
1050	0.140398
1062	0.155937
1074	0.238198
1086	0.281665
1098	0.184299
1110	0.14181
1122	0.207119
1134	0.251129
1146	0.24537
1158	0.264821
1170	0.382725
1182	0.561156
1194	0.809895
1206	1.08667
1218	0.750237
1230	0.200382
1242	0.132574
1254	0.107146
1266	0.0970396
1278	0.0806309
1290	0.0652002
1302	0.0894329
1314	0.243088
1326	0.300247
1338	0.12638
1350	0.0621575
1362	0.0954096
1374	0.181583
1386	0.161153
1398	0.0776969
1410	0.0477048
1422	0.0410761
1434	0.0446621
1446	0.0619402
1458	0.0924756
1470	0.133008
1482	0.115513
1494	0.0572675
1506	0.0379248
1518	0.0340128
1530	0.0319481
1542	0.0309701
1554	0.0291228
1566	0.0334694
1578	0.0544422
1590	0.125076
1602	0.348604
1614	0.578543
1626	0.488784
1638	0.554962
1650	0.524862
1662	0.264061
1674	0.11899
1686	0.0613969
1698	0.0309701
1710	0.0217334
1722	0.0246674
1734	0.0384681
1746	0.0761756
1758	0.0780229
1770	0.0447708
1782	0.0244501
1794	0.0164087
1806	0.0103234
1818	0.00641135
1830	0.00510735
1842	0.00499868
1854	0.00521602
1866	0.00825869
1878	0.011736
1890	0.00934536
1902	0.00934536
1914	0.0119534
1926	0.0106494
1938	0.00934536
1950	0.00880203
1962	0.00738936
1974	0.00641135
1986	0.00554202
1998	0.00575935
2010	0.00608535
2022	0.00641135
2034	0.00684602
2046	0.00641135
2058	0.00532468
2070	0.00608535
2082	0.00706335
2094	0.00804136
2106	0.00825869
2118	0.00793269
2130	0.00793269
2142	0.0108667
2154	0.0119534
2166	0.00869336
2178	0.00641135
2190	0.00510735
2202	0.00467268
2214	0.00402068
2226	0.00369468
2238	0.00336868
2250	0.00402068
2262	0.00467268
2274	0.00467268
2286	0.00391201
2298	0.00163
2310	0.000217334
2322	0.000543335
2334	0
2346	0
2358	0
2370	0
2382	0.00163
2394	0.00684602
2406	0.00619402
2418	0.00565068
2430	0.00554202
2442	0.00521602
2454	0.00543335
2466	0.00543335
2478	0.00543335
2490	0.00586802
2502	0.00652002
2514	0.00760669
2526	0.00793269
2538	0.00738936
2550	0.00652002
2562	0.00749802
2574	0.00717202
2586	0.00782402
2598	0.00793269
2610	0.00695469
2622	0.00728069
2634	0.00749802
2646	0.00728069
2658	0.00749802
2670	0.00967136
2682	0.012714
2694	0.0141267
2706	0.0161914
2718	0.0182561
2730	0.0221681
2742	0.0247761
2754	0.0245587
2766	0.0244501
2778	0.0257541
2790	0.0287968
2802	0.0378161
2814	0.0455315
2826	0.0537902
2838	0.0710682
2850	0.117143
2862	0.201686
2874	0.333608
2886	0.426409
2898	0.386311
2910	0.384464
2922	0.460205
2934	0.566481
2946	0.686667
2958	0.708183
2970	0.76306
2982	0.529534
2994	0.206467
3006	0.0916063
3018	0.0654175
3030	0.0606362
3042	0.0538988
3054	0.0604189
3066	0.0545508
3078	0.0424888
3090	0.0391201
3102	0.0310788
3114	0.0477048
3126	0.0819349
3138	0.0537902
3150	0.0171694
3162	0.0106494
3174	0.010106
3186	0.00945403
3198	0.00717202
3210	0.00565068
3222	0.00608535
3234	0.00391201
3246	0.00380334
3258	0.00489002
3270	0.00239067
3282	0.00358601
3294	0.00467268
3306	0.00271667
3318	0.00304268
3330	0.00184734
3342	0.00271667
3354	0.00195601
3366	0.000760669
3378	0.00152134
3390	0.001304
3402	0.00402068
3414	0.00163
3426	0.00271667
3438	0.00271667
3450	0.00380334
3462	0.00412935
3474	0.00304268
3486	0.000652002
3498	0.00141267
3510	0.00239067
3522	0.00206467
3534	0.00108667
3546	0.00326001
3558	0.000869336
3570	0
3582	0.00217334
3594	0.00358601
3606	0.00347734
3618	0.00217334
3630	0.00532468
3642	0.00152134
3654	0.00489002
3666	0.00641135
3678	0.00717202
3690	0.00206467
3702	0.00206467
3714	0.00358601
3726	0.000326001
3738	0.00228201
3750	0.00173867
3762	0.00510735
3774	0.00206467
3786	0.000869336
3798	0.00380334
3810	0.00434668
3822	0.00554202
3834	0
3846	0.00467268
3858	0.000543335
3870	0.00304268
3882	0.00499868
3894	0.00249934
3906	0.00141267
3918	0.000978003
3930	0.00163
3942	0.000978003
3954	0.00467268
3966	0.00326001
