Infrared Spectrum: 1,2-Ethanediol, diacetate
Formula: C 6 H 10 O 4
CAS: 111-55-7
Origin: Sadtler Research Labs Under US-EPA Contract
1/CM	ABSORBANCE
450	0.00344749
462	0.00344749
474	0.00377069
486	0.00457869
498	0.00387842
510	0.00220855
522	0.00258562
534	0.00269335
546	0.000323202
558	0.00145441
570	0.00161601
582	0.00500963
594	0.00888805
606	0.0140054
618	0.0120662
630	0.0130897
642	0.0127126
654	0.0052251
666	0.00317815
678	0.00404003
690	0.00301655
702	0.00323202
714	0.00263948
726	0.00307042
738	0.00323202
750	0.00328589
762	0.00398616
774	0.00404003
786	0.00673337
798	0.00845712
810	0.00915739
822	0.00974993
834	0.0108273
846	0.0129819
858	0.0139516
870	0.0121201
882	0.00921126
894	0.00926512
906	0.0124971
918	0.014975
930	0.0156214
942	0.0190151
954	0.0251559
966	0.025533
978	0.0180993
990	0.0223009
1002	0.0266103
1014	0.0196615
1026	0.0244556
1038	0.047403
1050	0.0872107
1062	0.0981457
1074	0.0801541
1086	0.0601156
1098	0.035229
1110	0.0194999
1122	0.0128203
1134	0.0105041
1146	0.00894192
1158	0.0104502
1170	0.0137361
1182	0.02187
1194	0.0502579
1206	0.191874
1218	0.524288
1230	0.356384
1242	0.188642
1254	0.128634
1266	0.0875339
1278	0.0706735
1290	0.0470259
1302	0.0240247
1314	0.0144364
1326	0.0130897
1338	0.012551
1350	0.0178838
1362	0.0471336
1374	0.0896347
1386	0.073313
1398	0.0276338
1410	0.0183148
1422	0.0150289
1434	0.0187996
1446	0.0238631
1458	0.0232167
1470	0.0165372
1482	0.0108811
1494	0.00856485
1506	0.00797232
1518	0.00662564
1530	0.00560217
1542	0.00614084
1554	0.00581764
1566	0.00484803
1578	0.00527897
1590	0.00371682
1602	0.00387842
1614	0.00387842
1626	0.00420163
1638	0.00527897
1650	0.00517123
1662	0.00549443
1674	0.00527897
1686	0.00581764
1698	0.00737978
1710	0.0120662
1722	0.020254
1734	0.0330743
1746	0.0740671
1758	0.221609
1770	0.346957
1782	0.167957
1794	0.0578532
1806	0.0240785
1818	0.014598
1830	0.00878032
1842	0.00565603
1854	0.00447096
1866	0.00382456
1878	0.00398616
1890	0.00382456
1902	0.00333975
1914	0.00285495
1926	0.00280108
1938	0.00210081
1950	0.00237015
1962	0.00231628
1974	0.00193921
1986	0.00226241
1998	0.00258562
2010	0.00274722
2022	0.00323202
2034	0.00387842
2046	0.00323202
2058	0.00328589
2070	0.00274722
2082	0.00269335
2094	0.00274722
2106	0.00247788
2118	0.00215468
2130	0.00166988
2142	0.00166988
2154	0.00123894
2166	0.00113121
2178	0.00113121
2190	0.00156214
2202	0.00156214
2214	0.00156214
2226	0.00150828
2238	0.000969606
2250	0.00102347
2262	0.000969606
2274	0.00113121
2286	0.00134667
2298	0.00134667
2310	0.000969606
2322	0.00150828
2334	0.000700271
2346	0.000269335
2358	0.00166988
2370	5.3867e-05
2382	0.000808005
2394	0.000915739
2406	0.00123894
2418	0.00113121
2430	0.000808005
2442	0.000754138
2454	0.00123894
2466	0.00123894
2478	0.000969606
2490	0.000646404
2502	0.000646404
2514	0.000107734
2526	0.000592537
2538	0.000592537
2550	0.000646404
2562	0.000592537
2574	0.000592537
2586	0.000592537
2598	0.000754138
2610	0.00053867
2622	0.00053867
2634	0.000430936
2646	0.000700271
2658	0.000484803
2670	0
2682	0.000430936
2694	0.000430936
2706	0.000808005
2718	0.000430936
2730	0.000484803
2742	0.000808005
2754	0.000700271
2766	0.000969606
2778	0.000915739
2790	0.00150828
2802	0.00140054
2814	0.00140054
2826	0.00140054
2838	0.00150828
2850	0.00204695
2862	0.00280108
2874	0.00377069
2886	0.00533283
2898	0.00581764
2910	0.00689498
2922	0.00641017
2934	0.00813392
2946	0.0161601
2958	0.0296807
2970	0.0309735
2982	0.0218161
2994	0.0162678
3006	0.0127126
3018	0.00824165
3030	0.00662564
3042	0.00549443
3054	0.00495576
3066	0.00393229
3078	0.00393229
3090	0.00301655
3102	0.00247788
3114	0.00204695
3126	0.00204695
3138	0.00150828
3150	0.00053867
3162	0.00150828
3174	0.00113121
3186	0.00107734
3198	0.00102347
3210	0.000969606
3222	0.00053867
3234	0.00107734
3246	0.000915739
3258	0.000646404
3270	0.00156214
3282	0.00107734
3294	0.000808005
3306	0.00134667
3318	0.00102347
3330	0.00156214
3342	0.00118507
3354	0.00053867
3366	0.00161601
3378	0.00102347
3390	0.00107734
3402	0.000861872
3414	0.00156214
3426	0.000484803
3438	0.00107734
3450	0.00140054
3462	0.00210081
3474	0.00156214
3486	0.00150828
3498	0.00258562
3510	0.00360909
3522	0.00339362
3534	0.00215468
3546	0.00172374
3558	0.000808005
3570	0.00113121
3582	0.00188534
3594	0.00193921
3606	0.00156214
3618	0.00172374
3630	0.00237015
3642	0.00161601
3654	0.00166988
3666	0.00296269
3678	0.00242401
3690	0.00215468
3702	0.00140054
3714	0.00118507
3726	0.00166988
3738	0.00172374
3750	0.00193921
3762	0.00166988
3774	0.00140054
3786	0.00177761
3798	0.00183148
3810	0.00193921
3822	0.00129281
3834	0.00247788
3846	0.00215468
3858	0.00161601
3870	0.00193921
3882	0.00140054
3894	0.00140054
3906	0.000969606
3918	0.00231628
3930	0.000915739
3942	0.00102347
3954	0.000969606
3966	0.000323202
