Infrared Spectrum: Butane, 1-isocyanato-
Formula: C 5 H 9 N O
CAS: 111-36-4
Origin: Sadtler Research Labs Under US-EPA Contract
1/CM	ABSORBANCE
450	0.00441665
462	0.0083033
474	0.0104233
486	0.00847997
498	0.00697831
510	0.00494665
522	0.000264999
534	0.00432832
546	0.00273832
558	0.00450498
570	0.00565331
582	0.0105116
594	0.0296799
606	0.0298566
618	0.0317115
630	0.0209349
642	0.0191683
654	0.0163416
666	0.0136033
678	0.01113
690	0.0156349
702	0.0112183
714	0.00476998
726	0.00194333
738	0.00432832
750	0.00370999
762	0.00494665
774	0.00362165
786	0.00423998
798	0.0110416
810	0.0114833
822	0.00582998
834	0.00450498
846	0.00503498
858	0.0085683
870	0.0152816
882	0.0137799
894	0.00918663
906	0.0088333
918	0.00547665
930	0.00141333
942	0.00211999
954	0.00238499
966	0.00211999
978	0.00273832
990	0.00326832
1002	0.00335665
1014	0.00247332
1026	0.00114833
1038	0.000971663
1050	0.00229666
1062	0.00247332
1074	0.00220832
1086	0.00123666
1098	0.00256166
1110	0.00459332
1122	0.00680164
1134	0.00468165
1146	0.00326832
1158	0.00220832
1170	0.00158999
1182	0.00106
1194	0.00167833
1206	0.00273832
1218	0.00379832
1230	0.00459332
1242	0.00485832
1254	0.00370999
1266	0.00521165
1278	0.00529998
1290	0.00344499
1302	0.00582998
1314	0.00998163
1326	0.0128966
1338	0.0208466
1350	0.0346265
1362	0.0448732
1374	0.0357749
1386	0.0179316
1398	0.011395
1410	0.00741997
1422	0.010865
1434	0.0166949
1446	0.0195216
1458	0.0224366
1470	0.0247332
1482	0.0196983
1494	0.00900997
1506	0.00635998
1518	0.00529998
1530	0.00370999
1542	0.00291499
1554	0.00264999
1566	0.00194333
1578	0.00211999
1590	0.00194333
1602	0.00176666
1614	0.00158999
1626	0.000706664
1638	0.00150166
1650	0.00088333
1662	0.00123666
1674	0.00114833
1686	0.00158999
1698	0.00123666
1710	0.00203166
1722	0.00432832
1734	0.00291499
1746	0.00141333
1758	0.00211999
1770	0.00300332
1782	0.00238499
1794	0.00353332
1806	0.00247332
1818	0.00194333
1830	0.00229666
1842	0.00158999
1854	0.00158999
1866	0.00229666
1878	0.00220832
1890	0.00326832
1902	0.00326832
1914	0.00273832
1926	0.00273832
1938	0.00362165
1950	0.00362165
1962	0.00432832
1974	0.00423998
1986	0.00326832
1998	0.00335665
2010	0.00344499
2022	0.00264999
2034	0.00326832
2046	0.00326832
2058	0.00229666
2070	0.00503498
2082	0.0075083
2094	0.00927496
2106	0.0098933
2118	0.0113066
2130	0.0117483
2142	0.01272
2154	0.0158116
2166	0.0210233
2178	0.0276482
2190	0.0366582
2202	0.0542365
2214	0.0844463
2226	0.133118
2238	0.200869
2250	0.319059
2262	0.599958
2274	0.861512
2286	0.742792
2298	0.452353
2310	0.252809
2322	0.180641
2334	0.137888
2346	0.127641
2358	0.149548
2370	0.108385
2382	0.0529115
2394	0.0208466
2406	0.0176666
2418	0.0161649
2430	0.0137799
2442	0.0107766
2454	0.00821497
2466	0.00706664
2478	0.00503498
2490	0.00432832
2502	0.00300332
2514	0.00150166
2526	0.00194333
2538	0.00238499
2550	0.00185499
2562	0.00123666
2574	0.000618331
2586	0.000618331
2598	0.00158999
2610	0.00150166
2622	0.00300332
2634	0.00344499
2646	0.00397498
2658	0.00291499
2670	0.00344499
2682	0.00335665
2694	0.00141333
2706	0.00158999
2718	0.00123666
2730	0.001325
2742	0.00211999
2754	0.00194333
2766	0.00158999
2778	0.00203166
2790	0.00256166
2802	0.00282666
2814	0.00300332
2826	0.00441665
2838	0.00715497
2850	0.011925
2862	0.0216416
2874	0.0355099
2886	0.0514981
2898	0.0499081
2910	0.0447848
2922	0.0556498
2934	0.0787047
2946	0.107148
2958	0.122076
2970	0.127288
2982	0.0894813
2994	0.0348032
3006	0.0137799
3018	0.00892163
3030	0.00627164
3042	0.00485832
3054	0.00379832
3066	0.00379832
3078	0.00397498
3090	0.00353332
3102	0.00309166
3114	0.00344499
3126	0.00335665
3138	0.00397498
3150	0.00264999
3162	0.00220832
3174	0.00335665
3186	0.00379832
3198	0.00220832
3210	0.00185499
3222	0.00150166
3234	0.00167833
3246	0.000794997
3258	8.8333e-05
3270	0.00106
3282	0.000353332
3294	0.00167833
3306	0.00229666
3318	0.00194333
3330	0.00220832
3342	0.00114833
3354	0.00256166
3366	0.000264999
3378	0.001325
3390	0.00256166
3402	0.00211999
3414	0.00309166
3426	0.00185499
3438	0.00185499
3450	0.00194333
3462	0.00300332
3474	0.00282666
3486	0.00247332
3498	0.000618331
3510	0.00203166
3522	0.00317999
3534	0.00300332
3546	0.00326832
3558	0.00379832
3570	0.00441665
3582	0.00388665
3594	0.00459332
3606	0.00326832
3618	0.00565331
3630	0.00706664
3642	0.00662497
3654	0.0090983
3666	0.00971663
3678	0.00971663
3690	0.0096283
3702	0.011395
3714	0.0096283
3726	0.00945163
3738	0.01113
3750	0.00794997
3762	0.0080383
3774	0.00812664
3786	0.00759664
3798	0.00706664
3810	0.00627164
3822	0.0080383
3834	0.00724331
3846	0.00680164
3858	0.00768497
3870	0.00715497
3882	0.00591831
3894	0.00706664
3906	0.00768497
3918	0.00794997
3930	0.00644831
3942	0.00485832
3954	0.00591831
3966	0.00432832
