Infrared Spectrum: Thiodiglycol
Formula: C 4 H 10 O 2 S
CAS: 111-48-8
Origin: Sadtler Research Labs Under US-EPA Contract
1/CM	ABSORBANCE
450	0
462	0.0848644
474	0.0919304
486	0.0783812
498	0.0630838
510	0.0425415
522	0.0330716
534	0.0388992
546	0.0394091
558	0.0391178
570	0.0299393
582	0.0402833
594	0.0264427
606	0.0342372
618	0.031469
630	0.0395548
642	0.0336544
654	0.0289923
666	0.0345285
678	0.0403561
690	0.0357669
702	0.0361311
714	0.0349656
726	0.0348928
738	0.044654
750	0.0466936
762	0.0567463
774	0.0547066
786	0.0409389
798	0.0633752
810	0.0655605
822	0.056382
834	0.0523756
846	0.0488061
858	0.0430514
870	0.0537596
882	0.0579118
894	0.0553622
906	0.0574019
918	0.0943343
930	0.132578
942	0.120413
954	0.0924403
966	0.0913476
978	0.109268
990	0.145399
1002	0.205496
1014	0.294512
1026	0.447123
1038	0.657718
1050	0.696107
1062	0.72845
1074	0.589753
1086	0.288175
1098	0.150134
1110	0.133671
1122	0.161279
1134	0.155815
1146	0.129518
1158	0.125949
1170	0.158584
1182	0.166597
1194	0.1352
1206	0.119539
1218	0.108903
1230	0.107082
1242	0.105917
1254	0.123837
1266	0.163974
1278	0.178325
1290	0.161497
1302	0.135565
1314	0.120486
1326	0.122744
1338	0.144597
1350	0.135856
1362	0.142558
1374	0.209429
1386	0.293201
1398	0.268871
1410	0.195807
1422	0.16849
1434	0.123545
1446	0.0835532
1458	0.0759773
1470	0.0836989
1482	0.0716795
1494	0.0507001
1506	0.0426872
1518	0.0392635
1530	0.033363
1542	0.0334359
1554	0.0321975
1566	0.0294294
1578	0.0292108
1590	0.0292108
1602	0.0317604
1614	0.0306677
1626	0.0281182
1638	0.0297936
1650	0.030085
1662	0.0254957
1674	0.0282639
1686	0.0283367
1698	0.027244
1710	0.0293565
1722	0.0297208
1734	0.0294294
1746	0.0289195
1758	0.0300121
1770	0.0303764
1782	0.0278268
1794	0.0265884
1806	0.0278996
1818	0.0274626
1830	0.0268798
1842	0.02586
1854	0.0261514
1866	0.0294294
1878	0.0276811
1890	0.0284824
1902	0.028191
1914	0.0262242
1926	0.0270983
1938	0.0261514
1950	0.0254957
1962	0.0260785
1974	0.026807
1986	0.0275354
1998	0.0277539
2010	0.0284824
2022	0.0297936
2034	0.0302307
2046	0.0303764
2058	0.0299393
2070	0.0294294
2082	0.0287009
2094	0.0287009
2106	0.0284824
2118	0.0285552
2130	0.028191
2142	0.0268798
2154	0.0262242
2166	0.0259328
2178	0.0259328
2190	0.0263699
2202	0.0268798
2214	0.0271712
2226	0.0273169
2238	0.0271712
2250	0.026807
2262	0.0263699
2274	0.0254229
2286	0.0255686
2298	0.026297
2310	0.02586
2322	0.02586
2334	0.0253501
2346	0.0252044
2358	0.0265884
2370	0.0255686
2382	0.0265884
2394	0.026807
2406	0.027244
2418	0.0273897
2430	0.028191
2442	0.0281182
2454	0.0278996
2466	0.0273897
2478	0.0262242
2490	0.0256414
2502	0.0254957
2514	0.0256414
2526	0.0252044
2538	0.0253501
2550	0.0252044
2562	0.0247673
2574	0.0246216
2586	0.0250587
2598	0.0255686
2610	0.0261514
2622	0.0266613
2634	0.0277539
2646	0.029138
2658	0.0308863
2670	0.033363
2682	0.0345285
2694	0.0360583
2706	0.0377337
2718	0.0402833
2730	0.0425415
2742	0.0442898
2754	0.0450911
2766	0.046548
2778	0.0474949
2790	0.0506273
2802	0.057329
2814	0.065779
2826	0.0752489
2838	0.090255
2850	0.119757
2862	0.194642
2874	0.325326
2886	0.343756
2898	0.268434
2910	0.284096
2922	0.4217
2934	0.494035
2946	0.427746
2958	0.397078
2970	0.317094
2982	0.173153
2994	0.0890894
3006	0.0560906
3018	0.0422501
3030	0.036204
3042	0.0330716
3054	0.0306677
3066	0.0297936
3078	0.028191
3090	0.0266613
3102	0.0262242
3114	0.0254957
3126	0.0254229
3138	0.0260785
3150	0.02586
3162	0.026297
3174	0.0266613
3186	0.0270255
3198	0.0277539
3210	0.0278996
3222	0.0278996
3234	0.0277539
3246	0.0277539
3258	0.0280453
3270	0.0281182
3282	0.0287738
3294	0.0288466
3306	0.0297936
3318	0.0298664
3330	0.0306677
3342	0.0311048
3354	0.0326346
3366	0.0346014
3378	0.0348928
3390	0.0368596
3402	0.0380251
3414	0.038535
3426	0.0402833
3438	0.0405747
3450	0.0430514
3462	0.0442898
3474	0.0442898
3486	0.044654
3498	0.0463294
3510	0.0496803
3522	0.0595872
3534	0.0658519
3546	0.0765601
3558	0.083189
3570	0.113201
3582	0.110652
3594	0.105771
3606	0.0898179
3618	0.0758316
3630	0.0716795
3642	0.0704411
3654	0.112764
3666	0.151663
3678	0.11932
3690	0.0641036
3702	0.0420316
3714	0.0377337
3726	0.0339458
3738	0.0331445
3750	0.0311777
3762	0.0245488
3774	0.0245488
3786	0.0245488
3798	0.0245488
3810	0.0245488
3822	0.0245488
3834	0.0245488
3846	0.0245488
3858	0.0245488
3870	0.0245488
3882	0.0245488
3894	0.0245488
3906	0.0245488
3918	0.0245488
3930	0.0245488
3942	0.0245488
3954	0.0245488
3966	0.0245488
