Infrared Spectrum: 2-Ethoxyethyl acetate
Formula: C 6 H 12 O 3
CAS: 111-15-9
Origin: Sadtler Research Labs Under US-EPA Contract
1/CM	ABSORBANCE
450	0.0075342
462	0.0101712
474	0.00602736
486	0.0220752
498	0.011904
510	0.0247122
522	0.0282533
534	0.017404
546	0.00399313
558	0.0100958
570	0.0184588
582	0.0107739
594	0.0213971
606	0.0181574
618	0.0165752
630	0.02863
642	0.0232053
654	0.0174793
666	0.00813694
678	0.00760954
690	0.00956843
702	0.0125068
714	0.00730817
726	0.0122807
738	0.0118287
750	0.0120547
762	0.0108492
774	0.0152191
786	0.017404
798	0.020267
810	0.0225273
822	0.0244861
834	0.0277259
846	0.037671
858	0.037897
870	0.0329245
882	0.0273491
894	0.0254656
906	0.0258423
918	0.0308149
930	0.0328491
942	0.040308
954	0.0507805
966	0.0404587
978	0.0287806
990	0.0299861
1002	0.0384244
1014	0.0500271
1026	0.0799379
1038	0.129513
1050	0.183759
1062	0.224444
1074	0.179465
1086	0.127479
1098	0.113917
1110	0.138027
1122	0.213519
1134	0.329772
1146	0.309053
1158	0.146616
1170	0.0904104
1182	0.0792598
1194	0.0733078
1206	0.117006
1218	0.274019
1230	0.677626
1242	0.655249
1254	0.306115
1266	0.16515
1278	0.119643
1290	0.0840817
1302	0.0574859
1314	0.0391025
1326	0.031719
1338	0.0330751
1350	0.0623832
1362	0.110828
1374	0.155732
1386	0.163718
1398	0.109698
1410	0.0503285
1422	0.0415134
1434	0.0435477
1446	0.0538695
1458	0.0601983
1470	0.0466367
1482	0.0329245
1494	0.0279519
1506	0.0238081
1518	0.0193629
1530	0.0156711
1542	0.017404
1554	0.0152191
1566	0.014089
1578	0.0131848
1590	0.0125821
1602	0.0100958
1614	0.00949309
1626	0.0107739
1638	0.0138629
1650	0.0135616
1662	0.0133355
1674	0.0141643
1686	0.0155205
1698	0.0167259
1710	0.0204177
1722	0.0329998
1734	0.0619311
1746	0.154978
1758	0.398107
1770	0.456949
1782	0.19717
1794	0.0760201
1806	0.0369176
1818	0.0208697
1830	0.0139383
1842	0.0100205
1854	0.00904104
1866	0.0089657
1878	0.00889036
1890	0.00813694
1902	0.00836296
1914	0.00791091
1926	0.00836296
1938	0.00776023
1950	0.00708215
1962	0.0075342
1974	0.00745886
1986	0.00700681
1998	0.00730817
2010	0.00715749
2022	0.00760954
2034	0.00693146
2046	0.0066301
2058	0.00587668
2070	0.0066301
2082	0.00715749
2094	0.00708215
2106	0.00587668
2118	0.00482189
2130	0.00482189
2142	0.0046712
2154	0.00414381
2166	0.00399313
2178	0.00391778
2190	0.00323971
2202	0.00369176
2214	0.00331505
2226	0.00293834
2238	0.00346573
2250	0.00323971
2262	0.00354107
2274	0.00293834
2286	0.00308902
2298	0.0023356
2310	0.00075342
2322	0.000301368
2334	0.000301368
2346	0.000301368
2358	0.000301368
2370	0.000301368
2382	0.00180821
2394	0.00308902
2406	0.00323971
2418	0.00421915
2430	0.00369176
2442	0.0037671
2454	0.00421915
2466	0.00421915
2478	0.00459586
2490	0.00414381
2502	0.00339039
2514	0.00323971
2526	0.00339039
2538	0.002863
2550	0.00293834
2562	0.00391778
2574	0.00384244
2586	0.00399313
2598	0.00595202
2610	0.00595202
2622	0.00527394
2634	0.00557531
2646	0.00632873
2658	0.0061027
2670	0.00632873
2682	0.00693146
2694	0.00858899
2706	0.0109999
2718	0.0123561
2730	0.0133355
2742	0.0149177
2754	0.0154451
2766	0.0158972
2778	0.0173287
2790	0.0209451
2802	0.0248629
2814	0.029308
2826	0.0351094
2838	0.0437737
2850	0.0689379
2862	0.113465
2874	0.153622
2886	0.146842
2898	0.115273
2910	0.0937254
2922	0.080842
2934	0.0908625
2946	0.11776
2958	0.124088
2970	0.128835
2982	0.154074
2994	0.121828
3006	0.0587668
3018	0.0317943
3030	0.0216232
3042	0.0171026
3054	0.014089
3066	0.0104725
3078	0.00813694
3090	0.00768488
3102	0.0061027
3114	0.00504791
3126	0.00452052
3138	0.00316436
3150	0.00316436
3162	0.00248629
3174	0.00256163
3186	0.00301368
3198	0.00195889
3210	0.00354107
3222	0.00248629
3234	0.00188355
3246	0.00226026
3258	0.00188355
3270	0.00316436
3282	0.00165752
3294	0.00113013
3306	0.00180821
3318	0.00218492
3330	0.00150684
3342	0.00165752
3354	0.0014315
3366	0.00173287
3378	0.00158218
3390	0.00256163
3402	0.00293834
3414	0.00218492
3426	0.00256163
3438	0.00158218
3450	0.000979446
3462	0.002863
3474	0.0023356
3486	0.00263697
3498	0.0051986
3510	0.0051986
3522	0.00414381
3534	0.00263697
3546	0.00323971
3558	0.00316436
3570	0.00218492
3582	0.002863
3594	0.00263697
3606	0.00331505
3618	0.00339039
3630	0.00436984
3642	0.00429449
3654	0.00369176
3666	0.00165752
3678	0.00346573
3690	0.00248629
3702	0.000301368
3714	0.00075342
3726	0.000602736
3738	0.00248629
3750	0.00128081
3762	0.000828762
3774	0.000301368
3786	0.000828762
3798	0.000301368
3810	0.000301368
3822	0.00037671
3834	0.000828762
3846	0.00105479
3858	0.000301368
3870	0.000301368
3882	0.000301368
3894	0.000301368
3906	0.00037671
3918	0.000301368
3930	0.000301368
3942	0.000904104
3954	0.000301368
3966	0.000301368
