Infrared Spectrum: Diethanolamine
Formula: C 4 H 11 N O 2
CAS: 111-42-2
Origin: Sadtler Research Labs Under US-EPA Contract
1/CM	ABSORBANCE
450	0.0212558
462	0.0293146
474	0.0318567
486	0.0142787
498	0.0278002
510	0.0253663
522	0.0397532
534	0.019525
546	0.0371571
558	0.0221212
570	0.0146032
582	0.0115744
594	0.00827516
606	0.00027043
618	0.00454322
630	0.00730161
642	0.017632
654	0.0196332
666	0.0232029
678	0.0349396
690	0.0481906
702	0.0620907
714	0.0693383
726	0.0742601
738	0.0699332
750	0.0720966
762	0.0653359
774	0.0472171
786	0.0365621
798	0.024501
810	0.0121693
822	0.0054086
834	0.01006
846	0.0184433
858	0.0326139
870	0.054735
882	0.0726916
894	0.0732324
906	0.0715017
918	0.0481906
930	0.0375898
942	0.0210395
954	0.0164421
966	0.0164421
978	0.0174157
990	0.0398614
1002	0.0808045
1014	0.14998
1026	0.254637
1038	0.410621
1050	0.54086
1062	0.511545
1074	0.416624
1086	0.29174
1098	0.181999
1110	0.136783
1122	0.146194
1134	0.181567
1146	0.171453
1158	0.120612
1170	0.0899991
1182	0.0891878
1194	0.0893501
1206	0.0909727
1218	0.0856722
1230	0.0746387
1242	0.0639837
1254	0.0560872
1266	0.0611172
1278	0.0600895
1290	0.0597109
1302	0.0595487
1314	0.0673371
1326	0.0803177
1338	0.114716
1350	0.135215
1362	0.122451
1374	0.1092
1386	0.124344
1398	0.151873
1410	0.142571
1422	0.100492
1434	0.0844823
1446	0.110227
1458	0.168748
1470	0.170425
1482	0.0918921
1494	0.0391583
1506	0.0190383
1518	0.0121153
1530	0.00946505
1542	0.00297473
1554	0.00535451
1566	0.00827516
1578	0.0101141
1590	0.00946505
1602	0.0131429
1614	0.0151982
1626	0.0160095
1638	0.0137919
1650	0.00654441
1662	0.0081129
1674	0.00941096
1686	0.00497591
1698	0.00719344
1710	0.0084915
1722	0.00373193
1734	0.00324516
1746	0.00584129
1758	0.00632806
1770	0.00546269
1782	0.00356968
1794	0.00438097
1806	0.00319107
1818	0.0034615
1830	0.00411054
1842	0.00486774
1854	0.00557086
1866	0.00562494
1878	0.00589537
1890	0.0054086
1902	0.00584129
1914	0.00557086
1926	0.00665258
1938	0.00605763
1950	0.00513817
1962	0.00470548
1974	0.00389419
1986	0.00329925
1998	0.00259613
2010	0.00183892
2022	0.00216344
2034	0.00205527
2046	0.00265021
2058	0.00259613
2070	0.00324516
2082	0.00329925
2094	0.0034615
2106	0.00384011
2118	0.00319107
2130	0.00281247
2142	0.0019471
2154	0.00178484
2166	0.00135215
2178	0.00129806
2190	0.00129806
2202	0.000324516
2214	0.000162258
2226	0.000649032
2238	0.000919462
2250	0.000865376
2262	0.000649032
2274	0.000919462
2286	0.00151441
2298	0.00356968
2310	0.00503
2322	0.00562494
2334	0.00535451
2346	0.012548
2358	0.00486774
2370	0.00822107
2382	0.00508408
2394	0.00183892
2406	0.00108172
2418	0.00118989
2430	0.00140624
2442	0.00118989
2454	0.00118989
2466	0.00140624
2478	0.00167667
2490	0.00173075
2502	0.00205527
2514	0.00210935
2526	0.00173075
2538	0.00162258
2550	0.00200118
2562	0.00178484
2574	0.00183892
2586	0.00302882
2598	0.00400236
2610	0.00524634
2622	0.00692301
2634	0.00973548
2646	0.0124939
2658	0.0165503
2670	0.0209854
2682	0.0255827
2694	0.030829
2706	0.0335874
2718	0.0356427
2730	0.0394287
2742	0.0445128
2754	0.0504622
2766	0.0599273
2778	0.0757745
2790	0.100438
2802	0.13489
2814	0.18254
2826	0.241981
2838	0.291848
2850	0.310724
2862	0.317485
2874	0.335009
2886	0.348206
2898	0.333711
2910	0.335279
2922	0.381306
2934	0.454322
2946	0.472225
2958	0.376114
2970	0.232678
2982	0.120017
2994	0.0526798
3006	0.0253663
3018	0.0146032
3030	0.0111958
3042	0.00757204
3054	0.00686892
3066	0.00681484
3078	0.0057872
3090	0.00557086
3102	0.00438097
3114	0.00438097
3126	0.0054086
3138	0.00513817
3150	0.00584129
3162	0.00605763
3174	0.00475957
3186	0.00470548
3198	0.00378602
3210	0.00367785
3222	0.00373193
3234	0.00313699
3246	0.00281247
3258	0.00178484
3270	0.00259613
3282	0.00297473
3294	0.00237978
3306	0.00275839
3318	0.00319107
3330	0.00524634
3342	0.00676075
3354	0.00740978
3366	0.00822107
3378	0.00946505
3390	0.00822107
3402	0.00535451
3414	0.00362376
3426	0.00384011
3438	0.00340742
3450	0.00200118
3462	0.0034615
3474	0.00319107
3486	0.00178484
3498	0.000919462
3510	0.000162258
3522	0.00297473
3534	0.0146573
3546	0.0262858
3558	0.0376439
3570	0.0541942
3582	0.0441342
3594	0.0325057
3606	0.0233111
3618	0.011304
3630	0.00854559
3642	0.0140624
3654	0.0315321
3666	0.0655522
3678	0.0646328
3690	0.0411594
3702	0.0162258
3714	0.00373193
3726	0.00292064
3738	0.000216344
3750	0.000486774
3762	0.000162258
3774	0.000162258
3786	0.000162258
3798	0.000108172
3810	0.00275839
3822	0.000162258
3834	0.000162258
3846	0.00302882
3858	0.000162258
3870	0.000162258
3882	0.00362376
3894	0.000108172
3906	0.00124398
3918	0.00319107
3930	0.000108172
3942	0.00248796
3954	0.00292064
3966	0.000378602
