Infrared Spectrum: Ethanol, 2-(2-propenyloxy)-
Formula: C 5 H 10 O 2
CAS: 111-45-5
Origin: Sadtler Research Labs Under US-EPA Contract
1/CM	ABSORBANCE
450	0.0572185
462	0.00784855
474	0.0245584
486	0.00261618
498	0.0308034
510	0.0194104
522	0.0403399
534	0.0406774
546	0.0448127
558	0.0313942
570	0.0194104
582	0.0130809
594	0.00978959
606	0.0117306
618	0.016541
630	0.0189884
642	0.0210983
654	0.0178913
666	0.012237
678	0.00894566
690	0.00531676
702	0.00261618
714	0.00143468
726	0.00135029
738	0.00143468
750	0.00227861
762	0.000675144
774	0.00261618
786	0.00413526
798	0.00742658
810	0.0201699
822	0.0366266
834	0.0522393
846	0.0584
858	0.0746878
870	0.0894566
882	0.105829
894	0.115112
906	0.12718
918	0.220603
930	0.28643
942	0.184483
954	0.112665
966	0.114099
978	0.152836
990	0.226089
1002	0.245162
1014	0.221194
1026	0.242292
1038	0.329892
1050	0.546698
1062	0.805025
1074	0.688647
1086	0.423737
1098	0.465596
1110	0.698268
1122	0.84393
1134	0.643243
1146	0.416311
1158	0.30027
1170	0.155199
1182	0.10642
1194	0.108107
1206	0.12161
1218	0.113424
1230	0.100596
1242	0.106673
1254	0.119754
1266	0.123467
1278	0.107179
1290	0.0855745
1302	0.0661641
1314	0.0566277
1326	0.0729999
1338	0.157055
1350	0.254529
1362	0.205919
1374	0.142287
1386	0.137139
1398	0.137476
1410	0.140852
1422	0.146337
1434	0.119247
1446	0.0752786
1458	0.0946889
1470	0.0935918
1482	0.0497075
1494	0.0231237
1506	0.0102959
1518	0.00565433
1530	0.00388208
1542	0.00506358
1554	0.00312254
1566	0.00210983
1578	0.00219422
1590	0.00185665
1602	0.00160347
1614	0.00405086
1626	0.00708901
1638	0.0191572
1650	0.0267526
1662	0.0167942
1674	0.00354451
1686	0.00143468
1698	0.00084393
1710	0.002363
1722	0.00312254
1734	0.00818612
1746	0.0154439
1758	0.0167942
1770	0.011815
1782	0.00632948
1794	0.00405086
1806	0.00295376
1818	0.00160347
1830	0.00227861
1842	0.00886127
1854	0.017385
1866	0.0148532
1878	0.00700462
1890	0.00379769
1902	0.00337572
1914	0.00346011
1926	0.00497919
1938	0.00692023
1950	0.00793294
1962	0.0084393
1974	0.00860809
1986	0.0084393
1998	0.00683583
2010	0.00464161
2022	0.00329133
2034	0.00278497
2046	0.00270058
2058	0.00337572
2070	0.00430404
2082	0.00464161
2094	0.00548555
2106	0.00616069
2118	0.00692023
2130	0.00675144
2142	0.00590751
2154	0.0048104
2166	0.00396647
2178	0.00261618
2190	0.00202543
2202	0.00227861
2214	0.00219422
2226	0.002363
2238	0.00194104
2250	0.00185665
2262	0.00185665
2274	0.00210983
2286	0.00151907
2298	0.00101272
2310	0.000590751
2322	0.000675144
2334	0.00210983
2346	0.00101272
2358	0.000506358
2370	0.00329133
2382	0.00303815
2394	0.00286936
2406	0.00303815
2418	0.00295376
2430	0.00312254
2442	0.00270058
2454	0.00329133
2466	0.00286936
2478	0.002363
2490	0.00185665
2502	0.00210983
2514	0.00286936
2526	0.00295376
2538	0.00371329
2550	0.00405086
2562	0.00430404
2574	0.00430404
2586	0.00430404
2598	0.00447283
2610	0.00388208
2622	0.00506358
2634	0.00472601
2646	0.00523237
2658	0.00734219
2670	0.0108867
2682	0.0153595
2694	0.0196636
2706	0.0241364
2718	0.0290312
2730	0.031563
2742	0.0324069
2754	0.036289
2766	0.0412682
2778	0.0474289
2790	0.0562057
2802	0.0659109
2814	0.0805109
2826	0.114015
2838	0.188365
2850	0.31141
2862	0.432683
2874	0.476989
2886	0.454794
2898	0.408715
2910	0.371245
2922	0.37403
2934	0.402301
2946	0.392343
2958	0.361624
2970	0.264234
2982	0.151823
2994	0.11123
3006	0.0851525
3018	0.0756161
3030	0.0663329
3042	0.0395803
3054	0.0322381
3066	0.0407618
3078	0.0625352
3090	0.0936762
3102	0.0887814
3114	0.043378
3126	0.0144312
3138	0.00852369
3150	0.00506358
3162	0.00464161
3174	0.0036289
3186	0.00253179
3198	0.00337572
3210	0.00210983
3222	0.00194104
3234	0.00202543
3246	0.002363
3258	0.00219422
3270	0.00160347
3282	0.00168786
3294	0.00219422
3306	0.000675144
3318	0.000590751
3330	0.00126589
3342	0.000590751
3354	0.000506358
3366	0.000253179
3378	0.00227861
3390	0.00151907
3402	0.00202543
3414	0.00405086
3426	0.00329133
3438	0.0011815
3450	0.00210983
3462	0.00379769
3474	0.0048104
3486	0.00573872
3498	0.00658265
3510	0.00556994
3522	0.00641387
3534	0.0059919
3546	0.00565433
3558	0.0071734
3570	0.0101272
3582	0.0108867
3594	0.015022
3606	0.0280185
3618	0.0624508
3630	0.13621
3642	0.130809
3654	0.0719872
3666	0.0502138
3678	0.0439688
3690	0.0288624
3702	0.0146844
3714	0.00978959
3726	0.00835491
3738	0.00886127
3750	0.00734219
3762	0.00903005
3774	0.00995837
3786	0.00860809
3798	0.00911444
3810	0.00928323
3822	0.0096208
3834	0.00810173
3846	0.0100428
3858	0.00978959
3870	0.00860809
3882	0.00936762
3894	0.00903005
3906	0.012659
3918	0.0102959
3930	0.0140936
3942	0.0138405
3954	0.0072578
3966	0.0118994
