Infrared Spectrum: 1-Butanamine, N-butyl-
Formula: C 8 H 19 N
CAS: 111-92-2
Origin: Sadtler Research Labs Under US-EPA Contract
1/CM	ABSORBANCE
450	0.0404769
462	0.00795784
474	0.00569821
486	0.00324209
498	0.00835083
510	0.00530523
522	0.00962801
534	0.010021
546	0.00687715
558	0.00736838
570	0.00854731
582	0.00677891
594	0.00805609
606	0.010807
618	0.0153262
630	0.0242665
642	0.030456
654	0.0425401
666	0.0609119
678	0.0753539
690	0.0783995
702	0.0870451
714	0.0865538
726	0.0713259
738	0.0640557
750	0.0563926
762	0.0363507
774	0.0225964
786	0.0167999
798	0.0135578
810	0.0127719
822	0.00903854
834	0.00766311
846	0.0078596
858	0.00609119
870	0.00520698
882	0.00638593
894	0.00727013
906	0.00815434
918	0.00373331
930	0.0069754
942	0.010414
954	0.0136561
966	0.0145403
978	0.0123789
990	0.00903854
1002	0.00972626
1014	0.0103157
1026	0.00952977
1038	0.0132631
1050	0.0195508
1062	0.0233823
1074	0.0295717
1086	0.0414594
1098	0.0603224
1110	0.0695575
1122	0.113571
1134	0.243255
1146	0.192953
1158	0.0911714
1170	0.0422454
1182	0.0232841
1194	0.0220069
1206	0.0284911
1218	0.0261332
1230	0.0262314
1242	0.0262314
1254	0.024463
1266	0.0207297
1278	0.0195508
1290	0.02407
1302	0.0321261
1314	0.0347787
1326	0.0394945
1338	0.0583575
1350	0.0649399
1362	0.0811504
1374	0.0829188
1386	0.0707364
1398	0.0368419
1410	0.0250525
1422	0.0325191
1434	0.0713259
1446	0.128996
1458	0.216335
1470	0.218202
1482	0.103452
1494	0.0378243
1506	0.0186666
1518	0.0115929
1530	0.00707364
1542	0.00510874
1554	0.00373331
1566	0.0019649
1578	0.00314384
1590	0.00265262
1602	0.00265262
1614	0.00225964
1626	0.00157192
1638	0.00176841
1650	0.00225964
1662	0.00363507
1674	0.00324209
1686	0.00294735
1698	0.00265262
1710	0.00147368
1722	0.000884205
1734	0.000491225
1746	0.00019649
1758	0.00019649
1770	0.00039298
1782	0.00039298
1794	0.000884205
1806	0.00137543
1818	0.00167017
1830	0.00206315
1842	0.00265262
1854	0.00245612
1866	0.00186666
1878	0.00137543
1890	0.00127719
1902	0.0010807
1914	0.00058947
1926	0.00078596
1938	0.0010807
1950	0.00137543
1962	0.0010807
1974	0.00147368
1986	0.0010807
1998	0.00167017
2010	0.00098245
2022	0.00117894
2034	0.000884205
2046	0.00137543
2058	0.00147368
2070	0.00157192
2082	0.00186666
2094	0.00284911
2106	0.0030456
2118	0.00314384
2130	0.00284911
2142	0.00245612
2154	0.00275086
2166	0.00275086
2178	0.00275086
2190	0.00275086
2202	0.00275086
2214	0.00265262
2226	0.00235788
2238	0.00275086
2250	0.00284911
2262	0.00294735
2274	0.00245612
2286	0.00363507
2298	0.00658242
2310	0.0103157
2322	0.0114947
2334	0.0162104
2346	0.0137543
2358	0.0133613
2370	0.00481401
2382	0.00540348
2394	0.00167017
2406	0.00265262
2418	0.00442103
2430	0.00343858
2442	0.00216139
2454	0.00216139
2466	0.00235788
2478	0.00206315
2490	0.000687715
2502	0.000687715
2514	0.00206315
2526	0.0030456
2538	0.0039298
2550	0.00510874
2562	0.00658242
2574	0.00746662
2586	0.00903854
2598	0.0107087
2610	0.0121824
2622	0.0139508
2634	0.0159157
2646	0.020042
2658	0.0246595
2670	0.0293753
2682	0.0343857
2694	0.0382173
2706	0.0406734
2718	0.0439155
2730	0.0502032
2742	0.0626803
2754	0.0721118
2766	0.0779083
2778	0.0906801
2790	0.134694
2802	0.226848
2814	0.316644
2826	0.309865
2838	0.247381
2850	0.259563
2862	0.3527
2874	0.447997
2886	0.506649
2898	0.425401
2910	0.51333
2922	0.746171
2934	0.957299
2946	0.876935
2958	0.732711
2970	0.901594
2982	0.430903
2994	0.147073
3006	0.0786942
3018	0.054526
3030	0.0410664
3042	0.030456
3054	0.0222034
3066	0.0174876
3078	0.0166034
3090	0.0130666
3102	0.0111999
3114	0.0112982
3126	0.0089403
3138	0.00923503
3150	0.00844907
3162	0.00746662
3174	0.00815434
3186	0.00844907
3198	0.00677891
3210	0.00530523
3222	0.00324209
3234	0.00353682
3246	0.00334033
3258	0.00225964
3270	0.00206315
3282	0.00284911
3294	0.00225964
3306	0.0019649
3318	0.00206315
3330	0.00265262
3342	0.00265262
3354	0.00265262
3366	0.00324209
3378	0.00353682
3390	0.00245612
3402	0.00255437
3414	0.00314384
3426	0.00471576
3438	0.00314384
3450	0.00216139
3462	0.0030456
3474	0.00491225
3486	0.00383156
3498	0.00481401
3510	0.00412629
3522	0.00540348
3534	0.00432278
3546	0.00324209
3558	0.00442103
3570	0.00432278
3582	0.00520698
3594	0.00550172
3606	0.00609119
3618	0.00510874
3630	0.00727013
3642	0.00795784
3654	0.00736838
3666	0.00727013
3678	0.00579646
3690	0.00638593
3702	0.00776136
3714	0.00628768
3726	0.00569821
3738	0.00579646
3750	0.0089403
3762	0.00746662
3774	0.00913678
3786	0.00736838
3798	0.0089403
3810	0.00648417
3822	0.00599295
3834	0.00530523
3846	0.00550172
3858	0.00687715
3870	0.00658242
3882	0.00530523
3894	0.00854731
3906	0.00805609
3918	0.0050105
3930	0.00933328
3942	0.00707364
3954	0.00717189
3966	0.0089403
