Infrared Spectrum: Butanedioic acid, acetyl-, diethyl ester
Formula: C 10 H 16 O 5
CAS: 1115-30-6
Origin: Sadtler Research Labs Under US-EPA Contract
1/CM	ABSORBANCE
450	0.00770918
462	0.0108451
474	0.0107144
486	0.000195996
498	0.0229969
510	0.0133931
522	0.0203836
534	0.0189463
546	0.0258061
558	0.016725
570	0.0289421
582	0.0255448
594	0.0268515
606	0.0219516
618	0.0194689
630	0.0265901
642	0.0251528
654	0.0221475
666	0.0236502
678	0.0156143
690	0.0202529
702	0.0222782
714	0.0198609
726	0.0214942
738	0.0172476
750	0.0195996
762	0.0188156
774	0.0241075
786	0.0186196
798	0.0320127
810	0.0262635
822	0.0279621
834	0.0271781
846	0.0331887
858	0.0525269
870	0.0394605
882	0.0243688
894	0.0257408
906	0.0286807
918	0.0427271
930	0.0464511
942	0.0329273
954	0.0363246
966	0.0372392
978	0.0374352
990	0.0393299
1002	0.0477577
1014	0.0780064
1026	0.149414
1038	0.233693
1050	0.164637
1062	0.0876755
1074	0.0800317
1086	0.0850623
1098	0.125764
1110	0.108908
1122	0.116748
1134	0.19482
1146	0.345998
1158	0.496066
1170	0.464641
1182	0.387419
1194	0.35423
1206	0.299809
1218	0.270082
1230	0.291315
1242	0.344822
1254	0.403686
1266	0.354883
1278	0.236371
1290	0.169471
1302	0.171562
1314	0.184628
1326	0.155425
1338	0.114266
1350	0.130991
1362	0.169079
1374	0.191553
1386	0.115442
1398	0.0846049
1410	0.0827756
1422	0.0982593
1434	0.0712119
1446	0.0606934
1458	0.0718652
1470	0.066704
1482	0.0532456
1494	0.0318167
1506	0.0378926
1518	0.0275701
1530	0.0233235
1542	0.0352139
1554	0.0254141
1566	0.0211676
1578	0.0261328
1590	0.0191423
1602	0.0220822
1614	0.0261981
1626	0.0361286
1638	0.0364553
1650	0.033058
1662	0.0394605
1674	0.0440991
1686	0.0529189
1698	0.0642867
1710	0.0898315
1722	0.18097
1734	0.44857
1746	0.600597
1758	0.622679
1770	0.335218
1782	0.116748
1794	0.0627841
1806	0.0382846
1818	0.0333847
1830	0.0292687
1842	0.0197303
1854	0.0158757
1866	0.0136544
1878	0.0137851
1890	0.014569
1902	0.0124131
1914	0.0121518
1926	0.0113678
1938	0.0112371
1950	0.0101918
1962	0.0097998
1974	0.00921181
1986	0.00986513
1998	0.00973447
2010	0.0109104
2022	0.00940781
2034	0.0101265
2046	0.00849316
2058	0.00993046
2070	0.00829716
2082	0.00842783
2094	0.00862382
2106	0.00849316
2118	0.00855849
2130	0.00803584
2142	0.00666386
2154	0.00685986
2166	0.00646787
2178	0.00581455
2190	0.00666386
2202	0.00555322
2214	0.00640254
2226	0.0050959
2238	0.00581455
2250	0.00503056
2262	0.00542256
2274	0.00522656
2286	0.00692519
2298	0.00783984
2310	0.0106491
2322	0.00810117
2334	0.00731718
2346	0.00725185
2358	0.0101918
2370	0.00679453
2382	0.00757851
2394	0.00503056
2406	0.00496523
2418	0.0050959
2430	0.00398525
2442	0.00405058
2454	0.00320127
2466	0.00372392
2478	0.00313594
2490	0.00280928
2502	0.00222129
2514	0.00261328
2526	0.00150264
2538	0.00261328
2550	0.00169863
2562	0.0032666
2574	0.00124131
2586	0.00333193
2598	0.00169863
2610	0.00215596
2622	0.00137197
2634	0.00169863
2646	0.00189463
2658	0.000914648
2670	0.00189463
2682	0.00195996
2694	0.00169863
2706	0.00202529
2718	0.00209062
2730	0.00130664
2742	0.00424658
2754	0.00287461
2766	0.00444258
2778	0.00483457
2790	0.00568388
2802	0.00431191
2814	0.00640254
2826	0.00731718
2838	0.00953847
2850	0.00973447
2862	0.0150917
2874	0.0197303
2886	0.0335153
2898	0.034626
2910	0.0463857
2922	0.0525923
2934	0.063568
2946	0.102506
2958	0.0774184
2970	0.0868916
2982	0.142685
2994	0.166923
3006	0.0925754
3018	0.0551402
3030	0.0261328
3042	0.0168557
3054	0.0112371
3066	0.0109758
3078	0.00783984
3090	0.00770918
3102	0.00561855
3114	0.00685986
3126	0.00529189
3138	0.00744785
3150	0.00483457
3162	0.00522656
3174	0.00483457
3186	0.0048999
3198	0.00424658
3210	0.00496523
3222	0.00359326
3234	0.00431191
3246	0.00352793
3258	0.00202529
3270	0.00365859
3282	0.00254795
3294	0.00450791
3306	0.00228662
3318	0.00418125
3330	0.00287461
3342	0.00391992
3354	0.00280928
3366	0.00398525
3378	0.00222129
3390	0.00535722
3402	0.00352793
3414	0.00535722
3426	0.00444258
3438	0.00555322
3450	0.00646787
3462	0.00875449
3474	0.00823183
3486	0.00790517
3498	0.0067292
3510	0.00581455
3522	0.00561855
3534	0.0034626
3546	0.00522656
3558	0.00209062
3570	0.0081665
3582	0.00803584
3594	0.00738252
3606	0.00405058
3618	0.00640254
3630	0.0104531
3642	0.00574922
3654	0.0067292
3666	0.00731718
3678	0.0105185
3690	0.0123477
3702	0.00646787
3714	0.00921181
3726	0.00875449
3738	0.0120864
3750	0.0146997
3762	0.00829716
3774	0.00699052
3786	0.00783984
3798	0.00947314
3810	0.0083625
3822	0.0107144
3834	0.00953847
3846	0.00934248
3858	0.0102571
3870	0.00947314
3882	0.0101265
3894	0.0081665
3906	0.00705586
3918	0.00718652
3930	0.00574922
3942	0.00725185
3954	0
3966	0.000587988
