Infrared Spectrum: n-Butyltin trichloride
Formula: C 4 H 9 Cl 3 Sn
CAS: 1118-46-3
Origin: Sadtler Research Labs Under US-EPA Contract
1/CM	ABSORBANCE
450	0.0393546
462	0.0161635
474	0.0166905
486	0.0193259
498	0.0166027
510	0.0304822
522	0.049896
534	0.021522
546	0.00105414
558	0.00035138
570	0.00377733
582	0.00632484
594	0.0102779
606	0.0158999
618	0.0102779
630	0.00553424
642	0.00597346
654	0.0158999
666	0.0333811
678	0.0784456
690	0.0978593
702	0.135369
714	0.151708
726	0.0548153
738	0.0289889
750	0.0332933
762	0.0218734
774	0.0168662
786	0.00790605
798	0.00210828
810	0.00070276
822	0.00298673
834	0.00773036
846	0.0220491
858	0.02609
870	0.0508623
882	0.0681677
894	0.0361043
906	0.0126497
918	0.00614915
930	0.00623699
942	0.0087845
954	0.0265292
966	0.0318877
978	0.0200287
990	0.0225762
1002	0.0199408
1014	0.016427
1026	0.0321513
1038	0.0318877
1050	0.028901
1062	0.0274955
1074	0.0426048
1086	0.0549031
1098	0.0205557
1110	0.00922373
1122	0.00676406
1134	0.0137917
1146	0.0587683
1158	0.123247
1170	0.111036
1182	0.158209
1194	0.0447131
1206	0.0167784
1218	0.0115955
1230	0.0171298
1242	0.0688705
1254	0.149249
1266	0.0698368
1278	0.0387396
1290	0.0581534
1302	0.06237
1314	0.0246844
1326	0.016427
1338	0.0355772
1350	0.0743169
1362	0.038564
1374	0.0404087
1386	0.0828378
1398	0.0707152
1410	0.0621064
1422	0.0583291
1434	0.0476998
1446	0.0774793
1458	0.152148
1470	0.16796
1482	0.0732627
1494	0.0281982
1506	0.0154607
1518	0.0101022
1530	0.0087845
1542	0.00667622
1554	0.00491932
1566	0.00421656
1578	0.00448009
1590	0.00395302
1602	0.00395302
1614	0.00386518
1626	0.00307457
1638	0.00237181
1650	0.00158121
1662	0.00158121
1674	0.00245966
1686	0.00316242
1698	0.00439225
1710	0.00263535
1722	0.00228397
1734	0.00281104
1746	0.00333811
1758	0.00623699
1770	0.00360164
1782	0.00193259
1794	0.00114198
1806	0.00105414
1818	0.00114198
1830	0
1842	0.000614915
1854	0.00114198
1866	0.00070276
1878	0.00131767
1890	0.00114198
1902	0.00184474
1914	0.00149336
1926	0.00184474
1938	0.00140552
1950	0.00105414
1962	0.00087845
1974	0.000439225
1986	0.00035138
1998	0.00035138
2010	0.000614915
2022	0.00105414
2034	0.00184474
2046	0.00298673
2058	0.00307457
2070	0.00184474
2082	0.00105414
2094	0.00114198
2106	0.00184474
2118	0.00228397
2130	0.00245966
2142	0.0025475
2154	0.0025475
2166	0.00237181
2178	0.00149336
2190	0.00140552
2202	0.00149336
2214	0.00202044
2226	0.00272319
2238	0.00219612
2250	0.00140552
2262	0.000439225
2274	0.00035138
2286	0.00035138
2298	0.00114198
2310	0.00114198
2322	0.00017569
2334	0.00184474
2346	0.00377733
2358	0.00360164
2370	0.00404087
2382	0.00360164
2394	0.00219612
2406	0.00245966
2418	0.0025475
2430	0.00228397
2442	0.00166906
2454	0.000966295
2466	0.000790605
2478	0.00122983
2490	0.00140552
2502	0.00193259
2514	0.00228397
2526	0.00228397
2538	0.00210828
2550	0.00219612
2562	0.00228397
2574	0.00404087
2586	0.00553424
2598	0.00439225
2610	0.00448009
2622	0.00404087
2634	0.00465578
2646	0.00632484
2658	0.00685191
2670	0.00641268
2682	0.00737898
2694	0.00579777
2706	0.00597346
2718	0.00711544
2730	0.00922373
2742	0.0132646
2754	0.0184475
2766	0.0144944
2778	0.0149336
2790	0.0188867
2802	0.0259143
2814	0.0321513
2826	0.0406722
2838	0.0514772
2850	0.078797
2862	0.197915
2874	0.340048
2886	0.35384
2898	0.247986
2910	0.240607
2922	0.408479
2934	0.628355
2946	0.646978
2958	0.465315
2970	0.765745
2982	0.682819
2994	0.185616
3006	0.0769522
3018	0.0520042
3030	0.0427805
3042	0.0310971
3054	0.0237182
3066	0.0192381
3078	0.0174812
3090	0.0161635
3102	0.0143187
3114	0.0130889
3126	0.0109806
3138	0.00966295
3150	0.00957511
3162	0.00904803
3174	0.00913588
3186	0.00860881
3198	0.00720329
3210	0.00685191
3222	0.00500717
3234	0.00439225
3246	0.00333811
3258	0.00281104
3270	0.00272319
3282	0.00272319
3294	0.00228397
3306	0.00228397
3318	0.00245966
3330	0.00263535
3342	0.0025475
3354	0.0035138
3366	0.00360164
3378	0.00263535
3390	0.0025475
3402	0.0025475
3414	0.00237181
3426	0.00298673
3438	0.00219612
3450	0.00131767
3462	0.00166906
3474	0.00210828
3486	0.00131767
3498	0.00149336
3510	0.00193259
3522	0.000790605
3534	0.00114198
3546	0.000263535
3558	0.00184474
3570	0.00158121
3582	0.00035138
3594	0.00210828
3606	0.00237181
3618	0.00210828
3630	0.00439225
3642	0.00395302
3654	0.0025475
3666	0.00377733
3678	0.00298673
3690	0.00404087
3702	0.00131767
3714	0.00263535
3726	0.00237181
3738	0.00228397
3750	0.00316242
3762	0.00114198
3774	0.00342596
3786	0.00395302
3798	0.00333811
3810	0.00491932
3822	0.00298673
3834	0.00202044
3846	0.0017569
3858	0.00395302
3870	0.00281104
3882	0
3894	0.00140552
3906	0.00245966
3918	0.00228397
3930	0.00342596
3942	0.00368949
3954	0.00342596
3966	0.00404087
