Infrared Spectrum: 3,5-Heptanedione, 2,2,6,6-tetramethyl-
Formula: C 11 H 20 O 2
CAS: 1118-71-4
Origin: Sadtler Research Labs Under US-EPA Contract
1/CM	ABSORBANCE
450	0.0114181
462	0.0333926
474	0.0487963
486	0.0776647
498	0.0243443
510	0.00904831
522	0.00904831
534	0.0102332
546	0.0154037
558	0.0224053
570	0.0134647
582	0.0123876
594	0.0155114
606	0.00915603
618	0.00398557
630	0.00377013
642	0.00247751
654	0.0011849
666	0.00107718
678	0.000754026
690	0.004201
702	0.00129262
714	0.0023698
726	0.0138956
738	0.0634459
750	0.0676469
762	0.0308073
774	0.0065708
786	0.0224053
798	0.0457801
810	0.0171272
822	0.00850972
834	0.0104486
846	0.0137879
858	0.0457801
870	0.251306
882	0.0883288
894	0.0266063
906	0.0254214
918	0.0345775
930	0.0522432
942	0.0645231
954	0.060753
966	0.0543976
978	0.0444875
990	0.0368396
1002	0.0399634
1014	0.0457801
1026	0.0431949
1038	0.0342543
1050	0.0369473
1062	0.0545053
1074	0.0641999
1086	0.0687241
1098	0.0752949
1110	0.11375
1122	0.209404
1134	0.270803
1146	0.190876
1158	0.0913449
1170	0.0681855
1182	0.0660311
1194	0.0881133
1206	0.141003
1218	0.177196
1230	0.124199
1242	0.118167
1254	0.184413
1266	0.129262
1278	0.135078
1290	0.167501
1302	0.156299
1314	0.119136
1326	0.100716
1338	0.0974848
1350	0.124091
1362	0.237626
1374	0.275004
1386	0.147251
1398	0.145204
1410	0.130877
1422	0.157053
1434	0.183336
1446	0.200248
1458	0.257769
1470	0.290839
1482	0.347391
1494	0.300749
1506	0.242904
1518	0.233533
1530	0.243227
1542	0.300856
1554	0.389939
1566	0.512738
1578	0.68164
1590	0.846556
1602	0.949103
1614	0.913772
1626	0.711908
1638	0.466742
1650	0.307643
1662	0.212528
1674	0.156514
1686	0.128615
1698	0.117628
1710	0.109118
1722	0.0841278
1734	0.0757258
1746	0.0495503
1758	0.0291916
1770	0.0213282
1782	0.0164809
1794	0.0156191
1806	0.0148651
1818	0.0155114
1830	0.0174503
1842	0.0177735
1854	0.0164809
1866	0.0142188
1878	0.0102332
1890	0.00743254
1902	0.00495503
1914	0.0030161
1926	0.00204664
1938	0.00161577
1950	0.00107718
1962	0.000646308
1974	0
1986	0.000430872
1998	0.00183121
2010	0.0023698
2022	0.0023698
2034	0.00150805
2046	0.000969462
2058	0.00150805
2070	0.00161577
2082	0.00107718
2094	0.000969462
2106	0.000754026
2118	0
2130	0.000754026
2142	0.0011849
2154	0.0023698
2166	0.00204664
2178	0.000646308
2190	0.000215436
2202	0.000215436
2214	0.000323154
2226	0.000646308
2238	0.000754026
2250	0.000646308
2262	0.000646308
2274	0.00107718
2286	0.00161577
2298	0.00258523
2310	0.00269295
2322	0.00258523
2334	0.00366241
2346	0.00377013
2358	0.00409328
2370	0.00560134
2382	0.00613993
2394	0.00721711
2406	0.00570905
2418	0.00495503
2430	0.00473959
2442	0.00398557
2454	0.00463187
2466	0.00506275
2478	0.0053859
2490	0.00613993
2502	0.00732482
2514	0.00743254
2526	0.00818657
2538	0.00818657
2550	0.0077557
2562	0.00786341
2574	0.00786341
2586	0.00818657
2598	0.00861744
2610	0.00894059
2622	0.0095869
2634	0.0102332
2646	0.0113104
2658	0.0127107
2670	0.0128184
2682	0.0136802
2694	0.0132493
2706	0.0145419
2718	0.0162654
2730	0.016804
2742	0.015296
2754	0.0147574
2766	0.0141111
2778	0.013357
2790	0.0148651
2802	0.0144342
2814	0.0178812
2826	0.020251
2838	0.0227285
2850	0.0323154
2862	0.0718479
2874	0.179674
2886	0.217698
2898	0.188399
2910	0.241719
2922	0.278882
2934	0.28179
2946	0.297409
2958	0.502397
2970	1.05004
2982	0.73636
2994	0.335218
3006	0.105564
3018	0.0264986
3030	0.0101255
3042	0.00581677
3054	0.0053859
3066	0.00613993
3078	0.00689395
3090	0.00635536
3102	0.00635536
3114	0.00613993
3126	0.00689395
3138	0.0065708
3150	0.00689395
3162	0.00829429
3174	0.00991006
3186	0.0106641
3198	0.0107718
3210	0.0108795
3222	0.0107718
3234	0.0101255
3246	0.00797113
3258	0.00678623
3270	0.00635536
3282	0.00463187
3294	0.00226208
3306	0.00258523
3318	0.00204664
3330	0.00247751
3342	0.00172349
3354	0.00269295
3366	0.0023698
3378	0.00140033
3390	0.00129262
3402	0.00129262
3414	0.00107718
3426	0.00140033
3438	0.00107718
3450	0.00053859
3462	0.00129262
3474	0.0011849
3486	0.000323154
3498	0.00107718
3510	0.000646308
3522	0.000646308
3534	0.00161577
3546	0.000969462
3558	0.00183121
3570	0.000430872
3582	0.00161577
3594	0.00193892
3606	0.00129262
3618	0.0011849
3630	0.000323154
3642	0.00215436
3654	0.00204664
3666	0.00269295
3678	0.00129262
3690	0.00269295
3702	0.00140033
3714	0.0023698
3726	0.00312382
3738	0.00269295
3750	0.00204664
3762	0.00204664
3774	0.00247751
3786	0.0023698
3798	0.00280067
3810	0.00333926
3822	0.00377013
3834	0.00258523
3846	0.0030161
3858	0.00226208
3870	0.00258523
3882	0.00269295
3894	0.00333926
3906	0.00323154
3918	0.00226208
3930	0.00183121
3942	0.0023698
3954	0.00258523
3966	0.00161577
