Infrared Spectrum: Acetamide, N-butyl-
Formula: C 6 H 13 N O
CAS: 1119-49-9
Origin: Sadtler Research Labs Under US-EPA Contract
1/CM	ABSORBANCE
450	0.0440132
462	0.0735139
474	0.0587635
486	0.0635217
498	0.0642354
510	0.0692315
522	0.0606668
534	0.0799374
546	0.0435373
558	0.0518642
570	0.0578119
582	0.0651871
594	0.0678041
606	0.0728002
618	0.0716106
630	0.0768446
642	0.0789858
654	0.0678041
666	0.0216497
678	0.0204602
690	0.00856472
702	0.00404445
714	0.00285491
726	0.0114196
738	0.0252184
750	0.0249804
762	0.0195085
774	0.0226014
786	0.0283112
798	0.0442511
810	0.0490093
822	0.0499609
834	0.0518642
846	0.0430615
858	0.0330694
870	0.0311661
882	0.0271216
894	0.0216497
906	0.0202223
918	0.0161778
930	0.0152262
942	0.0256942
954	0.0397308
966	0.0606668
978	0.0789858
990	0.0854093
1002	0.0720864
1014	0.0459164
1026	0.0302144
1038	0.0404445
1050	0.0473439
1062	0.0385413
1074	0.0397308
1086	0.0692315
1098	0.0996839
1110	0.0639975
1122	0.0573361
1134	0.0618563
1146	0.0854093
1158	0.113483
1170	0.134181
1182	0.143697
1194	0.134656
1206	0.155355
1218	0.220304
1230	0.349488
1242	0.664242
1254	0.792237
1266	0.483907
1278	0.265982
1290	0.174625
1302	0.172008
1314	0.172722
1326	0.120144
1338	0.101587
1350	0.147504
1362	0.357101
1374	0.39707
1386	0.265269
1398	0.199844
1410	0.154165
1422	0.174149
1434	0.258607
1446	0.376372
1458	0.490568
1470	0.587159
1482	0.854093
1494	1.42531
1506	1.36465
1518	0.756313
1530	0.387316
1542	0.218638
1554	0.122761
1566	0.0804132
1578	0.0594772
1590	0.044489
1602	0.0349726
1614	0.0352105
1626	0.0364001
1638	0.0413962
1650	0.0656629
1662	0.0763688
1674	0.138225
1686	0.281684
1698	0.663052
1710	1.75743
1722	1.73031
1734	0.914998
1746	0.318084
1758	0.19342
1770	0.233865
1782	0.228393
1794	0.209836
1806	0.207219
1818	0.0801753
1830	0.0254563
1842	0.0145124
1854	0.00547191
1866	0.007851
1878	0.00618563
1890	0.00547191
1902	0.00285491
1914	0.00333073
1926	0.000237909
1938	0.00166536
1950	0.000951636
1962	0.000951636
1974	0.00356863
1986	0.00404445
1998	0.00309282
2010	0.00333073
2022	0.00309282
2034	0.00285491
2046	0.00547191
2058	0.002617
2070	0.00237909
2082	0.00237909
2094	0.00118954
2106	0.00285491
2118	0.00356863
2130	0.00190327
2142	0.00309282
2154	0.002617
2166	0.00237909
2178	0.00356863
2190	0.00285491
2202	0.002617
2214	0.00309282
2226	0.002617
2238	0.002617
2250	0.00333073
2262	0.00237909
2274	0.002617
2286	0.00309282
2298	0.002617
2310	0.00356863
2322	0.00547191
2334	0.00309282
2346	0.00547191
2358	0.00404445
2370	0.00285491
2382	0.00452027
2394	0.00428236
2406	0.00404445
2418	0.00452027
2430	0.00356863
2442	0.00333073
2454	0.00356863
2466	0.00190327
2478	0.00166536
2490	0.00166536
2502	0.00118954
2514	0.00118954
2526	0.000475818
2538	0
2550	0.00118954
2562	0.00166536
2574	0.002617
2586	0.00452027
2598	0.00594773
2610	0.00618563
2622	0.00689936
2634	0.00689936
2646	0.00642354
2658	0.00856472
2670	0.00999218
2682	0.0128471
2694	0.015702
2706	0.0178432
2718	0.0204602
2730	0.0211739
2742	0.0226014
2754	0.0230772
2766	0.0204602
2778	0.0190327
2790	0.0221255
2802	0.0275974
2814	0.034021
2826	0.0468681
2838	0.070659
2850	0.138701
2862	0.260986
2874	0.367569
2886	0.418958
2898	0.363287
2910	0.394215
2922	0.579784
2934	0.798898
2946	0.833157
2958	0.726812
2970	0.830065
2982	0.570982
2994	0.222207
3006	0.11943
3018	0.0885021
3030	0.0780342
3042	0.0708969
3054	0.0592393
3066	0.0454406
3078	0.0368759
3090	0.0295007
3102	0.0230772
3114	0.0173674
3126	0.0133229
3138	0.0114196
3150	0.00999218
3162	0.00927845
3174	0.00880263
3186	0.00761309
3198	0.00761309
3210	0.00618563
3222	0.00547191
3234	0.00428236
3246	0.00333073
3258	0.00404445
3270	0.00452027
3282	0.00356863
3294	0.00428236
3306	0.00356863
3318	0.00356863
3330	0.00452027
3342	0.00428236
3354	0.00333073
3366	0.00594773
3378	0.00547191
3390	0.00880263
3402	0.0173674
3414	0.0283112
3426	0.0309282
3438	0.0275974
3450	0.0352105
3462	0.0689936
3474	0.102539
3486	0.0973048
3498	0.0518642
3510	0.0197464
3522	0.00761309
3534	0.00547191
3546	0.0128471
3558	0.0256942
3570	0.0413962
3582	0.0513883
3594	0.0383033
3606	0.0221255
3618	0.00618563
3630	0.00404445
3642	0.002617
3654	0.00333073
3666	0
3678	0.00689936
3690	0.00142745
3702	0.00404445
3714	0.00713727
3726	0.00618563
3738	0.00761309
3750	0.00142745
3762	0.00356863
3774	0.00333073
3786	0.00333073
3798	0.00309282
3810	0.00237909
3822	0.00594773
3834	0.00237909
3846	0.00594773
3858	0.00475818
3870	0.00689936
3882	0.00689936
3894	0.00594773
3906	0.007851
3918	0.00737518
3930	0.00547191
3942	0.00333073
3954	0.00594773
3966	0.00499609
