Infrared Spectrum: 5-Chlorovaleric acid
Formula: C 5 H 9 Cl O 2
CAS: 1119-46-6
Origin: Sadtler Research Labs Under US-EPA Contract
1/CM	ABSORBANCE
450	0.00151828
462	0.00679611
474	0.00816979
486	0.0108448
498	0.0321731
510	0.0284135
522	0.0356434
534	0.0447531
546	0.0635508
558	0.11416
570	0.0832161
582	0.0812641
594	0.103243
606	0.102954
618	0.10505
630	0.112425
642	0.0888555
654	0.0717929
666	0.0714314
678	0.0431625
690	0.0276182
702	0.0242925
714	0.0245094
726	0.0344143
738	0.0464883
750	0.0823486
762	0.0704915
774	0.0250155
786	0.0145321
798	0.0114955
810	0.0069407
822	0.0075191
834	0.00816979
846	0.0107726
858	0.0109894
870	0.00860358
882	0.00672381
894	0.00657921
906	0.00600082
918	0.00621771
930	0.00845898
942	0.00939887
954	0.00679611
966	0.00578392
978	0.0070853
990	0.0178579
1002	0.023208
1014	0.0261722
1026	0.0382462
1038	0.0565378
1050	0.0801796
1062	0.0878433
1074	0.094061
1086	0.11416
1098	0.162673
1110	0.322381
1122	0.47298
1134	0.31385
1146	0.207787
1158	0.185158
1170	0.151756
1182	0.129198
1194	0.110834
1206	0.0865419
1218	0.0689732
1230	0.058996
1242	0.0536459
1254	0.056827
1266	0.0609481
1278	0.0789505
1290	0.0895062
1302	0.077866
1314	0.0714314
1326	0.0595744
1338	0.050537
1350	0.0568993
1362	0.0676719
1374	0.0836499
1386	0.100496
1398	0.0829993
1410	0.0458376
1422	0.0419334
1434	0.0502478
1446	0.0595021
1458	0.0627555
1470	0.0339082
1482	0.0144598
1494	0.00629001
1506	0.00448254
1518	0.00296426
1530	0.00151828
1542	0.00151828
1554	0.00159058
1566	0.000795289
1578	0.00101219
1590	0.00108448
1602	0.00101219
1614	0.00166288
1626	0.00144598
1638	0.00245817
1650	0.00267506
1662	0.00397644
1674	0.00578392
1686	0.00867588
1698	0.0127969
1710	0.0221235
1722	0.039403
1734	0.0749018
1746	0.139682
1758	0.269169
1770	0.548966
1782	0.72299
1794	0.442036
1806	0.194412
1818	0.0757694
1830	0.0303656
1842	0.0158335
1854	0.0103388
1866	0.0074468
1878	0.00520553
1890	0.00484403
1902	0.00397644
1914	0.00368725
1926	0.00339805
1938	0.00339805
1950	0.00325345
1962	0.00318116
1974	0.00289196
1986	0.00238587
1998	0.00151828
2010	0.00144598
2022	0.00180747
2034	0.00224127
2046	0.00180747
2058	0.00231357
2070	0.00361495
2082	0.00339805
2094	0.00375955
2106	0.00375955
2118	0.00339805
2130	0.00347035
2142	0.00325345
2154	0.00325345
2166	0.00368725
2178	0.00404874
2190	0.00347035
2202	0.00361495
2214	0.00354265
2226	0.00347035
2238	0.00347035
2250	0.00339805
2262	0.00318116
2274	0.00245817
2286	0.00318116
2298	0.00412104
2310	0.00506093
2322	0.00426564
2334	0.00289196
2346	0.000289196
2358	0.00455484
2370	0.000289196
2382	0.000289196
2394	0.00238587
2406	0.00318116
2418	0.00375955
2430	0.00274736
2442	0.00245817
2454	0.00224127
2466	0.00195207
2478	0.00202437
2490	0.00216897
2502	0.00209667
2514	0.00173518
2526	0.00159058
2538	0.00144598
2550	0.00130138
2562	0.00166288
2574	0.00137368
2586	0.00144598
2598	0.000867588
2610	0.000795289
2622	0.00101219
2634	0.000361495
2646	0.00231357
2658	0.00253046
2670	0.00455484
2682	0.00636231
2694	0.00448254
2706	0.00498863
2718	0.00419334
2730	0.00354265
2742	0.00310886
2754	0.00383185
2766	0.00368725
2778	0.00368725
2790	0.00368725
2802	0.00469943
2814	0.00527783
2826	0.0070853
2838	0.0117124
2850	0.0195207
2862	0.0283412
2874	0.040632
2886	0.048368
2898	0.0450423
2910	0.0500309
2922	0.0646353
2934	0.0861804
2946	0.116257
2958	0.148647
2970	0.14655
2982	0.0955793
2994	0.0695516
3006	0.0521276
3018	0.021762
3030	0.0113509
3042	0.00788059
3054	0.00672381
3066	0.00657921
3078	0.00506093
3090	0.00520553
3102	0.00462714
3114	0.00462714
3126	0.00477173
3138	0.00397644
3150	0.00498863
3162	0.00441024
3174	0.00498863
3186	0.00469943
3198	0.00462714
3210	0.00448254
3222	0.00368725
3234	0.00361495
3246	0.00383185
3258	0.00166288
3270	0.00318116
3282	0.0075191
3294	0.00571162
3306	0.00498863
3318	0.00527783
3330	0.00404874
3342	0.00383185
3354	0.00303656
3366	0.00339805
3378	0.00354265
3390	0.00274736
3402	0.00339805
3414	0.00347035
3426	0.00325345
3438	0.00354265
3450	0.00375955
3462	0.00281966
3474	0.00368725
3486	0.00383185
3498	0.00274736
3510	0.00657921
3522	0.00665151
3534	0.0114232
3546	0.0190146
3558	0.0444639
3570	0.208727
3582	0.243575
3594	0.035065
3606	0.0130138
3618	0.00643461
3630	0.00947117
3642	0.00491633
3654	0.00419334
3666	0.00441024
3678	0.00556702
3690	0.00621771
3702	0.00325345
3714	0.00585622
3726	0.00853128
3738	0.00867588
3750	0.00672381
3762	0.00636231
3774	0.00426564
3786	0.00426564
3798	0.00766369
3810	0.00491633
3822	0.00325345
3834	0.007013
3846	0.00614541
3858	0.00195207
3870	0.000289196
3882	0.00961577
3894	0.0161227
3906	0.0105557
3918	0.00563932
3930	0.00607312
3942	0.00347035
3954	0.00947117
3966	0.00542242
