Infrared Spectrum: Dodecane
Formula: C 12 H 26
CAS: 112-40-3
Origin: Sadtler Research Labs Under US-EPA Contract
1/CM	ABSORBANCE
450	0.003817
462	0.00286275
474	0.00486667
486	0.00553465
498	0.00438955
510	0.0041987
522	0.00353073
534	0.00410327
546	0.003817
558	0.00248105
570	0.00314903
582	0.00515295
594	0.0022902
606	0.0045804
618	0.00448498
630	0.0011451
642	0.00162223
654	0.00400785
666	0.00276733
678	0.00448498
690	0.0057255
702	0.00849283
714	0.0154588
726	0.0142183
738	0.0108784
750	0.00906538
762	0.00792028
774	0.0072523
786	0.00524838
798	0.00543922
810	0.00543922
822	0.00486667
834	0.00438955
846	0.00410327
858	0.00467582
870	0.0057255
882	0.0057255
894	0.00667975
906	0.0061072
918	0.00486667
930	0.00505753
942	0.00505753
954	0.00448498
966	0.00467582
978	0.00438955
990	0.00400785
1002	0.00353073
1014	0.00400785
1026	0.00486667
1038	0.00486667
1050	0.00477125
1062	0.00467582
1074	0.00515295
1086	0.0053438
1098	0.0045804
1110	0.00410327
1122	0.00372157
1134	0.0041987
1146	0.00362615
1158	0.00353073
1170	0.00372157
1182	0.00372157
1194	0.00391242
1206	0.00438955
1218	0.00391242
1230	0.00477125
1242	0.00515295
1254	0.0061072
1266	0.0072523
1278	0.00772942
1290	0.0099242
1302	0.0125007
1314	0.0120236
1326	0.0101151
1338	0.0147909
1350	0.0206118
1362	0.019753
1374	0.0198484
1386	0.0246196
1398	0.0122144
1410	0.00887452
1422	0.00973335
1434	0.013932
1446	0.0331125
1458	0.0619308
1470	0.0681334
1482	0.0286275
1494	0.011451
1506	0.00696602
1518	0.00515295
1530	0.00372157
1542	0.00324445
1554	0.00276733
1566	0.00248105
1578	0.00257647
1590	0.00219477
1602	0.00209935
1614	0.00209935
1626	0.00219477
1638	0.00200393
1650	0.00200393
1662	0.0019085
1674	0.00200393
1686	0.0019085
1698	0.00200393
1710	0.0019085
1722	0.00181307
1734	0.0019085
1746	0.00171765
1758	0.00181307
1770	0.00143137
1782	0.00171765
1794	0.00162223
1806	0.00104967
1818	0.00143137
1830	0.00162223
1842	0.00171765
1854	0.0015268
1866	0.0015268
1878	0.00143137
1890	0.0007634
1902	0.00124053
1914	0.00143137
1926	0.00133595
1938	0.00133595
1950	0.00095425
1962	0.000858825
1974	0.000858825
1986	0.00124053
1998	0.00124053
2010	0.00104967
2022	0.00162223
2034	0.00200393
2046	0.00200393
2058	0.00181307
2070	0.00162223
2082	0.00104967
2094	0.00095425
2106	0.00095425
2118	0.00095425
2130	0.00095425
2142	0.000858825
2154	0.000858825
2166	0.000858825
2178	0.000858825
2190	0.000858825
2202	0.0007634
2214	0.00104967
2226	0.00124053
2238	0.000858825
2250	0.000667975
2262	0.0007634
2274	0.000858825
2286	0.00124053
2298	0.000858825
2310	0.000858825
2322	0.000286275
2334	0
2346	0
2358	0
2370	0.00143137
2382	0.00219477
2394	0.00162223
2406	0.0015268
2418	0.00200393
2430	0.00200393
2442	0.0015268
2454	0.0015268
2466	0.0019085
2478	0.00200393
2490	0.00200393
2502	0.00238563
2514	0.00238563
2526	0.0022902
2538	0.00314903
2550	0.0034353
2562	0.00333987
2574	0.00333987
2586	0.00372157
2598	0.00486667
2610	0.00477125
2622	0.00477125
2634	0.00524838
2646	0.0057255
2658	0.00629805
2670	0.007634
2682	0.00858825
2694	0.00849283
2706	0.007634
2718	0.00753858
2730	0.00858825
2742	0.0109739
2754	0.0103059
2766	0.00982877
2778	0.011451
2790	0.0145046
2802	0.0178445
2814	0.0234746
2826	0.0320628
2838	0.048953
2850	0.11785
2862	0.333892
2874	0.288756
2886	0.21213
2898	0.175487
2910	0.263564
2922	0.522929
2934	0.95425
2946	0.558141
2958	0.313471
2970	0.403934
2982	0.154302
2994	0.0623125
3006	0.0383609
3018	0.0268144
3030	0.0208026
3042	0.0163177
3054	0.0122144
3066	0.00973335
3078	0.0087791
3090	0.00830197
3102	0.00734773
3114	0.00629805
3126	0.00629805
3138	0.00591635
3150	0.00629805
3162	0.00543922
3174	0.0049621
3186	0.00467582
3198	0.00467582
3210	0.00391242
3222	0.00391242
3234	0.00276733
3246	0.00295817
3258	0.00276733
3270	0.00181307
3282	0.00133595
3294	0.0022902
3306	0.00171765
3318	0.00181307
3330	0.00181307
3342	0.00238563
3354	0.0019085
3366	0.00219477
3378	0.0022902
3390	0.00171765
3402	0.00143137
3414	0.00200393
3426	0.00219477
3438	0.00124053
3450	0.00124053
3462	0.00162223
3474	0.000667975
3486	0.00143137
3498	0.00095425
3510	0.000858825
3522	0.00143137
3534	0.00171765
3546	0.000286275
3558	0.00171765
3570	0.0015268
3582	0.00124053
3594	0.0015268
3606	0.0019085
3618	0.00238563
3630	0.00286275
3642	0.00219477
3654	0.00219477
3666	0.00200393
3678	0.0019085
3690	0.00257647
3702	0.0022902
3714	0.00181307
3726	0.00219477
3738	0.00238563
3750	0.00219477
3762	0.00219477
3774	0.00238563
3786	0.00209935
3798	0.00181307
3810	0.00257647
3822	0.00333987
3834	0.0022902
3846	0.00248105
3858	0.00353073
3870	0.00171765
3882	0.00248105
3894	0.00200393
3906	0.00209935
3918	0.00248105
3930	0.00238563
3942	0.00276733
3954	0.0026719
3966	0.00238563
