Infrared Spectrum: Ethanol, 2-(2-ethoxyethoxy)-, acetate
Formula: C 8 H 16 O 4
CAS: 112-15-2
Origin: Sadtler Research Labs Under US-EPA Contract
1/CM	ABSORBANCE
450	0.0011747
462	0.00306444
474	0.00474988
486	0.00572029
498	0.0117981
510	0.0136368
522	0.0144029
534	0.0160883
546	0.0155776
558	0.0138921
570	0.0150668
582	0.017927
594	0.0190506
606	0.020685
618	0.023494
630	0.0187442
642	0.0229322
654	0.0166501
666	0.00827399
678	0.0173141
690	0.0156797
702	0.0160883
714	0.0168033
726	0.0136878
738	0.0142496
750	0.0153222
762	0.0136878
774	0.0160372
786	0.0168033
798	0.0196635
810	0.022779
822	0.0220129
834	0.0268649
846	0.0338621
858	0.0346792
870	0.0313084
882	0.0250773
894	0.0263031
906	0.0299804
918	0.0343217
930	0.0406038
942	0.0466816
954	0.0514826
966	0.0432086
978	0.0367733
990	0.0410635
1002	0.0441279
1014	0.0480606
1026	0.0673666
1038	0.0958148
1050	0.126204
1062	0.159147
1074	0.132895
1086	0.111035
1098	0.120381
1110	0.177584
1122	0.293165
1134	0.336169
1146	0.271254
1158	0.166501
1170	0.0966831
1182	0.0689499
1194	0.0620038
1206	0.0861108
1218	0.191425
1230	0.460687
1242	0.430554
1254	0.215226
1266	0.128094
1278	0.0992879
1290	0.0798287
1302	0.0608291
1314	0.0438726
1326	0.0385098
1338	0.0409613
1350	0.0677241
1362	0.0881537
1374	0.122271
1386	0.103833
1398	0.0707375
1410	0.046273
1422	0.0351389
1434	0.0366201
1446	0.046273
1458	0.0541895
1470	0.0419828
1482	0.0308998
1494	0.0266606
1506	0.0204296
1518	0.0164458
1530	0.0162926
1542	0.0152711
1554	0.0152201
1566	0.0140964
1578	0.0133303
1590	0.0132282
1602	0.0132792
1614	0.0125642
1626	0.0127174
1638	0.0122067
1650	0.0135857
1662	0.0135857
1674	0.0142496
1686	0.0147093
1698	0.0165991
1710	0.0231876
1722	0.0332492
1734	0.0500014
1746	0.104446
1758	0.260069
1770	0.297761
1782	0.121914
1794	0.0510229
1806	0.0271714
1818	0.0172119
1830	0.0132792
1842	0.0122067
1854	0.011032
1866	0.0108277
1878	0.0106234
1890	0.0102659
1902	0.0106745
1914	0.0104191
1926	0.0100616
1938	0.0106234
1950	0.0109809
1962	0.0109809
1974	0.0107766
1986	0.0102659
1998	0.0105212
2010	0.00975513
2022	0.00970406
2034	0.00919332
2046	0.00898902
2058	0.0088358
2070	0.00863151
2082	0.0090401
2094	0.00909117
2106	0.00796754
2118	0.00725251
2130	0.00709929
2142	0.0064864
2154	0.00694606
2166	0.00653747
2178	0.00607781
2190	0.0064864
2202	0.00536277
2214	0.00520955
2226	0.0049031
2238	0.00495418
2250	0.00495418
2262	0.00434129
2274	0.00459666
2286	0.00439236
2298	0.00434129
2310	0.00541384
2322	0.00515847
2334	0.00689499
2346	0.00735466
2358	0.00556707
2370	0.00689499
2382	0.00291122
2394	0.00183866
2406	0.002758
2418	0.00199189
2430	0.00245155
2442	0.00229833
2454	0.00224726
2466	0.00260477
2478	0.00178759
2490	0.00148115
2502	0.00173652
2514	0.00158329
2526	0.00127685
2538	0.00132792
2550	0.001379
2562	0.00199189
2574	0.00148115
2586	0.00250263
2598	0.00286014
2610	0.00311551
2622	0.00367733
2634	0.00265585
2646	0.00331981
2658	0.00337088
2670	0.00326874
2682	0.00474988
2694	0.00669069
2706	0.00812077
2718	0.0104191
2730	0.011032
2742	0.0124621
2754	0.0126153
2766	0.0131771
2778	0.0156286
2790	0.0183356
2802	0.022064
2814	0.0270181
2826	0.0316659
2838	0.0429532
2850	0.0720143
2862	0.124876
2874	0.16027
2886	0.145765
2898	0.11839
2910	0.103323
2922	0.093874
2934	0.0974492
2946	0.110218
2958	0.108481
2970	0.0978067
2982	0.106745
2994	0.0747213
3006	0.0336067
3018	0.0194081
3030	0.0156286
3042	0.0108788
3054	0.00888688
3066	0.00755895
3078	0.00607781
3090	0.0053117
3102	0.00388162
3114	0.0023494
3126	0.00331981
3138	0.00214511
3150	0.00188974
3162	0.00204296
3174	0.00178759
3186	0.00194081
3198	0.00219618
3210	0.00132792
3222	0.00168544
3234	0.00158329
3246	0.00188974
3258	0.000919332
3270	0.00143007
3282	0.00183866
3294	0.00107255
3306	0.00286014
3318	0.00163437
3330	0.00194081
3342	0.00306444
3354	0.00178759
3366	0.00229833
3378	0.00321766
3390	0.00204296
3402	0.00296229
3414	0.00286014
3426	0.00240048
3438	0.00383055
3450	0.00143007
3462	0.00306444
3474	0.00342196
3486	0.00296229
3498	0.00413699
3510	0.00541384
3522	0.00439236
3534	0.00342196
3546	0.00265585
3558	0.00270692
3570	0.00260477
3582	0.0025537
3594	0.00265585
3606	0.00183866
3618	0.00280907
3630	0.0011747
3642	0.00168544
3654	0.00183866
3666	0.000612888
3678	0.00132792
3690	0.00143007
3702	0.000970406
3714	0.00153222
3726	0.00153222
3738	0.00051074
3750	0.000612888
3762	0.000612888
3774	0.000715036
3786	0.000919332
3798	0.000408592
3810	0.000306444
3822	0.00025537
3834	0.000153222
3846	5.1074e-05
3858	5.1074e-05
3870	5.1074e-05
3882	5.1074e-05
3894	5.1074e-05
3906	5.1074e-05
3918	5.1074e-05
3930	5.1074e-05
3942	5.1074e-05
3954	5.1074e-05
3966	5.1074e-05
