Infrared Spectrum: 1,2-Dibutoxyethane
Formula: C 10 H 22 O 2
CAS: 112-48-1
Origin: Sadtler Research Labs Under US-EPA Contract
1/CM	ABSORBANCE
450	0.00802492
462	0.00561034
474	0.00681763
486	0.0161209
498	0.0201688
510	0.0186065
522	0.00830899
534	0.00717272
546	0.0173281
558	0.0172571
570	0.0104395
582	0.0071017
594	0.0104395
606	0.0112207
618	0.0101554
630	0.0033378
642	0.00213051
654	0.00490017
666	0.00951628
678	0.00674662
690	0.00561034
702	0.00816696
714	0.00944526
726	0.0102264
738	0.0155527
750	0.012641
762	0.0103685
774	0.0112917
786	0.0134222
798	0.0118598
810	0.016902
822	0.020808
834	0.0284068
846	0.0257082
858	0.0200978
870	0.0216602
882	0.0286909
894	0.0354375
906	0.0387753
918	0.0276966
930	0.025069
942	0.0316736
954	0.0443146
966	0.0532627
978	0.0614297
990	0.0588731
1002	0.0561034
1014	0.0659038
1026	0.079397
1038	0.0775506
1050	0.0722953
1062	0.0763433
1074	0.0936004
1086	0.151053
1098	0.283997
1110	0.481566
1122	0.687587
1134	0.639934
1146	0.422338
1158	0.228817
1170	0.116397
1182	0.0673951
1194	0.045948
1206	0.037426
1218	0.0388463
1230	0.0488597
1242	0.0607906
1254	0.0612167
1266	0.0577368
1278	0.0568846
1290	0.0613587
1302	0.0658328
1314	0.0498539
1326	0.0519134
1338	0.0558904
1350	0.0935294
1362	0.112349
1374	0.0780477
1386	0.0761302
1398	0.054186
1410	0.0330229
1422	0.0253531
1434	0.0386332
1446	0.0570267
1458	0.0867118
1470	0.096228
1482	0.0674662
1494	0.0351534
1506	0.0184644
1518	0.012499
1530	0.00923221
1542	0.00546831
1554	0.00802492
1566	0.00660458
1578	0.00369288
1590	0.00646255
1602	0.00766984
1614	0.00838001
1626	0.00688865
1638	0.00241458
1650	0.00468712
1662	0.00482916
1674	0.00695967
1686	0.00419
1698	0.00518424
1710	0.00568136
1722	0.00660458
1734	0.00859306
1746	0.0117178
1758	0.00980035
1770	0.0079539
1782	0.00852204
1794	0.0066756
1806	0.00561034
1818	0.00539729
1830	0.00532628
1842	0.00603645
1854	0.00411899
1866	0.0046161
1878	0.00468712
1890	0.00688865
1902	0.00745679
1914	0.0066756
1926	0.00653356
1938	0.00816696
1950	0.00930323
1962	0.00880611
1974	0.00724373
1986	0.00788289
1998	0.00852204
2010	0.00816696
2022	0.00774085
2034	0.00610746
2046	0.0066756
2058	0.00816696
2070	0.00809594
2082	0.00759882
2094	0.00745679
2106	0.00866407
2118	0.00894814
2130	0.00745679
2142	0.00589441
2154	0.00539729
2166	0.0066756
2178	0.00688865
2190	0.00688865
2202	0.00582339
2214	0.00610746
2226	0.00695967
2238	0.0062495
2250	0.00468712
2262	0.00340882
2274	0.00390594
2286	0.00497119
2298	0.00610746
2310	0.00568136
2322	0.00639153
2334	0.0066756
2346	0.00426102
2358	0.00589441
2370	7.1017e-05
2382	0.000355085
2394	0.00490017
2406	0.00582339
2418	0.00575238
2430	0.0037639
2442	0.00362187
2454	0.00369288
2466	0.00326678
2478	0.00220153
2490	0.00198848
2502	0.00227254
2514	0.00419
2526	0.00454509
2538	0.00262763
2550	0.00241458
2562	0.00383492
2574	0.00596543
2586	0.00674662
2598	0.00717272
2610	0.00852204
2622	0.0109366
2634	0.0104395
2646	0.00987136
2658	0.00951628
2670	0.012499
2682	0.0170441
2694	0.0226544
2706	0.0253531
2718	0.0286909
2730	0.0347273
2742	0.0401246
2754	0.0384912
2766	0.037426
2778	0.0445277
2790	0.0566716
2802	0.0700938
2814	0.0755621
2826	0.0936004
2838	0.149846
2850	0.288755
2862	0.475956
2874	0.562881
2886	0.489733
2898	0.352102
2910	0.362187
2922	0.434127
2934	0.518566
2946	0.588518
2958	0.506351
2970	0.580635
2982	0.262195
2994	0.102264
3006	0.0527656
3018	0.037497
3030	0.029401
3042	0.0218022
3054	0.0157658
3066	0.0132802
3078	0.0129251
3090	0.0105815
3102	0.00852204
3114	0.00859306
3126	0.0115758
3138	0.012499
3150	0.0100844
3162	0.00781187
3174	0.00880611
3186	0.00944526
3198	0.00951628
3210	0.00695967
3222	0.00610746
3234	0.00816696
3246	0.0101554
3258	0.00809594
3270	0.0037639
3282	0.00326678
3294	0.00582339
3306	0.00802492
3318	0.00610746
3330	0.00490017
3342	0.00539729
3354	0.00845102
3366	0.00603645
3378	0.00312475
3390	0.00326678
3402	0.00397695
3414	0.00781187
3426	0.00774085
3438	0.00518424
3450	0.00617848
3462	0.00617848
3474	0.0071017
3486	0.00404797
3498	0.00383492
3510	0.0037639
3522	0.0071017
3534	0.00759882
3546	0.00653356
3558	0.00539729
3570	0.00447407
3582	0.00688865
3594	0.00596543
3606	0.00454509
3618	0.00504221
3630	0.00717272
3642	0.0105105
3654	0.00852204
3666	0.0071017
3678	0.00305373
3690	0.00568136
3702	0.00788289
3714	0.00546831
3726	0.00490017
3738	0.00553933
3750	0.00880611
3762	0.0105815
3774	0.0066756
3786	0.00475814
3798	0.00482916
3810	0.00596543
3822	0.00809594
3834	0.00930323
3846	0.00887712
3858	0.0117888
3870	0.0139193
3882	0.0102975
3894	0.00674662
3906	0.00724373
3918	0.0120729
3930	0.0162629
3942	0.0144165
3954	0.0135642
3966	0.0154107
