Infrared Spectrum: Butane, 1,1'-[oxybis(2,1-ethanediyloxy)]bis-
Formula: C 12 H 26 O 3
CAS: 112-73-2
Origin: Sadtler Research Labs Under US-EPA Contract
1/CM	ABSORBANCE
450	0
462	0.00257619
474	0.00310919
486	0.0083504
498	0.0145688
510	0.0193658
522	0.0141246
534	0.0115484
546	0.0117261
558	0.016612
570	0.0102159
582	0.00852806
594	0.00266502
606	0.00550771
618	0.00817273
630	0.00755089
642	0.00621838
654	0.00675138
666	0.00230968
678	0.00568538
690	0.00515237
702	0.0044417
714	0.00541887
726	0.00799506
738	0.0169673
750	0.0119038
762	0.0091499
774	0.0083504
786	0.0104824
798	0.0131474
810	0.0190105
822	0.025673
834	0.0342899
846	0.0334904
858	0.0325132
870	0.0334016
882	0.0345564
894	0.0437063
906	0.0468155
918	0.0426403
930	0.0473485
942	0.0520567
954	0.061029
966	0.0730215
978	0.0811943
990	0.0751536
1002	0.0756866
1014	0.0905218
1026	0.105446
1038	0.107489
1050	0.105268
1062	0.12037
1074	0.154216
1086	0.23843
1098	0.418053
1110	0.660747
1122	0.880078
1134	0.807057
1146	0.598475
1158	0.365552
1170	0.192326
1182	0.114862
1194	0.0755977
1206	0.0570314
1218	0.0545441
1230	0.067958
1242	0.0871462
1254	0.0931869
1266	0.0827045
1278	0.0803948
1290	0.0954965
1302	0.0926539
1314	0.0689352
1326	0.0713337
1338	0.0749759
1350	0.13716
1362	0.131297
1374	0.0949635
1386	0.0831486
1398	0.0536557
1410	0.0358001
1422	0.0307366
1434	0.0423738
1446	0.0692017
1458	0.112109
1470	0.110065
1482	0.0723109
1494	0.0342899
1506	0.0185663
1518	0.0120814
1530	0.00897223
1542	0.00763972
1554	0.00719555
1566	0.00550771
1578	0.00568538
1590	0.0041752
1602	0.0047082
1614	0.00461937
1626	0.0039087
1638	0.0039087
1650	0.00364219
1662	0.00373103
1674	0.0039087
1686	0.0041752
1698	0.0049747
1710	0.00533004
1722	0.00763972
1734	0.0151018
1746	0.0345564
1758	0.040153
1770	0.0252289
1782	0.0196323
1794	0.0168785
1806	0.0100382
1818	0.00630721
1830	0.00355336
1842	0.00302036
1854	0.00248735
1866	0.00239852
1878	0.00230968
1890	0.00293152
1902	0.00328686
1914	0.0041752
1926	0.00568538
1938	0.00657372
1950	0.00843923
1962	0.0088834
1974	0.00852806
1986	0.00799506
1998	0.00746206
2010	0.00692905
2022	0.00639605
2034	0.00746206
2046	0.00710672
2058	0.00755089
2070	0.00577421
2082	0.00710672
2094	0.00666255
2106	0.00568538
2118	0.00515237
2130	0.00559654
2142	0.00533004
2154	0.00479704
2166	0.00435287
2178	0.00453053
2190	0.00328686
2202	0.00408636
2214	0.00230968
2226	0.00257619
2238	0.00230968
2250	0.00355336
2262	0.00310919
2274	0.00302036
2286	0.00275385
2298	0.00319802
2310	0.00310919
2322	0.00399753
2334	0.00355336
2346	0.00168785
2358	0.00337569
2370	0.00142134
2382	0.00213202
2394	0.00213202
2406	0.00106601
2418	0.00115484
2430	0.00124368
2442	0.00106601
2454	0.00106601
2466	0.000977174
2478	0.00088834
2490	0.00106601
2502	0.00044417
2514	0.00133251
2526	0.000355336
2538	0.00151018
2550	0.000977174
2562	0.00177668
2574	0.00239852
2586	0.0049747
2598	0.00568538
2610	0.00577421
2622	0.00568538
2634	0.00577421
2646	0.00604071
2658	0.00781739
2670	0.0106601
2682	0.0147464
2694	0.022475
2706	0.0286934
2718	0.0325132
2730	0.0367773
2742	0.040686
2754	0.0410413
2766	0.0437063
2778	0.0507242
2790	0.061562
2802	0.0756866
2814	0.0871462
2826	0.106157
2838	0.163988
2850	0.315538
2862	0.544908
2874	0.67274
2886	0.600429
2898	0.446657
2910	0.440617
2922	0.498892
2934	0.576888
2946	0.649643
2958	0.54855
2970	0.62699
2982	0.285068
2994	0.115395
3006	0.0590746
3018	0.0354448
3030	0.0271832
3042	0.0196323
3054	0.0159901
3066	0.0115484
3078	0.0109266
3090	0.00826156
3102	0.00701789
3114	0.00710672
3126	0.0047082
3138	0.0047082
3150	0.00515237
3162	0.0041752
3174	0.00364219
3186	0.0047082
3198	0.0039087
3210	0.0039087
3222	0.00204318
3234	0.00239852
3246	0.00168785
3258	0.00257619
3270	0.00142134
3282	0.00115484
3294	0.00159901
3306	0.00204318
3318	0.000799506
3330	0.00088834
3342	0.00195435
3354	0.00133251
3366	0.00088834
3378	0.000177668
3390	0.00204318
3402	0.00213202
3414	0.000533004
3426	0.000266502
3438	0.00337569
3450	0.00168785
3462	0.00177668
3474	0.00115484
3486	0.00257619
3498	0.00248735
3510	0.00106601
3522	0.00151018
3534	0.00168785
3546	0.00159901
3558	0.00310919
3570	0.00293152
3582	0.00213202
3594	0.00302036
3606	0.00195435
3618	0.00204318
3630	0.00257619
3642	0.00239852
3654	0.00319802
3666	0.000799506
3678	0.00346453
3690	0.00044417
3702	0.00124368
3714	0.00284269
3726	0.00239852
3738	0.00230968
3750	0.000266502
3762	0.00142134
3774	0.00151018
3786	0.00239852
3798	0.00159901
3810	0.00239852
3822	0.0047082
3834	0.00373103
3846	0.00399753
3858	0.00373103
3870	0.00373103
3882	0.00364219
3894	0.00488587
3906	0.0047082
3918	0.00461937
3930	0.00461937
3942	0.00293152
3954	0.00319802
3966	0.00426403
