Infrared Spectrum: Acetic acid, heptyl ester
Formula: C 9 H 18 O 2
CAS: 112-06-1
Origin: Sadtler Research Labs Under US-EPA Contract
1/CM	ABSORBANCE
450	0.00752539
462	0.00660766
474	0.00471101
486	0.00636293
498	0.00397683
510	0.00263083
522	0.00354856
534	0.00354856
546	0.00220255
558	0.000428274
570	0.00452747
582	0.00562874
594	0.00795366
606	0.0126647
618	0.0101562
630	0.0159073
642	0.0158461
654	0.00844312
666	0.0037321
678	0.00697475
690	0.0085043
702	0.00942203
714	0.00862666
726	0.0108904
738	0.0104009
750	0.00673002
762	0.00936085
774	0.00795366
786	0.0105845
798	0.00728066
810	0.00948321
822	0.0126035
834	0.0117469
846	0.0132153
858	0.0133989
870	0.0129094
882	0.0127259
894	0.0146225
906	0.0122976
918	0.0123588
930	0.0129094
942	0.015112
954	0.0171921
966	0.0204348
978	0.0186605
990	0.0173145
1002	0.026553
1014	0.0442958
1026	0.0759269
1038	0.105784
1050	0.0961169
1062	0.0834522
1074	0.0674226
1086	0.0473549
1098	0.0291226
1110	0.0175592
1122	0.017131
1134	0.0156626
1146	0.0116858
1158	0.0146225
1170	0.0150508
1182	0.0204348
1194	0.0343231
1206	0.0713994
1218	0.17963
1230	0.483032
1242	0.517355
1254	0.208692
1266	0.115328
1278	0.0657706
1290	0.0414202
1302	0.0318146
1314	0.023188
1326	0.0185993
1338	0.0182934
1350	0.0256353
1362	0.0716441
1374	0.104193
1386	0.0633234
1398	0.0504751
1410	0.0224538
1422	0.0182934
1434	0.0214749
1446	0.0310193
1458	0.0455194
1470	0.0476608
1482	0.0290614
1494	0.0169474
1506	0.014806
1518	0.0118081
1530	0.0111351
1542	0.0110128
1554	0.00825957
1566	0.00489456
1578	0.00691357
1590	0.00703593
1602	0.00740302
1614	0.00789248
1626	0.00807602
1638	0.00936085
1650	0.00825957
1662	0.00801484
1674	0.00801484
1686	0.00978912
1698	0.0121752
1710	0.0178651
1722	0.0306522
1734	0.0554921
1746	0.121691
1758	0.315883
1770	0.275197
1782	0.0961781
1794	0.0405637
1806	0.0199453
1818	0.010768
1830	0.00795366
1842	0.00599584
1854	0.00489456
1866	0.0047722
1878	0.00416038
1890	0.00434392
1902	0.0037321
1914	0.00330383
1926	0.00324265
1938	0.00287555
1950	0.00269201
1962	0.00318146
1974	0.00256964
1986	0.00269201
1998	0.00244728
2010	0.0030591
2022	0.00299792
2034	0.00293674
2046	0.00299792
2058	0.00281437
2070	0.00299792
2082	0.00330383
2094	0.00275319
2106	0.00275319
2118	0.00275319
2130	0.00226373
2142	0.00220255
2154	0.00201901
2166	0.00226373
2178	0.00263083
2190	0.00201901
2202	0.000978912
2214	6.1182e-05
2226	0.000489456
2238	0.00146837
2250	0.00146837
2262	0.00146837
2274	0.00152955
2286	0.00159073
2298	0.00195782
2310	0.00201901
2322	0.00189664
2334	0.00256964
2346	0.00256964
2358	0.00299792
2370	0.00226373
2382	0.00152955
2394	0.00104009
2406	0.00152955
2418	0.00152955
2430	0.00152955
2442	0.00152955
2454	0.00195782
2466	0.00201901
2478	0.00195782
2490	0.00152955
2502	0.00152955
2514	0.00146837
2526	0.00146837
2538	0.00146837
2550	0.00146837
2562	0.00146837
2574	0.00195782
2586	0.00201901
2598	0.00220255
2610	0.00244728
2622	0.00250846
2634	0.00256964
2646	0.00287555
2658	0.00275319
2670	0.00348737
2682	0.00354856
2694	0.0037321
2706	0.0037321
2718	0.00348737
2730	0.00403801
2742	0.00458865
2754	0.00446629
2766	0.00409919
2778	0.00446629
2790	0.0054452
2802	0.00660766
2814	0.00825957
2826	0.0113187
2838	0.0168862
2850	0.0371375
2862	0.0936085
2874	0.108659
2886	0.0878574
2898	0.0710935
2910	0.0987477
2922	0.164151
2934	0.268895
2946	0.248154
2958	0.182322
2970	0.211567
2982	0.102052
2994	0.043378
3006	0.0231268
3018	0.0156014
3030	0.0129094
3042	0.0110128
3054	0.00899375
3066	0.00740302
3078	0.00642411
3090	0.00495574
3102	0.00458865
3114	0.00348737
3126	0.00244728
3138	0.00226373
3150	0.00195782
3162	0.00152955
3174	0.00146837
3186	0.00140719
3198	0.001346
3210	0.00091773
3222	0.000489456
3234	0.000978912
3246	0.000734184
3258	0.00091773
3270	0.000978912
3282	0.000489456
3294	0.000550638
3306	0.000244728
3318	0.000550638
3330	0.000550638
3342	6.1182e-05
3354	6.1182e-05
3366	0.000550638
3378	6.1182e-05
3390	0.000550638
3402	0
3414	0.000489456
3426	0.000489456
3438	0.00104009
3450	0.00030591
3462	0.000734184
3474	0.00104009
3486	0.00146837
3498	0.00256964
3510	0.00360974
3522	0.00122364
3534	0.000489456
3546	0.000550638
3558	6.1182e-05
3570	0.00104009
3582	0.000122364
3594	0.000489456
3606	6.1182e-05
3618	0.00091773
3630	0.00091773
3642	6.1182e-05
3654	0.000489456
3666	0.000489456
3678	0.001346
3690	0.000856548
3702	6.1182e-05
3714	0.00104009
3726	0.00159073
3738	0.00122364
3750	0.00146837
3762	0.00146837
3774	0.000489456
3786	0.000550638
3798	0.00140719
3810	0.00152955
3822	0.00146837
3834	0.00110128
3846	0.000978912
3858	0.00140719
3870	0.00152955
3882	0.00146837
3894	0.000978912
3906	0.000489456
3918	0.000550638
3930	6.1182e-05
3942	0.00104009
3954	6.1182e-05
3966	6.1182e-05
