Infrared Spectrum: Tetradecane, 1-bromo-
Formula: C 14 H 29 Br
CAS: 112-71-0
Origin: Sadtler Research Labs Under US-EPA Contract
1/CM	ABSORBANCE
450	0.0105997
462	0.0126411
474	0.0165669
486	0.0163313
498	0.0137403
510	0.0128766
522	0.0116989
534	0.0105997
546	0.0101286
558	0.0159387
570	0.0186868
582	0.00753754
594	0.00565315
606	0.00376877
618	0.00510354
630	0.00918637
642	0.0155462
654	0.0185298
666	0.01217
678	0.00502502
690	0.0058887
702	0.00690941
714	0.0152321
726	0.0139758
738	0.0139758
750	0.00997153
762	0.0083227
774	0.00816566
786	0.00526057
798	0.00604573
810	0.00471096
822	0.00369025
834	0.00235548
846	0.00282658
858	0.00486799
870	0.00510354
882	0.00549612
894	0.00612425
906	0.00298361
918	0.00471096
930	0.00408283
942	0.00416135
954	0.00486799
966	0.00549612
978	0.00408283
990	0.0039258
1002	0.00369025
1014	0.00376877
1026	0.0034547
1038	0.00266954
1050	0.00455393
1062	0.00306212
1074	0.00502502
1086	0.00290509
1098	0.00620276
1110	0.00259103
1122	0.00361174
1134	0.00306212
1146	0.00306212
1158	0.00494651
1170	0.00455393
1182	0.00526057
1194	0.00753754
1206	0.0143684
1218	0.0200216
1230	0.0236333
1242	0.0266954
1254	0.0313279
1266	0.031956
1278	0.0263814
1290	0.0234763
1302	0.0210423
1314	0.0177446
1326	0.0132692
1338	0.0169595
1350	0.0244185
1362	0.021906
1374	0.0180587
1386	0.0146825
1398	0.00879379
1410	0.00761605
1422	0.00973598
1434	0.0224556
1446	0.0411424
1458	0.0612425
1470	0.049308
1482	0.0193149
1494	0.00926489
1506	0.00722347
1518	0.00518206
1530	0.00266954
1542	0.00549612
1554	0.00274806
1566	0.00266954
1578	0.00259103
1590	0.0014918
1602	0.00102071
1614	0.000863676
1626	0.00188438
1638	0.00117774
1650	0.00211993
1662	0.000863676
1674	0.00204142
1686	0.002434
1698	0.00274806
1710	0.00219845
1722	0.000863676
1734	0.00408283
1746	0.000942192
1758	0.00306212
1770	0.00227696
1782	0.00211993
1794	0.00274806
1806	0.000628128
1818	0.00117774
1830	0.000471096
1842	0.00188438
1854	0.00078516
1866	0.00133477
1878	0.000863676
1890	0.000628128
1902	0.00125626
1914	0.000942192
1926	0.00141329
1938	0.00102071
1950	0.00204142
1962	0.000471096
1974	0.00125626
1986	0.00164884
1998	0.0014918
2010	0.00219845
2022	0.00133477
2034	0.00282658
2046	0.00204142
2058	0.00298361
2070	0.00211993
2082	0.00204142
2094	0.00180587
2106	0.00172735
2118	0.00274806
2130	0.00164884
2142	0.00306212
2154	0.00172735
2166	0.0019629
2178	0.00219845
2190	0.00211993
2202	0.00337619
2214	0.00180587
2226	0.002434
2238	0.00157032
2250	0.00211993
2262	0.0019629
2274	0.00172735
2286	0.0019629
2298	0.0014918
2310	0.00549612
2322	0.00659534
2334	0.0102071
2346	0.0098145
2358	0.0130337
2370	0.0110708
2382	0.00408283
2394	0.00282658
2406	0.00125626
2418	0.00306212
2430	0.00078516
2442	0.00164884
2454	0.00117774
2466	0.00133477
2478	0.0019629
2490	0.00102071
2502	0.00172735
2514	0.000706644
2526	0.00211993
2538	0.0014918
2550	0.00219845
2562	0.00227696
2574	0.00235548
2586	0.00314064
2598	0.00321916
2610	0.0039258
2622	0.00337619
2634	0.00455393
2646	0.00518206
2658	0.00581018
2670	0.00698792
2682	0.00745902
2694	0.00840121
2706	0.00620276
2718	0.00643831
2730	0.00604573
2742	0.00753754
2754	0.00730199
2766	0.00816566
2778	0.00926489
2790	0.01217
2802	0.0166454
2814	0.019786
2826	0.0304642
2838	0.0456963
2850	0.105447
2862	0.283992
2874	0.213721
2886	0.143684
2898	0.142428
2910	0.226754
2922	0.429875
2934	0.78516
2946	0.481696
2958	0.229895
2970	0.208067
2982	0.0978309
2994	0.0480518
3006	0.0347041
3018	0.0324271
3030	0.0160173
3042	0.0122485
3054	0.00973598
3066	0.0073805
3078	0.00596722
3090	0.00463244
3102	0.00596722
3114	0.00290509
3126	0.00431838
3138	0.00353322
3150	0.00282658
3162	0.00400432
3174	0.00314064
3186	0.002434
3198	0.00266954
3210	0.00204142
3222	0.00157032
3234	0.00164884
3246	0.00133477
3258	0.00157032
3270	0.00282658
3282	0.00180587
3294	0.00188438
3306	0.00133477
3318	0.00164884
3330	0.002434
3342	0.00141329
3354	0.00188438
3366	0.00211993
3378	0.00141329
3390	0.0014918
3402	0.00172735
3414	0.00109922
3426	0.00204142
3438	0.00117774
3450	0.00172735
3462	0.00133477
3474	0.000549612
3486	0.00117774
3498	0.00039258
3510	0.00141329
3522	0.00109922
3534	0.00125626
3546	0.00180587
3558	0.00078516
3570	0.00204142
3582	0.00133477
3594	0.002434
3606	0.0014918
3618	0.0019629
3630	0.00251251
3642	0.0014918
3654	0.0014918
3666	0.00117774
3678	0.00290509
3690	0.00164884
3702	0.000628128
3714	0.000706644
3726	0.000235548
3738	0.00133477
3750	0.000235548
3762	0
3774	0
3786	0
3798	0
3810	0
3822	0
3834	0
3846	0
3858	0
3870	0
3882	0
3894	0
3906	0
3918	0
3930	0
3942	0
3954	0
3966	0
