Infrared Spectrum: Undecanoic acid
Formula: C 11 H 22 O 2
CAS: 112-37-8
Origin: Sadtler Research Labs Under US-EPA Contract
1/CM	ABSORBANCE
450	0.0162817
462	0.0284492
474	0.0131304
486	0.0238098
498	0.0253417
510	0.0252979
522	0.0247727
534	0.0296747
546	0.0350144
558	0.0448622
570	0.0393037
582	0.0497204
594	0.0435054
606	0.0497204
618	0.0467442
630	0.0425425
642	0.0316005
654	0.0224092
666	0.0178573
678	0.0157127
690	0.0165005
702	0.0179449
714	0.0204834
726	0.0210962
738	0.0189078
750	0.0164568
762	0.0146185
774	0.0115548
786	0.0119487
798	0.0130866
810	0.0109858
822	0.00923505
834	0.0112484
846	0.0101542
858	0.00919128
870	0.011511
882	0.0103292
894	0.0115548
906	0.0112921
918	0.0104168
930	0.010373
942	0.00976026
954	0.00954142
966	0.0105043
978	0.0117298
990	0.0129553
1002	0.0139182
1014	0.0166756
1026	0.0207023
1038	0.028493
1050	0.03659
1062	0.0441619
1074	0.0572923
1086	0.0811896
1098	0.118305
1110	0.131742
1122	0.122682
1134	0.13253
1146	0.106531
1158	0.0779508
1170	0.065083
1182	0.0568109
1194	0.047532
1206	0.03961
1218	0.0334825
1230	0.0284054
1242	0.0261733
1254	0.0268736
1266	0.0280991
1278	0.0268298
1290	0.0253417
1302	0.0252104
1314	0.0242475
1326	0.0238973
1338	0.0286243
1350	0.0373779
1362	0.0425425
1374	0.0464816
1386	0.045475
1398	0.0298935
1410	0.0201333
1422	0.0211837
1434	0.0232408
1446	0.0297622
1458	0.0449935
1470	0.0410544
1482	0.0187765
1494	0.0102417
1506	0.00809708
1518	0.00678404
1530	0.00442057
1542	0.00713418
1554	0.00468318
1566	0.00485825
1578	0.00665274
1590	0.00551477
1602	0.00407042
1614	0.00551477
1626	0.00398289
1638	0.00660897
1650	0.00420173
1662	0.00485825
1674	0.00612752
1686	0.00989157
1698	0.00954142
1710	0.0136556
1722	0.0241599
1734	0.0392161
1746	0.0772943
1758	0.128941
1770	0.219759
1782	0.277051
1794	0.153319
1806	0.0824589
1818	0.0356709
1830	0.0164568
1842	0.0105481
1854	0.00665274
1866	0.00529593
1878	0.00472694
1890	0.00407042
1902	0.00446434
1914	0.00358898
1926	0.00240724
1938	0.00236347
1950	0.00183826
1962	0.0010942
1974	0.000175072
1986	0.00126927
1998	0.00236347
2010	0.0032826
2022	0.00337014
2034	0.00376405
2046	0.00389535
2058	0.00319506
2070	0.00354521
2082	0.00358898
2094	0.00372028
2106	0.0034139
2118	0.00363274
2130	0.00411419
2142	0.00363274
2154	0.00385158
2166	0.00420173
2178	0.00367651
2190	0.0032826
2202	0.00367651
2214	0.00367651
2226	0.00398289
2238	0.0034139
2250	0.00310753
2262	0.0031513
2274	0.0031513
2286	0.0034139
2298	0.00354521
2310	0.00323883
2322	0.00258231
2334	0.00420173
2346	0.00722172
2358	0.00301999
2370	0.00923505
2382	0.0086223
2394	0.0042455
2406	0.00354521
2418	0.00358898
2430	0.00415796
2442	0.00363274
2454	0.00345767
2466	0.00310753
2478	0.00271362
2490	0.00354521
2502	0.00363274
2514	0.00380782
2526	0.00301999
2538	0.00227594
2550	0.00227594
2562	0.00258231
2574	0.00280115
2586	0.00411419
2598	0.00503332
2610	0.005471
2622	0.00608375
2634	0.00634636
2646	0.00700288
2658	0.00796578
2670	0.00910374
2682	0.00910374
2694	0.00879737
2706	0.00976026
2718	0.0107232
2730	0.0121237
2742	0.0121675
2754	0.0122113
2766	0.0108545
2778	0.010373
2790	0.0121237
2802	0.0141808
2814	0.0177698
2826	0.0231095
2838	0.0322132
2850	0.0644265
2862	0.15275
2874	0.150693
2886	0.111871
2898	0.0977339
2910	0.142158
2922	0.265584
2934	0.43768
2946	0.338327
2958	0.205666
2970	0.177654
2982	0.088849
2994	0.0451686
3006	0.0293683
3018	0.0207898
3030	0.0170695
3042	0.0137869
3054	0.0104606
3066	0.00866606
3078	0.00818462
3090	0.00744056
3102	0.00730926
3114	0.00568984
3126	0.00297622
3138	0.00280115
3150	0.00337014
3162	0.0042455
3174	0.00446434
3186	0.00512086
3198	0.00551477
3210	0.00608375
3222	0.00617129
3234	0.00582114
3246	0.00647766
3258	0.00582114
3270	0.0065652
3282	0.00564607
3294	0.00573361
3306	0.00730926
3318	0.00717795
3330	0.00730926
3342	0.00577738
3354	0.00586491
3366	0.00687158
3378	0.0075281
3390	0.00630259
3402	0.00617129
3414	0.00573361
3426	0.00582114
3438	0.00490202
3450	0.00472694
3462	0.0043768
3474	0.00468318
3486	0.00472694
3498	0.00555854
3510	0.00516462
3522	0.00582114
3534	0.00787824
3546	0.00884114
3558	0.0171133
3570	0.0725236
3582	0.0983467
3594	0.0215776
3606	0.00962896
3618	0.00805331
3630	0.00730926
3642	0.00700288
3654	0.00853476
3666	0.00674027
3678	0.00520839
3690	0.00761563
3702	0.00844722
3714	0.00805331
3726	0.00630259
3738	0.00945389
3750	0.0118611
3762	0.00507709
3774	0.00376405
3786	0.00564607
3798	0.00494578
3810	0.00919128
3822	0.00704665
3834	0.00621506
3846	0.00700288
3858	0.0098478
3870	0.00647766
3882	0.00503332
3894	0.00647766
3906	0.00879737
3918	0.00639013
3930	0.00564607
3942	0.00516462
3954	0.00573361
3966	0.0086223
