Infrared Spectrum: Undecylenic Acid
Formula: C 11 H 20 O 2
CAS: 112-38-9
Origin: Sadtler Research Labs Under US-EPA Contract
1/CM	ABSORBANCE
450	0.0710844
462	0.0741683
474	0.0826491
486	0.0895879
498	0.0861956
510	0.103003
522	0.130912
534	0.165761
546	0.206931
558	0.262442
570	0.240392
582	0.200146
594	0.123665
606	0.0926718
618	0.127828
630	0.131683
642	0.142015
654	0.13045
666	0.0612158
678	0.0436375
690	0.0476466
702	0.0658417
714	0.0673837
726	0.0498053
738	0.0300682
750	0.016499
762	0.0109479
774	0.00524266
786	0.0040091
798	0.00493427
810	0.0114105
822	0.0175783
834	0.0231294
846	0.0323812
858	0.0391658
870	0.0422497
882	0.0419413
894	0.0363903
906	0.0294514
918	0.0262133
930	0.0240546
942	0.0329979
954	0.0572067
966	0.0960641
978	0.156201
990	0.139239
1002	0.0797193
1014	0.0633746
1026	0.0609074
1038	0.0641455
1050	0.0824949
1062	0.122894
1074	0.167148
1086	0.221271
1098	0.406615
1110	0.72873
1122	0.634208
1134	0.588412
1146	0.516402
1158	0.454724
1170	0.334143
1182	0.222196
1194	0.139239
1206	0.106549
1218	0.100073
1230	0.103928
1242	0.116264
1254	0.129833
1266	0.130141
1278	0.126441
1290	0.12274
1302	0.122123
1314	0.112717
1326	0.12089
1338	0.182105
1350	0.274006
1362	0.304383
1374	0.222042
1386	0.11796
1398	0.0639913
1410	0.0462588
1422	0.0493427
1434	0.0630662
1446	0.0977603
1458	0.126132
1470	0.107937
1482	0.0410161
1494	0.0161906
1506	0.0118731
1518	0.0037007
1530	0.00169616
1542	0.00663043
1554	0
1566	0.000616784
1578	0.0038549
1590	0.00077098
1602	0.0038549
1614	0.0115647
1626	0.0300682
1638	0.084191
1650	0.236074
1662	0.278632
1674	0.0632204
1686	0.0417871
1698	0.0582861
1710	0.0957557
1722	0.176246
1734	0.34324
1746	0.746617
1758	1.48753
1770	1.03018
1782	0.513935
1794	0.263675
1806	0.128754
1818	0.0706218
1830	0.0362361
1842	0.0203539
1854	0.0143402
1866	0.0101769
1878	0.00647623
1890	0.00601364
1902	0.00354651
1914	0.00185035
1926	0.00292972
1938	0.00200455
1950	0.00339231
1962	0.0037007
1974	0.00308392
1986	0.00308392
1998	0.0037007
2010	0.00416329
2022	0.00508847
2034	0.00601364
2046	0.00616784
2058	0.00601364
2070	0.00585945
2082	0.00478008
2094	0.00508847
2106	0.00416329
2118	0.00339231
2130	0.0038549
2142	0.00416329
2154	0.00416329
2166	0.00447168
2178	0.00478008
2190	0.00493427
2202	0.00555106
2214	0.00555106
2226	0.00616784
2238	0.00601364
2250	0.00539686
2262	0.00493427
2274	0.00508847
2286	0.0075556
2298	0.0114105
2310	0.0143402
2322	0.0134151
2334	0.0107937
2346	0.00894337
2358	0.0132609
2370	0.00308392
2382	0.00539686
2394	0.00447168
2406	0.00431749
2418	0.0040091
2430	0.0038549
2442	0.00431749
2454	0.00354651
2466	0.0040091
2478	0.00478008
2490	0.00462588
2502	0.0040091
2514	0.00478008
2526	0.00508847
2538	0.00493427
2550	0.00462588
2562	0.0038549
2574	0.00524266
2586	0.00709302
2598	0.00647623
2610	0.0075556
2622	0.0075556
2634	0.00863498
2646	0.0111021
2658	0.0132609
2670	0.0160364
2682	0.0175783
2694	0.01727
2706	0.0154196
2718	0.015728
2730	0.015728
2742	0.0180409
2754	0.0180409
2766	0.0188119
2778	0.0222042
2790	0.0279095
2802	0.0348483
2814	0.0478008
2826	0.0663043
2838	0.102078
2850	0.217571
2862	0.498516
2874	0.482171
2886	0.357426
2898	0.327666
2910	0.478779
2922	0.856559
2934	1.45037
2946	1.07058
2958	0.58209
2970	0.564512
2982	0.25612
2994	0.127058
3006	0.0872749
3018	0.0664585
3030	0.0561273
3042	0.0474924
3054	0.0442543
3066	0.0408619
3078	0.0303766
3090	0.0232836
3102	0.0195829
3114	0.0183493
3126	0.016499
3138	0.0140318
3150	0.0148028
3162	0.0152654
3174	0.0154196
3186	0.0131067
3198	0.0143402
3210	0.0107937
3222	0.0126441
3234	0.0131067
3246	0.0115647
3258	0.00986854
3270	0.0101769
3282	0.00447168
3294	0.00493427
3306	0.00878917
3318	0.00848078
3330	0.00817239
3342	0.00909756
3354	0.00925176
3366	0.0111021
3378	0.0112563
3390	0.0104853
3402	0.0112563
3414	0.0123357
3426	0.00925176
3438	0.00940596
3450	0.00909756
3462	0.0104853
3474	0.0138776
3486	0.015728
3498	0.0192745
3510	0.0192745
3522	0.0160364
3534	0.0155738
3546	0.0186577
3558	0.0379322
3570	0.1323
3582	0.628503
3594	0.232682
3606	0.037778
3618	0.0232836
3630	0.0198913
3642	0.0181951
3654	0.0148028
3666	0.0146486
3678	0.0181951
3690	0.0195829
3702	0.0154196
3714	0.0175783
3726	0.0144944
3738	0.0160364
3750	0.014957
3762	0.0134151
3774	0.0132609
3786	0.00956015
3798	0.0154196
3810	0.00848078
3822	0.0154196
3834	0.0143402
3846	0.00925176
3858	0.00894337
3870	0.0151112
3882	0.0255965
3894	0.0177325
3906	0.0104853
3918	0.0118731
3930	0.0123357
3942	0.0168074
3954	0.015728
3966	0.0104853
