Infrared Spectrum: 1-Dodecanamine, N,N-dimethyl-
Formula: C 14 H 31 N
CAS: 112-18-5
Origin: Sadtler Research Labs Under US-EPA Contract
1/CM	ABSORBANCE
450	0.001967
462	0.00536454
474	0.00965617
486	0.0103714
498	0.0189547
510	0.0187759
522	0.0103714
534	0.0132325
546	0.00768917
558	0.0128749
570	0.0144843
582	0.00518572
594	0.00947735
606	0.00572218
618	0.011802
630	0.00983499
642	0.00786799
654	0.00625863
666	0.00768917
678	0.00679508
690	0.0100138
702	0.0182394
714	0.0327237
726	0.0359424
738	0.0168089
750	0.0330813
762	0.0211005
774	0.0200276
786	0.0185971
798	0.0194912
810	0.0205641
822	0.0212793
834	0.0277168
846	0.0302202
858	0.0221734
870	0.0175242
882	0.015736
894	0.0130537
906	0.0153783
918	0.0128749
930	0.0119808
942	0.0119808
954	0.0146631
966	0.0193123
978	0.0228887
990	0.0259286
1002	0.0329025
1014	0.0491749
1026	0.0647321
1038	0.0945947
1050	0.105324
1062	0.0777858
1074	0.0607981
1086	0.0438104
1098	0.0409493
1110	0.0364789
1122	0.0336178
1134	0.0248557
1146	0.0414858
1158	0.050069
1170	0.0407705
1182	0.0329025
1194	0.0287897
1206	0.0278956
1218	0.0296838
1230	0.0332601
1242	0.0375518
1254	0.0516784
1266	0.0749247
1278	0.0670567
1290	0.0568641
1302	0.0556124
1314	0.0468503
1326	0.033439
1338	0.037373
1350	0.0582947
1362	0.0620498
1374	0.0758188
1386	0.0659838
1398	0.0284321
1410	0.0232463
1422	0.0264651
1434	0.0507843
1446	0.114086
1458	0.199561
1470	0.207787
1482	0.0781435
1494	0.0321872
1506	0.01967
1518	0.0134113
1530	0.00911972
1542	0.00911972
1554	0.00715272
1566	0.00464927
1578	0.0050069
1590	0.003934
1602	0.00429163
1614	0.00464927
1626	0.00357636
1638	0.0050069
1650	0.00661627
1662	0.00232463
1674	0.00429163
1686	0.00590099
1698	0.00733154
1710	0.00911972
1722	0.00661627
1734	0.00482809
1746	0.00286109
1758	0.00357636
1770	0.00357636
1782	0.00321872
1794	0.00303991
1806	0.00232463
1818	0.00178818
1830	0.001967
1842	0.00125173
1854	0.001967
1866	0.00160936
1878	0.00143054
1890	0.00178818
1902	0.00143054
1914	0.00089409
1926	0.000357636
1938	0.00107291
1950	0.000536454
1962	0.00089409
1974	0.00089409
1986	0.00089409
1998	0.00125173
2010	0.00160936
2022	0.00232463
2034	0.00286109
2046	0.00268227
2058	0.00250345
2070	0.00250345
2082	0.00232463
2094	0.00214582
2106	0.00178818
2118	0.00143054
2130	0.00089409
2142	0.00107291
2154	0.000715272
2166	0.00125173
2178	0.000536454
2190	0.00089409
2202	0.000715272
2214	0.000357636
2226	0.000715272
2238	0.000357636
2250	0.00089409
2262	0.000536454
2274	0.00125173
2286	0.00107291
2298	0.000715272
2310	0.00160936
2322	0.00232463
2334	0.00250345
2346	0.00214582
2358	0.00303991
2370	0.00250345
2382	0.00125173
2394	0.00214582
2406	0.00232463
2418	0.00232463
2430	0.00303991
2442	0.00286109
2454	0.00250345
2466	0.00250345
2478	0.00303991
2490	0.0050069
2502	0.00607981
2514	0.00679508
2526	0.00733154
2538	0.00733154
2550	0.00715272
2562	0.00768917
2574	0.00858326
2586	0.00929854
2598	0.0110867
2610	0.0121596
2622	0.0143054
2634	0.0160936
2646	0.0193123
2658	0.0239616
2670	0.0287897
2682	0.0330813
2694	0.0384459
2706	0.0482809
2718	0.0688449
2730	0.087442
2742	0.103178
2754	0.140909
2766	0.291831
2778	0.380346
2790	0.330098
2802	0.226741
2814	0.208323
2826	0.263935
2838	0.180249
2850	0.279135
2862	0.757115
2874	0.551296
2886	0.376591
2898	0.367292
2910	0.560952
2922	0.989936
2934	1.78818
2946	1.23367
2958	0.673071
2970	0.621929
2982	0.378915
2994	0.154678
3006	0.0727789
3018	0.0466715
3030	0.0341542
3042	0.0261074
3054	0.0214582
3066	0.017703
3078	0.0150207
3090	0.0128749
3102	0.0110867
3114	0.00983499
3126	0.00929854
3138	0.00840445
3150	0.00876208
3162	0.00786799
3174	0.00751036
3186	0.00715272
3198	0.0069739
3210	0.00554336
3222	0.00411281
3234	0.00357636
3246	0.00268227
3258	0.00214582
3270	0.00214582
3282	0.00232463
3294	0.00160936
3306	0.00160936
3318	0.00125173
3330	0.00107291
3342	0.00232463
3354	0.001967
3366	0.001967
3378	0.00232463
3390	0.00214582
3402	0.00268227
3414	0.00268227
3426	0.00232463
3438	0.001967
3450	0.001967
3462	0.00160936
3474	0.00178818
3486	0.00160936
3498	0.00107291
3510	0.00107291
3522	0.000536454
3534	0.00160936
3546	0.00125173
3558	0.000178818
3570	0.001967
3582	0.00268227
3594	0.001967
3606	0.00232463
3618	0.00250345
3630	0.00411281
3642	0.00303991
3654	0.00357636
3666	0.00339754
3678	0.00232463
3690	0.00268227
3702	0.00160936
3714	0.001967
3726	0.000357636
3738	0.00214582
3750	0.00429163
3762	0.00214582
3774	0.00125173
3786	0.00125173
3798	0.00089409
3810	0.003934
3822	0.00321872
3834	0.00286109
3846	0.00178818
3858	0.00143054
3870	0.00375518
3882	0.00232463
3894	0.00232463
3906	0.00268227
3918	0.00143054
3930	0.00447045
3942	0.00286109
3954	0.00536454
3966	0.00286109
