Infrared Spectrum: 1-Tetradecanol
Formula: C 14 H 30 O
CAS: 112-72-1
Origin: Sadtler Research Labs Under US-EPA Contract
1/CM	ABSORBANCE
450	0.018627
462	0.00883869
474	0.0119067
486	0.0134406
498	0.00971525
510	0.0152668
522	0.0128563
534	0.0197227
546	0.00277579
558	0.0121258
570	0.00489415
582	0.00723165
594	0.00876564
606	0.0195035
618	0.0161434
630	0.00766993
642	0.0135867
654	0.00935002
666	0.0126371
678	0.00562462
690	0.0199418
702	0.0154129
714	0.018627
726	0.00905783
738	0.0180426
750	0.0113953
762	0.0122719
774	0.0143903
786	0.0278309
798	0.00518634
810	0.023375
822	0.014025
834	0.0178235
846	0.0148285
858	0.0167278
870	0.0166547
882	0.0107379
894	0.0102266
906	0.0150477
918	0.0181157
930	0.0134406
942	0.0187
954	0.0185539
966	0.0196496
978	0.0203801
990	0.0348434
1002	0.0425864
1014	0.0557349
1026	0.0592411
1038	0.0799134
1050	0.0670571
1062	0.0703443
1074	0.0544931
1086	0.0448509
1098	0.0299493
1110	0.0241055
1122	0.0176774
1134	0.0138059
1146	0.0151207
1158	0.0153399
1170	0.0179696
1182	0.0135867
1194	0.0158512
1206	0.0156321
1218	0.0189192
1230	0.0178965
1242	0.0213297
1254	0.0214028
1266	0.0223524
1278	0.0138059
1290	0.0211106
1302	0.0211836
1314	0.0211106
1326	0.0184809
1338	0.0244707
1350	0.0271004
1362	0.0281961
1374	0.0292918
1386	0.0334555
1398	0.0242516
1410	0.0168739
1422	0.0168739
1434	0.0195766
1446	0.0338208
1458	0.049745
1470	0.0467501
1482	0.0198688
1494	0.0120528
1506	0.00847345
1518	0.00869259
1530	0.00438282
1542	0.00591681
1554	0.00489415
1566	0.0049672
1578	0.00219141
1590	0.00460196
1602	0.00365235
1614	0.00350626
1626	0.0035793
1638	0.00547852
1650	0.00489415
1662	0.0048211
1674	0.00635509
1686	0.00635509
1698	0.00657423
1710	0.00657423
1722	0.00986134
1734	0.00847345
1746	0.0114684
1758	0.00818126
1770	0.00818126
1782	0.0060629
1794	0.00679337
1806	0.00569767
1818	0.00569767
1830	0.00350626
1842	0.00474805
1854	0.0048211
1866	0.00445587
1878	0.00328711
1890	0.00467501
1902	0.00379844
1914	0.00262969
1926	0.00394454
1938	0.00430977
1950	0.00452891
1962	0.00306797
1974	0.00489415
1986	0.00387149
1998	0.00401758
2010	0.00379844
2022	0.00613595
2034	0.00467501
2046	0.00430977
2058	0.0035793
2070	0.00430977
2082	0.00299493
2094	0.00350626
2106	0.00409063
2118	0.00379844
2130	0.00328711
2142	0.00299493
2154	0.00401758
2166	0.00336016
2178	0.00452891
2190	0.00438282
2202	0.0049672
2214	0.00241055
2226	0.00336016
2238	0.00270274
2250	0.00336016
2262	0.00226446
2274	0.00416368
2286	0.00306797
2298	0.00343321
2310	0.00504024
2322	0.00723165
2334	0.00569767
2346	0.00620899
2358	0.0111031
2370	0.00547852
2382	0.00416368
2394	0.0024836
2406	0.00394454
2418	0.00270274
2430	0.00306797
2442	0.0024836
2454	0.00219141
2466	0.000219141
2478	0.00226446
2490	0.00219141
2502	0.00262969
2514	0.00168008
2526	0.00343321
2538	0.00262969
2550	0.00255664
2562	0.00328711
2574	0.0048211
2586	0.00452891
2598	0.00321407
2610	0.00445587
2622	0.00430977
2634	0.00438282
2646	0.00525938
2658	0.00825431
2670	0.00723165
2682	0.00810822
2694	0.00796212
2706	0.0104457
2718	0.0085465
2730	0.0102266
2742	0.0111031
2754	0.0120528
2766	0.0111031
2778	0.0132946
2790	0.0157782
2802	0.0198688
2814	0.0241055
2826	0.0336016
2838	0.0502563
2850	0.106429
2862	0.26538
2874	0.216219
2886	0.161215
2898	0.156028
2910	0.239959
2922	0.431123
2934	0.73047
2946	0.445368
2958	0.222647
2970	0.178381
2982	0.0815935
2994	0.0405411
3006	0.0265161
3018	0.0159242
3030	0.0127832
3042	0.0104457
3054	0.00891173
3066	0.00628204
3078	0.0060629
3090	0.00664728
3102	0.00438282
3114	0.0049672
3126	0.00555157
3138	0.0073047
3150	0.0035793
3162	0.00555157
3174	0.0037254
3186	0.00416368
3198	0.00204532
3210	0.0049672
3222	0.00314102
3234	0.00314102
3246	0.00116875
3258	0.00306797
3270	0.00211836
3282	0.00270274
3294	0.00504024
3306	0.00409063
3318	0.00336016
3330	0.00262969
3342	0.00504024
3354	0.00343321
3366	0.00445587
3378	0.00467501
3390	0.00562462
3402	0.00226446
3414	0.00255664
3426	0.0035793
3438	0.00577071
3450	0.00314102
3462	0.00650118
3474	0.00504024
3486	0.0048211
3498	0.00306797
3510	0.00628204
3522	0.00679337
3534	0.00504024
3546	0.00723165
3558	0.00591681
3570	0.0049672
3582	0.00277579
3594	0.00664728
3606	0.0060629
3618	0.00628204
3630	0.00591681
3642	0.00986134
3654	0.0132215
3666	0.0200149
3678	0.0181887
3690	0.0123449
3702	0.00642814
3714	0.00620899
3726	0.00628204
3738	0.00438282
3750	0.00226446
3762	0.00445587
3774	0.00511329
3786	0.00241055
3798	0.00306797
3810	0.0024836
3822	0.00306797
3834	0.000657423
3846	0.00423673
3858	0.00343321
3870	0.00394454
3882	0.00160703
3894	0.00591681
3906	0.00343321
3918	0.00241055
3930	0.0035793
3942	0.00452891
3954	0
3966	0.000219141
