Infrared Spectrum: Disulfide, dipentyl
Formula: C 10 H 22 S 2
CAS: 112-51-6
Origin: Sadtler Research Labs Under US-EPA Contract
1/CM	ABSORBANCE
450	0.0186078
462	0.0114718
474	0.00596171
486	0.0149043
498	0.0139107
510	0.00858125
522	0.0107492
534	0.00930389
546	0.0084006
558	0.00605204
570	0.00514875
582	0.00578106
594	0.00740698
606	0.00803928
618	0.00776829
630	0.0121944
642	0.00957487
654	0.0096652
666	0.00894257
678	0.00578106
690	0.0125557
702	0.0121944
714	0.0178851
726	0.0314345
738	0.0312538
750	0.0273697
762	0.0209563
774	0.0166205
786	0.0147236
798	0.0139107
810	0.012917
822	0.0149043
834	0.0121041
846	0.0119234
858	0.0117428
870	0.00948454
882	0.0103878
894	0.0113815
906	0.0123751
918	0.0111105
930	0.0155366
942	0.0120138
954	0.0124654
966	0.0136397
978	0.00921356
990	0.00948454
1002	0.00912323
1014	0.0084006
1026	0.00948454
1038	0.00876191
1050	0.00876191
1062	0.0117428
1074	0.0161689
1086	0.0157172
1098	0.0158076
1110	0.0154463
1122	0.00912323
1134	0.00821994
1146	0.00885224
1158	0.0108395
1170	0.0141817
1182	0.0163495
1194	0.0182465
1206	0.0377575
1218	0.0442612
1230	0.0247501
1242	0.0371252
1254	0.0737988
1266	0.0740698
1278	0.0707276
1290	0.0461581
1302	0.0685597
1314	0.0358606
1326	0.0257438
1338	0.0377575
1350	0.048326
1362	0.0361316
1374	0.0373059
1386	0.0570879
1398	0.0317055
1410	0.0350477
1422	0.0538361
1434	0.0652175
1446	0.0901483
1458	0.115711
1470	0.12077
1482	0.0539264
1494	0.0254728
1506	0.0180658
1518	0.014272
1530	0.0117428
1542	0.0103878
1554	0.00948454
1566	0.00894257
1578	0.00821994
1590	0.00849093
1602	0.00758764
1614	0.00821994
1626	0.00785862
1638	0.00740698
1650	0.00731665
1662	0.00758764
1674	0.00740698
1686	0.00722632
1698	0.00731665
1710	0.00776829
1722	0.00767796
1734	0.00785862
1746	0.00812961
1758	0.00812961
1770	0.00749731
1782	0.00722632
1794	0.00704566
1806	0.00731665
1818	0.00704566
1830	0.00677467
1842	0.00695533
1854	0.00704566
1866	0.00677467
1878	0.00704566
1890	0.00722632
1902	0.00695533
1914	0.00722632
1926	0.00695533
1938	0.00713599
1950	0.00722632
1962	0.00740698
1974	0.00776829
1986	0.00767796
1998	0.00722632
2010	0.006865
2022	0.00587138
2034	0.00641336
2046	0.00668435
2058	0.00650369
2070	0.00496809
2082	0.00785862
2094	0.00867158
2106	0.00704566
2118	0.00722632
2130	0.006865
2142	0.00695533
2154	0.006865
2166	0.00614237
2178	0.00659402
2190	0.00641336
2202	0.00632303
2214	0.00596171
2226	0.00632303
2238	0.00587138
2250	0.00505842
2262	0.0056004
2274	0.00578106
2286	0.00632303
2298	0.00993619
2310	0.0133687
2322	0.0147236
2334	0.00912323
2346	0.0062327
2358	0.0139107
2370	0.000361316
2382	0.000270987
2394	0.00325184
2406	0.00370349
2418	0.00307119
2430	0.00189691
2442	0.00198724
2454	0.00162592
2466	0.00207757
2478	0.000541974
2490	0.000632303
2502	0.000541974
2514	0.00117428
2526	0.00207757
2538	0.00144526
2550	0.000993619
2562	0.00162592
2574	0.00234855
2586	0.00189691
2598	0.00207757
2610	0.0034325
2622	0.00551007
2634	0.00785862
2646	0.00758764
2658	0.00939422
2670	0.0118331
2682	0.0100265
2694	0.00776829
2706	0.00614237
2718	0.00641336
2730	0.00731665
2742	0.0107492
2754	0.0112008
2766	0.00849093
2778	0.0121944
2790	0.0167109
2802	0.0223113
2814	0.0334217
2826	0.0448935
2838	0.063411
2850	0.13179
2862	0.287879
2874	0.336837
2886	0.334037
2898	0.26349
2910	0.376853
2922	0.567537
2934	0.891547
2946	0.746027
2958	0.590481
2970	0.811245
2982	0.312177
2994	0.109208
3006	0.0618754
3018	0.0396544
3030	0.0301699
3042	0.0213176
3054	0.0158076
3066	0.0121041
3078	0.0110201
3090	0.00948454
3102	0.00803928
3114	0.00650369
3126	0.00578106
3138	0.00541974
3150	0.00397448
3162	0.00551007
3174	0.00596171
3186	0.00668435
3198	0.00478744
3210	0.00334217
3222	0.00189691
3234	0.00325184
3246	0.00352283
3258	0.00171625
3270	0.00325184
3282	0.00379382
3294	0.00144526
3306	0.00108395
3318	0.00144526
3330	0.000993619
3342	0.000451645
3354	0.00243888
3366	0.00252921
3378	0.00307119
3390	0.00298086
3402	0.00361316
3414	0.00325184
3426	0.00298086
3438	0.00316151
3450	0.00415513
3462	0.00316151
3474	0.00225822
3486	0.00325184
3498	0.00415513
3510	0.00117428
3522	0.00388415
3534	0.0028002
3546	0.00478744
3558	0.00451645
3570	0.00361316
3582	0.0040648
3594	0.00532941
3606	0.00352283
3618	0.00505842
3630	0.00433579
3642	0.00361316
3654	0.00415513
3666	0.00433579
3678	0.0028002
3690	0.00487777
3702	0.00234855
3714	0.00243888
3726	0.00424546
3738	0.00180658
3750	0.000361316
3762	0.00090329
3774	0.00379382
3786	0.00352283
3798	0.00370349
3810	0.00171625
3822	0.00153559
3834	0.00496809
3846	0.00261954
3858	0.00370349
3870	0.00334217
3882	0.00316151
3894	0.00270987
3906	0.00451645
3918	0.0028002
3930	0.00388415
3942	0.00090329
3954	0.00171625
3966	0.00207757
