Infrared Spectrum: 2-Undecanone
Formula: C 11 H 22 O
CAS: 112-12-9
Origin: Sadtler Research Labs Under US-EPA Contract
1/CM	ABSORBANCE
450	0.0215222
462	0.0112919
474	0.00955469
486	0.00772096
498	0.00579072
510	0.0149594
522	0.0214257
534	0.0151524
546	0.0133187
558	0.0136082
570	0.00791398
582	0.0188198
594	0.0223908
606	0.016407
618	0.00820352
630	0.00492211
642	0.012257
654	0.00858957
666	0.00617677
678	0.00839654
690	0.0100372
702	0.0149594
714	0.0275059
726	0.0281815
738	0.0169861
750	0.0148628
762	0.0103268
774	0.0121605
786	0.0132221
798	0.00984422
810	0.00897562
822	0.0106163
834	0.00907213
846	0.00897562
858	0.0096512
870	0.012064
882	0.0114849
894	0.0130291
906	0.0145733
918	0.0154419
930	0.0194954
942	0.0247071
954	0.0246106
966	0.0231629
978	0.0209431
990	0.0189164
1002	0.0166001
1014	0.0151524
1026	0.0134152
1038	0.0129326
1050	0.0140908
1062	0.0138977
1074	0.0138012
1086	0.0143803
1098	0.0155384
1110	0.0209431
1122	0.0267338
1134	0.0326211
1146	0.0636979
1158	0.132511
1170	0.112147
1182	0.0793329
1194	0.0636014
1206	0.0597409
1218	0.0609956
1230	0.0568456
1242	0.0459397
1254	0.0383153
1266	0.0366746
1278	0.0387978
1290	0.0385083
1302	0.0416932
1314	0.0415002
1326	0.044299
1338	0.0626363
1350	0.115235
1362	0.196112
1374	0.129616
1386	0.0714189
1398	0.043913
1410	0.048063
1422	0.0593549
1434	0.0581002
1446	0.0710328
1458	0.0989248
1470	0.0928445
1482	0.0432374
1494	0.0216187
1506	0.0166966
1518	0.0146698
1530	0.0141873
1542	0.01245
1554	0.0113884
1566	0.0110024
1578	0.00994074
1590	0.00849306
1602	0.00868608
1614	0.00868608
1626	0.00810701
1638	0.0088791
1650	0.00945818
1662	0.0117745
1674	0.0168896
1686	0.0293396
1698	0.0543363
1710	0.107611
1722	0.234524
1734	0.395217
1746	0.213581
1758	0.0845445
1770	0.040149
1782	0.020171
1794	0.012064
1806	0.0088791
1818	0.00665933
1830	0.00569421
1842	0.00501862
1854	0.0048256
1866	0.00472909
1878	0.00453606
1890	0.00424653
1902	0.00453606
1914	0.00434304
1926	0.00395699
1938	0.00395699
1950	0.00424653
1962	0.00395699
1974	0.00376397
1986	0.00347443
1998	0.00443955
2010	0.00521165
2022	0.00617677
2034	0.00598374
2046	0.00521165
2058	0.00530816
2070	0.00415002
2082	0.00434304
2094	0.00472909
2106	0.00424653
2118	0.00443955
2130	0.00415002
2142	0.00424653
2154	0.00443955
2166	0.00472909
2178	0.00366746
2190	0.00443955
2202	0.00415002
2214	0.00386048
2226	0.00415002
2238	0.00395699
2250	0.00366746
2262	0.00357094
2274	0.0040535
2286	0.00386048
2298	0.00347443
2310	0.00260582
2322	0.00106163
2334	0.00154419
2346	0.00279885
2358	0.000772096
2370	0.00328141
2382	0.00443955
2394	0.00415002
2406	0.00347443
2418	0.00415002
2430	0.00376397
2442	0.00424653
2454	0.00366746
2466	0.00376397
2478	0.00376397
2490	0.00443955
2502	0.00501862
2514	0.00501862
2526	0.00588723
2538	0.00540467
2550	0.00540467
2562	0.00550118
2574	0.00463258
2586	0.0055977
2598	0.00569421
2610	0.00685235
2622	0.00704538
2634	0.00608026
2646	0.00675584
2658	0.00916864
2670	0.00907213
2682	0.0108093
2694	0.0121605
2706	0.0111954
2718	0.0108093
2730	0.012064
2742	0.0136082
2754	0.0133187
2766	0.0142838
2778	0.0149594
2790	0.0189164
2802	0.0254792
2814	0.032042
2826	0.0425618
2838	0.0586793
2850	0.132318
2862	0.354296
2874	0.333256
2886	0.246395
2898	0.235296
2910	0.324473
2922	0.5783
2934	0.96512
2946	0.711776
2958	0.423205
2970	0.419538
2982	0.171212
2994	0.0798154
3006	0.0637944
3018	0.0530816
3030	0.0371571
3042	0.0287606
3054	0.0244175
3066	0.0221978
3078	0.0183373
3090	0.016407
3102	0.0146698
3114	0.0111954
3126	0.0102303
3138	0.0105198
3150	0.00974771
3162	0.00926515
3174	0.00916864
3186	0.00830003
3198	0.00714189
3210	0.00675584
3222	0.00685235
3234	0.00743142
3246	0.0055977
3258	0.0064663
3270	0.0040535
3282	0.00415002
3294	0.00463258
3306	0.00521165
3318	0.00463258
3330	0.00453606
3342	0.00424653
3354	0.00366746
3366	0.00424653
3378	0.00627328
3390	0.00511514
3402	0.00424653
3414	0.00569421
3426	0.00636979
3438	0.00868608
3450	0.00916864
3462	0.00752794
3474	0.00376397
3486	0.00231629
3498	0.00212326
3510	0.0016407
3522	0.00260582
3534	0.0024128
3546	0.00357094
3558	0.00357094
3570	0.000868608
3582	0.00366746
3594	0.00202675
3606	0.00395699
3618	0.0024128
3630	0.00608026
3642	0.00347443
3654	0.00424653
3666	0.0040535
3678	0.00357094
3690	0.00202675
3702	0.00270234
3714	0.00443955
3726	0.0031849
3738	0.00183373
3750	0.00202675
3762	0.00212326
3774	0.00337792
3786	0.0024128
3798	0.00395699
3810	0.000772096
3822	0.00511514
3834	0.00395699
3846	0.00106163
3858	0.00270234
3870	0.00308838
3882	0.00521165
3894	0.00193024
3906	0.00289536
3918	0.00337792
3930	0.00434304
3942	0.00328141
3954	0.00521165
3966	0.00386048
