Infrared Spectrum: 2-Butoxyethyl acetate
Formula: C 8 H 16 O 3
CAS: 112-07-2
Origin: Sadtler Research Labs Under US-EPA Contract
1/CM	ABSORBANCE
450	0
462	0.0163655
474	0.0159109
486	0.016517
498	0.0110618
510	0.0202295
522	0.0146228
534	0.0136379
546	0.0131833
558	0.0162897
570	0.0135621
582	0.00727354
594	0.017805
606	0.0221994
618	0.0193961
630	0.0225025
642	0.0244724
654	0.0153047
666	0.0109861
678	0.0110618
690	0.00856156
702	0.00787966
714	0.00969805
726	0.00947075
738	0.0101526
750	0.0126529
762	0.0105315
774	0.0109861
786	0.0133348
798	0.0159866
810	0.0194719
822	0.0221237
834	0.0271242
846	0.029473
858	0.0295487
870	0.0261393
882	0.025912
894	0.0295487
906	0.0283365
918	0.0303822
930	0.036595
942	0.0381861
954	0.0400802
966	0.043717
978	0.049854
990	0.0506875
1002	0.0556122
1014	0.0613705
1026	0.0847064
1038	0.11577
1050	0.156154
1062	0.190779
1074	0.160094
1086	0.118195
1098	0.121301
1110	0.150926
1122	0.213281
1134	0.321021
1146	0.269803
1158	0.115164
1170	0.0631888
1182	0.0490206
1194	0.0568245
1206	0.106224
1218	0.27003
1230	0.684849
1242	0.639692
1254	0.305261
1266	0.165397
1278	0.118422
1290	0.0856913
1302	0.0603855
1314	0.0390195
1326	0.0315187
1338	0.0352312
1350	0.0525058
1362	0.114482
1374	0.14888
1386	0.155548
1398	0.080312
1410	0.0415198
1422	0.0351554
1434	0.0428836
1446	0.0544758
1458	0.0681894
1470	0.0622797
1482	0.043717
1494	0.0284123
1506	0.0224267
1518	0.0197749
1530	0.0175019
1542	0.0172746
1554	0.0150017
1566	0.0141682
1578	0.0134863
1590	0.0125772
1602	0.0122741
1614	0.0123499
1626	0.012956
1638	0.0139409
1650	0.0156836
1662	0.0156078
1674	0.0158351
1686	0.0170474
1698	0.0193961
1710	0.0264423
1722	0.0410652
1734	0.0675833
1746	0.154032
1758	0.400575
1770	0.447019
1782	0.185096
1794	0.0758418
1806	0.0373526
1818	0.0225025
1830	0.0171989
1842	0.0147744
1854	0.0131833
1866	0.0130318
1878	0.0131833
1890	0.0124256
1902	0.0125014
1914	0.0122741
1926	0.0113649
1938	0.0115164
1950	0.0120468
1962	0.0112134
1974	0.0112891
1986	0.0107588
1998	0.0110618
2010	0.0118195
2022	0.0126529
2034	0.0125772
2046	0.0139409
2058	0.0136379
2070	0.0127287
2082	0.0125772
2094	0.0131833
2106	0.0122741
2118	0.0112891
2130	0.0104557
2142	0.00977381
2154	0.00977381
2166	0.00969805
2178	0.00977381
2190	0.0100011
2202	0.00969805
2214	0.00977381
2226	0.00931922
2238	0.00924345
2250	0.00947075
2262	0.00924345
2274	0.00931922
2286	0.00878886
2298	0.0078039
2310	0.00750083
2322	0.00765237
2334	0.00848579
2346	0.00992535
2358	0.0080312
2370	0.011668
2382	0.00954652
2394	0.00909192
2406	0.00871309
2418	0.00871309
2430	0.00863732
2442	0.00886462
2454	0.00924345
2466	0.00954652
2478	0.00916769
2490	0.00901615
2502	0.00901615
2514	0.00856156
2526	0.00841003
2538	0.00810696
2550	0.00833426
2562	0.00878886
2574	0.00878886
2586	0.00924345
2598	0.0103799
2610	0.0106072
2622	0.0100011
2634	0.00924345
2646	0.0100769
2658	0.0103042
2670	0.00962228
2682	0.0108345
2694	0.0128045
2706	0.0158351
2718	0.0168201
2730	0.0181838
2742	0.0208357
2754	0.0203053
2766	0.0204568
2778	0.0218206
2790	0.0244724
2802	0.029473
2814	0.0344735
2826	0.0387164
2838	0.050839
2850	0.0919042
2862	0.157821
2874	0.205099
2886	0.19828
2898	0.144107
2910	0.134636
2922	0.154487
2934	0.187975
2946	0.241163
2958	0.239496
2970	0.267302
2982	0.155851
2994	0.0797816
3006	0.0467476
3018	0.0311398
3030	0.0250028
3042	0.021366
3054	0.0191688
3066	0.0173504
3078	0.0170474
3090	0.0151532
3102	0.0138652
3114	0.0122741
3126	0.0112891
3138	0.0112891
3150	0.00954652
3162	0.0100769
3174	0.00992535
3186	0.00916769
3198	0.00969805
3210	0.00901615
3222	0.00977381
3234	0.00856156
3246	0.00825849
3258	0.00818273
3270	0.00886462
3282	0.0078039
3294	0.00931922
3306	0.0078039
3318	0.00841003
3330	0.00962228
3342	0.00924345
3354	0.00871309
3366	0.0075766
3378	0.00924345
3390	0.00916769
3402	0.00924345
3414	0.00871309
3426	0.00931922
3438	0.00825849
3450	0.00886462
3462	0.0102284
3474	0.00954652
3486	0.0109103
3498	0.0115164
3510	0.0128802
3522	0.011668
3534	0.0104557
3546	0.00924345
3558	0.00969805
3570	0.00848579
3582	0.0106072
3594	0.00939498
3606	0.00924345
3618	0.00969805
3630	0.00924345
3642	0.00992535
3654	0.0075766
3666	0.00901615
3678	0.0117437
3690	0.00727354
3702	0.00825849
3714	0.00894039
3726	0.00931922
3738	0.00969805
3750	0.00984958
3762	0.00833426
3774	0.00962228
3786	0.00841003
3798	0.0078039
3810	0.00856156
3822	0.00977381
3834	0.0078039
3846	0.0102284
3858	0.00909192
3870	0.00719777
3882	0.00992535
3894	0.00871309
3906	0.00765237
3918	0.00931922
3930	0.00697047
3942	0.0073493
3954	0.00894039
3966	0.00681894
