Infrared Spectrum: 1-Hexadecanamine, N,N-dimethyl-
Formula: C 18 H 39 N
CAS: 112-69-6
Origin: Sadtler Research Labs Under US-EPA Contract
1/CM	ABSORBANCE
450	0.076789
462	0.0174918
474	0.0199407
486	0.0176667
498	0.0232641
510	0.00962049
522	0.027637
534	0.0202905
546	0.0176667
558	0.023439
570	0.0113697
582	0.0201156
594	0.0129439
606	0.0138185
618	0.00997033
630	0.0215149
642	0.0141684
654	0.0118944
666	0.0164423
678	0.0155677
690	0.00909574
702	0.0229143
714	0.038307
726	0.0379572
738	0.0309605
750	0.0236139
762	0.0204654
774	0.0244885
786	0.0223895
798	0.0173169
810	0.0244885
822	0.0251882
834	0.0279869
846	0.0251882
858	0.0220397
870	0.0152179
882	0.0145182
894	0.0138185
906	0.0155677
918	0.0152179
930	0.0145182
942	0.0157426
954	0.0160925
966	0.019241
978	0.0232641
990	0.0248384
1002	0.0288615
1014	0.0414556
1026	0.0577229
1038	0.0745151
1050	0.0825613
1062	0.0648946
1074	0.0509011
1086	0.0346338
1098	0.0351585
1110	0.0334093
1122	0.0260628
1134	0.027637
1146	0.0393566
1158	0.0418054
1170	0.0377823
1182	0.0285116
1194	0.0264126
1206	0.0281618
1218	0.0293862
1230	0.0314852
1242	0.0351585
1254	0.0439044
1266	0.0578979
1278	0.0538747
1290	0.0470529
1302	0.0488021
1314	0.0428549
1326	0.0344588
1338	0.0404061
1350	0.0585975
1362	0.0615711
1374	0.0643698
1386	0.048977
1398	0.0271123
1410	0.0237888
1422	0.0257129
1434	0.0470529
1446	0.103202
1458	0.17072
1470	0.161624
1482	0.0643698
1494	0.0304357
1506	0.0176667
1518	0.0108449
1530	0.00857098
1542	0.00822115
1554	0.00734656
1566	0.00524754
1578	0.00507262
1590	0.00577229
1602	0.00594721
1614	0.00454787
1626	0.00577229
1638	0.00507262
1650	0.0038482
1662	0.00542246
1674	0.0048977
1686	0.00612213
1698	0.00804623
1710	0.0145182
1722	0.00839606
1734	0.00769639
1746	0.00857098
1758	0.00944557
1770	0.00944557
1782	0.00909574
1794	0.00507262
1806	0.0038482
1818	0.00297361
1830	0.00244885
1842	0.00174918
1854	0.0019241
1866	0.00227393
1878	0.0019241
1890	0.00157426
1902	0.00157426
1914	0.00122443
1926	0.00104951
1938	0.00104951
1950	0.00087459
1962	0.00139934
1974	0.00122443
1986	0.00122443
1998	0.00157426
2010	0.00174918
2022	0.00227393
2034	0.00262377
2046	0.00244885
2058	0.00209902
2070	0.0019241
2082	0.00174918
2094	0.00157426
2106	0.00139934
2118	0.00122443
2130	0.000699672
2142	0.000699672
2154	0.00104951
2166	0.000699672
2178	0.00087459
2190	0.000699672
2202	0.000349836
2214	0.000174918
2226	0
2238	0
2250	0.000524754
2262	0.000349836
2274	0.00104951
2286	0.00104951
2298	0.00087459
2310	0.00087459
2322	0.00122443
2334	0.000524754
2346	0.000349836
2358	0.00157426
2370	0
2382	0.00104951
2394	0.00122443
2406	0.00227393
2418	0.0019241
2430	0.0019241
2442	0.00244885
2454	0.0019241
2466	0.00244885
2478	0.00297361
2490	0.0038482
2502	0.0048977
2514	0.00507262
2526	0.00594721
2538	0.00612213
2550	0.00629705
2562	0.00594721
2574	0.00699672
2586	0.00857098
2598	0.00944557
2610	0.01067
2622	0.0122443
2634	0.0139934
2646	0.0167921
2658	0.0202905
2670	0.0239638
2682	0.0283367
2694	0.0321849
2706	0.0390067
2718	0.0526503
2730	0.0655943
2742	0.0783633
2754	0.109674
2766	0.211476
2778	0.274621
2790	0.241912
2802	0.178766
2814	0.17002
2826	0.206228
2838	0.165647
2850	0.276021
2862	0.70352
2874	0.482249
2886	0.326572
2898	0.343189
2910	0.540672
2922	0.971145
2934	1.74918
2946	1.09271
2958	0.559038
2970	0.462483
2982	0.285641
2994	0.125066
3006	0.06402
3018	0.0425051
3030	0.0313103
3042	0.0243136
3054	0.0197657
3066	0.0160925
3078	0.0136436
3090	0.0125941
3102	0.00997033
3114	0.00839606
3126	0.00787131
3138	0.00752147
3150	0.00664688
3162	0.00752147
3174	0.00542246
3186	0.00594721
3198	0.00542246
3210	0.00419803
3222	0.00297361
3234	0.0019241
3246	0.00174918
3258	0.00139934
3270	0.00139934
3282	0.00104951
3294	0.00087459
3306	0.000174918
3318	0.00122443
3330	0.00122443
3342	0.00157426
3354	0.0019241
3366	0.000699672
3378	0.00174918
3390	0.00139934
3402	0.00139934
3414	0.00139934
3426	0.00122443
3438	0.000174918
3450	0.00157426
3462	0.00122443
3474	0.00104951
3486	0.000524754
3498	0.00104951
3510	0.00122443
3522	0.000699672
3534	0.00139934
3546	0.00157426
3558	0.00104951
3570	0.00262377
3582	0.00314852
3594	0.00104951
3606	0.00139934
3618	0.00279869
3630	0.00262377
3642	0.00419803
3654	0.00209902
3666	0.00314852
3678	0.00244885
3690	0.00157426
3702	0.00314852
3714	0.00087459
3726	0.00332344
3738	0.000524754
3750	0.00174918
3762	0.00157426
3774	0.00139934
3786	0.00122443
3798	0.000349836
3810	0.00244885
3822	0
3834	0.00279869
3846	0.00209902
3858	0.00087459
3870	0.00279869
3882	0.00227393
3894	0.00279869
3906	0.00139934
3918	0
3930	0.00139934
3942	0.00227393
3954	0.00157426
3966	0.00332344
