Infrared Spectrum: 1-Octadecene
Formula: C 18 H 36
CAS: 112-88-9
Origin: Sadtler Research Labs Under US-EPA Contract
1/CM	ABSORBANCE
450	0.0301122
462	0.00711312
474	0.00640181
486	0.00462353
498	0.00853574
510	0.0101955
522	0.00497918
534	0
546	0.00841719
558	0.00450498
570	0.0123294
582	0.00640181
594	0.000711312
606	0.00735022
618	0.0101955
630	0.0144633
642	0.00841719
654	0.00948416
666	0.00675746
678	0.00355656
690	0.00948416
702	0.0114995
714	0.0179014
726	0.0188498
738	0.0256072
750	0.0138706
762	0.0105511
774	0.0107882
786	0.00936561
798	0.0059276
810	0.00723167
822	0.00699457
834	0.00687602
846	0.00806154
858	0.00995837
870	0.0117366
882	0.0170715
894	0.027267
906	0.0435086
918	0.0532298
930	0.0231176
942	0.0157674
954	0.0141077
966	0.0132778
978	0.0165973
990	0.0263185
1002	0.020628
1014	0.0132778
1026	0.010314
1038	0.00853574
1050	0.00818009
1062	0.00770588
1074	0.00699457
1086	0.00782443
1098	0.00628326
1110	0.00509774
1122	0.0056905
1134	0.00474208
1146	0.00450498
1158	0.00557194
1170	0.00533484
1182	0.00533484
1194	0.00628326
1206	0.0059276
1218	0.00604615
1230	0.00675746
1242	0.00723167
1254	0.00853574
1266	0.00960271
1278	0.0112624
1290	0.0142262
1302	0.0180199
1314	0.0175457
1326	0.0162416
1338	0.0212208
1350	0.0311792
1362	0.0286896
1374	0.0215765
1386	0.0177828
1398	0.0125665
1410	0.0126851
1422	0.0160045
1434	0.0252516
1446	0.0519258
1458	0.077533
1470	0.0663891
1482	0.0252516
1494	0.012448
1506	0.00770588
1518	0.0061647
1530	0.00521629
1542	0.00509774
1554	0.00379366
1566	0.00391222
1578	0.00438642
1590	0.00414932
1602	0.00474208
1614	0.00628326
1626	0.0114995
1638	0.0260814
1650	0.0184941
1662	0.00652036
1674	0.00426787
1686	0.00355656
1698	0.00391222
1710	0.00391222
1722	0.0032009
1734	0.00343801
1746	0.00237104
1758	0.00248959
1770	0.00284525
1782	0.00343801
1794	0.0032009
1806	0.00379366
1818	0.00497918
1830	0.00687602
1842	0.00486063
1854	0.0032009
1866	0.00248959
1878	0.00225249
1890	0.00213394
1902	0.00201538
1914	0.00248959
1926	0.00189683
1938	0.00177828
1950	0.00201538
1962	0.00225249
1974	0.00201538
1986	0.00201538
1998	0.00106697
2010	0.00130407
2022	0.00130407
2034	0.00177828
2046	0.0029638
2058	0.0027267
2070	0.0027267
2082	0.00391222
2094	0.00331946
2106	0.00260814
2118	0.00284525
2130	0.00260814
2142	0.00201538
2154	0.00237104
2166	0.00189683
2178	0.00225249
2190	0.00237104
2202	0.00237104
2214	0.00177828
2226	0.00260814
2238	0.00201538
2250	0.00213394
2262	0.00237104
2274	0.00248959
2286	0.00331946
2298	0.00343801
2310	0.00403077
2322	0.0061647
2334	0.00343801
2346	0.00130407
2358	0.00331946
2370	0.000711312
2382	0.000711312
2394	0.00154118
2406	0.00189683
2418	0.00130407
2430	0.00142262
2442	0.000948416
2454	0.000711312
2466	0.000948416
2478	0.00130407
2490	0.00106697
2502	0.00165973
2514	0.00130407
2526	0.00154118
2538	0.00189683
2550	0.00213394
2562	0.00189683
2574	0.00165973
2586	0.00177828
2598	0.00189683
2610	0.00225249
2622	0.00308235
2634	0.00474208
2646	0.0059276
2658	0.00818009
2670	0.0107882
2682	0.0110253
2694	0.0100769
2706	0.00818009
2718	0.00723167
2730	0.00758733
2742	0.00877285
2754	0.0091285
2766	0.0109068
2778	0.0117366
2790	0.015886
2802	0.0226434
2814	0.0302308
2826	0.0435086
2838	0.0699457
2850	0.164669
2862	0.42738
2874	0.293179
2886	0.195966
2898	0.210074
2910	0.353166
2922	0.67705
2934	1.18552
2946	0.634372
2958	0.283932
2970	0.238408
2982	0.12199
2994	0.071724
3006	0.0535855
3018	0.0363955
3030	0.0254887
3042	0.0211023
3054	0.0195611
3066	0.0224063
3078	0.034143
3090	0.0412561
3102	0.0160045
3114	0.00806154
3126	0.00735022
3138	0.00497918
3150	0.00604615
3162	0.00545339
3174	0.00426787
3186	0.00521629
3198	0.00533484
3210	0.00462353
3222	0.00438642
3234	0.00403077
3246	0.00486063
3258	0.00604615
3270	0.00533484
3282	0.0032009
3294	0.00438642
3306	0.00426787
3318	0.00248959
3330	0.00308235
3342	0.00237104
3354	0.00225249
3366	0.00225249
3378	0.00154118
3390	0.00308235
3402	0.00177828
3414	0.00331946
3426	0.00331946
3438	0.00462353
3450	0.00379366
3462	0.00225249
3474	0.00213394
3486	0.00343801
3498	0.0029638
3510	0.0027267
3522	0.00355656
3534	0.00343801
3546	0.00450498
3558	0.00308235
3570	0.00462353
3582	0.00367511
3594	0.00237104
3606	0.00426787
3618	0.0056905
3630	0.00426787
3642	0.00355656
3654	0.00355656
3666	0.00225249
3678	0.0027267
3690	0.00248959
3702	0.00343801
3714	0.0032009
3726	0.00379366
3738	0.000829864
3750	0.00201538
3762	0.00213394
3774	0.000829864
3786	0.000711312
3798	0.0027267
3810	0.00260814
3822	0.000948416
3834	0.00403077
3846	0.00343801
3858	0.00225249
3870	0.00189683
3882	0.00450498
3894	0.000829864
3906	0.00225249
3918	0.00308235
3930	0.00379366
3942	0.00118552
3954	0.00486063
3966	0.0088914
