Infrared Spectrum: 2,5,8,11-Tetraoxadodecane
Formula: C 8 H 18 O 4
CAS: 112-49-2
Origin: Sadtler Research Labs Under US-EPA Contract
1/CM	ABSORBANCE
450	0
462	0.00848361
474	0.0148104
486	0.0159607
498	0.0208496
510	0.0247319
522	0.028039
534	0.0368102
546	0.0332155
558	0.0309149
570	0.0255946
582	0.01783
594	0.0207058
606	0.0155293
618	0.014379
630	0.0159607
642	0.0125097
654	0.0132287
666	0.0138038
678	0.0135163
690	0.0125097
702	0.0123659
714	0.0142352
726	0.0125097
738	0.0132287
750	0.0152417
762	0.015098
774	0.0182613
786	0.022575
798	0.0268887
810	0.034941
822	0.0471631
834	0.0658558
846	0.0947576
858	0.111437
870	0.0983524
882	0.0799472
894	0.0648493
906	0.0687316
918	0.0941825
930	0.129555
942	0.14796
954	0.126823
966	0.120065
978	0.124522
990	0.128117
1002	0.119346
1014	0.130274
1026	0.184483
1038	0.200156
1050	0.177724
1062	0.18477
1074	0.240273
1086	0.378024
1098	0.618585
1110	0.988269
1122	1.43574
1134	1.35752
1146	1.07756
1158	0.73678
1170	0.424899
1182	0.283985
1194	0.305698
1206	0.323384
1218	0.177005
1230	0.13013
1242	0.143215
1254	0.158888
1266	0.136601
1278	0.134156
1290	0.155149
1302	0.148247
1314	0.111437
1326	0.111581
1338	0.108274
1350	0.173267
1362	0.161908
1374	0.109712
1386	0.0713198
1398	0.0583787
1410	0.0490324
1422	0.0460128
1434	0.0562219
1446	0.10396
1458	0.185633
1470	0.161476
1482	0.0928883
1494	0.0578036
1506	0.0368102
1518	0.0286142
1530	0.0245881
1542	0.0251633
1554	0.0228626
1566	0.019843
1578	0.0235816
1590	0.0194116
1602	0.0179738
1614	0.020562
1626	0.0168234
1638	0.0202744
1650	0.015098
1662	0.0155293
1674	0.0168234
1686	0.0208496
1698	0.0176862
1710	0.0132287
1722	0.0135163
1734	0.0133725
1746	0.0130849
1758	0.0135163
1770	0.0139476
1782	0.0138038
1794	0.0135163
1806	0.01366
1818	0.0132287
1830	0.01366
1842	0.0142352
1854	0.0139476
1866	0.0139476
1878	0.0145228
1890	0.0155293
1902	0.0158169
1914	0.0179738
1926	0.0201306
1938	0.0227188
1950	0.0251633
1962	0.028039
1974	0.0286142
1986	0.0290456
1998	0.0290456
2010	0.0284704
2022	0.0266012
2034	0.0248757
2046	0.0250195
2058	0.0241567
2070	0.0228626
2082	0.0254508
2094	0.0266012
2106	0.0247319
2118	0.0237253
2130	0.0241567
2142	0.0235816
2154	0.0237253
2166	0.0224312
2178	0.0207058
2190	0.0196992
2202	0.0188365
2214	0.0185489
2226	0.0184051
2238	0.0186927
2250	0.0191241
2262	0.0192679
2274	0.0184051
2286	0.0161045
2298	0.0127973
2310	0.00833982
2322	0.00805224
2334	0.0125097
2346	0.0176862
2358	0.00733329
2370	0.0241567
2382	0.0195554
2394	0.0169672
2406	0.017111
2418	0.0165359
2430	0.0152417
2442	0.0155293
2454	0.015098
2466	0.0149542
2478	0.0152417
2490	0.015098
2502	0.0155293
2514	0.0152417
2526	0.0153855
2538	0.0159607
2550	0.0163921
2562	0.0161045
2574	0.0173986
2586	0.0195554
2598	0.0208496
2610	0.0227188
2622	0.0227188
2634	0.0234378
2646	0.0231502
2658	0.0244443
2670	0.0270325
2682	0.0284704
2694	0.0359475
2706	0.0478821
2718	0.0601042
2730	0.0638428
2742	0.06298
2754	0.0634114
2766	0.0714636
2778	0.0842609
2790	0.105542
2802	0.147529
2814	0.245306
2826	0.389958
2838	0.409083
2850	0.460847
2862	0.626205
2874	0.773303
2886	0.816871
2898	0.741525
2910	0.678976
2922	0.633251
2934	0.639722
2946	0.578467
2958	0.443161
2970	0.335174
2982	0.266587
2994	0.295345
3006	0.153855
3018	0.0757773
3030	0.0514768
3042	0.0411239
3054	0.0359475
3066	0.0319214
3078	0.0286142
3090	0.0245881
3102	0.0222875
3114	0.0204182
3126	0.0184051
3138	0.0172548
3150	0.015098
3162	0.0152417
3174	0.0142352
3186	0.0129411
3198	0.0123659
3210	0.0120784
3222	0.010928
3234	0.0127973
3246	0.0122222
3258	0.0113594
3270	0.0104967
3282	0.0113594
3294	0.0103529
3306	0.0112156
3318	0.00949014
3330	0.0115032
3342	0.0102091
3354	0.00963393
3366	0.0106405
3378	0.0103529
3390	0.0106405
3402	0.00920256
3414	0.00992151
3426	0.0110718
3438	0.0102091
3450	0.00977772
3462	0.0102091
3474	0.00934635
3486	0.00949014
3498	0.0100653
3510	0.00762087
3522	0.00905877
3534	0.0104967
3546	0.0103529
3558	0.00977772
3570	0.0107843
3582	0.00891498
3594	0.00920256
3606	0.0107843
3618	0.00963393
3630	0.0123659
3642	0.00963393
3654	0.0130849
3666	0.00992151
3678	0.0145228
3690	0.01366
3702	0.01366
3714	0.0113594
3726	0.00762087
3738	0.0122222
3750	0.0122222
3762	0.0113594
3774	0.0119346
3786	0.0100653
3798	0.0071895
3810	0.00733329
3822	0.0130849
3834	0.0071895
3846	0.00963393
3858	0.0100653
3870	0.0086274
3882	0.00949014
3894	0.00934635
3906	0.00733329
3918	0.00733329
3930	0.0106405
3942	0.0071895
3954	0.0071895
3966	0.00733329
