Infrared Spectrum: 1-Tridecanol
Formula: C 13 H 28 O
CAS: 112-70-9
Origin: Sadtler Research Labs Under US-EPA Contract
1/CM	ABSORBANCE
450	0.0395378
462	0.00633168
474	0.00773872
486	0.0101307
498	0.0153367
510	0.00886435
522	0.00520605
534	0.00154774
546	0.00900506
558	0.012382
570	0.00886435
582	0.00858294
594	0.0119598
606	0.00872365
618	0.00393971
630	0.00520605
642	0.00506534
654	0.00393971
666	0.00506534
678	0.00590957
690	0.00900506
702	0.015196
714	0.0232162
726	0.0250453
738	0.0205428
750	0.0146332
762	0.0136483
774	0.0125227
786	0.00900506
798	0.00872365
810	0.00647238
822	0.0101307
834	0.0140704
846	0.0133669
858	0.0160403
870	0.0157588
882	0.018995
894	0.021387
906	0.0205428
918	0.0220905
930	0.0212463
942	0.0215277
954	0.0258895
966	0.0302514
978	0.0372866
990	0.0458695
1002	0.0555781
1014	0.0735882
1026	0.102995
1038	0.130433
1050	0.136905
1062	0.115799
1074	0.0854073
1086	0.0593771
1098	0.0392564
1110	0.0306735
1122	0.0264524
1134	0.0236383
1146	0.0236383
1158	0.0236383
1170	0.0246232
1182	0.0256081
1194	0.0253267
1206	0.0270152
1218	0.0278594
1230	0.0298292
1242	0.0302514
1254	0.0320805
1266	0.0336283
1278	0.0339097
1290	0.0353167
1302	0.0370052
1314	0.0354574
1326	0.0339097
1338	0.0392564
1350	0.0516384
1362	0.0500906
1374	0.0522012
1386	0.0607841
1398	0.0437589
1410	0.0291257
1422	0.0288443
1434	0.0347539
1446	0.0586736
1458	0.0965229
1470	0.0868144
1482	0.0436182
1494	0.0208242
1506	0.0118191
1518	0.00830154
1530	0.00619098
1542	0.0104121
1554	0.0070352
1566	0.00633168
1578	0.00436182
1590	0.00534675
1602	0.00562816
1614	0.00309549
1626	0.0035176
1638	0.00408042
1650	0.00464323
1662	0.00450253
1674	0.0033769
1686	0.0068945
1698	0.00562816
1710	0.00590957
1722	0.00984928
1734	0.0128041
1746	0.0122412
1758	0.00900506
1770	0.00562816
1782	0.00450253
1794	0.00309549
1806	0.00436182
1818	0.00422112
1830	0.00295478
1842	0.00225126
1854	0.00281408
1866	0.00281408
1878	0.00281408
1890	0.00225126
1902	0.00211056
1914	0.00239197
1926	0.00225126
1938	0.00225126
1950	0.00309549
1962	0.0033769
1974	0.00309549
1986	0.0033769
1998	0.00309549
2010	0.0033769
2022	0.00422112
2034	0.00393971
2046	0.00436182
2058	0.00379901
2070	0.00379901
2082	0.0033769
2094	0.0036583
2106	0.0036583
2118	0.0033769
2130	0.0033769
2142	0.00295478
2154	0.00309549
2166	0.00309549
2178	0.00323619
2190	0.00295478
2202	0.00295478
2214	0.00309549
2226	0.00267338
2238	0.00309549
2250	0.00281408
2262	0.00281408
2274	0.00309549
2286	0.00295478
2298	0.00267338
2310	0.00070352
2322	0
2334	0
2346	0.000281408
2358	0
2370	0.00211056
2382	0.00408042
2394	0.00239197
2406	0.0036583
2418	0.00408042
2430	0.0033769
2442	0.00309549
2454	0.00281408
2466	0.00267338
2478	0.00253267
2490	0.00323619
2502	0.00393971
2514	0.00436182
2526	0.00464323
2538	0.00506534
2550	0.00506534
2562	0.00520605
2574	0.00534675
2586	0.00590957
2598	0.00633168
2610	0.00745731
2622	0.00858294
2634	0.00956787
2646	0.0115377
2658	0.0128041
2670	0.0147739
2682	0.0163217
2694	0.0173066
2706	0.0174473
2718	0.0170252
2730	0.017588
2742	0.0192764
2754	0.0204021
2766	0.0223719
2778	0.0253267
2790	0.0306735
2802	0.0377087
2814	0.0476987
2826	0.0633168
2838	0.0961008
2850	0.205709
2862	0.49964
2874	0.435057
2886	0.328685
2898	0.312081
2910	0.466434
2922	0.838596
2934	1.40704
2946	0.897973
2958	0.454052
2970	0.372725
2982	0.167297
2994	0.0811862
3006	0.050372
3018	0.0355981
3030	0.0267338
3042	0.0205428
3054	0.0157588
3066	0.0139297
3078	0.0121005
3090	0.00998998
3102	0.00858294
3114	0.00731661
3126	0.00633168
3138	0.00647238
3150	0.00534675
3162	0.00562816
3174	0.00520605
3186	0.00548746
3198	0.00492464
3210	0.00393971
3222	0.00309549
3234	0.00267338
3246	0.00225126
3258	0.00154774
3270	0.00182915
3282	0.00112563
3294	0.00112563
3306	0.000984928
3318	0.00182915
3330	0.00295478
3342	0.00309549
3354	0.00295478
3366	0.00281408
3378	0.0035176
3390	0.00154774
3402	0.00112563
3414	0.00196986
3426	0.00211056
3438	0.00309549
3450	0.0035176
3462	0.00295478
3474	0.00450253
3486	0.0036583
3498	0.00393971
3510	0.0035176
3522	0.00323619
3534	0.00253267
3546	0.00112563
3558	0.00239197
3570	0.00408042
3582	0.00295478
3594	0.00478394
3606	0.0036583
3618	0.00548746
3630	0.00942717
3642	0.0111156
3654	0.0295478
3666	0.0341911
3678	0.0355981
3690	0.0154774
3702	0.00619098
3714	0.00802013
3726	0.00562816
3738	0.00562816
3750	0.00731661
3762	0.00436182
3774	0.00478394
3786	0.0035176
3798	0.00422112
3810	0.00182915
3822	0.00858294
3834	0.0036583
3846	0.00267338
3858	0.0133669
3870	0.0070352
3882	0.00619098
3894	0.00661309
3906	0.0101307
3918	0.00408042
3930	0.000844224
3942	0
3954	0.00590957
3966	0.00844224
