Infrared Spectrum: Ethanol, 2,2'-[oxybis(2,1-ethanediyloxy)]bis-
Formula: C 8 H 18 O 5
CAS: 112-60-7
Origin: Sadtler Research Labs Under US-EPA Contract
1/CM	ABSORBANCE
450	0.0263977
462	0.0241915
474	0.0241915
486	0.0238872
498	0.0283756
510	0.0293646
522	0.0312664
534	0.0327879
546	0.027767
558	0.0217572
570	0.0167363
582	0.0155191
594	0.00890066
606	0.00813992
618	0.00737918
630	0.00540125
642	0.00387977
654	0.00395585
666	0.00289081
678	0.00327118
690	0.00304296
702	0.00258652
714	0.00136933
726	0.00106504
738	0.00273866
750	0.00387977
762	0.0038037
774	0.00950925
786	0.0161277
798	0.0197792
810	0.0294406
822	0.0360591
834	0.0470137
846	0.0455683
858	0.0518825
870	0.0659562
882	0.0788127
894	0.0803341
906	0.0785844
918	0.0874851
930	0.0980594
942	0.0858115
954	0.0674016
966	0.0582727
978	0.0648911
990	0.0800298
1002	0.100342
1014	0.134347
1026	0.18737
1038	0.256674
1050	0.346061
1062	0.457737
1074	0.415592
1086	0.333889
1098	0.390107
1110	0.544842
1122	0.737461
1134	0.76074
1146	0.561959
1158	0.345376
1170	0.184175
1182	0.116165
1194	0.0964618
1206	0.0966901
1218	0.0957772
1230	0.0888544
1242	0.10095
1254	0.1151
1266	0.111829
1278	0.10909
1290	0.108862
1302	0.0916692
1314	0.0744004
1326	0.0810188
1338	0.10095
1350	0.162798
1362	0.142715
1374	0.108253
1386	0.0908324
1398	0.0861918
1410	0.0702163
1422	0.05135
1434	0.0406235
1446	0.0566751
1458	0.0953968
1470	0.0772151
1482	0.0435143
1494	0.0234308
1506	0.0179535
1518	0.0103461
1530	0.00661844
1542	0.0103461
1554	0.0058577
1566	0.00426014
1578	0.00517303
1590	0.00182578
1602	0.00182578
1614	0.00159755
1626	0.00311903
1638	0.00418407
1650	0.00319511
1662	0.00228222
1674	0.00311903
1686	0.00669451
1698	0.00570555
1710	0.00372763
1722	0.00494481
1734	0.0125522
1746	0.0158234
1758	0.0153669
1770	0.0103461
1782	0.00699881
1794	0.00684666
1806	0.00357548
1818	0.00152148
1830	0.00220615
1842	0.000912888
1854	0.000456444
1866	0.000912888
1878	0.00182578
1890	0.00311903
1902	0.00365155
1914	0.00517303
1926	0.0076074
1938	0.00912888
1950	0.00996569
1962	0.0105743
1974	0.00897673
1986	0.00646629
1998	0.00486874
2010	0.00403192
2022	0.00296689
2034	0.00243437
2046	0.00235829
2058	0.00289081
2070	0.00289081
2082	0.00327118
2094	0.00372763
2106	0.00418407
2118	0.00433622
2130	0.00464051
2142	0.00471659
2154	0.004108
2166	0.00357548
2178	0.00304296
2190	0.00258652
2202	0.00182578
2214	0.00167363
2226	0.00190185
2238	0.00197792
2250	0.00190185
2262	0.00243437
2274	0.00235829
2286	0.00228222
2298	0.00327118
2310	0.00433622
2322	0.00578162
2334	0.0055534
2346	0.00715096
2358	0.00813992
2370	0.00631414
2382	0.00228222
2394	0.000608592
2406	0.00106504
2418	0.000532518
2430	0.000912888
2442	0.000988962
2454	0.000988962
2466	0.000912888
2478	0.000912888
2490	0.000988962
2502	0.000988962
2514	0.00144541
2526	0.00182578
2538	0.00136933
2550	0.00190185
2562	0.00197792
2574	0.00243437
2586	0.00296689
2598	0.00357548
2610	0.00365155
2622	0.00342333
2634	0.00448837
2646	0.0055534
2658	0.00707488
2670	0.00943318
2682	0.0130847
2694	0.0186381
2706	0.0234308
2718	0.0276149
2730	0.03081
2742	0.0307339
2754	0.0310382
2766	0.0347658
2778	0.0402431
2790	0.0479266
2802	0.0567512
2814	0.0677819
2826	0.0874851
2838	0.126131
2850	0.213464
2862	0.364166
2874	0.447163
2886	0.437045
2898	0.412321
2910	0.38425
2922	0.382044
2934	0.39277
2946	0.372534
2958	0.329172
2970	0.217343
2982	0.0964618
2994	0.0456444
3006	0.0249523
3018	0.0152909
3030	0.0104221
3042	0.00692273
3054	0.0058577
3066	0.0038037
3078	0.00311903
3090	0.00190185
3102	0.00182578
3114	0.00136933
3126	0.00129326
3138	0.00106504
3150	0.00136933
3162	0.000836814
3174	0.000912888
3186	0.000836814
3198	0.00136933
3210	0.000988962
3222	0.00136933
3234	0.00136933
3246	0.0017497
3258	0.00144541
3270	0.00197792
3282	0.00152148
3294	0.00197792
3306	0.00228222
3318	0.00190185
3330	0.00190185
3342	0.00251044
3354	0.00334726
3366	0.00403192
3378	0.00456444
3390	0.00448837
3402	0.00509696
3414	0.00661844
3426	0.0079117
3438	0.00950925
3450	0.0108786
3462	0.0126283
3474	0.0160516
3486	0.0193989
3498	0.0234308
3510	0.0293646
3522	0.0336247
3534	0.0392542
3546	0.0423732
3558	0.0418407
3570	0.0426775
3582	0.0366677
3594	0.0344615
3606	0.0361352
3618	0.0483831
3630	0.0666408
3642	0.0594899
3654	0.0407757
3666	0.0359069
3678	0.0322554
3690	0.0206921
3702	0.0116393
3714	0.00950925
3726	0.00829207
3738	0.00920495
3750	0.00912888
3762	0.00669451
3774	0.00517303
3786	0.00509696
3798	0.00570555
3810	0.00540125
3822	0.0058577
3834	0.00600985
3846	0.00562948
3858	0.00600985
3870	0.00639022
3882	0.00578162
3894	0.00562948
3906	0.0055534
3918	0.0058577
3930	0.00540125
3942	0.00547733
3954	0
3966	0.000456444
