Infrared Spectrum: Docosanoic acid
Formula: C 22 H 44 O 2
CAS: 112-85-6
Origin: Sadtler Research Labs Under US-EPA Contract
1/CM	ABSORBANCE
450	0.00680102
462	0.0127997
474	0.00676282
486	0.00676282
498	0.00450854
510	0.00412646
522	0.00634253
534	0.00626611
546	0.00695386
558	0.0127233
570	0.01066
582	0.0112714
594	0.0122648
606	0.013411
618	0.0124558
630	0.0117681
642	0.00878784
654	0.00653357
666	0.00462317
678	0.00489062
690	0.00592224
702	0.00699206
714	0.00871142
726	0.00951379
738	0.00741235
750	0.00569299
762	0.00385901
774	0.00408826
786	0.00233069
798	0.00152832
810	0.00168115
822	0.00225427
834	0.00351514
846	0.00244531
858	0.00298022
870	0.00278918
882	0.00275098
894	0.00259814
906	0.00290381
918	0.00301843
930	0.00298022
942	0.00294202
954	0.00206323
966	0.0028656
978	0.00328589
990	0.00389722
1002	0.00496704
1014	0.00584582
1026	0.00664819
1038	0.00855859
1050	0.0123412
1062	0.0170026
1074	0.0241857
1086	0.0333174
1098	0.0425637
1110	0.0509313
1122	0.0522303
1134	0.051619
1146	0.0399274
1158	0.0315216
1170	0.0262489
1182	0.0224281
1194	0.0184927
1206	0.015245
1218	0.0130289
1230	0.0110803
1242	0.010278
1254	0.0105454
1266	0.0102397
1278	0.0111567
1290	0.0117681
1302	0.0123794
1314	0.0119591
1326	0.0113478
1338	0.0145955
1350	0.0196389
1362	0.0217786
1374	0.0214347
1386	0.0199064
1398	0.0129907
1410	0.00836755
1422	0.00920813
1434	0.0111185
1446	0.0169261
1458	0.027739
1470	0.0241857
1482	0.0090935
1494	0.00366797
1506	0.00278918
1518	0.00271277
1530	0.000649536
1542	0.00126086
1554	0.00126086
1566	0.000305664
1578	0.00129907
1590	0.0009552
1602	0.000878784
1614	0.0014519
1626	0.000993408
1638	0.00164294
1650	0.00137549
1662	0.000993408
1674	0.00137549
1686	0.00347693
1698	0.0033241
1710	0.00561658
1722	0.0111567
1734	0.0180342
1746	0.0340815
1758	0.0555544
1770	0.0920813
1782	0.111338
1794	0.0597955
1806	0.0320183
1818	0.0135256
1830	0.00557837
1842	0.00366797
1854	0.0014137
1866	0.00126086
1878	0.000916992
1890	0.000534912
1902	0.000420288
1914	0.00057312
1926	0.000229248
1938	0.00057312
1950	0.000496704
1962	0.000267456
1974	0.000611328
1986	0.000229248
1998	0
2010	0.00019104
2022	0.000229248
2034	0.000343872
2046	0.000267456
2058	0.000305664
2070	0.00038208
2082	0.000229248
2094	0.000229248
2106	0.000267456
2118	0.000458496
2130	0.000305664
2142	0.000267456
2154	0.000420288
2166	0.00057312
2178	0.00076416
2190	0.000878784
2202	0.000687744
2214	0.00057312
2226	0.000496704
2238	0.000496704
2250	0.000496704
2262	0.000343872
2274	0.000267456
2286	0.000611328
2298	0.00110803
2310	0.00175757
2322	0.00149011
2334	0.00171936
2346	0.00133728
2358	0.0014519
2370	0.00038208
2382	0.00152832
2394	0.00057312
2406	0.000305664
2418	0.000458496
2430	0.00057312
2442	0.000343872
2454	0.000458496
2466	0.000534912
2478	0.000496704
2490	0.00057312
2502	0.000534912
2514	0.00103162
2526	0.00106982
2538	0.00133728
2550	0.00122266
2562	0.00110803
2574	0.00122266
2586	0.00133728
2598	0.00129907
2610	0.00175757
2622	0.00210144
2634	0.00206323
2646	0.0023689
2658	0.0028656
2670	0.0033241
2682	0.00359155
2694	0.00362976
2706	0.00347693
2718	0.00301843
2730	0.00317126
2742	0.0033241
2754	0.00355334
2766	0.0038208
2778	0.00489062
2790	0.00630432
2802	0.00836755
2814	0.0107747
2826	0.0145955
2838	0.0218932
2850	0.0491355
2862	0.136976
2874	0.100449
2886	0.0659852
2898	0.0662527
2910	0.109695
2922	0.211749
2934	0.38208
2946	0.22493
2958	0.109275
2970	0.0826057
2982	0.0403476
2994	0.0213583
3006	0.0136403
3018	0.00993408
3030	0.00783264
3042	0.00615149
3054	0.00450854
3066	0.0042793
3078	0.00305664
3090	0.00294202
3102	0.00263635
3114	0.00225427
3126	0.0023689
3138	0.0019104
3150	0.00175757
3162	0.0019104
3174	0.00194861
3186	0.00114624
3198	0.00137549
3210	0.00114624
3222	0.00114624
3234	0.000916992
3246	0.00110803
3258	0.000611328
3270	0.00057312
3282	0.000840576
3294	0.000916992
3306	0.00106982
3318	0.00038208
3330	0.00038208
3342	0.000878784
3354	0.000878784
3366	0.000993408
3378	0.00118445
3390	0.000802368
3402	0.00179578
3414	0.00137549
3426	0.00106982
3438	0.0009552
3450	0.0014137
3462	0.00160474
3474	0.00149011
3486	0.000993408
3498	0.00168115
3510	0.00149011
3522	0.00164294
3534	0.00233069
3546	0.00278918
3558	0.00706848
3570	0.0302989
3582	0.0359537
3594	0.00695386
3606	0.00355334
3618	0.00298022
3630	0.0019104
3642	0.00168115
3654	0.00164294
3666	0.00290381
3678	0.00103162
3690	0.0019104
3702	0.0019104
3714	0.00164294
3726	0.00187219
3738	0.0014137
3750	0.00183398
3762	0.0014519
3774	0.000993408
3786	0.00164294
3798	0.00149011
3810	0.00187219
3822	0.00129907
3834	0.00183398
3846	0.000343872
3858	0.0014519
3870	0.0024071
3882	0.00179578
3894	0.0014519
3906	0.00217786
3918	0.00263635
3930	0.00187219
3942	0.00244531
3954	0.000916992
3966	0.00210144
