Infrared Spectrum: Ethane, 1,2-bis(2-chloroethoxy)-
Formula: C 6 H 12 Cl 2 O 2
CAS: 112-26-5
Origin: Sadtler Research Labs Under US-EPA Contract
1/CM	ABSORBANCE
450	0.0372563
462	0.0212668
474	0.0136265
486	0.0159895
498	0.0142566
510	0.0106334
522	0.0218969
534	0.0197703
546	0.0163046
558	0.0166984
570	0.00874303
582	0.0111848
594	0.00267804
606	0.0041746
618	0.00535609
630	0.00259928
642	0.0115786
654	0.0233147
666	0.0436364
678	0.0961733
690	0.0788448
702	0.0292222
714	0.0174861
726	0.0212668
738	0.0373351
750	0.0944404
762	0.187542
774	0.0697079
786	0.0283558
798	0.0259928
810	0.0279619
822	0.0243387
834	0.0240236
846	0.0226846
858	0.0280407
870	0.0353659
882	0.0400919
894	0.0428487
906	0.044109
918	0.044424
930	0.0350509
942	0.0354447
954	0.0415097
966	0.0495438
978	0.0537184
990	0.056554
1002	0.0608074
1014	0.071362
1026	0.0818379
1038	0.10917
1050	0.146584
1062	0.133351
1074	0.110903
1086	0.131303
1098	0.258746
1110	0.50363
1122	0.722442
1134	0.778917
1146	0.603032
1158	0.33066
1170	0.145638
1182	0.0874303
1194	0.082468
1206	0.108776
1218	0.0778208
1230	0.0605711
1242	0.0775845
1254	0.114605
1266	0.0818379
1278	0.0692353
1290	0.107279
1302	0.154775
1314	0.100033
1326	0.0607286
1338	0.0475747
1350	0.0879816
1362	0.122481
1374	0.0604135
1386	0.0425336
1398	0.0258352
1410	0.017171
1422	0.0209518
1434	0.0604923
1446	0.0627765
1458	0.0876666
1470	0.0615162
1482	0.0396193
1494	0.0197703
1506	0.00937315
1518	0.00645881
1530	0.00433213
1542	0.0034657
1554	0.00378077
1566	0.00291434
1578	0.00315064
1590	0.00267804
1602	0.00244175
1614	0.00212668
1626	0.00252051
1638	0.00220545
1650	0.00126026
1662	0.00173285
1674	0.00157532
1686	0.00283558
1698	0.00212668
1710	0.00228421
1722	0.00228421
1734	0.00283558
1746	0.00204792
1758	0.00252051
1770	0.00252051
1782	0.00275681
1794	0.00244175
1806	0.00236298
1818	0.00157532
1830	0.000945192
1842	0.00126026
1854	0.00220545
1866	0.00204792
1878	0.00220545
1890	0.00315064
1902	0.00378077
1914	0.0044109
1926	0.00574992
1938	0.00685264
1950	0.0076403
1962	0.00708894
1974	0.00645881
1986	0.00504102
1998	0.00433213
2010	0.00385953
2022	0.0039383
2034	0.00472596
2046	0.0044109
2058	0.00456843
2070	0.00614375
2082	0.00519856
2094	0.00433213
2106	0.00488349
2118	0.00488349
2130	0.00504102
2142	0.00464719
2154	0.00456843
2166	0.00401707
2178	0.003702
2190	0.00315064
2202	0.00354447
2214	0.00275681
2226	0.00354447
2238	0.00378077
2250	0.00409583
2262	0.00330817
2274	0.00315064
2286	0.00338694
2298	0.00362324
2310	0.0044109
2322	0.00173285
2334	0.000630128
2346	0.003702
2358	0.00141779
2370	0.00456843
2382	0.00433213
2394	0.00149655
2406	0.00126026
2418	0.00110272
2430	0.000945192
2442	0.00133902
2454	0.00118149
2466	0.00165409
2478	0.00189038
2490	0.00212668
2502	0.00204792
2514	0.00259928
2526	0.00228421
2538	0.00181162
2550	0.00212668
2562	0.00236298
2574	0.00220545
2586	0.00283558
2598	0.0039383
2610	0.00322941
2622	0.0039383
2634	0.00409583
2646	0.00496226
2658	0.0039383
2670	0.00472596
2682	0.00819166
2694	0.00984575
2706	0.0149655
2718	0.0175648
2730	0.0213456
2742	0.0236298
2754	0.022212
2766	0.0209518
2778	0.0243387
2790	0.0291434
2802	0.0371776
2814	0.0419823
2826	0.0505678
2838	0.0782146
2850	0.144142
2862	0.235353
2874	0.27253
2886	0.271979
2898	0.257171
2910	0.231493
2922	0.208021
2934	0.184706
2946	0.17683
2958	0.193528
2970	0.212511
2982	0.125868
2994	0.0644306
3006	0.0657696
3018	0.049465
3030	0.0252839
3042	0.0148868
3054	0.00976698
3066	0.00779783
3078	0.00614375
3090	0.00630128
3102	0.00488349
3114	0.00354447
3126	0.00511979
3138	0.0044109
3150	0.003702
3162	0.00464719
3174	0.00275681
3186	0.00433213
3198	0.00330817
3210	0.00220545
3222	0.00315064
3234	0.00299311
3246	0.00275681
3258	0.00378077
3270	0.00267804
3282	0.00385953
3294	0.00409583
3306	0.00307187
3318	0.003702
3330	0.00480473
3342	0.00401707
3354	0.00212668
3366	0.00401707
3378	0.00519856
3390	0.00110272
3402	0.00236298
3414	0.00409583
3426	0.0039383
3438	0.0039383
3450	0.00330817
3462	0.003702
3474	0.003702
3486	0.00267804
3498	0.00472596
3510	0.00338694
3522	0.00275681
3534	0.00173285
3546	0.00472596
3558	0.00480473
3570	0.00385953
3582	0.00220545
3594	0.00354447
3606	0.00354447
3618	0.00496226
3630	0.00409583
3642	0.00551362
3654	0.00173285
3666	0.00464719
3678	0.00574992
3690	0.00732524
3702	0.00181162
3714	0.00653758
3726	0.00866426
3738	0.00574992
3750	0.00724647
3762	0.00661634
3774	0.00890056
3786	0.00527732
3798	0.010082
3810	0.00882179
3822	0.00921562
3834	0.00882179
3846	0.00732524
3858	0.0081129
3870	0.00968822
3882	0.00756154
3894	0.0116574
3906	0.0076403
3918	0.00622251
3930	0.00890056
3942	0.00708894
3954	0.00937315
3966	0.00559239
