Infrared Spectrum: Hexane, 1,1'-oxybis-
Formula: C 12 H 26 O
CAS: 112-58-3
Origin: Sadtler Research Labs Under US-EPA Contract
1/CM	ABSORBANCE
450	0.0134134
462	0.0112337
474	0.00586835
486	0.00653901
498	0.00519768
510	0.00687435
522	0.00989235
534	0.00352101
546	0.00620368
558	0.0114014
570	0.00368867
582	0.00637135
594	0.00268267
606	0.00251501
618	0.00435934
630	0.00469468
642	0.00368867
654	0.00486234
666	0.00503001
678	0.00486234
690	0.00804802
702	0.0103954
714	0.0207907
726	0.0340364
738	0.0281681
750	0.019617
762	0.0207907
774	0.0157607
786	0.014084
798	0.0108984
810	0.0137487
822	0.0114014
834	0.00972469
846	0.0114014
858	0.0122397
870	0.0164314
882	0.021629
894	0.0318567
906	0.0404077
918	0.0422521
930	0.0363837
942	0.0377251
954	0.0385634
966	0.0360484
978	0.0343717
990	0.0375574
1002	0.0469468
1014	0.0586835
1026	0.0749471
1038	0.0881928
1050	0.0851748
1062	0.0925522
1074	0.130613
1086	0.182589
1098	0.360484
1110	0.613158
1122	0.713591
1134	0.63462
1146	0.300124
1158	0.161799
1170	0.119211
1182	0.0865162
1194	0.0715938
1206	0.0700848
1218	0.0640488
1230	0.0657255
1242	0.0603601
1254	0.0523121
1266	0.0575098
1278	0.0600248
1290	0.0586835
1302	0.0650548
1314	0.0549948
1326	0.0445994
1338	0.0613661
1350	0.118205
1362	0.171859
1374	0.184937
1386	0.127595
1398	0.0556654
1410	0.0427551
1422	0.0394017
1434	0.0630428
1446	0.101103
1458	0.159116
1470	0.194829
1482	0.104289
1494	0.0447671
1506	0.0219644
1518	0.0144194
1530	0.0103954
1542	0.00871868
1554	0.00687435
1566	0.00653901
1578	0.00603601
1590	0.00570068
1602	0.00570068
1614	0.00586835
1626	0.00486234
1638	0.00536534
1650	0.00469468
1662	0.00435934
1674	0.00469468
1686	0.00603601
1698	0.00670668
1710	0.00737735
1722	0.011066
1734	0.0214614
1746	0.0528151
1758	0.0544918
1770	0.0301801
1782	0.0259884
1794	0.0167667
1806	0.00888635
1818	0.00570068
1830	0.00469468
1842	0.00419167
1854	0.00452701
1866	0.00452701
1878	0.00435934
1890	0.00435934
1902	0.00419167
1914	0.00452701
1926	0.00519768
1938	0.00553301
1950	0.00570068
1962	0.00603601
1974	0.00570068
1986	0.00570068
1998	0.00704201
2010	0.00855102
2022	0.0103954
2034	0.0117367
2046	0.0103954
2058	0.00972469
2070	0.00838335
2082	0.00603601
2094	0.00620368
2106	0.00754502
2118	0.00804802
2130	0.00788035
2142	0.00788035
2154	0.00771268
2166	0.00788035
2178	0.00737735
2190	0.00637135
2202	0.00653901
2214	0.00637135
2226	0.00620368
2238	0.00670668
2250	0.00653901
2262	0.00704201
2274	0.00737735
2286	0.00653901
2298	0.00435934
2310	0.00234734
2322	0.00117367
2334	0.00318567
2346	0.00754502
2358	0.000503001
2370	0.014587
2382	0.0137487
2394	0.00838335
2406	0.00737735
2418	0.00704201
2430	0.00737735
2442	0.00720968
2454	0.00737735
2466	0.00771268
2478	0.00771268
2490	0.00804802
2502	0.00804802
2514	0.00804802
2526	0.00804802
2538	0.00888635
2550	0.00989235
2562	0.011066
2574	0.0112337
2586	0.0127427
2598	0.0149224
2610	0.0167667
2622	0.0174374
2634	0.0167667
2646	0.0192817
2658	0.0202877
2670	0.0238087
2682	0.0293417
2694	0.0340364
2706	0.0394017
2718	0.0440964
2730	0.0508031
2742	0.0566714
2754	0.0541564
2766	0.0549948
2778	0.0665638
2790	0.0980852
2802	0.113343
2814	0.105966
2826	0.133128
2838	0.218135
2850	0.472989
2862	1.01053
2874	1.06754
2886	0.746453
2898	0.523624
2910	0.676369
2922	1.00567
2934	1.58227
2946	1.57406
2958	1.04725
2970	1.1227
2982	0.460246
2994	0.18544
3006	0.106301
3018	0.0727675
3030	0.0543241
3042	0.0440964
3054	0.0362161
3066	0.0310184
3078	0.0266591
3090	0.0239764
3102	0.0219644
3114	0.0214614
3126	0.0202877
3138	0.021126
3150	0.0202877
3162	0.0167667
3174	0.016599
3186	0.017102
3198	0.017102
3210	0.0152577
3222	0.013078
3234	0.0112337
3246	0.0107307
3258	0.01006
3270	0.00704201
3282	0.00603601
3294	0.00653901
3306	0.00720968
3318	0.00687435
3330	0.00788035
3342	0.00570068
3354	0.00687435
3366	0.00536534
3378	0.00955702
3390	0.00637135
3402	0.00653901
3414	0.00570068
3426	0.00486234
3438	0.00503001
3450	0.00536534
3462	0.00435934
3474	0.00536534
3486	0.00452701
3498	0.00536534
3510	0.00301801
3522	0.00217967
3534	0.001006
3546	0.00184434
3558	0.00301801
3570	0.00519768
3582	0.00938935
3594	0.00285034
3606	0.00368867
3618	0.00419167
3630	0.00452701
3642	0.00905402
3654	0.00402401
3666	0.00653901
3678	0.00788035
3690	0.00134134
3702	0.00469468
3714	0.00452701
3726	0.00234734
3738	0.00368867
3750	0.00402401
3762	0.00318567
3774	0.00435934
3786	0.00469468
3798	0.00184434
3810	0.00553301
3822	0.00536534
3834	0.00737735
3846	0.00134134
3858	0.00670668
3870	0.00234734
3882	0.00586835
3894	0.00419167
3906	0.000503001
3918	0.002012
3930	0.000503001
3942	0
3954	0.00251501
3966	0.000335334
