Infrared Spectrum: Octadecane, 1-bromo-
Formula: C 18 H 37 Br
CAS: 112-89-0
Origin: Sadtler Research Labs Under US-EPA Contract
1/CM	ABSORBANCE
450	0.00785175
462	0.0193178
474	0.0393834
486	0.0416268
498	0.0123385
510	0.0205641
522	0.0246769
534	0.0401312
546	0.0260479
558	0.0315316
570	0.0382617
582	0.0292883
594	0.0262971
606	0.0181961
618	0.0234306
630	0.023306
642	0.0262971
654	0.0417514
666	0.0277927
678	0.0205641
690	0.0215612
702	0.0289144
714	0.0241784
726	0.0416268
738	0.036143
750	0.0238045
762	0.0210626
774	0.0270449
786	0.0235553
798	0.0190685
810	0.0286651
822	0.019941
834	0.0220597
846	0.0235553
858	0.0210626
870	0.0193178
882	0.0220597
894	0.0168252
906	0.0160774
918	0.01857
930	0.0223089
942	0.025674
954	0.0260479
966	0.0248016
978	0.0158281
990	0.0188193
1002	0.0206887
1014	0.0220597
1026	0.0270449
1038	0.0184454
1050	0.0200656
1062	0.0208134
1074	0.0276681
1086	0.0277927
1098	0.0203149
1110	0.0160774
1122	0.017573
1134	0.0213119
1146	0.0174483
1158	0.0178222
1170	0.01857
1182	0.0171991
1194	0.0181961
1206	0.0253001
1218	0.0203149
1230	0.019941
1242	0.0264218
1254	0.0325287
1266	0.0400066
1278	0.0356445
1290	0.0355198
1302	0.0360184
1314	0.031407
1326	0.0251755
1338	0.0302853
1350	0.041876
1362	0.0383863
1374	0.0301607
1386	0.023306
1398	0.0178222
1410	0.0180715
1422	0.0189439
1434	0.0307839
1446	0.0636864
1458	0.0916038
1470	0.0800131
1482	0.0284159
1494	0.0155789
1506	0.0100951
1518	0.00847491
1530	0.00760249
1542	0.00560839
1554	0.00598229
1566	0.00847491
1578	0.00897343
1590	0.0103444
1602	0.00710397
1614	0.00835028
1626	0.00947196
1638	0.00760249
1650	0.00373893
1662	0.00747786
1674	0.00810101
1686	0.0068547
1698	0.0068547
1710	0.00598229
1722	0.0052345
1734	0.00573303
1746	0.00648081
1758	0.00560839
1770	0.00573303
1782	0.00535913
1794	0.00461135
1806	0.00423745
1818	0.00411282
1830	0.00423745
1842	0.00436208
1854	0.00398819
1866	0.00398819
1878	0.00348967
1890	0.00324041
1902	0.00311577
1914	0.00336504
1926	0.00299114
1938	0.00324041
1950	0.00311577
1962	0.00299114
1974	0.00261725
1986	0.00261725
1998	0.00311577
2010	0.00286651
2022	0.00373893
2034	0.00324041
2046	0.00311577
2058	0.00311577
2070	0.00299114
2082	0.00286651
2094	0.00236799
2106	0.00211873
2118	0.00149557
2130	0.00124631
2142	0.00149557
2154	0.00149557
2166	0.00124631
2178	0.000872417
2190	0.00112168
2202	0.000373893
2214	0.000872417
2226	0.000872417
2238	0.000872417
2250	0.00112168
2262	0.000872417
2274	0.00124631
2286	0.00236799
2298	0.00423745
2310	0.00436208
2322	0.0036143
2334	0.0019941
2346	0.00299114
2358	0.00274188
2370	0.00124631
2382	0.00373893
2394	0.00149557
2406	0.00186946
2418	0.00186946
2430	0.00224336
2442	0.00261725
2454	0.00274188
2466	0.00324041
2478	0.00348967
2490	0.00373893
2502	0.00423745
2514	0.00498524
2526	0.00610692
2538	0.00673007
2550	0.00735323
2562	0.00760249
2574	0.00785175
2586	0.00847491
2598	0.00959659
2610	0.010469
2622	0.0118399
2634	0.0125877
2646	0.0137094
2658	0.0147065
2670	0.0163267
2682	0.0176976
2694	0.017573
2706	0.0169498
2718	0.0169498
2730	0.0174483
2742	0.0190685
2754	0.0200656
2766	0.0215612
2778	0.0231814
2790	0.0279173
2802	0.033775
2814	0.0417514
2826	0.0565825
2838	0.0826304
2850	0.181463
2862	0.474346
2874	0.323791
2886	0.21449
2898	0.229695
2910	0.368908
2922	0.696064
2934	1.24631
2946	0.700675
2958	0.322047
2970	0.274188
2982	0.1351
2994	0.0752771
3006	0.0603214
3018	0.0553362
3030	0.0376386
3042	0.0305346
3054	0.0264218
3066	0.0249262
3078	0.0226828
3090	0.0215612
3102	0.0205641
3114	0.0195671
3126	0.0179469
3138	0.0174483
3150	0.0167006
3162	0.015205
3174	0.0137094
3186	0.012837
3198	0.0110922
3210	0.00922269
3222	0.00822565
3234	0.00623155
3246	0.0052345
3258	0.00348967
3270	0.00373893
3282	0.00224336
3294	0.00149557
3306	0.000872417
3318	0.000373893
3330	0.000747786
3342	0.000872417
3354	0.000498524
3366	0.00124631
3378	0.000747786
3390	0.00112168
3402	0.00137094
3414	0.0016202
3426	0.000872417
3438	0.00261725
3450	0.000623155
3462	0.00211873
3474	0.00149557
3486	0.00112168
3498	0.000997048
3510	0.00124631
3522	0.000373893
3534	0.00124631
3546	0.000997048
3558	0.00236799
3570	0.0016202
3582	0.0019941
3594	0.0016202
3606	0.00211873
3618	0.00174483
3630	0.000498524
3642	0.00336504
3654	0.0019941
3666	0.00249262
3678	0.000498524
3690	0.00112168
3702	0.00186946
3714	0.000872417
3726	0.00299114
3738	0.00486061
3750	0.00112168
3762	0.00299114
3774	0.00274188
3786	0.00398819
3798	0.00348967
3810	0.00211873
3822	0.00249262
3834	0.00311577
3846	0.00299114
3858	0.00149557
3870	0.00286651
3882	0.00436208
3894	0.00249262
3906	0.00299114
3918	0.00423745
3930	0.00423745
3942	0.000747786
3954	0.000872417
3966	0.00386356
