Infrared Spectrum: Ethanol, 2-(2-butoxyethoxy)-
Formula: C 8 H 18 O 3
CAS: 112-34-5
Origin: Sadtler Research Labs Under US-EPA Contract
1/CM	ABSORBANCE
450	0.00767933
462	0.0214381
474	0.0198383
486	0.0123189
498	0.011759
510	0.0214381
522	0.0199183
534	0.0136788
546	0.0271976
558	0.0258377
570	0.0162386
582	0.0251978
594	0.0156786
606	0.0133588
618	0.0152787
630	0.0127189
642	0.0183984
654	0.0181584
666	0.0204782
678	0.0194383
690	0.0172785
702	0.0173585
714	0.0203182
726	0.0180784
738	0.0217581
750	0.023118
762	0.0186384
774	0.0253578
786	0.0237579
798	0.0304773
810	0.0451161
822	0.0300774
834	0.0489557
846	0.0470359
858	0.0501556
870	0.0588748
882	0.0675141
894	0.080553
906	0.0766333
918	0.0697539
930	0.0631945
942	0.0507956
954	0.0556751
966	0.0598348
978	0.0747935
990	0.0738335
1002	0.0824728
1014	0.108071
1026	0.143667
1038	0.170625
1050	0.22798
1062	0.333171
1074	0.326451
1086	0.251098
1098	0.310933
1110	0.478598
1122	0.736896
1134	0.762493
1146	0.525234
1158	0.300694
1170	0.156786
1182	0.101351
1194	0.0784731
1206	0.0773532
1218	0.0774332
1230	0.0751934
1242	0.0881523
1254	0.0979114
1266	0.0925519
1278	0.0863124
1290	0.0879123
1302	0.080473
1314	0.0650343
1326	0.0703138
1338	0.0838327
1350	0.150307
1362	0.144547
1374	0.11607
1386	0.105831
1398	0.091752
1410	0.0737535
1422	0.0507956
1434	0.0503156
1446	0.0628745
1458	0.101191
1470	0.101271
1482	0.0655143
1494	0.0326371
1506	0.0177584
1518	0.0144787
1530	0.0125589
1542	0.00983914
1554	0.00871924
1566	0.00967915
1578	0.00519955
1590	0.00847926
1602	0.00791931
1614	0.00759934
1626	0.00535953
1638	0.00551952
1650	0.00439961
1662	0.00759934
1674	0.00471959
1686	0.0057595
1698	0.00399965
1710	0.00823928
1722	0.00783931
1734	0.00999913
1746	0.0215181
1758	0.0211182
1770	0.0123989
1782	0.00991913
1794	0.00727936
1806	0.00639944
1818	0.0057595
1830	0.00495957
1842	0.00527954
1854	0.00559951
1866	0.00615946
1878	0.00607947
1890	0.00655943
1902	0.00711938
1914	0.00783931
1926	0.00951917
1938	0.0107991
1950	0.011439
1962	0.011999
1974	0.010959
1986	0.00895922
1998	0.00695939
2010	0.00623945
2022	0.00615946
2034	0.00551952
2046	0.00583949
2058	0.00631945
2070	0.00655943
2082	0.00663942
2094	0.00751934
2106	0.00751934
2118	0.00663942
2130	0.00679941
2142	0.00663942
2154	0.00631945
2166	0.00535953
2178	0.00511955
2190	0.00495957
2202	0.00495957
2214	0.00463959
2226	0.00431962
2238	0.00407964
2250	0.00431962
2262	0.00463959
2274	0.00431962
2286	0.00431962
2298	0.00503956
2310	0.00607947
2322	0.00487957
2334	0.00543952
2346	0.00303973
2358	0.00663942
2370	0.0023198
2382	0.00215981
2394	0.00215981
2406	0.00215981
2418	0.00183984
2430	0.00151987
2442	0.00151987
2454	0.00079993
2466	0.000959916
2478	0.000399965
2490	7.9993e-05
2502	0.00079993
2514	0.000639944
2526	0.00135988
2538	0.00143987
2550	0.00151987
2562	0.00135988
2574	0.00135988
2586	0.00167985
2598	0.00287975
2610	0.00319972
2622	0.00367968
2634	0.00423963
2646	0.00535953
2658	0.00703938
2670	0.00991913
2682	0.0135988
2694	0.0186384
2706	0.022478
2718	0.0260777
2730	0.0307973
2742	0.0316772
2754	0.0318372
2766	0.0335971
2778	0.0392766
2790	0.0499956
2802	0.0605547
2814	0.0691939
2826	0.0856725
2838	0.127109
2850	0.235179
2862	0.424123
2874	0.551712
2886	0.527954
2898	0.415484
2910	0.385326
2922	0.427643
2934	0.488597
2946	0.522274
2958	0.467479
2970	0.470119
2982	0.216941
2994	0.0839927
3006	0.0422363
3018	0.0260777
3030	0.0179184
3042	0.0136788
3054	0.0107991
3066	0.00735936
3078	0.00655943
3090	0.00599948
3102	0.00463959
3114	0.00391966
3126	0.00439961
3138	0.00311973
3150	0.00407964
3162	0.00319972
3174	0.00407964
3186	0.00439961
3198	0.00351969
3210	0.00295974
3222	0.00143987
3234	0.00183984
3246	0.00175985
3258	0.00279976
3270	0.00215981
3282	0.00191983
3294	0.000719937
3306	0.00135988
3318	0.00175985
3330	0.000959916
3342	0.00191983
3354	7.9993e-05
3366	0.00135988
3378	0.00175985
3390	0.00207982
3402	0.00151987
3414	0.00351969
3426	0.00327971
3438	0.00479958
3450	0.00447961
3462	0.00623945
3474	0.00759934
3486	0.0105591
3498	0.0154386
3510	0.0211981
3522	0.0255978
3534	0.0247978
3546	0.0247178
3558	0.0203982
3570	0.0222381
3582	0.0187184
3594	0.0195983
3606	0.023198
3618	0.0376767
3630	0.057115
3642	0.0467959
3654	0.0243179
3666	0.0198383
3678	0.0155986
3690	0.011199
3702	0.00583949
3714	0.00527954
3726	0.00759934
3738	0.00655943
3750	0.00495957
3762	0.00527954
3774	0.00559951
3786	0.0068794
3798	0.00583949
3810	0.00607947
3822	0.00407964
3834	0.00551952
3846	0.00527954
3858	0.00671941
3870	0.00519955
3882	0.0056795
3894	0.00311973
3906	0.00535953
3918	0.00743935
3930	0.00583949
3942	0.00335971
3954	0.00607947
3966	0.00423963
