Infrared Spectrum: 2-(2-Hexyloxyethoxy)ethanol
Formula: C 10 H 22 O 3
CAS: 112-59-4
Origin: Sadtler Research Labs Under US-EPA Contract
1/CM	ABSORBANCE
450	0.00163318
462	0.0097281
474	0.0126394
486	0.0107932
498	0.0107932
510	0.0162608
522	0.0146987
534	0.0156928
546	0.0146987
558	0.0115033
570	0.0111483
582	0.00880499
594	0.00418947
606	0.00326637
618	0.00234326
630	0.00205923
642	0.00220125
654	0.00156218
666	0.00319536
678	0.00120714
690	0.00184621
702	0.00255629
714	0.00546762
726	0.00958608
738	0.00873398
750	0.00575165
762	0.00823693
774	0.00852096
786	0.00930205
798	0.0144856
810	0.0205923
822	0.0221545
834	0.0222965
846	0.0242847
858	0.0298234
870	0.0432439
882	0.0526879
894	0.0574455
906	0.0510548
918	0.053256
930	0.0551022
942	0.0561673
954	0.0510548
966	0.0453741
978	0.0476464
990	0.0573035
1002	0.0724992
1014	0.0940146
1026	0.121069
1038	0.157993
1050	0.215864
1062	0.303204
1074	0.289926
1086	0.22545
1098	0.281831
1110	0.426687
1122	0.638788
1134	0.655546
1146	0.461765
1158	0.25428
1170	0.125897
1182	0.080168
1194	0.0680257
1206	0.071363
1218	0.0678126
1230	0.0595047
1242	0.0680967
1254	0.0756235
1266	0.0732092
1278	0.0733513
1290	0.0765466
1302	0.0693038
1314	0.0540371
1326	0.0594337
1338	0.0702269
1350	0.141164
1362	0.126465
1374	0.102891
1386	0.0950797
1398	0.0767596
1410	0.06199
1422	0.0432439
1434	0.0425338
1446	0.0608539
1458	0.105376
1470	0.102394
1482	0.0580135
1494	0.0255629
1506	0.0136335
1518	0.00688778
1530	0.00518358
1542	0.00411846
1554	0.00340838
1566	0.00326637
1578	0.00397645
1590	0.00390544
1602	0.00298234
1614	0.00340838
1626	0.00276931
1638	0.00184621
1650	0.00227226
1662	0.00191722
1674	0.00298234
1686	0.00127814
1698	0.00276931
1710	0.00156218
1722	0.00383443
1734	0.00589366
1746	0.00951507
1758	0.0112193
1770	0.00589366
1782	0.00347939
1794	0.0026273
1806	0.00198822
1818	0.00113613
1830	0.000213024
1842	0.000923104
1854	0.00106512
1866	0.000781088
1878	0.00120714
1890	0.0017752
1902	0.00205923
1914	0.00276931
1926	0.00397645
1938	0.00539661
1950	0.0062487
1962	0.00582266
1974	0.00518358
1986	0.00468653
1998	0.00369242
2010	0.00333738
2022	0.0026273
2034	0.00276931
2046	0.00241427
2058	0.00213024
2070	0.00241427
2082	0.0026273
2094	0.00248528
2106	0.00291133
2118	0.00298234
2130	0.00333738
2142	0.00333738
2154	0.00340838
2166	0.0026273
2178	0.00248528
2190	0.00184621
2202	0.00142016
2214	0.00149117
2226	0.00142016
2238	0.00149117
2250	0.0017752
2262	0.00142016
2274	0.00142016
2286	0.0017752
2298	0.00156218
2310	0.00127814
2322	0.00163318
2334	0.00191722
2346	0.00149117
2358	0.00326637
2370	0.00284032
2382	0.0026273
2394	0.00184621
2406	0.00142016
2418	0.00156218
2430	0.000923104
2442	0.000852096
2454	0.000923104
2466	0.000568064
2478	0.00071008
2490	0.000781088
2502	0.00071008
2514	0.00106512
2526	0.00156218
2538	0.0017752
2550	0.0017752
2562	0.00220125
2574	0.00291133
2586	0.00376342
2598	0.00433149
2610	0.00468653
2622	0.00497056
2634	0.00553862
2646	0.00660374
2658	0.00816592
2670	0.0107932
2682	0.0146276
2694	0.0188881
2706	0.0223675
2718	0.0252078
2730	0.0298234
2742	0.0320956
2754	0.0317406
2766	0.0339418
2778	0.0401195
2790	0.0504157
2802	0.0613509
2814	0.07115
2826	0.0871978
2838	0.130442
2850	0.251936
2862	0.493435
2874	0.604633
2886	0.514666
2898	0.40716
2910	0.421077
2922	0.519992
2934	0.683807
2946	0.665558
2958	0.507636
2970	0.47547
2982	0.184124
2994	0.0726412
3006	0.0400485
3018	0.0253499
3030	0.018107
3042	0.0129235
3054	0.0097991
3066	0.00752685
3078	0.0061777
3090	0.00482854
3102	0.00411846
3114	0.00383443
3126	0.00312435
3138	0.00284032
3150	0.00213024
3162	0.00241427
3174	0.00213024
3186	0.00205923
3198	0.00170419
3210	0.00191722
3222	0.00106512
3234	0.000852096
3246	0.000852096
3258	0.00127814
3270	0.00106512
3282	0.00191722
3294	0.0017752
3306	0.00134915
3318	0.00142016
3330	0.00213024
3342	0.00205923
3354	0.0026983
3366	0.00276931
3378	0.00326637
3390	0.00276931
3402	0.00319536
3414	0.00383443
3426	0.00404746
3438	0.00404746
3450	0.00461552
3462	0.00568064
3474	0.00702979
3486	0.008876
3498	0.0122844
3510	0.017894
3522	0.0208764
3534	0.0193852
3546	0.018178
3558	0.0164028
3570	0.0144146
3582	0.0129945
3594	0.0127814
3606	0.0167579
3618	0.0285452
3630	0.0487825
3642	0.0374922
3654	0.0166869
3666	0.0149117
3678	0.0117163
3690	0.00788189
3702	0.00234326
3714	0.00142016
3726	0.00184621
3738	0.00120714
3750	0.00156218
3762	0.00120714
3774	0.0026273
3786	0.00071008
3798	0.00035504
3810	0.00113613
3822	0.000994112
3834	0.000213024
3846	0.00142016
3858	0.00163318
3870	0.000213024
3882	0.00127814
3894	0.00142016
3906	0.00170419
3918	0.00347939
3930	0.00170419
3942	0.00319536
3954	0.00340838
3966	0.0044025
