Infrared Spectrum: 1-Decanol
Formula: C 10 H 22 O
CAS: 112-30-1
Origin: Sadtler Research Labs Under US-EPA Contract
1/CM	ABSORBANCE
450	0.0062458
462	0.00688458
474	0.0065297
486	0.00553605
498	0.0103624
510	0.00688458
522	0.00440045
534	0.005678
546	0.00440045
558	0.0045424
570	0.00305193
582	0.00212925
594	0.00042585
606	0.00248413
618	0.00298095
630	0.00134853
642	0.00319388
654	0.00447143
666	0.0019873
678	0.00411655
690	0.005678
702	0.0073814
714	0.0111431
726	0.0120658
738	0.00688458
750	0.0062458
762	0.00695555
774	0.005678
786	0.0036907
798	0.0059619
810	0.00553605
822	0.00553605
834	0.00603288
846	0.00716848
858	0.0079492
870	0.0103624
882	0.0112141
894	0.0118528
906	0.0123497
918	0.0121367
930	0.0136272
942	0.0146209
954	0.0147628
966	0.0167501
978	0.0216474
990	0.0286739
1002	0.0378297
1014	0.0472694
1026	0.0629548
1038	0.0857378
1050	0.0960292
1062	0.0877961
1074	0.0606127
1086	0.0388233
1098	0.0241315
1110	0.0186664
1122	0.0158274
1134	0.0128465
1146	0.0127045
1158	0.0122787
1170	0.0131304
1182	0.0138401
1194	0.0149048
1206	0.0164662
1218	0.0173889
1230	0.0188084
1242	0.0186664
1254	0.0193762
1266	0.0193052
1278	0.019802
1290	0.0195181
1302	0.019731
1314	0.0187374
1326	0.0177438
1338	0.0220732
1350	0.0269705
1362	0.0274673
1374	0.0314419
1386	0.0401719
1398	0.0282481
1410	0.0178147
1422	0.0136272
1434	0.0178147
1446	0.0306612
1458	0.0492567
1470	0.0500374
1482	0.0266866
1494	0.0111431
1506	0.00581995
1518	0.00503923
1530	0.00361973
1542	0.00269705
1554	0.00262608
1566	0.00248413
1578	0.00184535
1590	0.00191633
1602	0.0019873
1614	0.00149048
1626	0.00149048
1638	0.00149048
1650	0.00156145
1662	0.0014195
1674	0.00127755
1686	0.0008517
1698	0.000922675
1710	0.0008517
1722	0.00134853
1734	0.0008517
1746	0.000780725
1758	0.00120658
1770	0.000638775
1782	0.00099365
1794	0.00106463
1806	0.000638775
1818	0.00099365
1830	0.000496825
1842	0.00070975
1854	0.00099365
1866	0.000922675
1878	0.000496825
1890	0.000638775
1902	0.0008517
1914	0.00134853
1926	0.00127755
1938	0.00134853
1950	0.00106463
1962	0.0008517
1974	0.000780725
1986	0.00120658
1998	0.00070975
2010	0.00070975
2022	0.00070975
2034	0.0011356
2046	0.0011356
2058	0.0005678
2070	0.0011356
2082	0.0011356
2094	0.00099365
2106	0.00127755
2118	0.0011356
2130	0.000922675
2142	0.00099365
2154	0.00120658
2166	0.00134853
2178	0.000922675
2190	0.000922675
2202	0.000212925
2214	0.0008517
2226	0.0002839
2238	0.000780725
2250	0.000780725
2262	0.000922675
2274	0.000638775
2286	0.00099365
2298	0.000780725
2310	0.000496825
2322	0.00014195
2334	0
2346	0
2358	0
2370	0
2382	0.000212925
2394	0.00106463
2406	0.000780725
2418	0.00127755
2430	0.00127755
2442	0.000780725
2454	0.00120658
2466	0.00127755
2478	0.00127755
2490	0.000780725
2502	0.00120658
2514	0.0014195
2526	0.000922675
2538	0.00134853
2550	0.0014195
2562	0.000354875
2574	0.00134853
2586	0.0017034
2598	0.00234218
2610	0.0034068
2622	0.00347778
2634	0.0039746
2646	0.0053941
2658	0.00617483
2670	0.0073814
2682	0.00780725
2694	0.00745238
2706	0.00745238
2718	0.00745238
2730	0.0079492
2742	0.00951065
2754	0.0099365
2766	0.0107172
2778	0.0119238
2790	0.0145499
2802	0.0175308
2814	0.0217893
2826	0.0298095
2838	0.0458499
2850	0.105327
2862	0.257781
2874	0.255794
2886	0.198872
2898	0.167714
2910	0.23443
2922	0.425992
2934	0.70975
2946	0.503355
2958	0.264879
2970	0.250826
2982	0.103624
2994	0.0432238
3006	0.0257639
3018	0.0178147
3030	0.0134853
3042	0.0103624
3054	0.0073814
3066	0.00546508
3078	0.00489728
3090	0.00461338
3102	0.00390363
3114	0.00298095
3126	0.00298095
3138	0.00276803
3150	0.00234218
3162	0.0031229
3174	0.0025551
3186	0.00241315
3198	0.0031229
3210	0.00262608
3222	0.00269705
3234	0.00212925
3246	0.00241315
3258	0.0017034
3270	0.00127755
3282	0.0014195
3294	0.000354875
3306	0.0011356
3318	0.00042585
3330	0.00177438
3342	0.00127755
3354	0.0017034
3366	0.00120658
3378	0.00191633
3390	0.00099365
3402	0.00106463
3414	0.00234218
3426	0.00290997
3438	0.00099365
3450	0.0025551
3462	0.0019873
3474	0.00326485
3486	0.00298095
3498	0.00205828
3510	0.00241315
3522	0.0014195
3534	0.00298095
3546	0.00134853
3558	0.00220023
3570	0.00205828
3582	0.00156145
3594	0.00326485
3606	0.00319388
3618	0.00347778
3630	0.00489728
3642	0.00858798
3654	0.0177438
3666	0.0266156
3678	0.0262608
3690	0.0118528
3702	0.0068136
3714	0.00361973
3726	0.00404558
3738	0.00361973
3750	0.002839
3762	0.00262608
3774	0.00326485
3786	0.0025551
3798	0.0031229
3810	0.00220023
3822	0.00276803
3834	0.0036907
3846	0.00319388
3858	0.00205828
3870	0.00177438
3882	0.00290997
3894	0.00290997
3906	0.0034068
3918	0.00234218
3930	0.002839
3942	0.0031229
3954	0.0022712
3966	0.00241315
