Infrared Spectrum: Acetic acid, octyl ester
Formula: C 10 H 20 O 2
CAS: 112-14-1
Origin: Sadtler Research Labs Under US-EPA Contract
1/CM	ABSORBANCE
450	0.0995579
462	0.0360552
474	0.0337815
486	0.0138049
498	0.0230624
510	0.0141298
522	0.00958225
534	0.0185149
546	0.0120184
558	0.00860778
570	0.0151042
582	0.0107191
594	0.0186773
606	0.035568
618	0.0217631
630	0.032807
642	0.030046
654	0.011856
666	0.0103943
678	0.00503474
690	0.000974466
702	0.00730849
714	0.0141298
726	0.0138049
738	0.01819
750	0.0128305
762	0.00990707
774	0.0142922
786	0.00877019
798	0.00941984
810	0.0131553
822	0.0129929
834	0.020139
846	0.0222503
858	0.0206262
870	0.0235496
882	0.0229
894	0.0183524
906	0.01819
918	0.0177028
930	0.0186773
942	0.0246865
954	0.0342687
966	0.0397907
978	0.0388162
990	0.0375169
1002	0.0622034
1014	0.106054
1026	0.17378
1038	0.262131
1050	0.263431
1062	0.20139
1074	0.171506
1086	0.122133
1098	0.0691871
1110	0.0415772
1122	0.0308581
1134	0.0232248
1146	0.0188397
1158	0.0172156
1170	0.0232248
1182	0.0384914
1194	0.0724353
1206	0.176541
1218	0.471804
1230	1.31261
1242	1.39511
1254	0.577858
1266	0.301435
1278	0.164685
1290	0.106217
1302	0.0730849
1314	0.053758
1326	0.0384914
1338	0.0365425
1350	0.0579807
1362	0.180763
1374	0.267816
1386	0.162086
1398	0.125381
1410	0.0492105
1422	0.0376794
1434	0.0480737
1446	0.073897
1458	0.118398
1470	0.126518
1482	0.0677254
1494	0.0323198
1506	0.0245241
1518	0.0211134
1530	0.0160787
1542	0.0149418
1554	0.0112064
1566	0.00844537
1578	0.00730849
1590	0.00649644
1602	0.00487233
1614	0.00519715
1626	0.00649644
1638	0.00714608
1650	0.0100695
1662	0.0102319
1674	0.0126681
1686	0.0167283
1698	0.0233872
1710	0.0371921
1722	0.0730849
1734	0.140648
1746	0.331156
1758	0.869224
1770	0.720942
1782	0.251412
1794	0.101182
1806	0.0428765
1818	0.020139
1830	0.0144546
1842	0.00941984
1854	0.00682126
1866	0.00844537
1878	0.00552197
1890	0.00519715
1902	0.0043851
1914	0.00357304
1926	0.00308581
1938	0.00276099
1950	0.00113688
1962	0.00211134
1974	0.00178652
1986	0.0014617
1998	0.0029234
2010	0.00259858
2022	0.0029234
2034	0.00373545
2046	0.00357304
2058	0.00389786
2070	0.00600921
2082	0.00503474
2094	0.00470992
2106	0.00470992
2118	0.00357304
2130	0.00357304
2142	0.00276099
2154	0.00194893
2166	0.00194893
2178	0.00129929
2190	0.000812055
2202	0.00113688
2214	0.00113688
2226	0.000324822
2238	0.00178652
2250	0.00129929
2262	0.0014617
2274	0.00178652
2286	0.00113688
2298	0.000974466
2310	0.000324822
2322	0.00243617
2334	0.00194893
2346	0.00129929
2358	0.00259858
2370	0.000162411
2382	0
2394	0.000487233
2406	0.00227375
2418	0.00243617
2430	0.00162411
2442	0.00259858
2454	0.00324822
2466	0.00324822
2478	0.00389786
2490	0.00276099
2502	0.00227375
2514	0.00259858
2526	0.00178652
2538	0.000974466
2550	0.00113688
2562	0.000974466
2574	0.0014617
2586	0.0029234
2598	0.00308581
2610	0.00357304
2622	0.00357304
2634	0.00389786
2646	0.00568439
2658	0.0058468
2670	0.00714608
2682	0.00941984
2694	0.00844537
2706	0.00779573
2718	0.00828296
2730	0.00974466
2742	0.0120184
2754	0.011856
2766	0.0108815
2778	0.0120184
2790	0.0159163
2802	0.0196517
2814	0.0258233
2826	0.0368673
2838	0.0547325
2850	0.124244
2862	0.335541
2874	0.354381
2886	0.266192
2898	0.223153
2910	0.319787
2922	0.557882
2934	0.942633
2946	0.796139
2958	0.535794
2970	0.600758
2982	0.279509
2994	0.125381
3006	0.0659389
3018	0.0461247
3030	0.0381666
3042	0.0315077
3054	0.0259858
3066	0.0230624
3078	0.0185149
3090	0.0167283
3102	0.0147794
3114	0.0110439
3126	0.00990707
3138	0.0102319
3150	0.00958225
3162	0.00958225
3174	0.00909502
3186	0.0089326
3198	0.00828296
3210	0.00860778
3222	0.00779573
3234	0.00877019
3246	0.00795814
3258	0.00844537
3270	0.00714608
3282	0.00600921
3294	0.00600921
3306	0.00470992
3318	0.00389786
3330	0.00373545
3342	0.0043851
3354	0.00422269
3366	0.0058468
3378	0.00519715
3390	0.00324822
3402	0.00373545
3414	0.00341063
3426	0.00276099
3438	0.00470992
3450	0.00373545
3462	0.00487233
3474	0.00649644
3486	0.00552197
3498	0.00925743
3510	0.011856
3522	0.00552197
3534	0.00227375
3546	0.00324822
3558	0.0014617
3570	0.00162411
3582	0.00211134
3594	0.00259858
3606	0.00308581
3618	0.00389786
3630	0.00211134
3642	0.00519715
3654	0.00568439
3666	0.00308581
3678	0.00341063
3690	0.00373545
3702	0.00487233
3714	0.00487233
3726	0.00324822
3738	0.00487233
3750	0.00422269
3762	0.00535956
3774	0.00341063
3786	0.00341063
3798	0.00357304
3810	0.0043851
3822	0.00341063
3834	0.00357304
3846	0.0043851
3858	0.00373545
3870	0.00227375
3882	0.00308581
3894	0.00406028
3906	0.00357304
3918	0.00227375
3930	0.00308581
3942	0.00779573
3954	0.00341063
3966	0.00324822
