Infrared Spectrum: Isopropyl stearate
Formula: C 21 H 42 O 2
CAS: 112-10-7
Origin: Sadtler Research Labs Under US-EPA Contract
1/CM	ABSORBANCE
450	0.0212342
462	0.00766401
474	0.0147655
486	0.00316404
498	0.0163827
510	0.0226405
522	0.0248904
534	0.0326951
546	0.0129374
558	0.0274217
570	0.0245389
582	0.0179999
594	0.0258045
606	0.0194061
618	0.0220077
630	0.0337498
642	0.0304451
654	0.0353669
666	0.0116718
678	0.019617
690	0.0412731
702	0.0217264
714	0.0324841
726	0.0265076
738	0.0189842
750	0.0322732
762	0.0250311
774	0.0296014
786	0.0251717
798	0.0162421
810	0.0307967
822	0.0322732
834	0.0276326
846	0.0230623
858	0.0192655
870	0.030867
882	0.0293904
894	0.0281248
906	0.0311482
918	0.0244686
930	0.0344529
942	0.0386716
954	0.0448591
966	0.0455622
978	0.0343123
990	0.0317107
1002	0.0341013
1014	0.030656
1026	0.0331873
1038	0.0301638
1050	0.032906
1062	0.0417653
1074	0.0459137
1086	0.0594136
1098	0.0880306
1110	0.184428
1122	0.166007
1134	0.121077
1146	0.122273
1158	0.117421
1170	0.140202
1182	0.155952
1194	0.127898
1206	0.108702
1218	0.0984368
1230	0.100546
1242	0.118546
1254	0.113484
1266	0.0881712
1278	0.0727026
1290	0.0608199
1302	0.0612418
1314	0.0595543
1326	0.0571637
1338	0.0630699
1350	0.0625777
1362	0.0713667
1374	0.0890853
1386	0.0741792
1398	0.0412731
1410	0.0281248
1422	0.0298123
1434	0.0393747
1446	0.0523121
1458	0.0731245
1470	0.0691167
1482	0.032906
1494	0.0234842
1506	0.0161718
1518	0.0172968
1530	0.0175077
1542	0.0118827
1554	0.015539
1566	0.0154686
1578	0.0160311
1590	0.0163827
1602	0.014414
1614	0.0165936
1626	0.0165936
1638	0.0162421
1650	0.0146249
1662	0.0128671
1674	0.0152577
1686	0.0172264
1698	0.0184921
1710	0.0305857
1722	0.0417653
1734	0.103359
1746	0.255092
1758	0.179507
1770	0.0608199
1782	0.0290389
1794	0.0208827
1806	0.0192655
1818	0.015328
1830	0.0139921
1842	0.0115312
1854	0.0101249
1866	0.0123046
1878	0.0112499
1890	0.0126562
1902	0.0108984
1914	0.00907025
1926	0.0113202
1938	0.0103359
1950	0.0106171
1962	0.00956243
1974	0.00801557
1986	0.0103359
1998	0.0101952
2010	0.0109687
2022	0.0107577
2034	0.0082265
2046	0.0103359
2058	0.0103359
2070	0.0104062
2082	0.0104062
2094	0.00752338
2106	0.00780463
2118	0.00829682
2130	0.00885931
2142	0.00963274
2154	0.00632808
2166	0.00710151
2178	0.00801557
2190	0.00653902
2202	0.00766401
2214	0.00555465
2226	0.00653902
2238	0.00815619
2250	0.00850775
2262	0.0099843
2274	0.00843744
2286	0.00745307
2298	0.00864838
2310	0.00604683
2322	0.00639839
2334	0.00154686
2346	0.00379685
2358	0.000914056
2370	0.000843744
2382	0.0064687
2394	0.00506246
2406	0.0029531
2418	0.0058359
2430	0.00464059
2442	0.00604683
2454	0.00464059
2466	0.00239061
2478	0.00541402
2490	0.00548434
2502	0.0064687
2514	0.00618746
2526	0.00457028
2538	0.00541402
2550	0.00449997
2562	0.00485153
2574	0.0052734
2586	0.00126562
2598	0.00421872
2610	0.00499215
2622	0.00541402
2634	0.00717182
2646	0.00457028
2658	0.00660933
2670	0.00738276
2682	0.00745307
2694	0.00942181
2706	0.00653902
2718	0.00696089
2730	0.00928118
2742	0.0101952
2754	0.0118124
2766	0.00949212
2778	0.0102656
2790	0.0139921
2802	0.0152577
2814	0.0219373
2826	0.0265779
2838	0.0369138
2850	0.0853588
2862	0.261209
2874	0.186608
2886	0.125015
2898	0.123187
2910	0.202147
2922	0.376802
2934	0.70312
2946	0.418005
2958	0.203131
2970	0.184499
2982	0.164811
2994	0.108421
3006	0.0503434
3018	0.0251014
3030	0.0185624
3042	0.0146249
3054	0.0113202
3066	0.0114609
3078	0.00632808
3090	0.00724214
3102	0.00836713
3114	0.00871869
3126	0.0093515
3138	0.0064687
3150	0.00590621
3162	0.00780463
3174	0.00794526
3186	0.00899994
3198	0.0058359
3210	0.00414841
3222	0.00632808
3234	0.00667964
3246	0.00899994
3258	0.00548434
3270	0.00330466
3282	0.00457028
3294	0.00358591
3306	0.00457028
3318	0.00393747
3330	0.00246092
3342	0.00442966
3354	0.00555465
3366	0.00773432
3378	0.00815619
3390	0.0029531
3402	0.00625777
3414	0.00653902
3426	0.00801557
3438	0.00885931
3450	0.00379685
3462	0.0070312
3474	0.00942181
3486	0.008789
3498	0.00942181
3510	0.00597652
3522	0.00513278
3534	0.00632808
3546	0.00682026
3558	0.00717182
3570	0.00400778
3582	0.00667964
3594	0.00689058
3606	0.00660933
3618	0.0100546
3630	0.00639839
3642	0.00520309
3654	0.00724214
3666	0.00590621
3678	0.00885931
3690	0.00520309
3702	0.00379685
3714	0.00928118
3726	0.00639839
3738	0.00899994
3750	0.00316404
3762	0.00379685
3774	0.00731245
3786	0.00653902
3798	0.00717182
3810	0.00611714
3822	0.00365622
3834	0.00745307
3846	0.00731245
3858	0.00970306
3870	0.00921087
3882	0.00541402
3894	0.00808588
3906	0.00485153
3918	0.00534371
3930	0.00752338
3942	0.00457028
3954	0
3966	0.000843744
