Infrared Spectrum: Decane, 1-bromo-
Formula: C 10 H 21 Br
CAS: 112-29-8
Origin: Sadtler Research Labs Under US-EPA Contract
1/CM	ABSORBANCE
450	0.0011065
462	0.017546
474	0.00553252
486	0.00316144
498	0.0115393
510	0.00837782
522	0.00995854
534	0.0105908
546	0.0105908
558	0.0137523
570	0.0523218
582	0.0249754
594	0.0137523
606	0.00932625
618	0.0112231
630	0.0162814
642	0.0309821
654	0.0643353
666	0.0227624
678	0.0102747
690	0.00932625
702	0.0173879
714	0.0309821
726	0.0426794
738	0.0361985
750	0.0303498
762	0.0246592
774	0.0118554
786	0.010907
798	0.00648095
810	0.0154911
822	0.0167556
834	0.010907
846	0.0107489
858	0.0137523
870	0.0129619
882	0.0140684
894	0.0164395
906	0.0118554
918	0.0121715
930	0.011065
942	0.0105908
954	0.011065
966	0.00774553
978	0.00853589
990	0.0107489
1002	0.00727131
1014	0.0102747
1026	0.0120135
1038	0.0140684
1050	0.0143846
1062	0.0120135
1074	0.0116973
1086	0.00885203
1098	0.00869396
1110	0.0102747
1122	0.0101166
1134	0.00932625
1146	0.00980046
1158	0.00964239
1170	0.011065
1182	0.0135942
1194	0.0202332
1206	0.0388857
1218	0.0625965
1230	0.0673387
1242	0.0782456
1254	0.101798
1266	0.0962658
1278	0.0817232
1290	0.0646514
1302	0.059277
1314	0.0444182
1326	0.030666
1338	0.0347758
1350	0.0480539
1362	0.0467893
1374	0.0414149
1386	0.0410987
1398	0.0202332
1410	0.0162814
1422	0.021972
1434	0.0501088
1446	0.106857
1458	0.138155
1470	0.13531
1482	0.0502669
1494	0.0191267
1506	0.0124877
1518	0.00821974
1530	0.00632288
1542	0.00600674
1554	0.00426794
1566	0.00331951
1578	0.00442602
1590	0.00300337
1602	0.0028453
1614	0.00237108
1626	0.00268722
1638	0.00347758
1650	0.00331951
1662	0.00126458
1674	0.00300337
1686	0.00316144
1698	0.00347758
1710	0.00189686
1722	0.00252915
1734	0.00347758
1746	0.00410987
1758	0.0028453
1770	0.00221301
1782	0.000948432
1794	0.00189686
1806	0.00142265
1818	0.0011065
1830	0.0011065
1842	0.0011065
1854	0.000474216
1866	0.000948432
1878	0.000474216
1890	0.0011065
1902	0.00142265
1914	0.0011065
1926	0.0011065
1938	0.00079036
1950	0.000948432
1962	0.00142265
1974	0.000316144
1986	0.000158072
1998	0.00126458
2010	0.00189686
2022	0.00252915
2034	0.00300337
2046	0.00268722
2058	0.00316144
2070	0.00221301
2082	0.00189686
2094	0.00158072
2106	0.00126458
2118	0.0011065
2130	0.00079036
2142	0.000632288
2154	0.000948432
2166	0.00126458
2178	0.00126458
2190	0.00158072
2202	0.000948432
2214	0.00142265
2226	0.00173879
2238	0.000948432
2250	0.00158072
2262	0.00142265
2274	0.000948432
2286	0.00079036
2298	0.000632288
2310	0
2322	0.0011065
2334	0.000948432
2346	0.000316144
2358	0
2370	0.00205494
2382	0.00142265
2394	0.00126458
2406	0.00158072
2418	0.00173879
2430	0.00173879
2442	0.00142265
2454	0.00142265
2466	0.00158072
2478	0.00126458
2490	0.00173879
2502	0.00237108
2514	0.00300337
2526	0.00331951
2538	0.00363566
2550	0.00410987
2562	0.0050583
2574	0.00490023
2586	0.00584866
2598	0.00569059
2610	0.0067971
2622	0.00742938
2634	0.00853589
2646	0.00980046
2658	0.0115393
2670	0.0134361
2682	0.0156491
2694	0.0156491
2706	0.0137523
2718	0.0118554
2730	0.0134361
2742	0.0154911
2754	0.0154911
2766	0.0148588
2778	0.0164395
2790	0.0224462
2802	0.0294014
2814	0.039518
2826	0.0557994
2838	0.0918398
2850	0.214978
2862	0.598303
2874	0.529699
2886	0.364356
2898	0.322309
2910	0.463151
2922	0.870819
2934	1.58072
2946	1.11852
2958	0.578385
2970	0.68129
2982	0.283265
2994	0.115551
3006	0.0897849
3018	0.0937367
3030	0.0409406
3042	0.028611
3054	0.0203913
3066	0.0169137
3078	0.0142265
3090	0.0120135
3102	0.0101166
3114	0.00932625
3126	0.0090101
3138	0.00742938
3150	0.00742938
3162	0.00758746
3174	0.00695517
3186	0.00569059
3198	0.00521638
3210	0.0039518
3222	0.00300337
3234	0.00221301
3246	0.00252915
3258	0.00189686
3270	0.0039518
3282	0.00221301
3294	0.00158072
3306	0.00252915
3318	0.0028453
3330	0.00347758
3342	0.00331951
3354	0.00237108
3366	0.00363566
3378	0.00268722
3390	0.00268722
3402	0.00316144
3414	0.00221301
3426	0.00300337
3438	0.00221301
3450	0.00221301
3462	0.00205494
3474	0.00300337
3486	0.00221301
3498	0.00126458
3510	0.00158072
3522	0.00189686
3534	0.000158072
3546	0.000948432
3558	0.00126458
3570	0.00142265
3582	0.00126458
3594	0.00300337
3606	0.00158072
3618	0.00410987
3630	0.00300337
3642	0.00363566
3654	0.0039518
3666	0.0028453
3678	0.00442602
3690	0.00379373
3702	0.00316144
3714	0.00363566
3726	0.00363566
3738	0.00584866
3750	0.00379373
3762	0.00363566
3774	0.0050583
3786	0.00600674
3798	0.00442602
3810	0.00600674
3822	0.00569059
3834	0.0050583
3846	0.00632288
3858	0.00474216
3870	0.00379373
3882	0.00521638
3894	0.00853589
3906	0.00410987
3918	0.00569059
3930	0.00442602
3942	0.00474216
3954	0.0142265
3966	0.00648095
