Infrared Spectrum: Ethane, 1,1'-oxybis[2-ethoxy-]
Formula: C 8 H 18 O 3
CAS: 112-36-7
Origin: Sadtler Research Labs Under US-EPA Contract
1/CM	ABSORBANCE
450	0
462	0.0113201
474	0.0209206
486	0.0114634
498	0.0339602
510	0.0167652
522	0.018628
534	0.0183414
546	0.0222103
558	0.0234999
570	0.0197743
582	0.0223536
594	0.0197743
606	0.0187713
618	0.0247895
630	0.016192
642	0.0233566
654	0.019631
666	0.0227834
678	0.0183414
690	0.0193444
702	0.0173383
714	0.0146158
726	0.0120365
738	0.0179115
750	0.0157621
762	0.0199176
774	0.022067
786	0.0329572
798	0.0356797
810	0.0411248
822	0.0448504
834	0.0583198
846	0.0776643
858	0.0786673
870	0.0694966
882	0.0541644
894	0.0551674
906	0.0651979
918	0.0806734
930	0.0972953
942	0.113487
954	0.0977251
966	0.0732222
978	0.0712161
990	0.0871215
1002	0.0984416
1014	0.113917
1026	0.147447
1038	0.180548
1050	0.191295
1062	0.202901
1074	0.267096
1086	0.330001
1098	0.516138
1110	0.935983
1122	1.42232
1134	1.34351
1146	0.98241
1158	0.618162
1170	0.372129
1182	0.244743
1194	0.145441
1206	0.0998745
1218	0.0874081
1230	0.0935697
1242	0.112914
1254	0.123804
1266	0.115637
1278	0.127673
1290	0.155185
1302	0.142432
1314	0.110478
1326	0.116353
1338	0.115207
1350	0.209206
1362	0.168082
1374	0.164929
1386	0.18542
1398	0.13928
1410	0.0995879
1422	0.0739387
1434	0.0651979
1446	0.0965788
1458	0.125094
1470	0.0958623
1482	0.0760881
1494	0.054451
1506	0.03482
1518	0.0240731
1530	0.0200609
1542	0.019631
1554	0.0150457
1566	0.0154755
1578	0.0164786
1590	0.0128963
1602	0.0140426
1614	0.0159054
1626	0.0134694
1638	0.0147591
1650	0.0147591
1662	0.0128963
1674	0.015189
1686	0.0170517
1698	0.0173383
1710	0.0144725
1722	0.0170517
1734	0.022067
1746	0.0269389
1758	0.0280852
1770	0.0229267
1782	0.0174816
1794	0.0181981
1806	0.0146158
1818	0.0114634
1830	0.0114634
1842	0.0117499
1854	0.0108902
1866	0.0108902
1878	0.0118932
1890	0.0124664
1902	0.0141859
1914	0.0160487
1926	0.0179115
1938	0.0204908
1950	0.0227834
1962	0.025506
1974	0.0260791
1986	0.0249328
1998	0.0227834
2010	0.0192011
2022	0.0163353
2034	0.0141859
2046	0.0131829
2058	0.0126097
2070	0.012753
2082	0.0136127
2094	0.0143292
2106	0.0144725
2118	0.0143292
2130	0.015189
2142	0.0154755
2154	0.0156188
2166	0.0153322
2178	0.0146158
2190	0.0138993
2202	0.0134694
2214	0.0133262
2226	0.0133262
2238	0.0136127
2250	0.0141859
2262	0.0147591
2274	0.0149024
2286	0.0149024
2298	0.0141859
2310	0.0134694
2322	0.0114634
2334	0.0111768
2346	0.010317
2358	0.0104603
2370	0.0113201
2382	0.0123231
2394	0.0114634
2406	0.0121798
2418	0.0120365
2430	0.0120365
2442	0.0113201
2454	0.0110335
2466	0.0106036
2478	0.0111768
2490	0.0106036
2502	0.0116067
2514	0.0116067
2526	0.0118932
2538	0.0124664
2550	0.0126097
2562	0.0126097
2574	0.013756
2586	0.0156188
2598	0.017195
2610	0.0192011
2622	0.0193444
2634	0.0197743
2646	0.0200609
2658	0.0209206
2670	0.0229267
2682	0.0277986
2694	0.0373992
2706	0.0458534
2718	0.052015
2730	0.05789
2742	0.0619021
2754	0.0644814
2766	0.0709295
2778	0.0835392
2790	0.097152
2802	0.117356
2814	0.141286
2826	0.169801
2838	0.237865
2850	0.402794
2862	0.666165
2874	0.826365
2886	0.72649
2898	0.577897
2910	0.517714
2922	0.477306
2934	0.499373
2946	0.511696
2958	0.408525
2970	0.407236
2982	0.504674
2994	0.330431
3006	0.143865
3018	0.0841124
3030	0.0580333
3042	0.0424144
3054	0.0322407
3066	0.025506
3078	0.0226401
3090	0.020634
3102	0.0190578
3114	0.0183414
3126	0.0170517
3138	0.0173383
3150	0.0167652
3162	0.0160487
3174	0.0159054
3186	0.0166219
3198	0.0164786
3210	0.0163353
3222	0.0159054
3234	0.0138993
3246	0.0138993
3258	0.012753
3270	0.0131829
3282	0.0128963
3294	0.0118932
3306	0.0123231
3318	0.0121798
3330	0.0120365
3342	0.0120365
3354	0.0118932
3366	0.0113201
3378	0.0120365
3390	0.0117499
3402	0.0123231
3414	0.0116067
3426	0.0128963
3438	0.0124664
3450	0.0110335
3462	0.0120365
3474	0.0117499
3486	0.0113201
3498	0.0121798
3510	0.0110335
3522	0.0116067
3534	0.0114634
3546	0.0120365
3558	0.0114634
3570	0.012753
3582	0.0118932
3594	0.0133262
3606	0.0117499
3618	0.0123231
3630	0.0150457
3642	0.0121798
3654	0.015189
3666	0.0138993
3678	0.0159054
3690	0.0150457
3702	0.0138993
3714	0.0156188
3726	0.0126097
3738	0.013756
3750	0.0181981
3762	0.0123231
3774	0.013756
3786	0.0131829
3798	0.0133262
3810	0.012753
3822	0.0169085
3834	0.0134694
3846	0.013756
3858	0.0156188
3870	0.0153322
3882	0.0150457
3894	0.015189
3906	0.0170517
3918	0.0150457
3930	0.0141859
3942	0.0159054
3954	0.0192011
3966	0.0150457
