Infrared Spectrum: 1-Dodecanol
Formula: C 12 H 26 O
CAS: 112-53-8
Origin: Sadtler Research Labs Under US-EPA Contract
1/CM	ABSORBANCE
450	0.00415076
462	0.00221015
474	0.00285702
486	0.00204843
498	0.00258749
510	0.00328827
522	0.00161718
534	0.00172499
546	0.00123984
558	0.00167109
570	0.00102421
582	0.00080859
594	0.00274921
606	0.00237186
618	0.00167109
630	0.00134765
642	0.00118593
654	0.00113203
666	0.00123984
678	0.00312655
690	0.00301874
702	0.00490545
714	0.00851715
726	0.00803199
738	0.00479763
750	0.00549841
762	0.00425857
774	0.00371951
786	0.00517498
798	0.00344998
810	0.00344998
822	0.00425857
834	0.00474373
846	0.00468982
858	0.00495935
870	0.00576794
882	0.00566013
894	0.00781637
906	0.00840934
918	0.00867887
930	0.00862496
942	0.00916402
954	0.0106195
966	0.013207
978	0.014339
990	0.0169804
1002	0.0221554
1014	0.0296483
1026	0.0416693
1038	0.0538521
1050	0.0576255
1062	0.0505638
1074	0.0365483
1086	0.0237186
1098	0.0161179
1110	0.0125062
1122	0.0104039
1134	0.00927183
1146	0.00867887
1158	0.00921793
1170	0.00916402
1182	0.00948746
1194	0.00970308
1206	0.0111585
1218	0.0116437
1230	0.0121828
1242	0.0126679
1254	0.0131531
1266	0.0131531
1278	0.0136382
1290	0.0136382
1302	0.0147163
1314	0.0141773
1326	0.0132609
1338	0.016064
1350	0.0203765
1362	0.0206999
1374	0.0210772
1386	0.0254436
1398	0.0181663
1410	0.0124523
1422	0.00975699
1434	0.0134226
1446	0.0238265
1458	0.0355241
1470	0.0359014
1482	0.0181663
1494	0.00824762
1506	0.00377342
1518	0.00318045
1530	0.00307264
1542	0.000700778
1554	0.0018328
1566	0.00210233
1578	0.00145546
1590	0.00258749
1602	0.00247968
1614	0.00221015
1626	0.00167109
1638	0.00107812
1650	0.00167109
1662	0.00156327
1674	0.00161718
1686	0.000431248
1698	0.00053906
1710	0.00204843
1722	0.00172499
1734	0.00102421
1746	0.00188671
1758	0.00194062
1770	0.00140156
1782	0.00194062
1794	0.00134765
1806	0.0018328
1818	0.00129374
1830	0.00123984
1842	0.00140156
1854	0.00123984
1866	0.00113203
1878	0.00113203
1890	0.00107812
1902	0.00118593
1914	0.00102421
1926	0.000970308
1938	0.00102421
1950	0.000862496
1962	0.00134765
1974	0.000916402
1986	0.00134765
1998	0.00140156
2010	0.00129374
2022	0.0018328
2034	0.00172499
2046	0.00172499
2058	0.00172499
2070	0.00118593
2082	0.00113203
2094	0.00113203
2106	0.000862496
2118	0.00102421
2130	0.000592966
2142	0.000970308
2154	0.00102421
2166	0.000916402
2178	0.000970308
2190	0.000916402
2202	0.000916402
2214	0.00080859
2226	0.000862496
2238	0.000754684
2250	0.000754684
2262	0.000754684
2274	0.000700778
2286	0.000700778
2298	0.000700778
2310	0.00113203
2322	0.00156327
2334	0.00194062
2346	0.00156327
2358	0.00156327
2370	0.00188671
2382	0.000916402
2394	0.000431248
2406	0.000377342
2418	0.000916402
2430	0.000916402
2442	0.000377342
2454	0.00026953
2466	0.00026953
2478	0.00026953
2490	0.000215624
2502	0.000161718
2514	0.000646872
2526	0.000646872
2538	0.000700778
2550	0.000862496
2562	0.00118593
2574	0.00118593
2586	0.00113203
2598	0.00172499
2610	0.00221015
2622	0.00226405
2634	0.00274921
2646	0.00328827
2658	0.00377342
2670	0.00468982
2682	0.00522888
2694	0.00522888
2706	0.00479763
2718	0.00522888
2730	0.00571404
2742	0.00679216
2754	0.00733122
2766	0.00760075
2778	0.00867887
2790	0.0106734
2802	0.0130992
2814	0.016603
2826	0.0231257
2838	0.0351467
2850	0.0785949
2862	0.203819
2874	0.176758
2886	0.131692
2898	0.120749
2910	0.178914
2922	0.322951
2934	0.53906
2946	0.354162
2958	0.178752
2970	0.155249
2982	0.0663583
2994	0.0307803
3006	0.0191366
3018	0.0130453
3030	0.00975699
3042	0.0071695
3054	0.00512107
3066	0.00409686
3078	0.00371951
3090	0.00312655
3102	0.0026953
3114	0.00215624
3126	0.00172499
3138	0.00172499
3150	0.00172499
3162	0.00123984
3174	0.00129374
3186	0.00134765
3198	0.00123984
3210	0.000323436
3222	0.000377342
3234	0.000377342
3246	0.000377342
3258	0.000377342
3270	0.000377342
3282	0.000431248
3294	0.000377342
3306	0.000377342
3318	0.000377342
3330	0.000431248
3342	0.000431248
3354	0.000485154
3366	0.000485154
3378	0.000485154
3390	0.00053906
3402	0.00053906
3414	0.000485154
3426	0.000485154
3438	0.00053906
3450	0.00053906
3462	0.00053906
3474	0.000592966
3486	0.000592966
3498	0.000646872
3510	0.000646872
3522	0.000592966
3534	0.000592966
3546	0.000646872
3558	0.000646872
3570	0.000431248
3582	0.000646872
3594	0.000700778
3606	0.00123984
3618	0.00113203
3630	0.00161718
3642	0.00404295
3654	0.00905621
3666	0.0150937
3678	0.012021
3690	0.00495935
3702	0.00274921
3714	0.00134765
3726	0.00080859
3738	0.000862496
3750	0.000377342
3762	0.00080859
3774	0.00145546
3786	0.00140156
3798	0.000862496
3810	0.00134765
3822	0.000862496
3834	0.00080859
3846	0.00140156
3858	0.000970308
3870	0.000916402
3882	0.00145546
3894	0.00145546
3906	0.000970308
3918	0.00150937
3930	0.00150937
3942	0.00156327
3954	0
3966	0.000107812
