Infrared Spectrum: Ethanol, 2-(hexyloxy)-
Formula: C 8 H 18 O 2
CAS: 112-25-4
Origin: Sadtler Research Labs Under US-EPA Contract
1/CM	ABSORBANCE
450	0
462	0.0464018
474	0.0452769
486	0.0614941
498	0.0395587
510	0.0454644
522	0.0619628
534	0.0522137
546	0.0509951
558	0.0554947
570	0.0450894
582	0.0438708
594	0.0463081
606	0.0406836
618	0.0467768
630	0.0488391
642	0.0427459
654	0.0460268
666	0.0439645
678	0.0428396
690	0.0497765
702	0.0469642
714	0.0522137
726	0.0593381
738	0.0554947
750	0.0504327
762	0.051745
774	0.0485578
786	0.0509951
798	0.0545573
810	0.0566196
822	0.0601817
834	0.0633689
846	0.0669311
858	0.0825858
870	0.0914912
882	0.0957096
894	0.103959
906	0.0860542
918	0.0765864
930	0.0801486
942	0.0817422
954	0.0766801
966	0.0750865
978	0.0746178
990	0.0834295
1002	0.0961783
1014	0.117364
1026	0.155985
1038	0.220104
1050	0.312064
1062	0.430271
1074	0.371121
1086	0.247757
1098	0.253757
1110	0.379182
1122	0.61541
1134	0.629096
1146	0.319844
1158	0.174452
1170	0.127207
1182	0.109864
1194	0.111083
1206	0.118676
1218	0.112864
1230	0.104896
1242	0.108458
1254	0.105552
1266	0.104053
1278	0.0996467
1290	0.0907413
1302	0.0883978
1314	0.083617
1326	0.0849293
1338	0.108177
1350	0.175108
1362	0.202949
1374	0.149892
1386	0.145486
1398	0.131144
1410	0.107052
1422	0.0870854
1434	0.0835232
1446	0.0999279
1458	0.146423
1470	0.155516
1482	0.10424
1494	0.0658062
1506	0.0518388
1518	0.0460268
1530	0.0424647
1542	0.0430271
1554	0.0402149
1566	0.039465
1578	0.0403086
1590	0.0385276
1602	0.0389963
1614	0.0410586
1626	0.0385276
1638	0.0410586
1650	0.0397462
1662	0.0378714
1674	0.0382463
1686	0.0388088
1698	0.0383401
1710	0.0389025
1722	0.0410586
1734	0.0444332
1746	0.0560571
1758	0.0543698
1770	0.0453706
1782	0.041246
1794	0.0386213
1806	0.0375901
1818	0.0374964
1830	0.0359965
1842	0.036184
1854	0.036184
1866	0.0359965
1878	0.0367465
1890	0.0373089
1902	0.0372152
1914	0.0382463
1926	0.0393712
1938	0.0393712
1950	0.0401211
1962	0.0396524
1974	0.0388088
1986	0.0399337
1998	0.0392775
2010	0.039465
2022	0.039465
2034	0.0381526
2046	0.03909
2058	0.0385276
2070	0.0351529
2082	0.0366527
2094	0.0391837
2106	0.0381526
2118	0.0389963
2130	0.0388088
2142	0.0386213
2154	0.0389025
2166	0.0386213
2178	0.0379651
2190	0.0381526
2202	0.0372152
2214	0.0373089
2226	0.0376839
2238	0.0366527
2250	0.0373089
2262	0.0376839
2274	0.0370277
2286	0.036934
2298	0.0367465
2310	0.0354341
2322	0.0351529
2334	0.0368402
2346	0.0383401
2358	0.0350591
2370	0.041621
2382	0.0410586
2394	0.0389963
2406	0.0384338
2418	0.0385276
2430	0.0384338
2442	0.0383401
2454	0.0385276
2466	0.0386213
2478	0.0385276
2490	0.0376839
2502	0.0389025
2514	0.0385276
2526	0.0400274
2538	0.0409648
2550	0.039465
2562	0.0398399
2574	0.0393712
2586	0.041246
2598	0.043777
2610	0.044527
2622	0.0436833
2634	0.0447145
2646	0.0448082
2658	0.0478079
2670	0.0497765
2682	0.0496827
2694	0.0563383
2706	0.0604629
2718	0.0614941
2730	0.0667436
2742	0.0684309
2754	0.0684309
2766	0.0720868
2778	0.078555
2790	0.088679
2802	0.096647
2814	0.104802
2826	0.120645
2838	0.165078
2850	0.292847
2862	0.535636
2874	0.658718
2886	0.598068
2898	0.456237
2910	0.459518
2922	0.625065
2934	0.894102
2946	0.865979
2958	0.676341
2970	0.656281
2982	0.302034
2994	0.135175
3006	0.0914912
3018	0.0722743
3030	0.0619628
3042	0.0565258
3054	0.052495
3066	0.0486516
3078	0.0486516
3090	0.0460268
3102	0.0434021
3114	0.0434021
3126	0.0434958
3138	0.0415273
3150	0.044527
3162	0.0452769
3174	0.0444332
3186	0.0436833
3198	0.0411523
3210	0.0409648
3222	0.0413398
3234	0.0410586
3246	0.0421834
3258	0.0401211
3270	0.0408711
3282	0.0389963
3294	0.0376839
3306	0.0368402
3318	0.0372152
3330	0.0366527
3342	0.0356216
3354	0.0374027
3366	0.0380588
3378	0.0375901
3390	0.0388088
3402	0.0375901
3414	0.0376839
3426	0.0375901
3438	0.0383401
3450	0.0359965
3462	0.0350591
3474	0.036934
3486	0.0374027
3498	0.0374027
3510	0.0355278
3522	0.0363715
3534	0.0368402
3546	0.0355278
3558	0.0378714
3570	0.0389025
3582	0.0378714
3594	0.0444332
3606	0.0516513
3618	0.0729305
3630	0.132831
3642	0.0980531
3654	0.0604629
3666	0.0593381
3678	0.0563383
3690	0.0490265
3702	0.0446207
3714	0.0406836
3726	0.0389025
3738	0.0415273
3750	0.0425584
3762	0.0397462
3774	0.0404024
3786	0.0377776
3798	0.0417147
3810	0.036559
3822	0.0389025
3834	0.0384338
3846	0.0358091
3858	0.0389025
3870	0.0377776
3882	0.0389963
3894	0.0352466
3906	0.0364652
3918	0.0356216
3930	0.0435896
3942	0.0393712
3954	0.0368402
3966	0.0377776
