Infrared Spectrum: Triethylene glycol
Formula: C 6 H 14 O 4
CAS: 112-27-6
Origin: Sadtler Research Labs Under US-EPA Contract
1/CM	ABSORBANCE
450	0.0187202
462	0.0442842
474	0.0282312
486	0.03739
498	0.0568147
510	0.0462468
522	0.0468004
534	0.0414158
546	0.0357293
558	0.0251112
570	0.0284325
582	0.0238531
594	0.0299422
606	0.0243563
618	0.0210853
630	0.0252621
642	0.032408
654	0.0243563
666	0.0259667
678	0.0239034
690	0.0256647
702	0.0287848
714	0.0308983
726	0.0266712
738	0.0236015
750	0.0267215
762	0.029288
774	0.0347732
786	0.0325087
798	0.0385977
810	0.0546005
822	0.060136
834	0.0620986
846	0.0619979
858	0.0642625
870	0.0779503
882	0.0834355
894	0.0861027
906	0.0904304
918	0.0913362
930	0.0904304
942	0.0789065
954	0.0616457
966	0.0527385
978	0.0492662
990	0.059834
1002	0.069949
1014	0.0961169
1026	0.129531
1038	0.180056
1050	0.264397
1062	0.352261
1074	0.333742
1086	0.231435
1098	0.214124
1110	0.278991
1122	0.434992
1134	0.497544
1146	0.372038
1158	0.231586
1170	0.113881
1182	0.0451901
1194	0.0194247
1206	0.0349242
1218	0.0467501
1230	0.0552043
1242	0.0624508
1254	0.0876123
1266	0.0949595
1278	0.0837375
1290	0.0856497
1302	0.0760381
1314	0.0672315
1326	0.0710561
1338	0.0837878
1350	0.123241
1362	0.115793
1374	0.0967208
1386	0.0837375
1398	0.0807684
1410	0.0708548
1422	0.055305
1434	0.0461965
1446	0.045643
1458	0.0733206
1470	0.0687915
1482	0.0448881
1494	0.0312506
1506	0.0251112
1518	0.0222428
1530	0.0183176
1542	0.0188208
1554	0.0183176
1566	0.0169085
1578	0.0172105
1590	0.0147446
1602	0.0150969
1614	0.0156001
1626	0.0155498
1638	0.0157511
1650	0.0173614
1662	0.0138891
1674	0.0141408
1686	0.0141408
1698	0.0137382
1710	0.0130337
1722	0.0134866
1734	0.0148453
1746	0.016355
1758	0.0173111
1770	0.0157511
1782	0.0131846
1794	0.0130337
1806	0.0112724
1818	0.0111214
1830	0.0119266
1842	0.0110207
1854	0.0112724
1866	0.0119769
1878	0.0107188
1890	0.011222
1902	0.0111214
1914	0.0119769
1926	0.0137382
1938	0.014795
1950	0.0148453
1962	0.0148956
1974	0.0136879
1986	0.0119769
1998	0.0107691
2010	0.00961169
2022	0.00966202
2034	0.00905814
2046	0.00845426
2058	0.00870588
2070	0.00900782
2082	0.0094104
2094	0.0094104
2106	0.00976266
2118	0.00951105
2130	0.00996395
2142	0.00930975
2154	0.00920911
2166	0.00880652
2178	0.0083033
2190	0.00734716
2202	0.00674328
2214	0.00613941
2226	0.00684393
2238	0.00629037
2250	0.00573682
2262	0.00588779
2274	0.00528392
2286	0.0043781
2298	0.00452907
2310	0.0019626
2322	0.000754845
2334	0.000754845
2346	0.00150969
2358	0.00624005
2370	0.0100646
2382	0.00734716
2394	0.00533424
2406	0.00452907
2418	0.00473036
2430	0.00412649
2442	0.00407616
2454	0.00357293
2466	0.0037239
2478	0.00352261
2490	0.00382455
2502	0.00407616
2514	0.00402584
2526	0.00412649
2538	0.00402584
2550	0.00422713
2562	0.00367358
2574	0.00462972
2586	0.00402584
2598	0.00422713
2610	0.00387487
2622	0.0043781
2634	0.0050323
2646	0.00533424
2658	0.00598844
2670	0.00805168
2682	0.0105678
2694	0.0141911
2706	0.0166569
2718	0.0200789
2730	0.0218402
2742	0.021337
2754	0.0218905
2766	0.0230983
2778	0.0267215
2790	0.0303448
2802	0.0361319
2814	0.0415165
2826	0.052034
2838	0.0762393
2850	0.129481
2862	0.222075
2874	0.28206
2886	0.285533
2898	0.264951
2910	0.245828
2922	0.247388
2934	0.26324
2946	0.249753
2958	0.228466
2970	0.156454
2982	0.0664264
2994	0.029137
3006	0.0140904
3018	0.008102
3030	0.00593811
3042	0.003271
3054	0.00246583
3066	0.00256647
3078	0.00236518
3090	0.00140904
3102	0.00186195
3114	0.00181163
3126	0.000855491
3138	0.00161034
3150	0.00231486
3162	0.00150969
3174	0.00236518
3186	0.00286841
3198	0.0024155
3210	0.00251615
3222	0.00266712
3234	0.00281809
3246	0.00357293
3258	0.00337164
3270	0.00357293
3282	0.00483101
3294	0.00538456
3306	0.00478068
3318	0.00578714
3330	0.00573682
3342	0.00613941
3354	0.00618973
3366	0.00815233
3378	0.00769942
3390	0.00880652
3402	0.00729683
3414	0.00885685
3426	0.00956137
3438	0.0106685
3450	0.0105175
3462	0.0115743
3474	0.0118259
3486	0.0135369
3498	0.0149963
3510	0.0164556
3522	0.0201795
3534	0.0215382
3546	0.024457
3558	0.0236015
3570	0.024306
3582	0.0225447
3594	0.0216892
3606	0.0224441
3618	0.0347732
3630	0.0498701
3642	0.0511282
3654	0.0302441
3666	0.024306
3678	0.0197769
3690	0.0106182
3702	0.00271744
3714	0.000805168
3726	0.000754845
3738	0.000956137
3750	0.00105678
3762	0.000754845
3774	0.000754845
3786	0.000754845
3798	0.000754845
3810	0.000754845
3822	0.000754845
3834	0.000754845
3846	0.000754845
3858	0.000754845
3870	0.000754845
3882	0.000754845
3894	0.000754845
3906	0.000754845
3918	0.000754845
3930	0.000754845
3942	0.000754845
3954	0.000754845
3966	0.000754845
