Infrared Spectrum: 1-Undecanol
Formula: C 11 H 24 O
CAS: 112-42-5
Origin: Sadtler Research Labs Under US-EPA Contract
1/CM	ABSORBANCE
450	0.0064231
462	0.0304638
474	0.0308309
486	0.00238572
498	0.0229396
510	0.021655
522	0.0317484
534	0.010644
546	0.0225726
558	0.00440441
570	0.0100934
582	0.0097264
594	0.00330331
606	0.00789123
618	0.00458793
630	0.00899233
642	0.0108275
654	0.00679013
666	0.0100934
678	0.0075242
690	0.0317484
702	0.0278946
714	0.0409243
726	0.0368869
738	0.037254
750	0.032666
762	0.0262429
774	0.0200034
786	0.0249583
798	0.0201869
810	0.0255089
822	0.0236737
834	0.0277111
846	0.031932
858	0.0334001
870	0.0396397
882	0.0416584
894	0.0475309
906	0.0499166
918	0.0552386
930	0.0561562
942	0.0631298
954	0.0688189
966	0.0734068
978	0.0763431
990	0.0844178
1002	0.100384
1014	0.12314
1026	0.160577
1038	0.210861
1050	0.235819
1062	0.219119
1074	0.161495
1086	0.105522
1098	0.0673507
1110	0.0552386
1122	0.048265
1134	0.0497331
1146	0.0475309
1158	0.0418419
1170	0.0427595
1182	0.0445946
1194	0.0475309
1206	0.0515683
1218	0.0537705
1230	0.0534034
1242	0.0519353
1254	0.048632
1266	0.0495496
1278	0.048999
1290	0.0484485
1302	0.0515683
1314	0.048265
1326	0.0444111
1338	0.0523023
1350	0.0675343
1362	0.0688189
1374	0.0765266
1386	0.0961629
1398	0.0686354
1410	0.0431265
1422	0.0363364
1434	0.0513848
1446	0.0779947
1458	0.126627
1470	0.128278
1482	0.0666167
1494	0.0289957
1506	0.0183517
1518	0.0146814
1530	0.0113781
1542	0.0117451
1554	0.0119286
1566	0.0097264
1578	0.00954288
1590	0.0100934
1602	0.0100934
1614	0.00899233
1626	0.0086253
1638	0.00917585
1650	0.00935937
1662	0.00679013
1674	0.00660661
1686	0.00807475
1698	0.00954288
1710	0.00770771
1722	0.00770771
1734	0.00734068
1746	0.00513848
1758	0.00403737
1770	0.00293627
1782	0.0022022
1794	0.000917585
1806	0.0022022
1818	0.00146814
1830	0.0011011
1842	0
1854	0.000734068
1866	0.000550551
1878	0.000550551
1890	0.000734068
1902	0.000550551
1914	0.000550551
1926	0.000367034
1938	0.000917585
1950	0.000183517
1962	0.000917585
1974	0.000734068
1986	0.000917585
1998	0.000917585
2010	0.000917585
2022	0.00165165
2034	0.00275275
2046	0.00293627
2058	0.00256924
2070	0.00201869
2082	0.00146814
2094	0.00146814
2106	0.00128462
2118	0.00146814
2130	0.00146814
2142	0.00183517
2154	0.00238572
2166	0.0022022
2178	0.00275275
2190	0.00238572
2202	0.0022022
2214	0.00238572
2226	0.00275275
2238	0.00293627
2250	0.00293627
2262	0.00256924
2274	0.00275275
2286	0.00238572
2298	0.00128462
2310	0.00183517
2322	0.0011011
2334	0.00403737
2346	0.00146814
2358	0.00275275
2370	0.00697365
2382	0.00422089
2394	0.00403737
2406	0.00440441
2418	0.00422089
2430	0.00367034
2442	0.00367034
2454	0.00367034
2466	0.00311979
2478	0.00330331
2490	0.00348682
2502	0.00367034
2514	0.00422089
2526	0.00550551
2538	0.00587254
2550	0.0064231
2562	0.00660661
2574	0.00789123
2586	0.00880882
2598	0.0100934
2610	0.0111945
2622	0.0121121
2634	0.0139473
2646	0.0154154
2658	0.0176176
2670	0.0201869
2682	0.0222056
2694	0.0229396
2706	0.021655
2718	0.021655
2730	0.0245913
2742	0.0282616
2754	0.0295462
2766	0.0310144
2778	0.0335836
2790	0.0400067
2802	0.0473474
2814	0.0587254
2826	0.0792793
2838	0.118735
2850	0.26353
2862	0.689657
2874	0.63974
2886	0.478429
2898	0.416217
2910	0.596247
2922	1.07156
2934	1.83517
2946	1.24773
2958	0.619553
2970	0.585603
2982	0.238572
2994	0.107174
3006	0.0697365
3018	0.0497331
3030	0.0396397
3042	0.0302803
3054	0.0244078
3066	0.0194528
3078	0.0176176
3090	0.0146814
3102	0.0128462
3114	0.010644
3126	0.0097264
3138	0.00917585
3150	0.00807475
3162	0.00880882
3174	0.00715716
3186	0.00697365
3198	0.00550551
3210	0.00422089
3222	0.00330331
3234	0.00293627
3246	0.00275275
3258	0.00146814
3270	0.00183517
3282	0.00201869
3294	0.00146814
3306	0.000917585
3318	0.0011011
3330	0.000917585
3342	0.0022022
3354	0.00183517
3366	0.00165165
3378	0.00165165
3390	0.00146814
3402	0.00165165
3414	0.00165165
3426	0.00238572
3438	0.00201869
3450	0.00293627
3462	0.00403737
3474	0.00275275
3486	0.00256924
3498	0.00293627
3510	0.00275275
3522	0.00256924
3534	0.00348682
3546	0.00238572
3558	0.00183517
3570	0.0022022
3582	0.00422089
3594	0.00587254
3606	0.00458793
3618	0.00734068
3630	0.010277
3642	0.0157825
3654	0.0398232
3666	0.0620287
3678	0.0567068
3690	0.0236737
3702	0.0100934
3714	0.0075242
3726	0.00348682
3738	0.00367034
3750	0.00679013
3762	0.00385386
3774	0.00532199
3786	0.00311979
3798	0.0064231
3810	0.00422089
3822	0.00587254
3834	0.00697365
3846	0.00697365
3858	0.00734068
3870	0.011011
3882	0.00954288
3894	0.00715716
3906	0.00403737
3918	0.00568903
3930	0.0064231
3942	0.00495496
3954	0.00789123
3966	0.00734068
