Infrared Spectrum: Ethanol, 2-[2-(2-ethoxyethoxy)ethoxy]-
Formula: C 8 H 18 O 4
CAS: 112-50-5
Origin: Sadtler Research Labs Under US-EPA Contract
1/CM	ABSORBANCE
450	0.002553
462	0.002967
474	0.00138
486	0.002139
498	0.004002
510	0.006486
522	0.008349
534	0.009591
546	0.00621
558	0.002898
570	0.007659
582	0.003657
594	0.002691
606	0.001725
618	0.003381
630	0.003036
642	0.002484
654	0.004071
666	0.003864
678	0.003588
690	0.005451
702	0.003657
714	0.004485
726	0.003381
738	0.00345
750	0.004554
762	0.005313
774	0.008142
786	0.010212
798	0.016491
810	0.020217
822	0.02415
834	0.033258
846	0.038778
858	0.037743
870	0.039606
882	0.043746
894	0.046161
906	0.046161
918	0.0552
930	0.061272
942	0.062721
954	0.046782
966	0.033948
978	0.03588
990	0.044988
1002	0.055614
1014	0.072864
1026	0.099981
1038	0.13455
1050	0.178089
1062	0.240258
1074	0.243915
1086	0.211416
1098	0.272895
1110	0.453744
1122	0.675924
1134	0.640389
1146	0.47886
1158	0.297252
1170	0.160908
1182	0.100119
1194	0.067896
1206	0.059547
1218	0.058443
1230	0.055821
1242	0.06555
1254	0.075141
1266	0.069759
1278	0.072657
1290	0.080454
1302	0.069
1314	0.052647
1326	0.056994
1338	0.066171
1350	0.125166
1362	0.100188
1374	0.086802
1386	0.083145
1398	0.072519
1410	0.054441
1422	0.03657
1434	0.030015
1446	0.045057
1458	0.068379
1470	0.054234
1482	0.033396
1494	0.019113
1506	0.00966
1518	0.005589
1530	0.004071
1542	0.002967
1554	0.002553
1566	0.002277
1578	0.001656
1590	0.001518
1602	0.001035
1614	0.000966
1626	0.000828
1638	0.000483
1650	0.000483
1662	0.001035
1674	0.000966
1686	0.001449
1698	0.001449
1710	0.001449
1722	0.002553
1734	0.004761
1746	0.008211
1758	0.008694
1770	0.005175
1782	0.002829
1794	0.001587
1806	0.000966
1818	0.000414
1830	0.000414
1842	0.000414
1854	0.000966
1866	0.000897
1878	0.00138
1890	0.001932
1902	0.00276
1914	0.003795
1926	0.005451
1938	0.007038
1950	0.008556
1962	0.009177
1974	0.008832
1986	0.007659
1998	0.005589
2010	0.00345
2022	0.001932
2034	0.000828
2046	0.000414
2058	0.000414
2070	0.00138
2082	0.002415
2094	0.002898
2106	0.003105
2118	0.003519
2130	0.004278
2142	0.004347
2154	0.00414
2166	0.00414
2178	0.003933
2190	0.003381
2202	0.002829
2214	0.002415
2226	0.002691
2238	0.002967
2250	0.002967
2262	0.002829
2274	0.002898
2286	0.002346
2298	0.001587
2310	0.001173
2322	0.001104
2334	0.00069
2346	0
2358	0.000897
2370	0.000414
2382	0.000345
2394	0.000552
2406	0.000966
2418	0.001518
2430	0.001311
2442	0.000897
2454	0.001035
2466	0.000621
2478	0.000621
2490	0.000621
2502	0.000552
2514	0.000621
2526	0.000621
2538	0.000483
2550	6.9e-05
2562	0.00069
2574	0.001242
2586	0.00207
2598	0.002967
2610	0.003312
2622	0.003795
2634	0.004761
2646	0.005451
2658	0.005244
2670	0.007383
2682	0.009936
2694	0.014076
2706	0.017112
2718	0.020148
2730	0.022839
2742	0.023322
2754	0.024426
2766	0.027186
2778	0.032568
2790	0.038916
2802	0.048024
2814	0.058719
2826	0.071484
2838	0.102465
2850	0.178779
2862	0.313812
2874	0.395646
2886	0.362871
2898	0.308913
2910	0.27807
2922	0.265029
2934	0.274275
2946	0.268893
2958	0.231564
2970	0.188577
2982	0.156768
2994	0.093564
3006	0.039123
3018	0.020769
3030	0.013041
3042	0.009384
3054	0.005934
3066	0.003933
3078	0.002829
3090	0.002208
3102	0.001656
3114	0.002208
3126	0.001173
3138	0.001035
3150	0.001104
3162	0.001449
3174	0.002001
3186	0.002898
3198	0.002622
3210	0.002622
3222	0.002208
3234	0.002277
3246	0.00138
3258	0.002346
3270	0.001449
3282	0.000552
3294	0.00069
3306	0.000207
3318	0.000207
3330	0.000207
3342	0.000276
3354	0.001242
3366	0.001104
3378	0.00138
3390	0.001449
3402	0.001587
3414	0.002829
3426	0.003036
3438	0.003588
3450	0.004968
3462	0.005727
3474	0.006624
3486	0.008694
3498	0.01035
3510	0.0138
3522	0.019182
3534	0.021666
3546	0.023736
3558	0.02415
3570	0.022011
3582	0.019182
3594	0.018561
3606	0.018561
3618	0.025737
3630	0.036501
3642	0.03105
3654	0.01725
3666	0.015111
3678	0.013248
3690	0.009798
3702	0.007314
3714	0.0069
3726	0.005796
3738	0.005382
3750	0.005451
3762	0.006141
3774	0.005175
3786	0.005727
3798	0.005589
3810	0.005382
3822	0.006072
3834	0.00621
3846	0.006141
3858	0.00621
3870	0.007728
3882	0.008004
3894	0.008142
3906	0.007659
3918	0.009453
3930	0.01035
3942	0.010281
3954	0.010074
3966	0.009315
