Infrared Spectrum: Nonanoic acid
Formula: C 9 H 18 O 2
CAS: 112-05-0
Origin: Sadtler Research Labs Under US-EPA Contract
1/CM	ABSORBANCE
450	0
462	0.017818
474	0.0080991
486	0.0235774
498	0.0237574
510	0.0277169
522	0.036086
534	0.0407655
546	0.0589435
558	0.101509
570	0.0827008
582	0.0800911
594	0.0939496
606	0.106098
618	0.105378
630	0.105648
642	0.0664126
654	0.0293367
666	0.0199778
678	0.0107088
690	0.0151183
702	0.0152083
714	0.0228575
726	0.0312265
738	0.0248372
750	0.0206077
762	0.018178
774	0.0172781
786	0.0156583
798	0.0103488
810	0.00971892
822	0.0101689
834	0.0106188
846	0.0118787
858	0.0148483
870	0.0169181
882	0.0162882
894	0.018448
906	0.0171881
918	0.0158382
930	0.017728
942	0.018358
954	0.0186279
966	0.017638
978	0.018358
990	0.0201578
1002	0.026817
1014	0.0368059
1026	0.0521042
1038	0.0698322
1050	0.080991
1062	0.0963793
1074	0.139484
1086	0.225155
1098	0.368869
1110	0.366439
1122	0.303536
1134	0.383627
1146	0.344122
1158	0.225515
1170	0.17575
1182	0.156403
1194	0.136515
1206	0.114017
1218	0.0927797
1230	0.0778414
1242	0.071902
1254	0.0696523
1266	0.0695623
1278	0.0687524
1290	0.0679425
1302	0.062813
1314	0.0593934
1326	0.0566037
1338	0.072172
1350	0.0925097
1362	0.108168
1374	0.129406
1386	0.148394
1398	0.0951194
1410	0.0577736
1422	0.0560638
1434	0.0653327
1446	0.0733419
1458	0.107538
1470	0.105468
1482	0.0472448
1494	0.0208777
1506	0.0139484
1518	0.0115187
1530	0.00971892
1542	0.00935896
1554	0.00773914
1566	0.00737918
1578	0.00773914
1590	0.00863904
1602	0.00818909
1614	0.00890901
1626	0.00908899
1638	0.0098989
1650	0.0112488
1662	0.0121487
1674	0.0136785
1686	0.0170981
1698	0.0234874
1710	0.0350061
1722	0.0619131
1734	0.108168
1746	0.186549
1758	0.325494
1770	0.63065
1782	0.874793
1794	0.466598
1806	0.225965
1818	0.0943995
1830	0.0407655
1842	0.0230374
1854	0.0161982
1866	0.0134085
1878	0.0106188
1890	0.0105288
1902	0.00998889
1914	0.00953894
1926	0.0098989
1938	0.00917898
1950	0.00917898
1962	0.00917898
1974	0.00917898
1986	0.00890901
1998	0.00935896
2010	0.0098989
2022	0.0101689
2034	0.0105288
2046	0.00917898
2058	0.0104388
2070	0.00908899
2082	0.00638929
2094	0.00737918
2106	0.00854905
2118	0.00836907
2130	0.00908899
2142	0.00908899
2154	0.00926897
2166	0.00980891
2178	0.0098989
2190	0.00971892
2202	0.0105288
2214	0.00998889
2226	0.0098989
2238	0.0105288
2250	0.0108888
2262	0.0101689
2274	0.0104388
2286	0.0098989
2298	0.00971892
2310	0.00827908
2322	0.00638929
2334	0.00773914
2346	0.0142184
2358	0.00638929
2370	0.0192579
2382	0.0170981
2394	0.0116087
2406	0.0108888
2418	0.0107988
2430	0.0110688
2442	0.0111588
2454	0.0116087
2466	0.0111588
2478	0.0114287
2490	0.0120587
2502	0.0113387
2514	0.0123286
2526	0.0118787
2538	0.0125086
2550	0.0128686
2562	0.0120587
2574	0.0117887
2586	0.0125986
2598	0.0140384
2610	0.0157482
2622	0.0159282
2634	0.0146684
2646	0.0156583
2658	0.0161982
2670	0.0136785
2682	0.0147584
2694	0.017638
2706	0.0186279
2718	0.018268
2730	0.0188979
2742	0.0206977
2754	0.0201578
2766	0.0206077
2778	0.0212376
2790	0.0242973
2802	0.0293367
2814	0.035996
2826	0.0471548
2838	0.0642529
2850	0.129676
2862	0.322344
2874	0.35735
2886	0.27384
2898	0.208777
2910	0.291568
2922	0.546779
2934	0.892431
2946	0.751776
2958	0.500254
2970	0.508084
2982	0.234694
2994	0.104298
3006	0.0636229
3018	0.0460749
3030	0.0370759
3042	0.0316765
3054	0.026547
3066	0.0240273
3078	0.0239373
3090	0.0234874
3102	0.0200678
3114	0.0189879
3126	0.0188079
3138	0.0197978
3150	0.0212376
3162	0.0195278
3174	0.0195278
3186	0.017818
3198	0.018268
3210	0.018448
3222	0.0188079
3234	0.0161982
3246	0.0152083
3258	0.0147584
3270	0.0138585
3282	0.0107988
3294	0.008999
3306	0.0109788
3318	0.0109788
3330	0.0102589
3342	0.00962893
3354	0.00980891
3366	0.0109788
3378	0.0110688
3390	0.00791912
3402	0.00710921
3414	0.00764915
3426	0.0104388
3438	0.008999
3450	0.0109788
3462	0.00773914
3474	0.00827908
3486	0.00890901
3498	0.0105288
3510	0.0116987
3522	0.0146684
3534	0.017818
3546	0.0295167
3558	0.0413954
3570	0.18079
3582	0.324234
3594	0.0608332
3606	0.0231274
3618	0.0198878
3630	0.0198878
3642	0.0142184
3654	0.0210577
3666	0.0154783
3678	0.0170981
3690	0.0194378
3702	0.0149383
3714	0.0207877
3726	0.0172781
3738	0.0226775
3750	0.0234874
3762	0.0155683
3774	0.0142184
3786	0.0142184
3798	0.0152983
3810	0.0154783
3822	0.0165582
3834	0.0138585
3846	0.0173681
3858	0.0194378
3870	0.0242073
3882	0.0194378
3894	0.0172781
3906	0.0191679
3918	0.0170981
3930	0.0161982
3942	0.0195278
3954	0.00998889
3966	0.0147584
