Infrared Spectrum: Eicosane
Formula: C 20 H 42
CAS: 112-95-8
Origin: Sadtler Research Labs Under US-EPA Contract
1/CM	ABSORBANCE
450	0
462	0.0329587
474	0.0258358
486	0.0294576
498	0.0293369
510	0.0270431
522	0.0295784
534	0.0313893
546	0.0294576
558	0.0309064
570	0.0327173
582	0.0290954
594	0.0303027
606	0.0281296
618	0.0274053
630	0.0290954
642	0.028854
654	0.0276467
666	0.0287333
678	0.0281296
690	0.0294576
702	0.0333209
714	0.0404439
726	0.0409268
738	0.0374257
750	0.0338038
762	0.0327173
774	0.03151
786	0.0299405
798	0.0282504
810	0.0274053
822	0.0284918
834	0.0282504
846	0.028854
858	0.0293369
870	0.0296991
882	0.0298198
894	0.030182
906	0.0300613
918	0.0289747
930	0.0295784
942	0.0289747
954	0.0293369
966	0.028854
978	0.0289747
990	0.0282504
1002	0.0281296
1014	0.0271638
1026	0.0270431
1038	0.0265602
1050	0.0271638
1062	0.0283711
1074	0.0282504
1086	0.0278882
1098	0.0271638
1110	0.0272845
1122	0.0283711
1134	0.0284918
1146	0.0281296
1158	0.0286125
1170	0.028854
1182	0.0284918
1194	0.0287333
1206	0.028854
1218	0.0290954
1230	0.0294576
1242	0.0300613
1254	0.0304235
1266	0.0303027
1278	0.0333209
1290	0.0360977
1302	0.0404439
1314	0.0395988
1326	0.0379086
1338	0.0428584
1350	0.0527581
1362	0.0510679
1374	0.0447901
1386	0.0433414
1398	0.0358562
1410	0.0334417
1422	0.0362184
1434	0.0416512
1446	0.065676
1458	0.0975482
1470	0.0923569
1482	0.0504643
1494	0.035494
1506	0.0317515
1518	0.0295784
1530	0.0263187
1542	0.0283711
1554	0.0252322
1566	0.0257151
1578	0.0253529
1590	0.0249907
1602	0.0246285
1614	0.0247492
1626	0.0251114
1638	0.02487
1650	0.0251114
1662	0.0241456
1674	0.0249907
1686	0.0241456
1698	0.0246285
1710	0.02487
1722	0.0258358
1734	0.0271638
1746	0.0270431
1758	0.0254736
1770	0.0253529
1782	0.0247492
1794	0.0246285
1806	0.0241456
1818	0.0233005
1830	0.0231798
1842	0.0225761
1854	0.0228176
1866	0.0226969
1878	0.0223347
1890	0.0228176
1902	0.0223347
1914	0.022214
1926	0.022214
1938	0.0223347
1950	0.022214
1962	0.0220932
1974	0.0224554
1986	0.0226969
1998	0.0224554
2010	0.0229383
2022	0.0231798
2034	0.0234212
2046	0.023059
2058	0.0229383
2070	0.0228176
2082	0.0226969
2094	0.0225761
2106	0.0224554
2118	0.0224554
2130	0.022214
2142	0.0220932
2154	0.0223347
2166	0.0224554
2178	0.0224554
2190	0.0225761
2202	0.022214
2214	0.0219725
2226	0.0219725
2238	0.0219725
2250	0.021731
2262	0.021731
2274	0.0218518
2286	0.0220932
2298	0.0226969
2310	0.0231798
2322	0.0225761
2334	0.0223347
2346	0.0218518
2358	0.0234212
2370	0.0223347
2382	0.0229383
2394	0.0224554
2406	0.0220932
2418	0.0223347
2430	0.0223347
2442	0.0219725
2454	0.0219725
2466	0.022214
2478	0.022214
2490	0.0224554
2502	0.0224554
2514	0.0228176
2526	0.0231798
2538	0.0237834
2550	0.0239041
2562	0.0242663
2574	0.0245078
2586	0.0251114
2598	0.0254736
2610	0.0259565
2622	0.0268016
2634	0.0274053
2646	0.0283711
2658	0.0296991
2670	0.0309064
2682	0.0317515
2694	0.0312686
2706	0.0309064
2718	0.030182
2730	0.0312686
2742	0.0327173
2754	0.032838
2766	0.0339246
2778	0.0363391
2790	0.0404439
2802	0.0467217
2814	0.0544483
2826	0.0676077
2838	0.0922362
2850	0.184231
2862	0.456231
2874	0.328742
2886	0.239404
2898	0.241818
2910	0.381621
2922	0.709639
2934	1.20728
2946	0.673421
2958	0.344316
2970	0.318722
2982	0.155256
2994	0.0883729
3006	0.0638651
3018	0.0511887
3030	0.0440657
3042	0.0392366
3054	0.0350111
3066	0.0322344
3078	0.0306649
3090	0.0299405
3102	0.0283711
3114	0.0274053
3126	0.0268016
3138	0.026198
3150	0.0260772
3162	0.0254736
3174	0.0253529
3186	0.02487
3198	0.0242663
3210	0.023542
3222	0.0225761
3234	0.0226969
3246	0.0225761
3258	0.0229383
3270	0.0224554
3282	0.0223347
3294	0.0223347
3306	0.022214
3318	0.0225761
3330	0.0231798
3342	0.0229383
3354	0.0228176
3366	0.0229383
3378	0.0224554
3390	0.0228176
3402	0.0229383
3414	0.0228176
3426	0.0225761
3438	0.0220932
3450	0.0225761
3462	0.0225761
3474	0.0220932
3486	0.0225761
3498	0.022214
3510	0.0218518
3522	0.0224554
3534	0.0216103
3546	0.0234212
3558	0.0219725
3570	0.023542
3582	0.0234212
3594	0.0234212
3606	0.0231798
3618	0.0243871
3630	0.0249907
3642	0.0241456
3654	0.0249907
3666	0.0226969
3678	0.0266809
3690	0.0246285
3702	0.0245078
3714	0.02487
3726	0.0237834
3738	0.0243871
3750	0.0240249
3762	0.023059
3774	0.0243871
3786	0.0231798
3798	0.0246285
3810	0.023059
3822	0.0249907
3834	0.02487
3846	0.0246285
3858	0.0246285
3870	0.0245078
3882	0.0236627
3894	0.0246285
3906	0.0223347
3918	0.0246285
3930	0.0233005
3942	0.0226969
3954	0.0254736
3966	0.0237834
