Infrared Spectrum: Ethanol, 2-[2-(2-methoxyethoxy)ethoxy]-
Formula: C 7 H 16 O 4
CAS: 112-35-6
Origin: Sadtler Research Labs Under US-EPA Contract
1/CM	ABSORBANCE
450	0.00468026
462	0.00592345
474	0.00819045
486	0.0102381
498	0.0149914
510	0.0148452
522	0.0211343
534	0.0185016
546	0.0176972
558	0.0137483
570	0.0134557
582	0.00848296
594	0.00307142
606	0.00431461
618	0.00307142
630	0.00372958
642	0.00387584
654	0.00343706
666	0.00351019
678	0.00402209
690	0.00351019
702	0.00394897
714	0.00424148
726	0.00409522
738	0.00438774
750	0.0050459
762	0.00563093
774	0.00767854
786	0.0103112
798	0.0174778
810	0.0254489
822	0.032323
834	0.0429999
846	0.0553587
858	0.0611358
870	0.0593807
882	0.0606971
894	0.0626716
906	0.0609165
918	0.0705695
930	0.0808807
942	0.0744453
954	0.0576988
966	0.0535304
978	0.0568212
990	0.0632566
1002	0.0726902
1014	0.0966034
1026	0.139603
1038	0.172073
1050	0.220191
1062	0.300926
1074	0.297708
1086	0.261217
1098	0.333176
1110	0.513731
1122	0.718785
1134	0.698967
1146	0.544372
1158	0.355699
1170	0.197741
1182	0.13346
1194	0.13953
1206	0.147282
1218	0.0990898
1230	0.0766392
1242	0.086731
1254	0.0976272
1266	0.0881936
1278	0.0862191
1290	0.0914112
1302	0.0791256
1314	0.0602583
1326	0.0648654
1338	0.075981
1350	0.132656
1362	0.117738
1374	0.088998
1386	0.0707157
1398	0.0677906
1410	0.055578
1422	0.038539
1434	0.0354676
1446	0.0573331
1458	0.0996017
1470	0.0846103
1482	0.0460713
1494	0.0239863
1506	0.0133095
1518	0.00855609
1530	0.00658161
1542	0.00650848
1554	0.00541155
1566	0.00446087
1578	0.00475338
1590	0.00358332
1602	0.00372958
1614	0.00365645
1626	0.00255952
1638	0.00285203
1650	0.00197448
1662	0.00307142
1674	0.00241326
1686	0.00307142
1698	0.0027789
1710	0.00307142
1722	0.00314455
1734	0.00548467
1746	0.00892174
1758	0.00855609
1770	0.00533842
1782	0.00307142
1794	0.0027789
1806	0.00299829
1818	0.00285203
1830	0.00160884
1842	0.00124319
1854	0.00197448
1866	0.0017551
1878	0.00190135
1890	0.00307142
1902	0.00438774
1914	0.00526529
1926	0.0073129
1938	0.009068
1950	0.0101649
1962	0.0106037
1974	0.0106037
1986	0.00972616
1998	0.0078248
2010	0.00658161
2022	0.00511903
2034	0.00416835
2046	0.00468026
2058	0.00394897
2070	0.0050459
2082	0.00650848
2094	0.00650848
2106	0.00614284
2118	0.00658161
2130	0.00694725
2142	0.006801
2154	0.00606971
2166	0.00526529
2178	0.00475338
2190	0.00431461
2202	0.00380271
2214	0.0032908
2226	0.00299829
2238	0.00270577
2250	0.00365645
2262	0.00351019
2274	0.0032908
2286	0.00299829
2298	0.00314455
2310	0.00358332
2322	0.00307142
2334	0.00263264
2346	0.00168197
2358	0.00351019
2370	0.000804419
2382	0.000877548
2394	0.00168197
2406	0.00212074
2418	0.00204761
2430	0.00234013
2442	0.00160884
2454	0.00153571
2466	0.00138945
2478	0.00138945
2490	0.00138945
2502	0.00124319
2514	0.00073129
2526	0.00234013
2538	0.00292516
2550	0.00285203
2562	0.00299829
2574	0.00358332
2586	0.00431461
2598	0.00570406
2610	0.00541155
2622	0.00636222
2634	0.00738603
2646	0.00848296
2658	0.009068
2670	0.0114813
2682	0.0130901
2694	0.015869
2706	0.0213537
2718	0.0263996
2730	0.0291053
2742	0.0285934
2754	0.0285203
2766	0.0322499
2778	0.039124
2790	0.0494352
2802	0.0668399
2814	0.103916
2826	0.157959
2838	0.182311
2850	0.234305
2862	0.354091
2874	0.441919
2886	0.45318
2898	0.416323
2910	0.377638
2922	0.365864
2934	0.380417
2946	0.346485
2958	0.293467
2970	0.209076
2982	0.121321
2994	0.106841
3006	0.0587957
3018	0.026619
3030	0.0165272
3042	0.0119932
3054	0.009068
3066	0.00804419
3078	0.00592345
3090	0.00533842
3102	0.00394897
3114	0.00292516
3126	0.00182822
3138	0.00182822
3150	0.00073129
3162	0.000219387
3174	0.00073129
3186	0.000365645
3198	0.000877548
3210	0.00131632
3222	0.000877548
3234	0.000365645
3246	0.000438774
3258	0.000438774
3270	0.00102381
3282	0.00212074
3294	0.000658161
3306	0.00197448
3318	0.00190135
3330	0.00168197
3342	0.00219387
3354	0.0017551
3366	0.002267
3378	0.00234013
3390	0.00292516
3402	0.00292516
3414	0.00343706
3426	0.00409522
3438	0.004534
3450	0.00541155
3462	0.00709351
3474	0.00950677
3486	0.0105306
3498	0.0126513
3510	0.0177703
3522	0.0239132
3534	0.0293247
3546	0.0316649
3558	0.0332006
3570	0.0306411
3582	0.0268383
3594	0.0244982
3606	0.0267652
3618	0.0370033
3630	0.0517753
3642	0.0450475
3654	0.0269846
3666	0.02267
3678	0.0197448
3690	0.0157227
3702	0.0108962
3714	0.00943364
3726	0.00987241
3738	0.00914112
3750	0.00987241
3762	0.00936051
3774	0.00979929
3786	0.0106768
3798	0.00965303
3810	0.00979929
3822	0.00899487
3834	0.00972616
3846	0.00972616
3858	0.00994554
3870	0.0111887
3882	0.0111156
3894	0.0123588
3906	0.0121394
3918	0.0123588
3930	0.0109693
3942	0.0125782
3954	0.0128707
3966	0.0123588
