Infrared Spectrum: 1-Dodecene
Formula: C 12 H 24
CAS: 112-41-4
Origin: Sadtler Research Labs Under US-EPA Contract
1/CM	ABSORBANCE
450	0
462	0.110094
474	0.110094
486	0.101891
498	0.100097
510	0.109068
522	0.0976617
534	0.0965082
546	0.104583
558	0.105992
570	0.0943294
582	0.0933041
594	0.10125
606	0.103301
618	0.103429
630	0.108556
642	0.105864
654	0.100353
666	0.0975336
678	0.10061
690	0.0971491
702	0.100353
714	0.106633
726	0.112529
738	0.10689
750	0.0988152
762	0.103557
774	0.079975
786	0.0995842
798	0.0933041
810	0.0918943
822	0.0995842
834	0.0945858
846	0.0975336
858	0.0997124
870	0.101507
882	0.106761
894	0.11804
906	0.165974
918	0.195323
930	0.124961
942	0.109453
954	0.108299
966	0.108171
978	0.114323
990	0.13547
1002	0.127909
1014	0.10894
1026	0.103557
1038	0.100994
1050	0.0981744
1062	0.0967646
1074	0.0965082
1086	0.0963801
1098	0.0956111
1110	0.0947139
1122	0.0944576
1134	0.0945858
1146	0.0934323
1158	0.0925351
1170	0.0934323
1182	0.0935604
1194	0.093176
1206	0.0930478
1218	0.0935604
1230	0.0934323
1242	0.0939449
1254	0.0944576
1266	0.0961237
1278	0.0970209
1290	0.100225
1302	0.103942
1314	0.102276
1326	0.100225
1338	0.106249
1350	0.114451
1362	0.113682
1374	0.109581
1386	0.110094
1398	0.10061
1410	0.101122
1422	0.104711
1434	0.111888
1446	0.141622
1458	0.16764
1470	0.164051
1482	0.116246
1494	0.0954829
1506	0.0895873
1518	0.087793
1530	0.0889465
1542	0.0852297
1554	0.087024
1566	0.086255
1578	0.0853579
1590	0.0865114
1602	0.087793
1614	0.0881775
1626	0.0965082
1638	0.119962
1650	0.119322
1662	0.0915098
1674	0.0868959
1686	0.0842044
1698	0.0871522
1710	0.0957393
1722	0.0920225
1734	0.0866395
1746	0.086255
1758	0.0851016
1770	0.0840762
1782	0.0827946
1794	0.0829228
1806	0.0831791
1818	0.0866395
1830	0.0930478
1842	0.0863832
1854	0.0833072
1866	0.0818974
1878	0.0812566
1890	0.0813848
1902	0.0812566
1914	0.0813848
1926	0.0807439
1938	0.0807439
1950	0.0806158
1962	0.0812566
1974	0.0820256
1986	0.0815129
1998	0.0812566
2010	0.0812566
2022	0.0813848
2034	0.0821538
2046	0.0812566
2058	0.0811284
2070	0.0812566
2082	0.0807439
2094	0.0806158
2106	0.0807439
2118	0.079975
2130	0.0802313
2142	0.0793341
2154	0.0798468
2166	0.0795905
2178	0.0797186
2190	0.0797186
2202	0.0798468
2214	0.0797186
2226	0.0790778
2238	0.079206
2250	0.0793341
2262	0.0795905
2274	0.0795905
2286	0.0801031
2298	0.079975
2310	0.0797186
2322	0.079206
2334	0.0798468
2346	0.0812566
2358	0.0760018
2370	0.0831791
2382	0.0813848
2394	0.0785651
2406	0.0780525
2418	0.0777962
2430	0.0775398
2442	0.0771553
2454	0.0775398
2466	0.0775398
2478	0.0774117
2490	0.0772835
2502	0.0777962
2514	0.0780525
2526	0.0785651
2538	0.0788215
2550	0.0788215
2562	0.0793341
2574	0.0788215
2586	0.079206
2598	0.0795905
2610	0.0801031
2622	0.0811284
2634	0.0812566
2646	0.0824101
2658	0.0834354
2670	0.0844607
2682	0.0857424
2694	0.0863832
2706	0.0853579
2718	0.0853579
2730	0.0853579
2742	0.0875367
2754	0.0874085
2766	0.087793
2778	0.0888183
2790	0.0925351
2802	0.0990715
2814	0.104454
2826	0.117527
2838	0.142904
2850	0.237618
2862	0.505739
2874	0.432557
2886	0.311697
2898	0.291063
2910	0.414101
2922	0.736436
2934	1.28165
2946	0.817693
2958	0.418971
2970	0.444348
2982	0.251972
2994	0.174689
3006	0.152516
3018	0.12714
3030	0.109197
3042	0.102148
3054	0.100994
3066	0.107402
3078	0.124448
3090	0.151491
3102	0.100994
3114	0.089331
3126	0.0854861
3138	0.0835636
3150	0.0833072
3162	0.0817693
3174	0.0818974
3186	0.0818974
3198	0.0811284
3210	0.0811284
3222	0.0798468
3234	0.0808721
3246	0.0788215
3258	0.079206
3270	0.0794623
3282	0.079975
3294	0.0798468
3306	0.0795905
3318	0.0790778
3330	0.079975
3342	0.079975
3354	0.0795905
3366	0.0812566
3378	0.079206
3390	0.0785651
3402	0.078437
3414	0.079206
3426	0.0790778
3438	0.078437
3450	0.0779243
3462	0.0788215
3474	0.0794623
3486	0.0793341
3498	0.0789496
3510	0.0786933
3522	0.078437
3534	0.0797186
3546	0.0810003
3558	0.0801031
3570	0.0797186
3582	0.0770272
3594	0.0794623
3606	0.0804876
3618	0.0810003
3630	0.0795905
3642	0.0793341
3654	0.0808721
3666	0.079206
3678	0.0801031
3690	0.078437
3702	0.0788215
3714	0.0822819
3726	0.0794623
3738	0.0793341
3750	0.0777962
3762	0.0793341
3774	0.0813848
3786	0.0788215
3798	0.0754892
3810	0.0777962
3822	0.076899
3834	0.0751047
3846	0.0774117
3858	0.0826664
3870	0.079206
3882	0.077668
3894	0.0785651
3906	0.0788215
3918	0.0774117
3930	0.0751047
3942	0.0812566
3954	0.0785651
3966	0.0794623
