Infrared Spectrum: 9-Octadecenoic acid (Z)-, methyl ester
Formula: C 19 H 36 O 2
CAS: 112-62-9
Origin: Sadtler Research Labs Under US-EPA Contract
1/CM	ABSORBANCE
450	0.0049
462	0.00670527
474	0.00481404
486	0.00636141
498	0.00618948
510	0.00180526
522	0.0051579
534	0.00954211
546	0.0066193
558	0.0049
570	0.00532983
582	0.0114333
594	0.00808071
606	0.00988597
618	0.00790878
630	0.00670527
642	0.00567369
654	0.00704913
666	0.00481404
678	0.0127228
690	0.0202018
702	0.0272509
714	0.0332685
726	0.0299158
738	0.0211474
750	0.014786
762	0.0128088
774	0.00937018
786	0.00704913
798	0.0068772
810	0.0104018
822	0.022093
834	0.0134105
846	0.0159035
858	0.0153018
870	0.0137544
882	0.0116053
894	0.00808071
906	0.00575965
918	0.00455614
930	0.00395439
942	0.00438421
954	0.00653334
966	0.0120351
978	0.0143562
990	0.0190842
1002	0.0274228
1014	0.0373948
1026	0.0387702
1038	0.0288842
1050	0.0247579
1062	0.0301737
1074	0.0331825
1086	0.0398018
1098	0.0437562
1110	0.0494299
1122	0.0618948
1134	0.0837299
1146	0.125251
1158	0.166428
1170	0.194023
1182	0.165912
1194	0.161614
1206	0.150525
1218	0.136426
1230	0.134191
1242	0.136942
1254	0.124219
1266	0.0973124
1278	0.076251
1290	0.0657632
1302	0.0628404
1314	0.0618948
1326	0.0577685
1338	0.0620667
1350	0.0759931
1362	0.0722966
1374	0.0505474
1386	0.0336123
1398	0.0267351
1410	0.0276807
1422	0.0330106
1434	0.0757352
1446	0.0943896
1458	0.0961089
1470	0.0726404
1482	0.0303456
1494	0.0159035
1506	0.0109176
1518	0.00747895
1530	0.00464211
1542	0.00593158
1554	0.0051579
1566	0.00404035
1578	0.00481404
1590	0.00412632
1602	0.00361053
1614	0.00326667
1626	0.00361053
1638	0.00524386
1650	0.00713509
1662	0.00558772
1674	0.00610351
1686	0.0085965
1698	0.0126369
1710	0.0215772
1722	0.0436702
1734	0.0947334
1746	0.190756
1758	0.322541
1770	0.213021
1782	0.0979141
1794	0.0328386
1806	0.0115193
1818	0.00447018
1830	0.00223509
1842	0.000773685
1854	0.00034386
1866	0.00034386
1878	0.00085965
1890	0.00068772
1902	8.5965e-05
1914	0
1926	0
1938	0.00068772
1950	0.000773685
1962	0.00137544
1974	0.00137544
1986	0.00180526
1998	0.00283684
2010	0.00335263
2022	0.00369649
2034	0.00429825
2046	0.00421228
2058	0.00412632
2070	0.00378246
2082	0.00309474
2094	0.00214912
2106	0.0014614
2118	0.00085965
2130	0.00068772
2142	0.000773685
2154	0.00111754
2166	0.000601755
2178	0.00120351
2190	0.00017193
2202	8.5965e-05
2214	0.00034386
2226	8.5965e-05
2238	0.000601755
2250	0.000429825
2262	8.5965e-05
2274	0.00085965
2286	0.00051579
2298	0.00068772
2310	0.00137544
2322	0.000945615
2334	0.00068772
2346	0.0017193
2358	0
2370	0.00300877
2382	0.00300877
2394	0.00180526
2406	0.000773685
2418	0.00128947
2430	0.00128947
2442	0.000945615
2454	0.00137544
2466	0.00128947
2478	0.00154737
2490	0.00214912
2502	0.00249298
2514	0.00180526
2526	0.00240702
2538	0.00283684
2550	0.00292281
2562	0.00283684
2574	0.00335263
2586	0.00464211
2598	0.00507193
2610	0.00447018
2622	0.00498597
2634	0.00567369
2646	0.00670527
2658	0.00747895
2670	0.0083386
2682	0.00937018
2694	0.00894036
2706	0.00790878
2718	0.00902632
2730	0.0085965
2742	0.00997194
2754	0.0110035
2766	0.0114333
2778	0.0134105
2790	0.0165912
2802	0.0211474
2814	0.0279386
2826	0.0404035
2838	0.0643878
2850	0.141326
2862	0.320306
2874	0.268125
2886	0.189295
2898	0.190069
2910	0.28953
2922	0.522581
2934	0.85965
2946	0.604076
2958	0.386757
2970	0.302253
2982	0.149321
2994	0.0885439
3006	0.0986019
3018	0.116483
3030	0.0539001
3042	0.0302597
3054	0.0216632
3066	0.0186544
3078	0.014614
3090	0.0116912
3102	0.00945615
3114	0.00799474
3126	0.0051579
3138	0.0051579
3150	0.00429825
3162	0.00275088
3174	0.00240702
3186	0.00240702
3198	0.00223509
3210	0.0014614
3222	0.00085965
3234	0.000945615
3246	0
3258	0.00034386
3270	0
3282	0
3294	0.000945615
3306	0.00068772
3318	0.00180526
3330	0.00051579
3342	0.00128947
3354	0.0014614
3366	0.00163333
3378	0.00197719
3390	0.00137544
3402	0.00189123
3414	0.00163333
3426	0.00266491
3438	0.00154737
3450	0.00163333
3462	0.00309474
3474	0.00292281
3486	0.00455614
3498	0.00507193
3510	0.00386842
3522	0.00386842
3534	0.00369649
3546	0.00275088
3558	0.00472807
3570	0.00584562
3582	0.00575965
3594	0.00575965
3606	0.00567369
3618	0.00730702
3630	0.00739299
3642	0.00816667
3654	0.0106597
3666	0.00971404
3678	0.0117772
3690	0.0112614
3702	0.0107456
3714	0.0116912
3726	0.0110035
3738	0.012207
3750	0.0115193
3762	0.0110035
3774	0.0107456
3786	0.00945615
3798	0.0109176
3810	0.00945615
3822	0.00980001
3834	0.00928422
3846	0.0101439
3858	0.00945615
3870	0.00816667
3882	0.00885439
3894	0.00997194
3906	0.00894036
3918	0.00954211
3930	0.00911229
3942	0.0101439
3954	0.00885439
3966	0.00842457
