Infrared Spectrum: Octadecanoic acid, methyl ester
Formula: C 19 H 38 O 2
CAS: 112-61-8
Origin: Sadtler Research Labs Under US-EPA Contract
1/CM	ABSORBANCE
450	0.0396908
462	0.0150324
474	0.0160873
486	0.0428555
498	0.0315153
510	0.0151642
522	0.0133182
534	0.0237353
546	0.0416687
558	0.00329657
570	0.0212299
582	0.0350756
594	0.0208344
606	0.0203069
618	0.0299329
630	0.0299329
642	0.0295373
654	0.0303285
666	0.0283505
678	0.0292736
690	0.0291417
702	0.0392952
714	0.0614482
726	0.0534045
738	0.0403501
750	0.0381084
762	0.0340207
774	0.0329658
786	0.0294054
798	0.0359986
810	0.0402182
822	0.0396908
834	0.0388996
846	0.0399545
858	0.0398226
870	0.042328
882	0.0337569
894	0.031779
906	0.0291417
918	0.0262407
930	0.0255814
942	0.0263726
954	0.0266363
966	0.0276912
978	0.031779
990	0.0388996
1002	0.0495805
1014	0.0647447
1026	0.0639536
1038	0.0567011
1050	0.0541957
1062	0.0527452
1074	0.0564374
1086	0.0589428
1098	0.0693599
1110	0.0784585
1122	0.0879526
1134	0.102985
1146	0.143599
1158	0.197531
1170	0.235771
1182	0.214673
1194	0.196212
1206	0.185531
1218	0.16918
1230	0.163906
1242	0.165488
1254	0.154543
1266	0.120259
1278	0.0985017
1290	0.0880845
1302	0.0851835
1314	0.0825462
1326	0.0764805
1338	0.0836011
1350	0.102853
1362	0.10193
1374	0.0764805
1386	0.0512947
1398	0.0369216
1410	0.0371854
1422	0.0486574
1434	0.0912492
1446	0.118545
1458	0.128962
1470	0.1076
1482	0.0495805
1494	0.0316471
1506	0.0253177
1518	0.0224167
1530	0.0212299
1542	0.019252
1554	0.0185927
1566	0.0185927
1578	0.018329
1590	0.0146368
1602	0.016351
1614	0.0172741
1626	0.0180652
1638	0.0152961
1650	0.0174059
1662	0.0155598
1674	0.0178015
1686	0.0207025
1698	0.0255814
1710	0.0352074
1722	0.0601295
1734	0.116962
1746	0.22298
1758	0.371722
1770	0.250803
1782	0.123556
1794	0.0503717
1806	0.0261089
1818	0.0191201
1830	0.015428
1842	0.0138456
1854	0.01345
1866	0.0126588
1878	0.0114721
1890	0.0126588
1902	0.012527
1914	0.0123951
1926	0.0118677
1938	0.0117358
1950	0.0112084
1962	0.0117358
1974	0.0112084
1986	0.0112084
1998	0.0110765
2010	0.0133182
2022	0.0131863
2034	0.0133182
2046	0.0135819
2058	0.012527
2070	0.0117358
2082	0.0106809
2094	0.0110765
2106	0.009626
2118	0.00896668
2130	0.00804364
2142	0.00672501
2154	0.00659315
2166	0.00725246
2178	0.00553825
2190	0.00646129
2202	0.0071206
2214	0.00698874
2226	0.00567011
2238	0.0060657
2250	0.0060657
2262	0.0060657
2274	0.00593384
2286	0.00646129
2298	0.00896668
2310	0.0106809
2322	0.0106809
2334	0.0108128
2346	0.00738433
2358	0.00988973
2370	0.00540638
2382	0.00527452
2394	0.00329657
2406	0.00303285
2418	0.00263726
2430	0.00224167
2442	0.00184608
2454	0.00145049
2466	0.000791178
2478	0.000527452
2490	0.000527452
2502	0.00184608
2514	0.00276912
2526	0.00329657
2538	0.00395589
2550	0.00369216
2562	0.00224167
2574	0.00158236
2586	0.00224167
2598	0.00303285
2610	0.00395589
2622	0.00474707
2634	0.00553825
2646	0.0060657
2658	0.00698874
2670	0.00751619
2682	0.00830737
2694	0.00830737
2706	0.00791178
2718	0.00725246
2730	0.00725246
2742	0.00725246
2754	0.00725246
2766	0.00843923
2778	0.0108128
2790	0.0152961
2802	0.0224167
2814	0.031779
2826	0.0466795
2838	0.07503
2850	0.175905
2862	0.485651
2874	0.337701
2886	0.217178
2898	0.226145
2910	0.381216
2922	0.725115
2934	1.31863
2946	0.771926
2958	0.41972
2970	0.318317
2982	0.14795
2994	0.0851835
3006	0.0603933
3018	0.0458883
3030	0.0374491
3042	0.0278231
3054	0.0189883
3066	0.0152961
3078	0.0121314
3090	0.0116039
3102	0.0104172
3114	0.0106809
3126	0.00870296
3138	0.00698874
3150	0.00553825
3162	0.0046152
3174	0.00382403
3186	0.00382403
3198	0.00382403
3210	0.00224167
3222	0.00118677
3234	0.00197795
3246	0.00171422
3258	0.0010549
3270	0.00184608
3282	0.00184608
3294	0.00316471
3306	0.00329657
3318	0.00237353
3330	0.00303285
3342	0.0046152
3354	0.00342844
3366	0.00382403
3378	0.00303285
3390	0.00329657
3402	0.00197795
3414	0.00290099
3426	0.00224167
3438	0.00276912
3450	0.00158236
3462	0.00224167
3474	0.00197795
3486	0.00210981
3498	0.00382403
3510	0.00184608
3522	0.00276912
3534	0.0010549
3546	0.00276912
3558	0.000791178
3570	0.00171422
3582	0.00158236
3594	0.00197795
3606	0.00171422
3618	0.00369216
3630	0.00224167
3642	0.00184608
3654	0.00145049
3666	0.00184608
3678	0.00197795
3690	0.0035603
3702	0.00184608
3714	0.00171422
3726	0.00171422
3738	0.00197795
3750	0.00158236
3762	0.0010549
3774	0.00197795
3786	0.000131863
3798	0.000923041
3810	0.000263726
3822	0
3834	0.000131863
3846	0
3858	0
3870	0
3882	0
3894	0
3906	0
3918	0
3930	0
3942	0
3954	0
3966	0
