Infrared Spectrum: 10-Undecenal
Formula: C 11 H 20 O
CAS: 112-45-8
Origin: Sadtler Research Labs Under US-EPA Contract
1/CM	ABSORBANCE
450	0.00374027
462	0.00728625
474	0.0129695
486	0
498	0.0040803
510	0.00976358
522	0.0102007
534	0.0115123
546	0.0167098
558	0.0108322
570	0.0118037
582	0.00519753
594	0.0042746
606	0.0135039
618	0.0153983
630	0.0191386
642	0.0160297
654	0.0108808
666	0.00937498
678	0.009715
690	0.00728625
702	0.00898637
714	0.0109294
726	0.0126781
738	0.014281
750	0.0107351
762	0.0071891
774	0.00845205
786	0.00650905
798	0.00782057
810	0.00655763
822	0.00879207
834	0.0110751
846	0.0112208
858	0.0137467
870	0.0147182
882	0.0170498
894	0.0224902
906	0.0494008
918	0.0685393
930	0.0289993
942	0.0205958
954	0.0175841
966	0.0183128
978	0.0228788
990	0.0372085
1002	0.0317195
1014	0.022636
1026	0.0189442
1038	0.0175841
1050	0.0175356
1062	0.0168555
1074	0.0189928
1086	0.0215673
1098	0.0229274
1110	0.0258905
1122	0.0265705
1134	0.0258419
1146	0.0225388
1158	0.0189442
1170	0.0172927
1182	0.015884
1194	0.0141353
1206	0.013601
1218	0.0123866
1230	0.0110751
1242	0.0116094
1254	0.0118037
1266	0.0121923
1278	0.0121438
1290	0.0132124
1302	0.0147668
1314	0.0153011
1326	0.0146211
1338	0.0173413
1350	0.0256476
1362	0.0262305
1374	0.0223445
1386	0.0201586
1398	0.0192843
1410	0.0185556
1422	0.0254047
1434	0.0244818
1446	0.0360912
1458	0.0468749
1470	0.0336625
1482	0.0121438
1494	0.00689765
1506	0.00519753
1518	0.00461462
1530	0.0034974
1542	0.00461462
1554	0.00393458
1566	0.00296307
1578	0.00378885
1590	0.0034974
1602	0.0042746
1614	0.00694623
1626	0.0115609
1638	0.0305537
1650	0.0250647
1662	0.0107351
1674	0.0111722
1686	0.017147
1698	0.0378885
1710	0.081606
1722	0.0575614
1734	0.116629
1746	0.178416
1758	0.0958385
1770	0.0681507
1782	0.0596015
1794	0.0341482
1806	0.0195757
1818	0.0131153
1830	0.0129695
1842	0.00825775
1854	0.00451747
1866	0.0040803
1878	0.0031088
1890	0.0027202
1902	0.00267162
1914	0.00267162
1926	0.00223445
1938	0.00228303
1950	0.00238017
1962	0.00257448
1974	0.0025259
1986	0.0021373
1998	0.00247733
2010	0.001943
2022	0.0015544
2034	0.00126295
2046	0.00126295
2058	0.0017487
2070	0.00102008
2082	0.00111723
2094	0.00199158
2106	0.001943
2118	0.00179728
2130	0.00160297
2142	0.001943
2154	0.00204015
2166	0.0017487
2178	0.00160297
2190	0.00145725
2202	0.00179728
2214	0.0015544
2226	0.001943
2238	0.00150583
2250	0.00184585
2262	0.00218587
2274	0.0025259
2286	0.0031088
2298	0.00495465
2310	0.00709195
2322	0.00646048
2334	0.00315738
2346	0.00087435
2358	0.00442033
2370	0.0001943
2382	0.00145725
2394	0.000631475
2406	0.00106865
2418	0.000728625
2430	0.00048575
2442	0.000728625
2454	0.000437175
2466	0.0005829
2478	0.000825775
2490	0.000922925
2502	0.00106865
2514	0.00102008
2526	0.000825775
2538	0.00223445
2550	0.00228303
2562	0.00223445
2574	0.00170013
2586	0.0023316
2598	0.00325453
2610	0.00417745
2622	0.00607188
2634	0.00743198
2646	0.00898637
2658	0.0120952
2670	0.0156897
2682	0.0212759
2694	0.0351683
2706	0.0681022
2718	0.0638275
2730	0.0332253
2742	0.0247733
2754	0.0218102
2766	0.0207415
2778	0.0232674
2790	0.0321081
2802	0.0471663
2814	0.0595044
2826	0.0423574
2838	0.0432803
2850	0.07738
2862	0.17419
2874	0.152671
2886	0.0908838
2898	0.101619
2910	0.1534
2922	0.271049
2934	0.48575
2946	0.349497
2958	0.153497
2970	0.0749512
2982	0.0538697
2994	0.042406
3006	0.0370142
3018	0.025259
3030	0.0167584
3042	0.0126781
3054	0.0136496
3066	0.017147
3078	0.028805
3090	0.0405601
3102	0.0127267
3114	0.0073834
3126	0.0062176
3138	0.00650905
3150	0.00432318
3162	0.0036917
3174	0.0031088
3186	0.0023316
3198	0.00354598
3210	0.00422603
3222	0.0033031
3234	0.0031088
3246	0.0029145
3258	0.00417745
3270	0.0025259
3282	0.00262305
3294	0.0023316
3306	0.0031088
3318	0.0015544
3330	0.0015544
3342	0.0027202
3354	0.000340025
3366	0.00359455
3378	0.0040803
3390	0.00578043
3402	0.00340025
3414	0.00354598
3426	0.00442033
3438	0.0048575
3450	0.0062176
3462	0.00587758
3474	0.00786915
3486	0.00548898
3498	0.0029145
3510	0.00534325
3522	0.00529468
3534	0.00442033
3546	0.00646048
3558	0.00500323
3570	0.0128724
3582	0.017487
3594	0.00714052
3606	0.0071891
3618	0.00670335
3630	0.00670335
3642	0.00587758
3654	0.00495465
3666	0.00655763
3678	0.00743198
3690	0.00519753
3702	0.00417745
3714	0.00631475
3726	0.00417745
3738	0.00315738
3750	0.00670335
3762	0.0046632
3774	0.00529468
3786	0.00519753
3798	0.0064119
3810	0.00587758
3822	0.00510037
3834	0.00510037
3846	0.00684908
3858	0.00587758
3870	0.00592615
3882	0.00315738
3894	0.00650905
3906	0.00767485
3918	0.00616902
3930	0.0040803
3942	0.00519753
3954	0.00811203
3966	0.00772342
