Infrared Spectrum: Oleic Acid
Formula: C 18 H 34 O 2
CAS: 112-80-1
Origin: Sadtler Research Labs Under US-EPA Contract
1/CM	ABSORBANCE
450	0.0221882
462	0.0219587
474	0.0236419
486	0.0283856
498	0.0322111
510	0.0343534
522	0.0388676
534	0.0433817
546	0.0508798
558	0.0599081
570	0.0610558
582	0.0630451
594	0.0651874
606	0.0635041
618	0.0593725
630	0.0529456
642	0.0405508
654	0.0296863
666	0.0280795
678	0.0303749
690	0.0345065
702	0.0404743
714	0.045524
726	0.0415455
738	0.0299923
750	0.0224177
762	0.0155317
774	0.0119357
786	0.0104055
798	0.00795714
810	0.00772761
822	0.00107115
834	0.00872225
846	0.00772761
858	0.00826319
870	0.0076511
882	0.00772761
894	0.00772761
906	0.00803366
918	0.00849272
930	0.00788063
942	0.00887528
954	0.0111706
966	0.0152257
978	0.0136955
990	0.0136955
1002	0.0157613
1014	0.0187452
1026	0.0224177
1038	0.0257842
1050	0.0413925
1062	0.0586839
1074	0.0798775
1086	0.101989
1098	0.11798
1110	0.151415
1122	0.171538
1134	0.147054
1146	0.109334
1158	0.0888293
1170	0.0771231
1182	0.102831
1194	0.062586
1206	0.0420045
1218	0.034889
1230	0.0305279
1242	0.0299923
1254	0.0297628
1266	0.0316756
1278	0.0322111
1290	0.0313695
1302	0.0326702
1314	0.0320581
1326	0.0317521
1338	0.038332
1350	0.0511093
1362	0.0541698
1374	0.0560826
1386	0.0545523
1398	0.0400918
1410	0.0280795
1422	0.0264728
1434	0.0351951
1446	0.0520275
1458	0.0736036
1470	0.0562356
1482	0.021117
1494	0.00856923
1506	0.00596786
1518	0.00382555
1530	0.00283091
1542	0.00367253
1554	0.00298393
1566	0.00237184
1578	0.00313695
1590	0.00160673
1602	0.00175975
1614	0.00175975
1626	0.0020658
1638	0.00443764
1650	0.00657995
1662	0.00527926
1674	0.00482019
1686	0.00818668
1698	0.00979341
1710	0.0140015
1722	0.0243305
1734	0.0465952
1746	0.086993
1758	0.153405
1770	0.270696
1782	0.315761
1794	0.17391
1806	0.0886762
1818	0.0360367
1830	0.0149962
1842	0.00757459
1854	0.00466717
1866	0.00321346
1878	0.00267789
1890	0.00191278
1902	0.00114766
1914	0.000994643
1926	0.000535577
1938	0.000612088
1950	0.000841621
1962	0.00130069
1974	0.000841621
1986	0.000459066
1998	0.000535577
2010	0.0013772
2022	0.00130069
2034	0.00191278
2046	0.000918132
2058	0.000994643
2070	0.0013772
2082	0.000459066
2094	7.6511e-05
2106	0.000459066
2118	0.00107115
2130	0.000994643
2142	0.000994643
2154	0.00114766
2166	0.000535577
2178	0.00107115
2190	0.00107115
2202	0.00122418
2214	0.00160673
2226	0.00175975
2238	0.00168324
2250	0.00153022
2262	0.00107115
2274	0.00122418
2286	0.00175975
2298	0.00122418
2310	0.00183626
2322	0.00183626
2334	0.00145371
2346	0.00298393
2358	0.000535577
2370	0.00390206
2382	0.00306044
2394	0.0013772
2406	0.00130069
2418	0.0013772
2430	0.00122418
2442	0.00145371
2454	0.0013772
2466	0.00145371
2478	0.00160673
2490	0.00145371
2502	0.00107115
2514	0.00198929
2526	0.00260137
2538	0.00260137
2550	0.00267789
2562	0.00214231
2574	0.00283091
2586	0.00306044
2598	0.00405508
2610	0.00420811
2622	0.00527926
2634	0.00535577
2646	0.00612088
2658	0.00635041
2670	0.00581484
2682	0.00642692
2694	0.00703901
2706	0.00749808
2718	0.00788063
2730	0.00795714
2742	0.00849272
2754	0.00872225
2766	0.00979341
2778	0.0114766
2790	0.0149196
2802	0.0187452
2814	0.0249426
2826	0.0335118
2838	0.0547819
2850	0.120428
2862	0.28179
2874	0.241622
2886	0.169701
2898	0.166794
2910	0.254782
2922	0.462509
2934	0.76511
2946	0.524942
2958	0.299541
2970	0.238485
2982	0.118439
2994	0.066029
3006	0.073374
3018	0.094185
3030	0.038485
3042	0.0195103
3054	0.0146901
3066	0.0132364
3078	0.010176
3090	0.0076511
3102	0.00734506
3114	0.0055853
3126	0.00573832
3138	0.00520275
3150	0.00474368
3162	0.00512624
3174	0.00436113
3186	0.00413159
3198	0.00382555
3210	0.00474368
3222	0.00290742
3234	0.00374904
3246	0.00221882
3258	0.0020658
3270	0.00244835
3282	0.0020658
3294	0.00336648
3306	0.00252486
3318	0.00191278
3330	0.00214231
3342	0.00221882
3354	0.00229533
3366	0.00397857
3378	0.00229533
3390	0.00306044
3402	0.0020658
3414	0.00283091
3426	0.00374904
3438	0.00191278
3450	0.00122418
3462	0.00214231
3474	0.00214231
3486	0.00267789
3498	0.00229533
3510	0.00336648
3522	0.00527926
3534	0.00688599
3546	0.0100995
3558	0.0207345
3570	0.0820198
3582	0.0998469
3594	0.024101
3606	0.00895179
3618	0.0048967
3630	0.00612088
3642	0.0048967
3654	0.00619739
3666	0.00351951
3678	0.00474368
3690	0.00382555
3702	0.00405508
3714	0.00451415
3726	0.00260137
3738	0.0027544
3750	0.00313695
3762	0.00114766
3774	0.000535577
3786	0.000612088
3798	7.6511e-05
3810	0.000994643
3822	7.6511e-05
3834	0.00153022
3846	0.0013772
3858	0.00344299
3870	0.00260137
3882	0.00237184
3894	0.00221882
3906	0.00153022
3918	0.00221882
3930	0.00145371
3942	0
3954	0.00153022
3966	0.00229533
