Infrared Spectrum: 1,2-Ethanediamine, N,N'-bis(2-aminoethyl)-
Formula: C 6 H 18 N 4
CAS: 112-24-3
Origin: Sadtler Research Labs Under US-EPA Contract
1/CM	ABSORBANCE
450	0
462	0.0298215
474	0.0428068
486	0.0820315
498	0.0398515
510	0.068061
522	0.0765687
534	0.0500607
546	0.0497025
558	0.0761209
570	0.0686879
582	0.0620609
594	0.0710163
606	0.0678819
618	0.0741507
630	0.0869569
642	0.0966288
654	0.107375
666	0.12851
678	0.149913
690	0.187257
702	0.204183
714	0.237676
726	0.275558
738	0.395739
750	0.410336
762	0.460666
774	0.455293
786	0.383649
798	0.340753
810	0.302782
822	0.240452
834	0.198541
846	0.161197
858	0.141406
870	0.126361
882	0.123943
894	0.115525
906	0.103524
918	0.103972
930	0.112301
942	0.101106
954	0.0944795
966	0.103883
978	0.0951063
990	0.11642
1002	0.157615
1014	0.193795
1026	0.159764
1038	0.158331
1050	0.187974
1062	0.222273
1074	0.219228
1086	0.178571
1098	0.172123
1110	0.212601
1122	0.286931
1134	0.298842
1146	0.282274
1158	0.213318
1170	0.151436
1182	0.109077
1194	0.0731656
1206	0.0539115
1218	0.0554339
1230	0.0833748
1242	0.103256
1254	0.125376
1266	0.133973
1278	0.118301
1290	0.0959123
1302	0.112569
1314	0.139077
1326	0.143645
1338	0.186362
1350	0.216452
1362	0.198004
1374	0.139167
1386	0.107286
1398	0.11454
1410	0.121256
1422	0.103793
1434	0.1346
1446	0.240094
1458	0.342186
1470	0.287021
1482	0.151346
1494	0.085345
1506	0.0532846
1518	0.0371649
1530	0.0267766
1542	0.0231945
1554	0.0279408
1566	0.0338514
1578	0.0376127
1590	0.0583892
1602	0.101106
1614	0.155018
1626	0.197825
1638	0.172481
1650	0.093763
1662	0.045583
1674	0.0294633
1686	0.0301797
1698	0.0244482
1710	0.0246273
1722	0.0233736
1734	0.0228363
1746	0.0216721
1758	0.0209556
1770	0.019881
1782	0.0200601
1794	0.0195228
1806	0.0200601
1818	0.0205079
1830	0.0205079
1842	0.0210452
1854	0.0208661
1866	0.0207765
1878	0.0196123
1890	0.0199705
1902	0.0194332
1914	0.018269
1926	0.0181795
1938	0.0173735
1950	0.0171944
1962	0.0170153
1974	0.0162093
1986	0.0158511
1998	0.0158511
2010	0.0153137
2022	0.0159406
2034	0.0164779
2046	0.0171048
2058	0.0167466
2070	0.0168362
2082	0.0171944
2094	0.0169257
2106	0.0170153
2118	0.0168362
2130	0.0167466
2142	0.0161197
2154	0.0153137
2166	0.0152242
2178	0.01406
2190	0.0133435
2202	0.0126271
2214	0.0130749
2226	0.0131644
2238	0.0138809
2250	0.0142391
2262	0.0145077
2274	0.0154033
2286	0.0163884
2298	0.0189854
2310	0.0208661
2322	0.0216721
2334	0.0202392
2346	0.0226572
2358	0.0226572
2370	0.0222094
2382	0.0219407
2394	0.0196123
2406	0.0197914
2418	0.0210452
2430	0.021493
2442	0.0225676
2454	0.0231049
2466	0.0244482
2478	0.0248065
2490	0.0265975
2502	0.0262393
2514	0.0278513
2526	0.0286573
2538	0.0290155
2550	0.0303588
2562	0.0305379
2574	0.0327768
2586	0.033941
2598	0.0360903
2610	0.039762
2622	0.0446874
2634	0.051404
2646	0.060449
2658	0.0721805
2670	0.0843599
2682	0.0973452
2694	0.10845
2706	0.115883
2718	0.125107
2730	0.145077
2742	0.169436
2754	0.197377
2766	0.233915
2778	0.286841
2790	0.390187
2802	0.57422
2814	0.737477
2826	0.724134
2838	0.639236
2850	0.572698
2862	0.558011
2874	0.563384
2886	0.568757
2898	0.581205
2910	0.639057
2922	0.732641
2934	0.844046
2946	0.876017
2958	0.603236
2970	0.307439
2982	0.159675
2994	0.0908078
3006	0.061434
3018	0.0475532
3030	0.0399411
3042	0.0336723
3054	0.0302693
3066	0.0278513
3078	0.0234631
3090	0.0205974
3102	0.0193437
3114	0.0199705
3126	0.0191646
3138	0.0218512
3150	0.021493
3162	0.0215825
3174	0.0215825
3186	0.020687
3198	0.0212243
3210	0.0231945
3222	0.0257916
3234	0.0312543
3246	0.0372545
3258	0.0420008
3270	0.0469263
3282	0.0500607
3294	0.0504189
3306	0.0483592
3318	0.0474636
3330	0.0541802
3342	0.0623296
3354	0.0553444
3366	0.0466576
3378	0.036538
3390	0.0317917
3402	0.0302693
3414	0.0283886
3426	0.0241796
3438	0.0179108
3450	0.0167466
3462	0.0160302
3474	0.0154033
3486	0.014866
3498	0.0144182
3510	0.0131644
3522	0.0131644
3534	0.0145077
3546	0.014866
3558	0.0151346
3570	0.0163884
3582	0.0147764
3594	0.0151346
3606	0.0144182
3618	0.0142391
3630	0.0151346
3642	0.0138809
3654	0.0137018
3666	0.0152242
3678	0.0137913
3690	0.0122689
3702	0.0141495
3714	0.0133435
3726	0.0139704
3738	0.0128062
3750	0.0114629
3762	0.0125376
3774	0.0128062
3786	0.0120002
3798	0.0129853
3810	0.0142391
3822	0.0129853
3834	0.0129853
3846	0.0134331
3858	0.0112838
3870	0.0128062
3882	0.0154033
3894	0.0136122
3906	0.0139704
3918	0.0170153
3930	0.0149555
3942	0.0147764
3954	0.0176421
3966	0.0171944
