Infrared Spectrum: Pyridine, 3-iodo-
Formula: C 5 H 4 I N
CAS: 1120-90-7
Origin: Sadtler Research Labs Under US-EPA Contract
1/CM	ABSORBANCE
450	0.0250313
462	0.0288522
474	0.000467874
486	0.0344667
498	0.0318934
510	0.0286183
522	0.0329851
534	0.00350906
546	0.0165315
558	0.0201186
570	0.0140362
582	0.0402372
594	0.0456957
606	0.0869466
618	0.0894419
630	0.0304898
642	0.0234717
654	0.0389895
666	0.0424986
678	0.213662
690	0.365098
702	0.339131
714	0.159155
726	0.0753277
738	0.0339988
750	0.040939
762	0.0772772
774	0.186448
786	0.327434
798	0.184966
810	0.0758736
822	0.0280724
834	0.0236276
846	0.0190269
858	0.0173893
870	0.0243294
882	0.0252652
894	0.026123
906	0.018715
918	0.0235497
930	0.033375
942	0.0492047
954	0.048347
966	0.0383657
978	0.055755
990	0.213896
1002	0.77979
1014	0.485185
1026	0.101139
1038	0.074158
1050	0.0219121
1062	0.0696352
1074	0.277683
1086	0.283766
1098	0.0877264
1110	0.0583283
1122	0.0537275
1134	0.0325172
1146	0.0208204
1158	0.0262789
1170	0.0464755
1182	0.0529477
1194	0.0429664
1206	0.0212883
1218	0.0193388
1230	0.0159857
1242	0.0204305
1254	0.0179352
1266	0.0198067
1278	0.0200406
1290	0.0233937
1302	0.0453838
1314	0.0805523
1326	0.081878
1338	0.0456957
1350	0.0468654
1362	0.0545073
1374	0.0605117
1386	0.0721306
1398	0.203837
1410	0.338741
1422	0.126638
1434	0.0365722
1446	0.0569247
1458	0.31371
1470	0.208672
1482	0.0305678
1494	0.0187929
1506	0.0205865
1518	0.0188709
1530	0.0271367
1542	0.0763414
1554	0.141376
1566	0.155022
1578	0.0842953
1590	0.0283064
1602	0.0145041
1614	0.0155958
1626	0.0150499
1638	0.0165315
1650	0.0155958
1662	0.0128665
1674	0.0172334
1686	0.0212883
1698	0.0265908
1710	0.0256551
1722	0.0307237
1734	0.0270587
1746	0.0137243
1758	0.0143481
1770	0.0127106
1782	0.011229
1794	0.0122427
1806	0.0114629
1818	0.0139582
1830	0.0188709
1842	0.0201966
1854	0.022458
1866	0.0219901
1878	0.022224
1890	0.0406271
1902	0.0364162
1914	0.0303338
1926	0.0241735
1938	0.0167655
1950	0.0211323
1962	0.0178572
1974	0.0106051
1986	0.0102932
1998	0.0109171
2010	0.0113849
2022	0.00982535
2034	0.00857769
2046	0.00857769
2058	0.00834375
2070	0.0119308
2082	0.00998131
2094	0.00974738
2106	0.00810982
2118	0.00748598
2130	0.0081878
2142	0.00701811
2154	0.00764194
2166	0.00600438
2178	0.00467874
2190	0.00717407
2202	0.00748598
2214	0.00826577
2226	0.00725205
2238	0.00881163
2250	0.00740801
2262	0.00725205
2274	0.00888961
2286	0.00873365
2298	0.011307
2310	0.0101373
2322	0.011151
2334	0.00764194
2346	0.0125546
2358	0.011151
2370	0.0114629
2382	0.00998131
2394	0.00865567
2406	0.00998131
2418	0.00982535
2430	0.00998131
2442	0.00608236
2454	0.00366501
2466	0.00389895
2478	0.00436682
2490	0.00522459
2502	0.00538055
2514	0.00569247
2526	0.00467874
2538	0.00569247
2550	0.00545853
2562	0.00538055
2574	0.0048347
2586	0.00600438
2598	0.0033531
2610	0.00249533
2622	0.00452278
2634	0.00506864
2646	0.00460076
2658	0.00265129
2670	0.00179352
2682	0.000935748
2694	0.00202745
2706	0.00210543
2718	0.00366501
2730	0.00319714
2742	0.00436682
2754	0.00249533
2766	0.00194948
2778	0.0044448
2790	0.0029632
2802	0.00311916
2814	0.00218341
2826	0.0014816
2838	0.00163756
2850	0.00405491
2862	0.00725205
2874	0.00545853
2886	0.00475672
2898	0.00179352
2910	0.00623832
2922	0.0063163
2934	0.00881163
2946	0.011307
2958	0.0212883
2970	0.0167655
2982	0.0119308
2994	0.0197287
3006	0.0255771
3018	0.0252652
3030	0.0228478
3042	0.142468
3054	0.265752
3066	0.206254
3078	0.153385
3090	0.0494387
3102	0.0262789
3114	0.0248753
3126	0.0272927
3138	0.0137243
3150	0.00857769
3162	0.00616034
3174	0.00514661
3186	0.00467874
3198	0.00436682
3210	0.00608236
3222	0.00382097
3234	0.00803184
3246	0.00553651
3258	0.00623832
3270	0.00358703
3282	0.00506864
3294	0.00662822
3306	0.00678417
3318	0.0105272
3330	0.00717407
3342	0.0063163
3354	0.00491268
3366	0.00608236
3378	0.00678417
3390	0.00756396
3402	0.00545853
3414	0.00545853
3426	0.00655024
3438	0.00600438
3450	0.00795386
3462	0.00608236
3474	0.00553651
3486	0.0059264
3498	0.00140362
3510	0.00514661
3522	0.00499066
3534	0.00522459
3546	0.00491268
3558	0.00834375
3570	0.00530257
3582	0.00257331
3594	0.00616034
3606	0.0044448
3618	0.00413289
3630	0.0033531
3642	0.00194948
3654	0
3666	0.00428885
3678	0.00319714
3690	0.00171554
3702	0.00109171
3714	0.0014816
3726	0.00233937
3738	0.00358703
3750	0.0063163
3762	0.00179352
3774	0.000155958
3786	0
3798	0
3810	0
3822	0
3834	0
3846	0
3858	0
3870	0
3882	0
3894	0
3906	0
3918	0
3930	0
3942	0
3954	0
3966	0
