Infrared Spectrum: 1-Tetradecene
Formula: C 14 H 28
CAS: 1120-36-1
Origin: Sadtler Research Labs Under US-EPA Contract
1/CM	ABSORBANCE
450	0
462	0.0239056
474	0.0249541
486	0.0236959
498	0.0230668
510	0.0285189
522	0.0247444
534	0.024325
546	0.0295674
558	0.0299868
570	0.0310353
582	0.0299868
594	0.0306159
606	0.0283092
618	0.0356487
630	0.0421493
642	0.0452948
654	0.0306159
666	0.0280995
678	0.029148
690	0.029148
702	0.0346002
714	0.0499081
726	0.0522148
738	0.0442463
750	0.0369068
762	0.033342
774	0.0329226
786	0.0327129
798	0.029148
810	0.0295674
822	0.0287286
834	0.031245
846	0.0329226
858	0.0348099
870	0.0411008
882	0.0515857
894	0.0748622
906	0.127916
918	0.160209
930	0.0717167
942	0.0526342
954	0.0473917
966	0.0459239
978	0.0522148
990	0.0834598
1002	0.0712973
1014	0.0494887
1026	0.040262
1038	0.0352293
1050	0.0329226
1062	0.0316644
1074	0.0308256
1086	0.0306159
1098	0.0289383
1110	0.0278898
1122	0.0278898
1134	0.0276801
1146	0.0262122
1158	0.027051
1170	0.0266316
1182	0.0287286
1194	0.0406814
1206	0.0356487
1218	0.031245
1230	0.0318741
1242	0.0320838
1254	0.0335517
1266	0.0356487
1278	0.0387941
1290	0.0446657
1302	0.0515857
1314	0.0494887
1326	0.0467627
1338	0.0551506
1350	0.0729749
1362	0.0681518
1374	0.0595542
1386	0.0578766
1398	0.0425687
1410	0.0438269
1422	0.051376
1434	0.0650064
1446	0.118479
1458	0.16692
1470	0.153289
1482	0.0700391
1494	0.0406814
1506	0.0331323
1518	0.0293577
1530	0.0276801
1542	0.0274704
1554	0.0257929
1566	0.024325
1578	0.0247444
1590	0.0247444
1602	0.0262122
1614	0.0310353
1626	0.0415202
1638	0.0794755
1650	0.0683615
1662	0.0322935
1674	0.0257929
1686	0.0239056
1698	0.0228571
1710	0.0218086
1722	0.0211795
1734	0.0220183
1746	0.0211795
1758	0.0215989
1770	0.0211795
1782	0.0213892
1794	0.022228
1806	0.0234862
1818	0.0274704
1830	0.0356487
1842	0.027051
1854	0.0230668
1866	0.0218086
1878	0.0211795
1890	0.0209698
1902	0.0205504
1914	0.0207601
1926	0.0205504
1938	0.0203407
1950	0.0207601
1962	0.0209698
1974	0.0215989
1986	0.0211795
1998	0.0209698
2010	0.0209698
2022	0.0213892
2034	0.0215989
2046	0.0211795
2058	0.0209698
2070	0.0205504
2082	0.0205504
2094	0.0213892
2106	0.0215989
2118	0.0218086
2130	0.0211795
2142	0.0213892
2154	0.0213892
2166	0.0215989
2178	0.0211795
2190	0.0209698
2202	0.0213892
2214	0.0209698
2226	0.0213892
2238	0.0209698
2250	0.0213892
2262	0.0213892
2274	0.0218086
2286	0.0213892
2298	0.0207601
2310	0.0203407
2322	0.0213892
2334	0.0226474
2346	0.0211795
2358	0.0209698
2370	0.0226474
2382	0.0215989
2394	0.0220183
2406	0.0220183
2418	0.0215989
2430	0.0218086
2442	0.0218086
2454	0.0220183
2466	0.0224377
2478	0.022228
2490	0.0220183
2502	0.0224377
2514	0.0226474
2526	0.0230668
2538	0.0241153
2550	0.0239056
2562	0.0232765
2574	0.0228571
2586	0.024325
2598	0.0257929
2610	0.0274704
2622	0.0278898
2634	0.029148
2646	0.0318741
2658	0.0339711
2670	0.0346002
2682	0.0369068
2694	0.0366971
2706	0.0352293
2718	0.0339711
2730	0.035439
2742	0.0373262
2754	0.0387941
2766	0.0400523
2778	0.0425687
2790	0.0499081
2802	0.0591348
2814	0.0721361
2826	0.0962514
2838	0.143853
2850	0.31245
2862	0.795175
2874	0.610221
2886	0.415202
2898	0.408072
2910	0.650064
2922	1.20786
2934	2.09698
2946	1.25106
2958	0.602882
2970	0.586316
2982	0.297771
2994	0.181808
3006	0.142595
3018	0.101284
3030	0.0750719
3042	0.0637482
3054	0.0608124
3066	0.0723458
3078	0.0998162
3090	0.130222
3102	0.058296
3114	0.0415202
3126	0.0373262
3138	0.0346002
3150	0.0343905
3162	0.0335517
3174	0.0325032
3186	0.0301965
3198	0.0306159
3210	0.0287286
3222	0.0295674
3234	0.029148
3246	0.0283092
3258	0.0276801
3270	0.0247444
3282	0.0253735
3294	0.0251638
3306	0.0251638
3318	0.0257929
3330	0.024325
3342	0.024325
3354	0.0260026
3366	0.024325
3378	0.0257929
3390	0.0249541
3402	0.0245347
3414	0.0245347
3426	0.0264219
3438	0.022228
3450	0.0232765
3462	0.024325
3474	0.0236959
3486	0.0264219
3498	0.0213892
3510	0.0234862
3522	0.0239056
3534	0.0205504
3546	0.0239056
3558	0.0215989
3570	0.0218086
3582	0.0239056
3594	0.0245347
3606	0.0257929
3618	0.0255832
3630	0.0239056
3642	0.0245347
3654	0.0268413
3666	0.0257929
3678	0.0247444
3690	0.0249541
3702	0.0241153
3714	0.0251638
3726	0.0260026
3738	0.024325
3750	0.0247444
3762	0.0249541
3774	0.0297771
3786	0.0255832
3798	0.0262122
3810	0.0249541
3822	0.0264219
3834	0.0301965
3846	0.0245347
3858	0.0278898
3870	0.027051
3882	0.0289383
3894	0.0283092
3906	0.0278898
3918	0.0283092
3930	0.0251638
3942	0.0325032
3954	0.0268413
3966	0.0295674
