Infrared Spectrum: Undecane
Formula: C 11 H 24
CAS: 1120-21-4
Origin: Sadtler Research Labs Under US-EPA Contract
1/CM	ABSORBANCE
450	0.00512511
462	0.0060344
474	0.00644771
486	0.00810097
498	0.0082663
510	0.00851429
522	0.00818364
534	0.00636505
546	0.0089276
558	0.00636505
570	0.00644771
582	0.00479445
594	0.0128954
606	0.00735701
618	0.00529043
630	0.00570375
642	0.00619973
654	0.00570375
666	0.00619973
678	0.00562108
690	0.00628239
702	0.0105809
714	0.0153753
726	0.015954
738	0.0119861
750	0.0100022
762	0.00876228
774	0.00710902
786	0.0053731
798	0.0044638
810	0.00338918
822	0.00314119
834	0.00347185
846	0.00272788
858	0.00256255
870	0.00330652
882	0.00281054
894	0.00388516
906	0.00347185
918	0.00247989
930	0.00281054
942	0.00239723
954	0.0022319
966	0.00214924
978	0.00190125
990	0.00190125
1002	0.00247989
1014	0.00281054
1026	0.00272788
1038	0.00231456
1050	0.00181859
1062	0.00264522
1074	0.00338918
1086	0.00289321
1098	0.00231456
1110	0.00181859
1122	0.00231456
1134	0.00247989
1146	0.00214924
1158	0.00173592
1170	0.0022319
1182	0.00264522
1194	0.00264522
1206	0.00272788
1218	0.00314119
1230	0.00314119
1242	0.00363717
1254	0.00454647
1266	0.00562108
1278	0.0066957
1290	0.00909293
1302	0.0109942
1314	0.0110768
1326	0.00909293
1338	0.0140527
1350	0.0192605
1362	0.0184338
1374	0.0197565
1386	0.0262042
1398	0.0119861
1410	0.00901027
1422	0.0089276
1434	0.014466
1446	0.0331479
1458	0.0634852
1470	0.0700156
1482	0.0300893
1494	0.0111595
1506	0.00719168
1518	0.00504244
1530	0.00388516
1542	0.00297587
1554	0.00297587
1566	0.00264522
1578	0.00231456
1590	0.00239723
1602	0.00239723
1614	0.00231456
1626	0.00214924
1638	0.00173592
1650	0.00231456
1662	0.00239723
1674	0.00206658
1686	0.00165326
1698	0.00173592
1710	0.00165326
1722	0.00173592
1734	0.00173592
1746	0.00165326
1758	0.00165326
1770	0.00165326
1782	0.00181859
1794	0.0015706
1806	0.0015706
1818	0.00173592
1830	0.0015706
1842	0.00173592
1854	0.0015706
1866	0.00198391
1878	0.00140527
1890	0.00173592
1902	0.00198391
1914	0.00148793
1926	0.00198391
1938	0.00165326
1950	0.00140527
1962	0.00190125
1974	0.00132261
1986	0.00181859
1998	0.00181859
2010	0.00132261
2022	0.00173592
2034	0.00214924
2046	0.00231456
2058	0.00165326
2070	0.00247989
2082	0.00272788
2094	0.00264522
2106	0.00214924
2118	0.0015706
2130	0.00198391
2142	0.00206658
2154	0.00206658
2166	0.00198391
2178	0.00206658
2190	0.00190125
2202	0.00198391
2214	0.0022319
2226	0.00198391
2238	0.00198391
2250	0.00190125
2262	0.00148793
2274	0.00181859
2286	0.00214924
2298	0.00305853
2310	0.00405049
2322	0.00413315
2334	0.00214924
2346	0.00107462
2358	0.00396782
2370	0.00107462
2382	0.00107462
2394	0.0015706
2406	0.00214924
2418	0.00198391
2430	0.00107462
2442	0.00107462
2454	0.00107462
2466	0.00107462
2478	0.00107462
2490	0.00107462
2502	0.00148793
2514	0.00148793
2526	0.00190125
2538	0.00214924
2550	0.00148793
2562	0.00190125
2574	0.00289321
2586	0.00347185
2598	0.00322386
2610	0.00272788
2622	0.00330652
2634	0.00471179
2646	0.00487712
2658	0.00653038
2670	0.00958891
2682	0.00958891
2694	0.00793565
2706	0.00628239
2718	0.00644771
2730	0.00702636
2742	0.00909293
2754	0.00818364
2766	0.00843163
2778	0.00934092
2790	0.0130608
2802	0.0163673
2814	0.0221537
2826	0.0315773
2838	0.0492671
2850	0.126888
2862	0.327924
2874	0.286593
2886	0.217404
2898	0.179957
2910	0.271135
2922	0.549544
2934	0.82663
2946	0.536483
2958	0.331479
2970	0.420176
2982	0.158465
2994	0.0620799
3006	0.0369504
3018	0.0253775
3030	0.0181032
3042	0.0143007
3054	0.0109942
3066	0.00801831
3078	0.00694369
3090	0.00661304
3102	0.00595174
3114	0.00545576
3126	0.0044638
3138	0.00413315
3150	0.00388516
3162	0.00529043
3174	0.00529043
3186	0.00454647
3198	0.00396782
3210	0.00330652
3222	0.00281054
3234	0.00330652
3246	0.00247989
3258	0.00231456
3270	0.00322386
3282	0.00314119
3294	0.00214924
3306	0.00206658
3318	0.00148793
3330	0.00148793
3342	0.00181859
3354	0.00206658
3366	0.00281054
3378	0.00140527
3390	0.00297587
3402	0.00140527
3414	0.00140527
3426	0.00281054
3438	0.00239723
3450	0.00297587
3462	0.00264522
3474	0.00206658
3486	0.0022319
3498	0.00165326
3510	0.00181859
3522	0.00214924
3534	0.00165326
3546	0.00206658
3558	0.00190125
3570	0.00305853
3582	0.00289321
3594	0.00297587
3606	0.0038025
3618	0.00264522
3630	0.00247989
3642	0.00338918
3654	0.00148793
3666	0.00289321
3678	0.00190125
3690	0.00322386
3702	0.00396782
3714	0.00165326
3726	0.00289321
3738	0.00231456
3750	0.00206658
3762	0.00165326
3774	0.0022319
3786	0.00272788
3798	0.00256255
3810	0.00322386
3822	0.00239723
3834	0.00239723
3846	0.00272788
3858	0.0022319
3870	0.00289321
3882	0.00347185
3894	0.00305853
3906	0.00198391
3918	0.00322386
3930	0.00371984
3942	0.00338918
3954	0.00347185
3966	0.00281054
