Infrared Spectrum: 1,3-Dioxane, 4-methyl-
Formula: C 5 H 10 O 2
CAS: 1120-97-4
Origin: Sadtler Research Labs Under US-EPA Contract
1/CM	ABSORBANCE
450	0
462	0.00537624
474	0.00792288
486	0.0121673
498	0.0189017
510	0.0216181
522	0.0144876
534	0.00820584
546	0.00509328
558	0.00696082
570	0.007074
582	0.00730037
594	0.00809266
606	0.00882835
618	0.00679104
630	0.0106959
642	0.00797947
654	0.0114316
666	0.0194676
678	0.0229198
690	0.0165815
702	0.00690422
714	0.00797947
726	0.00758333
738	0.00956405
750	0.00747014
762	0.00956405
774	0.0115448
786	0.0200902
798	0.0315217
810	0.0315217
822	0.0193545
834	0.0176001
846	0.0395578
858	0.0663258
870	0.0755503
882	0.0445945
894	0.0211088
906	0.0118277
918	0.0139216
930	0.0275037
942	0.0496878
954	0.0736828
966	0.0949048
978	0.125804
990	0.134802
1002	0.136387
1014	0.0486691
1026	0.0994887
1038	0.347475
1050	0.56592
1062	0.404689
1074	0.0711361
1086	0.0477636
1098	0.0754937
1110	0.130162
1122	0.204127
1134	0.218728
1146	0.164683
1158	0.198072
1170	0.232819
1182	0.31618
1194	0.248552
1206	0.201977
1218	0.0877742
1230	0.062138
1242	0.0810397
1254	0.075041
1266	0.0367282
1278	0.0157892
1290	0.0195808
1302	0.0208259
1314	0.0219577
1326	0.0230895
1338	0.028013
1350	0.0419347
1362	0.0769651
1374	0.103563
1386	0.100904
1398	0.100621
1410	0.0474241
1422	0.0318047
1434	0.0315783
1446	0.0371244
1458	0.0340118
1470	0.0392183
1482	0.0349173
1494	0.0202033
1506	0.0108091
1518	0.00786629
1530	0.00724378
1542	0.00673445
1554	0.00718718
1566	0.00718718
1578	0.00650808
1590	0.00701741
1602	0.00718718
1614	0.00758333
1626	0.007074
1638	0.00792288
1650	0.00797947
1662	0.00888494
1674	0.00860198
1686	0.00735696
1698	0.00684763
1710	0.00741355
1722	0.00882835
1734	0.00820584
1746	0.0102432
1758	0.00911131
1770	0.00730037
1782	0.00724378
1794	0.00662126
1806	0.007074
1818	0.00701741
1830	0.00730037
1842	0.00769651
1854	0.00797947
1866	0.00684763
1878	0.0063383
1890	0.007074
1902	0.00933768
1914	0.0118843
1926	0.0118843
1938	0.00962064
1950	0.00730037
1962	0.00724378
1974	0.00769651
1986	0.00814925
1998	0.00871517
2010	0.00809266
2022	0.00803606
2034	0.00803606
2046	0.00797947
2058	0.00803606
2070	0.00752674
2082	0.00837562
2094	0.00939427
2106	0.00871517
2118	0.00679104
2130	0.0063383
2142	0.00622512
2154	0.00747014
2166	0.00826243
2178	0.00769651
2190	0.00662126
2202	0.00605534
2214	0.00560261
2226	0.00605534
2238	0.00605534
2250	0.00548942
2262	0.00611194
2274	0.0056592
2286	0.00594216
2298	0.0063949
2310	0.00594216
2322	0.00690422
2334	0.0077531
2346	0.00831902
2358	0.00882835
2370	0.00679104
2382	0.00577238
2394	0.00611194
2406	0.00560261
2418	0.00560261
2430	0.00577238
2442	0.00611194
2454	0.00611194
2466	0.00503669
2478	0.00435758
2490	0.00413122
2502	0.00435758
2514	0.00441418
2526	0.0049235
2538	0.00548942
2550	0.0063949
2562	0.00809266
2574	0.00803606
2586	0.00792288
2598	0.00758333
2610	0.00814925
2622	0.0101866
2634	0.0129596
2646	0.0167512
2658	0.0168078
2670	0.0183924
2682	0.0162985
2694	0.0173172
2706	0.0215616
2718	0.0274471
2730	0.0292015
2742	0.0389353
2754	0.0629869
2766	0.0820584
2778	0.103224
2790	0.0656467
2802	0.041199
2814	0.0555168
2826	0.120371
2838	0.252117
2850	0.314765
2862	0.246119
2874	0.136613
2886	0.0565354
2898	0.0437456
2910	0.0632699
2922	0.104356
2934	0.156251
2946	0.162815
2958	0.165701
2970	0.195356
2982	0.265134
2994	0.243063
3006	0.156194
3018	0.107072
3030	0.0293712
3042	0.00763992
3054	0.00594216
3066	0.00537624
3078	0.0063383
3090	0.00690422
3102	0.00701741
3114	0.0063949
3126	0.00605534
3138	0.00599875
3150	0.00514987
3162	0.00543283
3174	0.00554602
3186	0.00650808
3198	0.00701741
3210	0.00605534
3222	0.00548942
3234	0.00469714
3246	0.00503669
3258	0.00458395
3270	0.00401803
3282	0.00418781
3294	0.00514987
3306	0.00447077
3318	0.00413122
3330	0.00407462
3342	0.00469714
3354	0.00464054
3366	0.00418781
3378	0.00469714
3390	0.0042444
3402	0.0042444
3414	0.00418781
3426	0.00418781
3438	0.00475373
3450	0.00418781
3462	0.0042444
3474	0.00418781
3486	0.0042444
3498	0.00475373
3510	0.00447077
3522	0.00430099
3534	0.00430099
3546	0.00430099
3558	0.00430099
3570	0.00464054
3582	0.00430099
3594	0.00379166
3606	0.0042444
3618	0.00413122
3630	0.00413122
3642	0.00435758
3654	0.00390485
3666	0.00441418
3678	0.00407462
3690	0.00441418
3702	0.00435758
3714	0.00441418
3726	0.00447077
3738	0.00447077
3750	0.00396144
3762	0.00396144
3774	0.00458395
3786	0.00447077
3798	0.00447077
3810	0.00447077
3822	0.00447077
3834	0.00447077
3846	0.00475373
3858	0.00447077
3870	0.00464054
3882	0.00458395
3894	0.00514987
3906	0.00469714
3918	0.00413122
3930	0.00464054
3942	0.00469714
3954	0.00367848
3966	0.00373507
