Infrared Spectrum: 1-Octanamine, n-octyl-
Formula: C 16 H 35 N
CAS: 1120-48-5
Origin: Sadtler Research Labs Under US-EPA Contract
1/CM	ABSORBANCE
450	0.0361965
462	0.0243744
474	0.0245114
486	0.00584256
498	0.0221835
510	0.016067
522	0.0229594
534	0.017619
546	0.0120959
558	0.0213619
570	0.0121872
582	0.0115025
594	0.0155649
606	0.0136022
618	0.0164778
630	0.0131914
642	0.0106353
654	0.0157932
666	0.0199012
678	0.0131458
690	0.0124154
702	0.0172082
714	0.0187145
726	0.0155193
738	0.00063903
750	0.00981368
762	0.0118677
774	0.00305821
786	0.00757707
798	0.00689239
810	0.0120046
822	0.0124611
834	0.0108635
846	0.0130545
858	0.0107266
870	0.0123242
882	0.0145608
894	0.0105896
906	0.00999626
918	0.012598
930	0.00871819
942	0.0103158
954	0.00958545
966	0.0134196
978	0.00981368
990	0.0104527
1002	0.0104527
1014	0.0124611
1026	0.0138304
1038	0.0184862
1050	0.0178928
1062	0.0179841
1074	0.0185775
1086	0.019673
1098	0.0209511
1110	0.0195817
1122	0.0409892
1134	0.0606166
1146	0.0422216
1158	0.0198556
1170	0.0168887
1182	0.0199469
1194	0.023781
1206	0.0219552
1218	0.0153367
1230	0.0148346
1242	0.0176646
1254	0.0167517
1266	0.0183949
1278	0.020312
1290	0.0190796
1302	0.0198556
1314	0.0200382
1326	0.019034
1338	0.0246483
1350	0.0290302
1362	0.029578
1374	0.0253786
1386	0.0220009
1398	0.0133283
1410	0.00976803
1422	0.00990496
1434	0.017482
1446	0.0306734
1458	0.0496161
1470	0.0463753
1482	0.0265197
1494	0.0137848
1506	0.00953981
1518	0.00835303
1530	0.00917465
1542	0.00885513
1554	0.00967674
1566	0.00867255
1578	0.00520353
1590	0.0054774
1602	0.00529482
1614	0.00520353
1626	0.00698368
1638	0.00552304
1650	0.00511224
1662	0.00744014
1674	0.00716626
1686	0.00657288
1698	0.0063903
1710	0.00803352
1722	0.0073032
1734	0.00894642
1746	0.0122785
1758	0.0149716
1770	0.0130088
1782	0.00999626
1794	0.00712062
1806	0.00488402
1818	0.00451886
1830	0.00438192
1842	0.00520353
1854	0.00497531
1866	0.00419934
1878	0.00410805
1890	0.00369725
1902	0.00383418
1914	0.00442757
1926	0.00328644
1938	0.00342338
1950	0.00351467
1962	0.00360596
1974	0.00337773
1986	0.00333209
1998	0.00342338
2010	0.00301257
2022	0.00374289
2034	0.0036516
2046	0.00346902
2058	0.00305821
2070	0.0031495
2082	0.00337773
2094	0.00337773
2106	0.00269306
2118	0.00278435
2130	0.00269306
2142	0.00278435
2154	0.00246483
2166	0.00296693
2178	0.00232789
2190	0.00214532
2202	0.00219096
2214	0.00187145
2226	0.00173451
2238	0.00214532
2250	0.00164322
2262	0.00223661
2274	0.00164322
2286	0.00260177
2298	0.00241918
2310	0.00278435
2322	0.00146064
2334	0.00036516
2346	0.00150629
2358	0.00305821
2370	0.00136935
2382	0.00374289
2394	0.00278435
2406	0.00278435
2418	0.00333209
2430	0.00374289
2442	0.00401676
2454	0.00401676
2466	0.00369725
2478	0.00387982
2490	0.00451886
2502	0.00492966
2514	0.00511224
2526	0.00520353
2538	0.00483837
2550	0.00447321
2562	0.0050666
2574	0.00593385
2586	0.00593385
2598	0.00561433
2610	0.00483837
2622	0.00479273
2634	0.0040624
2646	0.00479273
2658	0.00433627
2670	0.00502095
2682	0.00570562
2694	0.00625337
2706	0.00593385
2718	0.00575127
2730	0.00693804
2742	0.00862691
2754	0.00894642
2766	0.00716626
2778	0.00853561
2790	0.0159758
2802	0.0359226
2814	0.059019
2826	0.0606622
2838	0.0526743
2850	0.0649072
2862	0.170028
2874	0.152683
2886	0.124885
2898	0.103979
2910	0.143006
2922	0.245114
2934	0.45645
2946	0.302261
2958	0.140358
2970	0.172812
2982	0.0622141
2994	0.0221378
3006	0.0108179
3018	0.00666417
3030	0.00538611
3042	0.00465579
3054	0.00433627
3066	0.00470144
3078	0.00461015
3090	0.0050666
3102	0.00492966
3114	0.00447321
3126	0.00209967
3138	0.00191709
3150	0.00191709
3162	0.00205403
3174	0.00255612
3186	0.00241918
3198	0.0036516
3210	0.00356031
3222	0.00264741
3234	0.00328644
3246	0.00251047
3258	0.00269306
3270	0.00310386
3282	0.00255612
3294	0.00342338
3306	0.00191709
3318	0.00305821
3330	0.00260177
3342	0.00269306
3354	0.00342338
3366	0.0031495
3378	0.00324079
3390	0.00269306
3402	0.00205403
3414	0.00287564
3426	0.00251047
3438	0.00232789
3450	0.00269306
3462	0.00255612
3474	0.00264741
3486	0.00241918
3498	0.00282999
3510	0.00342338
3522	0.00232789
3534	0.00255612
3546	0.00305821
3558	0.00351467
3570	0.00415369
3582	0.00287564
3594	0.00310386
3606	0.00301257
3618	0.00397111
3630	0.00264741
3642	0.00492966
3654	0.0045645
3666	0.0040624
3678	0.00565998
3690	0.00150629
3702	0.00534046
3714	0.00269306
3726	0.00579691
3738	0.0036516
3750	0.00251047
3762	0.00429063
3774	0.00543175
3786	0.00465579
3798	0.00205403
3810	0.00552304
3822	0.00511224
3834	0.00419934
3846	0.00278435
3858	0.00488402
3870	0.00378853
3882	0.00634466
3894	0.00492966
3906	0.00447321
3918	0.00410805
3930	0.00424498
3942	0.00579691
3954	0.0059795
3966	0.00470144
