Infrared Spectrum: di-n-Decylamine
Formula: C 20 H 43 N
CAS: 1120-49-6
Origin: Sadtler Research Labs Under US-EPA Contract
1/CM	ABSORBANCE
450	0.00404646
462	0.0172894
474	0.0191287
486	0.0186382
498	0.00208454
510	0.00907388
522	0.0188835
534	0.0165537
546	0.0150823
558	0.0170442
570	0.0134882
582	0.0153275
594	0.0141013
606	0.015818
618	0.0175347
630	0.0213359
642	0.0251371
654	0.0278347
666	0.0326169
678	0.0354372
690	0.0415682
702	0.039361
714	0.050029
726	0.0456146
738	0.043898
750	0.037767
762	0.0282026
774	0.0268538
786	0.023543
798	0.0228073
810	0.0156954
822	0.0186382
834	0.0152049
846	0.0098096
858	0.0107906
870	0.0111584
882	0.0117715
894	0.0156954
906	0.0127525
918	0.0127525
930	0.0121394
942	0.00944174
954	0.0117715
966	0.00833816
978	0.00895126
990	0.0105453
1002	0.013243
1014	0.0141013
1026	0.0167989
1038	0.0201097
1050	0.0237883
1062	0.0322491
1074	0.0309002
1086	0.0218264
1098	0.0247692
1110	0.036786
1122	0.0571409
1134	0.086815
1146	0.0517456
1158	0.0246466
1170	0.0203549
1182	0.0160632
1194	0.0198644
1206	0.0221942
1218	0.0204775
1230	0.0203549
1242	0.0179025
1254	0.0133656
1266	0.00833816
1278	0.0085834
1290	0.014837
1302	0.0212133
1314	0.025505
1326	0.0268538
1338	0.0392384
1350	0.0519909
1362	0.0513778
1374	0.043898
1386	0.0370312
1398	0.0210906
1410	0.018393
1422	0.0234204
1434	0.0408325
1446	0.0777411
1458	0.127402
1470	0.111094
1482	0.0475766
1494	0.0234204
1506	0.0180251
1518	0.0111584
1530	0.00588576
1542	0.00723458
1554	0.00539528
1566	0.00465956
1578	0.00404646
1590	0.00539528
1602	0.006131
1614	0.00527266
1626	0.0036786
1638	0.0055179
1650	0.00649886
1662	0.00196192
1674	0.00380122
1686	0.00318812
1698	0.00159406
1710	0.00208454
1722	0.00171668
1734	0.00159406
1746	0.00282026
1758	0.00355598
1770	0.00269764
1782	0.00294288
1794	0.00232978
1806	0.00318812
1818	0.00355598
1830	0.0018393
1842	0.00282026
1854	0.00220716
1866	0.0042917
1878	0.00257502
1890	0.00171668
1902	0.00208454
1914	0.00110358
1926	0.0018393
1938	0.00220716
1950	0.00269764
1962	0.00134882
1974	0.00049048
1986	0.0012262
1998	0.00171668
2010	0.0018393
2022	0.00220716
2034	0.0030655
2046	0.00294288
2058	0.00232978
2070	0.00269764
2082	0.00232978
2094	0.00171668
2106	0.00196192
2118	0.0018393
2130	0.00134882
2142	0.00196192
2154	0.0018393
2166	0.00147144
2178	0.00232978
2190	0.00232978
2202	0.00208454
2214	0.00196192
2226	0.00110358
2238	0.00232978
2250	0.00232978
2262	0.00294288
2274	0.00269764
2286	0.00220716
2298	0.00331074
2310	0.00220716
2322	0.00318812
2334	0.00404646
2346	0.00380122
2358	0.00453694
2370	0.00282026
2382	0.00392384
2394	0.00416908
2406	0.00527266
2418	0.0055179
2430	0.0055179
2442	0.00527266
2454	0.00539528
2466	0.0055179
2478	0.00539528
2490	0.0055179
2502	0.00600838
2514	0.00576314
2526	0.00698934
2538	0.0073572
2550	0.00760244
2562	0.00833816
2574	0.00882864
2586	0.00956436
2598	0.0110358
2610	0.0123846
2622	0.0126299
2634	0.0145918
2646	0.0165537
2658	0.0188835
2670	0.0212133
2682	0.0230526
2694	0.0244014
2706	0.0240335
2718	0.0258728
2730	0.0278347
2742	0.0313907
2754	0.0344562
2766	0.0369086
2778	0.0435301
2790	0.0606969
2802	0.0923329
2814	0.129119
2826	0.134759
2838	0.139664
2850	0.241684
2862	0.478586
2874	0.360993
2886	0.285827
2898	0.296495
2910	0.44928
2922	0.801567
2934	1.2262
2946	0.733145
2958	0.390667
2970	0.347873
2982	0.1507
2994	0.0746756
3006	0.0481897
3018	0.0354372
3030	0.0268538
3042	0.0208454
3054	0.0167989
3066	0.0141013
3078	0.0116489
3090	0.0111584
3102	0.00993222
3114	0.0079703
3126	0.00772506
3138	0.00760244
3150	0.00649886
3162	0.00686672
3174	0.00576314
3186	0.00625362
3198	0.00564052
3210	0.00478218
3222	0.0042917
3234	0.00392384
3246	0.00392384
3258	0.00392384
3270	0.0036786
3282	0.00282026
3294	0.00331074
3306	0.00318812
3318	0.00392384
3330	0.0030655
3342	0.00392384
3354	0.00453694
3366	0.00416908
3378	0.00392384
3390	0.00318812
3402	0.0036786
3414	0.00343336
3426	0.00355598
3438	0.0036786
3450	0.0036786
3462	0.00282026
3474	0.00282026
3486	0.00318812
3498	0.0024524
3510	0.00282026
3522	0.00380122
3534	0.00355598
3546	0.00331074
3558	0.00282026
3570	0.0036786
3582	0.00220716
3594	0.00392384
3606	0.00343336
3618	0.00269764
3630	0.00392384
3642	0.00404646
3654	0.00576314
3666	0.00196192
3678	0.00515004
3690	0.00478218
3702	0.0030655
3714	0.00380122
3726	0.0042917
3738	0.00392384
3750	0.00453694
3762	0.00355598
3774	0.00343336
3786	0.00257502
3798	0.00416908
3810	0.00269764
3822	0.0105453
3834	0.0055179
3846	0.00331074
3858	0.00625362
3870	0.00821554
3882	0.00343336
3894	0.00294288
3906	0.00600838
3918	0.00318812
3930	0.00416908
3942	0.0055179
3954	0.0012262
3966	0.00600838
