Infrared Spectrum: 2-Decanol
Formula: C 10 H 22 O
CAS: 1120-06-5
Origin: Sadtler Research Labs Under US-EPA Contract
1/CM	ABSORBANCE
450	0
462	0.0288299
474	0.0329485
486	0.0281137
498	0.0299044
510	0.0247114
522	0.0229207
534	0.0299044
546	0.0256067
558	0.0230998
570	0.0216672
582	0.0234579
594	0.0266811
606	0.0261439
618	0.0259649
630	0.026323
642	0.0252486
654	0.026323
666	0.0268602
678	0.0257858
690	0.0288299
702	0.0329485
714	0.047274
726	0.0508553
738	0.0402903
750	0.0358136
762	0.0354555
774	0.0358136
786	0.0309788
798	0.0359927
810	0.0365299
822	0.0410066
834	0.0481693
846	0.0504972
858	0.0470949
870	0.0436926
882	0.0449461
894	0.0524669
906	0.0633901
918	0.0721644
930	0.09222
942	0.110485
954	0.0834457
966	0.0667924
978	0.065897
990	0.0750295
1002	0.0923991
1014	0.103859
1026	0.101173
1038	0.10368
1050	0.125169
1062	0.144329
1074	0.150954
1086	0.162057
1098	0.17477
1110	0.150238
1122	0.139136
1134	0.150059
1146	0.129108
1158	0.0893549
1170	0.0768202
1182	0.0786109
1194	0.0773574
1206	0.0802225
1218	0.0889968
1230	0.106904
1242	0.132331
1254	0.125527
1266	0.0968758
1278	0.0829085
1290	0.0769992
1302	0.076462
1314	0.0746714
1326	0.0730597
1338	0.0891759
1350	0.115678
1362	0.134122
1374	0.180501
1386	0.208972
1398	0.137345
1410	0.0891759
1422	0.0692993
1434	0.076283
1446	0.114962
1458	0.178531
1470	0.172263
1482	0.0846992
1494	0.0465577
1506	0.0376043
1518	0.0322322
1530	0.0273974
1542	0.0284718
1554	0.0261439
1566	0.0245323
1578	0.0256067
1590	0.023816
1602	0.023816
1614	0.0245323
1626	0.0225626
1638	0.0243532
1650	0.0227416
1662	0.0227416
1674	0.0229207
1686	0.0247114
1698	0.023637
1710	0.0222044
1722	0.0218463
1734	0.0225626
1746	0.0223835
1758	0.0218463
1770	0.0234579
1782	0.0223835
1794	0.0220254
1806	0.0225626
1818	0.0218463
1830	0.0218463
1842	0.0216672
1854	0.020951
1866	0.0216672
1878	0.0220254
1890	0.0220254
1902	0.0218463
1914	0.0214882
1926	0.0218463
1938	0.0223835
1950	0.020951
1962	0.02113
1974	0.020951
1986	0.0205928
1998	0.020951
2010	0.02113
2022	0.02113
2034	0.0220254
2046	0.0222044
2058	0.0213091
2070	0.02113
2082	0.02113
2094	0.02113
2106	0.020951
2118	0.020951
2130	0.0207719
2142	0.0213091
2154	0.02113
2166	0.0213091
2178	0.0214882
2190	0.0220254
2202	0.0222044
2214	0.0220254
2226	0.0218463
2238	0.0216672
2250	0.0214882
2262	0.0222044
2274	0.0214882
2286	0.0207719
2298	0.0204138
2310	0.0196975
2322	0.0216672
2334	0.0230998
2346	0.0207719
2358	0.0234579
2370	0.0207719
2382	0.020951
2394	0.0227416
2406	0.0234579
2418	0.0234579
2430	0.0239951
2442	0.023816
2454	0.0234579
2466	0.0232788
2478	0.0234579
2490	0.023816
2502	0.0239951
2514	0.0247114
2526	0.0252486
2538	0.0256067
2550	0.0259649
2562	0.0259649
2574	0.0268602
2586	0.0281137
2598	0.0288299
2610	0.0307997
2622	0.0327694
2634	0.0340229
2646	0.0363508
2658	0.039395
2670	0.0404694
2682	0.0411856
2694	0.0411856
2706	0.0386787
2718	0.0383206
2730	0.0408275
2742	0.0433345
2754	0.0429763
2766	0.0440507
2778	0.0458414
2790	0.0521088
2802	0.0617785
2814	0.0757458
2826	0.0984874
2838	0.141822
2850	0.290986
2862	0.65521
2874	0.66094
2886	0.52843
2898	0.450893
2910	0.635333
2922	1.12491
2934	1.79068
2946	1.25491
2958	0.734
2970	0.894087
2982	0.545978
2994	0.215061
3006	0.109052
3018	0.0739551
3030	0.0585552
3042	0.0497809
3054	0.0429763
3066	0.0388578
3078	0.036888
3090	0.0347392
3102	0.0324113
3114	0.0320532
3126	0.0300834
3138	0.0295462
3150	0.0304416
3162	0.0293672
3174	0.0291881
3186	0.0295462
3198	0.029009
3210	0.0281137
3222	0.0270393
3234	0.0252486
3246	0.0239951
3258	0.0241742
3270	0.0229207
3282	0.0222044
3294	0.020951
3306	0.0205928
3318	0.0216672
3330	0.0218463
3342	0.020951
3354	0.0200556
3366	0.0222044
3378	0.0223835
3390	0.0227416
3402	0.0216672
3414	0.023816
3426	0.0252486
3438	0.0241742
3450	0.0245323
3462	0.0247114
3474	0.0254277
3486	0.0248905
3498	0.0239951
3510	0.0245323
3522	0.0247114
3534	0.0247114
3546	0.0257858
3558	0.023816
3570	0.0270393
3582	0.0243532
3594	0.0273974
3606	0.0277555
3618	0.0322322
3630	0.0445879
3642	0.0585552
3654	0.0952642
3666	0.0735969
3678	0.0449461
3690	0.0307997
3702	0.0286509
3714	0.0297253
3726	0.0268602
3738	0.0306206
3750	0.0295462
3762	0.0284718
3774	0.0259649
3786	0.0293672
3798	0.0257858
3810	0.0291881
3822	0.0306206
3834	0.0282927
3846	0.0279346
3858	0.0325904
3870	0.0243532
3882	0.0307997
3894	0.0277555
3906	0.0293672
3918	0.0307997
3930	0.0288299
3942	0.0293672
3954	0.0232788
3966	0.0324113
