Infrared Spectrum: 2H-Pyran-2-one, tetrahydro-4-methyl-
Formula: C 6 H 10 O 2
CAS: 1121-84-2
Origin: Sadtler Research Labs Under US-EPA Contract
1/CM	ABSORBANCE
450	0.0106096
462	0.00936144
474	0.0180988
486	0.00265241
498	0.0121699
510	0.0238717
522	0.0215313
534	0.019659
546	0.0188789
558	0.0190349
570	0.0251199
582	0.0288644
594	0.0254319
606	0.0202831
618	0.0163825
630	0.0188789
642	0.0209072
654	0.0218434
666	0.019815
678	0.0190349
690	0.0215313
702	0.0188789
714	0.0160705
726	0.0143542
738	0.0166946
750	0.0248078
762	0.0321409
774	0.0471192
786	0.0510198
798	0.0360415
810	0.0511759
822	0.0614735
834	0.0408783
846	0.0218434
858	0.0174747
870	0.0216873
882	0.0315168
894	0.0361976
906	0.0491476
918	0.0443108
930	0.0223114
942	0.019503
954	0.0213753
966	0.0274602
978	0.0408783
990	0.0672463
1002	0.0697427
1014	0.0505518
1026	0.0514879
1038	0.0661542
1050	0.0903379
1062	0.160081
1074	0.303155
1086	0.415804
1098	0.3885
1110	0.239653
1122	0.131684
1134	0.174435
1146	0.232632
1158	0.226079
1170	0.159613
1182	0.132308
1194	0.162421
1206	0.302843
1218	0.447633
1230	0.424697
1242	0.294729
1254	0.2888
1266	0.23466
1278	0.12794
1290	0.102976
1302	0.0753596
1314	0.0653741
1326	0.0625656
1338	0.0725512
1350	0.0762957
1362	0.065062
1374	0.0805084
1386	0.129032
1398	0.143386
1410	0.0987632
1422	0.0533602
1434	0.065062
1446	0.0797283
1458	0.0878415
1470	0.0762957
1482	0.0614735
1494	0.0439988
1506	0.0273042
1518	0.0174747
1530	0.0134181
1542	0.0162265
1554	0.0135741
1566	0.0113898
1578	0.0106096
1590	0.013262
1602	0.012794
1614	0.0138861
1626	0.0174747
1638	0.0146663
1650	0.0152904
1662	0.0165385
1674	0.0201271
1686	0.026212
1698	0.0312048
1710	0.0355735
1722	0.0541403
1734	0.0823807
1746	0.118266
1758	0.321565
1770	1.16097
1782	1.54011
1794	0.868586
1806	0.224987
1818	0.0728632
1830	0.0416584
1842	0.0290205
1854	0.0226235
1866	0.0209072
1878	0.0182548
1890	0.0163825
1902	0.0135741
1914	0.012794
1926	0.00982951
1938	0.00811325
1950	0.00670903
1962	0.00764518
1974	0.0071771
1986	0.00858132
1998	0.00826927
2010	0.00764518
2022	0.00577289
2034	0.00592891
2046	0.00592891
2058	0.00608494
2070	0.00483674
2082	0.0045247
2094	0.00436867
2106	0.00499277
2118	0.00421265
2130	0.0032765
2142	0.00296446
2154	0.00421265
2166	0.00468072
2178	0.00483674
2190	0.00358855
2202	0.00343253
2214	0.00374458
2226	0.00358855
2238	0.00280843
2250	0.00343253
2262	0.00343253
2274	0.0032765
2286	0.00343253
2298	0.00374458
2310	0.00483674
2322	0.00280843
2334	0.000468072
2346	0.00280843
2358	0.00265241
2370	0.00312048
2382	0.00265241
2394	0.00249638
2406	0.00265241
2418	0.00280843
2430	0.00312048
2442	0.00296446
2454	0.00296446
2466	0.00234036
2478	0.00234036
2490	0.00109217
2502	0.000468072
2514	0.000156024
2526	0
2538	0.00078012
2550	0.00078012
2562	0.00078012
2574	0.000936144
2586	0.000624096
2598	0.00078012
2610	0.00218434
2622	0.00280843
2634	0.00265241
2646	0.00249638
2658	0.00265241
2670	0.0032765
2682	0.00218434
2694	0.00296446
2706	0.00312048
2718	0.00358855
2730	0.00514879
2742	0.00764518
2754	0.00904939
2766	0.0104536
2778	0.0112337
2790	0.0101416
2802	0.00873734
2814	0.00982951
2826	0.0121699
2838	0.0188789
2850	0.0321409
2862	0.0538283
2874	0.0925222
2886	0.154308
2898	0.204391
2910	0.206264
2922	0.22093
2934	0.272106
2946	0.305651
2958	0.356983
2970	0.446229
2982	0.320941
2994	0.153996
3006	0.0733313
3018	0.0234036
3030	0.0110777
3042	0.0084253
3054	0.00655301
3066	0.00561686
3078	0.00405662
3090	0.00343253
3102	0.00234036
3114	0.00187229
3126	0.00171626
3138	0.00171626
3150	0.00187229
3162	0.00218434
3174	0.00280843
3186	0.00265241
3198	0.0032765
3210	0.00218434
3222	0.00156024
3234	0.000936144
3246	0.000936144
3258	0.00124819
3270	0.000468072
3282	0.000468072
3294	0.000312048
3306	0.000468072
3318	0.000936144
3330	0.000156024
3342	0.000468072
3354	0.000936144
3366	0.000624096
3378	0.00140422
3390	0.000936144
3402	0.000624096
3414	0.00078012
3426	0.00124819
3438	0.000468072
3450	0.000936144
3462	0.00124819
3474	0.000936144
3486	0.00171626
3498	0.00218434
3510	0.00499277
3522	0.0107657
3534	0.019191
3546	0.019815
3558	0.0126379
3570	0.00858132
3582	0.00592891
3594	0.00436867
3606	0.0039006
3618	0.00483674
3630	0.00374458
3642	0.0045247
3654	0.00421265
3666	0.00546084
3678	0.00530482
3690	0.00374458
3702	0.00358855
3714	0.00468072
3726	0.0045247
3738	0.00483674
3750	0.00296446
3762	0.00483674
3774	0.00546084
3786	0.0039006
3798	0.00296446
3810	0.00234036
3822	0.00249638
3834	0.00343253
3846	0.00249638
3858	0.00514879
3870	0.00296446
3882	0.00358855
3894	0.00265241
3906	0.00405662
3918	0.00546084
3930	0.00514879
3942	0.00405662
3954	0.00592891
3966	0.00280843
