Infrared Spectrum: Benzaldehyde, 4-bromo-
Formula: C 7 H 5 Br O
CAS: 1122-91-4
Origin: Sadtler Research Labs Under US-EPA Contract
1/CM	ABSORBANCE
450	0.0169302
462	0.0172234
474	0.0288034
486	0.0238929
498	0.0267512
510	0.0065229
522	0.00271177
534	0.00600986
546	0.00476391
558	0.00483721
570	0.00916137
582	0.00769555
594	0.0112868
606	0.0115067
618	0.00967441
630	0.0137787
642	0.0184693
654	0.0130458
666	0.0165638
678	0.0244792
690	0.0238929
702	0.0139986
714	0.00960112
726	0.00930796
738	0.0175898
750	0.0284369
762	0.039797
774	0.0306356
786	0.0274841
798	0.0753431
810	0.148414
822	0.262089
834	0.24252
846	0.041043
858	0.0156843
870	0.00938125
882	0.0113601
894	0.0109204
906	0.0107005
918	0.00901479
930	0.0102607
942	0.0153178
954	0.0185426
966	0.00886821
978	0.010334
990	0.0159041
1002	0.0381846
1014	0.116753
1026	0.0200084
1038	0.0122396
1050	0.0159041
1062	0.123788
1074	0.204775
1086	0.0609048
1098	0.0368654
1110	0.0202283
1122	0.0148048
1134	0.0113601
1146	0.00982099
1158	0.036279
1170	0.117192
1182	0.0483721
1194	0.15054
1206	0.0900746
1218	0.0234531
1230	0.0166371
1242	0.0150979
1254	0.0221339
1266	0.031222
1278	0.028217
1290	0.0332008
1302	0.0425088
1314	0.0255786
1326	0.0210345
1338	0.0175898
1350	0.0264581
1362	0.039797
1374	0.0511571
1386	0.0603918
1398	0.027704
1410	0.024186
1422	0.0164905
1434	0.0123129
1446	0.0106272
1458	0.0100409
1470	0.0172967
1482	0.0645694
1494	0.0402368
1506	0.00747568
1518	0.00820859
1530	0.00806201
1542	0.0126793
1554	0.0207414
1566	0.0618576
1578	0.137714
1590	0.280411
1602	0.126867
1614	0.014365
1626	0.0146582
1638	0.0217674
1650	0.0253587
1662	0.0230867
1674	0.0174433
1686	0.0244059
1698	0.0443411
1710	0.11023
1722	0.73291
1734	0.284076
1746	0.051377
1758	0.0728513
1770	0.0735109
1782	0.0202283
1794	0.017883
1806	0.0120197
1818	0.00688935
1830	0.00564341
1842	0.00498379
1854	0.00527695
1866	0.00622974
1878	0.00784214
1890	0.0101874
1902	0.00798872
1914	0.00754897
1926	0.00586328
1938	0.00505708
1950	0.00454404
1962	0.00344468
1974	0.00439746
1986	0.00417759
1998	0.00549683
2010	0.00505708
2022	0.00762226
2034	0.00644961
2046	0.00263848
2058	0.00256519
2070	0.00307822
2082	0.00249189
2094	0.0024186
2106	0.00190557
2118	0.00205215
2130	0.0024186
2142	0.00175898
2154	0.00234531
2166	0.00263848
2178	0.00219873
2190	0.00168569
2202	0.0016124
2214	0.00146582
2226	0.00234531
2238	0.00190557
2250	0.00249189
2262	0.00293164
2274	0.00344468
2286	0.00417759
2298	0.0057167
2310	0.00754897
2322	0.00754897
2334	0.00674277
2346	0.010334
2358	0.0116533
2370	0.00982099
2382	0.00549683
2394	0.0032981
2406	0.00183227
2418	0.00219873
2430	0.00117266
2442	0.000586328
2454	0.00117266
2466	0.00117266
2478	0.00124595
2490	0.00146582
2502	0.00153911
2514	0.00205215
2526	0.0032248
2538	0.00425088
2550	0.00542353
2562	0.0041043
2574	0.00549683
2586	0.00425088
2598	0.00447075
2610	0.00366455
2622	0.00263848
2634	0.0032248
2646	0.0041043
2658	0.00586328
2670	0.00857505
2682	0.0108471
2694	0.0161973
2706	0.0282903
2718	0.0595123
2730	0.0826722
2742	0.0469062
2754	0.0283636
2766	0.0293164
2778	0.0315151
2790	0.0321015
2802	0.0520366
2814	0.0775419
2826	0.0812797
2838	0.034007
2850	0.0123129
2862	0.00747568
2874	0.00549683
2886	0.00542353
2898	0.00557012
2910	0.00359126
2922	0.00300493
2934	0.00359126
2946	0.00359126
2958	0.0041043
2970	0.00417759
2982	0.00351797
2994	0.00315151
3006	0.00366455
3018	0.00513037
3030	0.00908808
3042	0.0102607
3054	0.0101874
3066	0.0065229
3078	0.00754897
3090	0.0112868
3102	0.00938125
3114	0.00425088
3126	0.00285835
3138	0.00205215
3150	0.00234531
3162	0.00197886
3174	0.00197886
3186	0.00234531
3198	0.000879492
3210	0.000879492
3222	0.00205215
3234	0.00205215
3246	0.00124595
3258	0.00234531
3270	0.00102607
3282	0.0016124
3294	0.00168569
3306	0.00293164
3318	0.00219873
3330	0.00263848
3342	0.00263848
3354	0.00205215
3366	0.00344468
3378	0.0032248
3390	0.00381113
3402	0.00366455
3414	0.00557012
3426	0.00952783
3438	0.00864834
3450	0.00337139
3462	0.00293164
3474	0.00168569
3486	0.00234531
3498	0.00227202
3510	0.00263848
3522	0.00205215
3534	0.00263848
3546	0.00190557
3558	0.00373784
3570	0.00622974
3582	0.0255053
3594	0.0167103
3606	0.0032981
3618	0.00439746
3630	0.00432417
3642	0.00505708
3654	0.00513037
3666	0.00439746
3678	0.00564341
3690	0.00578999
3702	0.00454404
3714	0.00461733
3726	0.00513037
3738	0.00630303
3750	0.00417759
3762	0.00513037
3774	0.00425088
3786	0.00535024
3798	0.00432417
3810	0.00425088
3822	0.00578999
3834	0.00549683
3846	0.00578999
3858	0.00674277
3870	0.0049105
3882	0.00542353
3894	0.00659619
3906	0.00688935
3918	0.00784214
3930	0.0104073
3942	0.00828188
3954	0
3966	0.000586328
