Infrared Spectrum: Ethanone, 1-(2-pyridinyl)-
Formula: C 7 H 7 N O
CAS: 1122-62-9
Origin: Sadtler Research Labs Under US-EPA Contract
1/CM	ABSORBANCE
450	0.0136577
462	0.00983605
474	0.00269395
486	0.0047614
498	0.0035084
510	0.0038843
522	0.00545055
534	0.00682885
546	0.00920955
558	0.0104626
570	0.0582019
582	0.245212
594	0.233622
606	0.0326407
618	0.0196721
630	0.0163517
642	0.0083951
654	0.0071421
666	0.0030072
678	0.0063903
690	0.0072674
702	0.0066409
714	0.0067662
726	0.0298841
738	0.0632139
750	0.0614597
762	0.102558
774	0.193651
786	0.113271
798	0.0304479
810	0.00382165
822	0.00795655
834	0.00920955
846	0.006265
858	0.00419755
870	0.0046361
882	0.0052626
894	0.00783125
906	0.0085204
918	0.0107758
930	0.0162264
942	0.0625873
954	0.107194
966	0.0637151
978	0.0248094
990	0.0370262
1002	0.0372141
1014	0.0241829
1026	0.0367129
1038	0.0620862
1050	0.0521248
1062	0.016477
1074	0.0181685
1086	0.0473008
1098	0.146037
1110	0.125989
1122	0.0228673
1134	0.015036
1146	0.0172288
1158	0.0132192
1170	0.007518
1182	0.00908425
1194	0.0080192
1206	0.0102746
1218	0.0451707
1230	0.158692
1242	0.148418
1254	0.0330166
1266	0.112394
1278	0.313877
1290	0.308363
1302	0.118409
1314	0.0257492
1326	0.016477
1338	0.0345828
1350	0.125926
1362	0.288942
1374	0.188639
1386	0.0394069
1398	0.0292576
1410	0.0372141
1422	0.0643416
1434	0.0917196
1446	0.0731752
1458	0.0550067
1470	0.0420382
1482	0.0217396
1494	0.0166649
1506	0.0240576
1518	0.0241829
1530	0.0235564
1542	0.0385298
1554	0.0394695
1566	0.0743029
1578	0.113584
1590	0.0684138
1602	0.0336431
1614	0.0154746
1626	0.0173541
1638	0.0199854
1650	0.0238697
1662	0.0257492
1674	0.0367756
1686	0.0507465
1698	0.131878
1710	0.545431
1722	0.6265
1734	0.172162
1746	0.0295708
1758	0.0217396
1770	0.0312624
1782	0.0209878
1794	0.015036
1806	0.00795655
1818	0.00620235
1830	0.0086457
1842	0.00733005
1854	0.00733005
1866	0.0098987
1878	0.00795655
1890	0.0104626
1902	0.0091469
1914	0.0083951
1926	0.0093975
1938	0.00745535
1950	0.0092722
1962	0.0088963
1974	0.00745535
1986	0.00833245
1998	0.0066409
2010	0.003759
2022	0.00369635
2034	0.0030072
2046	0.00306985
2058	0.0016289
2070	0.00119035
2082	0.00056385
2094	0.0016289
2106	0.0027566
2118	0.00319515
2130	0.00206745
2142	0.0016289
2154	0.001253
2166	0.00169155
2178	0.00256865
2190	0.0021301
2202	0.0021301
2214	0.0020048
2226	0.00219275
2238	0.00269395
2250	0.00256865
2262	0.0022554
2274	0.00219275
2286	0.00357105
2298	0.00444815
2310	0.0053879
2322	0.00557585
2334	0.0053879
2346	0.0051373
2358	0.00281925
2370	0.00620235
2382	0.0042602
2394	0.00294455
2406	0.0020048
2418	0.00156625
2430	0.0021301
2442	0.00194215
2454	0.00306985
2466	0.00319515
2478	0.00156625
2490	0.00206745
2502	0.00256865
2514	0.00319515
2526	0.00306985
2538	0.0022554
2550	0.0016289
2562	0.0018795
2574	0.0013783
2586	0.0015036
2598	0.0023807
2610	0.00344575
2622	0.00306985
2634	0.00294455
2646	0.003759
2658	0.00444815
2670	0.0046361
2682	0.0026313
2694	0.001253
2706	0.00156625
2718	0.00194215
2730	0.0013783
2742	0.00194215
2754	0.0022554
2766	0.002506
2778	0.0015036
2790	0.002506
2802	0.00269395
2814	0.00256865
2826	0.00407225
2838	0.00519995
2850	0.0065156
2862	0.00758065
2874	0.00758065
2886	0.00733005
2898	0.00833245
2910	0.0093975
2922	0.0133445
2934	0.0194842
2946	0.0212384
2958	0.0154119
2970	0.0166649
2982	0.0209878
2994	0.0218022
3006	0.0385924
3018	0.0612717
3030	0.0446068
3042	0.0280672
3054	0.0682259
3066	0.111956
3078	0.102245
3090	0.0504959
3102	0.0196095
3114	0.00946015
3126	0.00971075
3138	0.0114023
3150	0.0105879
3162	0.00682885
3174	0.0053879
3186	0.00444815
3198	0.00382165
3210	0.0033831
3222	0.0031325
3234	0.0031325
3246	0.0038843
3258	0.00369635
3270	0.0032578
3282	0.0028819
3294	0.0040096
3306	0.0028819
3318	0.0028819
3330	0.00344575
3342	0.00319515
3354	0.00519995
3366	0.00394695
3378	0.00369635
3390	0.0038843
3402	0.0086457
3414	0.0150987
3426	0.01253
3438	0.00595175
3450	0.0028819
3462	0.00369635
3474	0.0036337
3486	0.0026313
3498	0.003759
3510	0.0031325
3522	0.0022554
3534	0.00306985
3546	0.0022554
3558	0.00369635
3570	0.0018795
3582	0.0035084
3594	0.00156625
3606	0.0026313
3618	0.00194215
3630	0.0048867
3642	0.00357105
3654	0.0042602
3666	0.00219275
3678	0.00620235
3690	0.0042602
3702	0.0030072
3714	0.00206745
3726	0.00181685
3738	0.00269395
3750	0.00244335
3762	0.00269395
3774	0.002506
3786	0.0022554
3798	0.0011277
3810	0.00144095
3822	0.00131565
3834	0.00043855
3846	0.00144095
3858	0.00244335
3870	0.00219275
3882	0.0008771
3894	0.00156625
3906	0.0021301
3918	0.00382165
3930	0.00319515
3942	0.00332045
3954	0.0026313
3966	0.00294455
