Infrared Spectrum: Cyclohexane, nitro-
Formula: C 6 H 11 N O 2
CAS: 1122-60-7
Origin: Sadtler Research Labs Under US-EPA Contract
1/CM	ABSORBANCE
450	0.0293717
462	0.00489529
474	0.013678
486	0.0145419
498	0.0275
510	0.0440576
522	0.0200131
534	0.0102225
546	0.0185733
558	0.0178534
570	0.0191492
582	0.01339
594	0.0201571
606	0.0178534
618	0.0112304
630	0.0182853
642	0.0233246
654	0.0240445
666	0.0239005
678	0.020877
690	0.0266361
702	0.0239005
714	0.0313874
726	0.0462173
738	0.120942
750	0.116623
762	0.0499607
774	0.0210209
786	0.013678
798	0.0463612
810	0.0630628
822	0.0251963
834	0.027356
846	0.0429057
858	0.0244764
870	0.0201571
882	0.041034
894	0.105105
906	0.0835078
918	0.0473691
930	0.0179974
942	0.0100785
954	0.00878272
966	0.00791885
978	0.00849476
990	0.0112304
1002	0.0224607
1014	0.0306675
1026	0.0275
1038	0.0198691
1050	0.0100785
1062	0.0118063
1074	0.0100785
1086	0.0152618
1098	0.0148298
1110	0.00791885
1122	0.0201571
1134	0.0211649
1146	0.0338351
1158	0.0349869
1170	0.0194372
1182	0.0112304
1194	0.00806282
1206	0.00935864
1218	0.0161256
1230	0.034411
1242	0.0534162
1254	0.0506806
1266	0.0542801
1278	0.0598953
1290	0.068534
1302	0.0731413
1314	0.0777487
1326	0.0938743
1338	0.138364
1350	0.24966
1362	0.259306
1374	0.423442
1386	0.394934
1398	0.123534
1410	0.0832199
1422	0.0709816
1434	0.0835078
1446	0.159817
1458	0.259306
1470	0.182853
1482	0.0704057
1494	0.041034
1506	0.0526963
1518	0.120942
1530	0.307395
1542	0.617094
1554	1.07207
1566	1.40495
1578	0.987984
1590	0.446623
1602	0.156505
1614	0.0459293
1626	0.0237565
1638	0.0198691
1650	0.020445
1662	0.0115183
1674	0.0162696
1686	0.0197251
1698	0.0247644
1710	0.0241885
1722	0.0241885
1734	0.0249084
1746	0.0211649
1758	0.0154058
1770	0.013966
1782	0.01339
1794	0.0172775
1806	0.0179974
1818	0.0185733
1830	0.0131021
1842	0.00734293
1854	0.00590314
1866	0.00647906
1878	0.00503927
1890	0.00503927
1902	0.00417539
1914	0.00403141
1926	0.0034555
1938	0.0034555
1950	0.00287958
1962	0.0027356
1974	0.00331152
1986	0.00374345
1998	0.00359947
2010	0.00259162
2022	0.00259162
2034	0.00215969
2046	0.0027356
2058	0.00259162
2070	0.00215969
2082	0.0027356
2094	0.00230366
2106	0.00172775
2118	0.00230366
2130	0.00230366
2142	0.0027356
2154	0.00316754
2166	0.00359947
2178	0.00287958
2190	0.00359947
2202	0.00388743
2214	0.00331152
2226	0.0027356
2238	0.00446335
2250	0.00503927
2262	0.00446335
2274	0.00259162
2286	0.00259162
2298	0.00403141
2310	0.00446335
2322	0.0027356
2334	0.000287958
2346	0.00532722
2358	0.00403141
2370	0.00316754
2382	0.00431937
2394	0.00403141
2406	0.00316754
2418	0.00230366
2430	0.00331152
2442	0.00302356
2454	0.00259162
2466	0.0034555
2478	0.00316754
2490	0.00316754
2502	0.00215969
2514	0.000863874
2526	0.00158377
2538	0.00129581
2550	0.000863874
2562	0.000863874
2574	0.00158377
2586	0.0027356
2598	0.0034555
2610	0.00460733
2622	0.00388743
2634	0.00388743
2646	0.00604712
2658	0.0106544
2670	0.0154058
2682	0.0149738
2694	0.0125262
2706	0.0107984
2718	0.0100785
2730	0.00777487
2742	0.00676701
2754	0.00950261
2766	0.00863874
2778	0.0082068
2790	0.0113743
2802	0.0164136
2814	0.0171335
2826	0.0174215
2838	0.0227487
2850	0.0659424
2862	0.275432
2874	0.428194
2886	0.262618
2898	0.146139
2910	0.170759
2922	0.309699
2934	0.596505
2946	1.19071
2958	1.14809
2970	0.517173
2982	0.237709
2994	0.0727094
3006	0.0191492
3018	0.00763089
3030	0.00475131
3042	0.00374345
3054	0.00431937
3066	0.00475131
3078	0.00287958
3090	0.00129581
3102	0.00129581
3114	0.000431937
3126	0.000431937
3138	0.00158377
3150	0.00143979
3162	0.00230366
3174	0.00259162
3186	0.000719895
3198	0.000575916
3210	0.00115183
3222	0.00143979
3234	0.00187173
3246	0.00115183
3258	0.00100785
3270	0.000863874
3282	0.000287958
3294	0.000575916
3306	0.00100785
3318	0.00100785
3330	0.00129581
3342	0.00215969
3354	0.00172775
3366	0.00215969
3378	0.00287958
3390	0.0034555
3402	0.00215969
3414	0.00316754
3426	0.0027356
3438	0.00403141
3450	0.00460733
3462	0.00446335
3474	0.00403141
3486	0.00359947
3498	0.00259162
3510	0.00230366
3522	0.00316754
3534	0.00215969
3546	0.00287958
3558	0.00259162
3570	0.00215969
3582	0.00201571
3594	0.0027356
3606	0.00259162
3618	0.00115183
3630	0.00287958
3642	0.00331152
3654	0.00475131
3666	0.00302356
3678	0.00143979
3690	0.00417539
3702	0.00359947
3714	0.0034555
3726	0.00230366
3738	0.0027356
3750	0.00791885
3762	0.00431937
3774	0.00331152
3786	0.00532722
3798	0.00691099
3810	0.0034555
3822	0.00561518
3834	0.00475131
3846	0.00532722
3858	0.00331152
3870	0.00532722
3882	0.00503927
3894	0.00417539
3906	0.00417539
3918	0.00302356
3930	0.00158377
3942	0.00403141
3954	0.00561518
3966	0.00403141
