Infrared Spectrum: Benzene, 2-iodo-1,4-dimethyl-
Formula: C 8 H 9 I
CAS: 1122-42-5
Origin: Sadtler Research Labs Under US-EPA Contract
1/CM	ABSORBANCE
450	0.0241942
462	0.0176006
474	0.00297774
486	0.00802927
498	0.00627453
510	0.0286076
522	0.064181
534	0.0422733
546	0.00989036
558	0.0132935
570	0.0196212
582	0.0111665
594	0.0161117
606	0.0105285
618	0.0149951
630	0.0158459
642	0.0164839
654	0.0310004
666	0.137508
678	0.0583319
690	0.0407845
702	0.0268529
714	0.0211633
726	0.0546097
738	0.0455701
750	0.0200466
762	0.0178133
774	0.0198871
786	0.0373813
798	0.233221
810	0.311334
822	0.0713595
834	0.0862482
846	0.173932
858	0.0842808
870	0.081888
882	0.0431773
894	0.0225458
906	0.0183982
918	0.019249
930	0.0212696
942	0.0257362
954	0.0370091
966	0.0656167
978	0.097787
990	0.0453042
1002	0.0463146
1014	0.0548756
1026	0.184461
1038	0.387798
1050	0.0755071
1062	0.059289
1074	0.0288735
1086	0.0214823
1098	0.0211633
1110	0.0213228
1122	0.0186641
1134	0.0211101
1146	0.0421138
1158	0.0275441
1170	0.0235561
1182	0.0284481
1194	0.029937
1206	0.0631175
1218	0.0619477
1230	0.0257362
1242	0.022014
1254	0.0307346
1266	0.0395083
1278	0.0379131
1290	0.0234497
1302	0.0190363
1314	0.0213228
1326	0.025364
1338	0.0266933
1350	0.0249918
1362	0.0333401
1374	0.0745499
1386	0.125331
1398	0.0989036
1410	0.0732206
1422	0.0849189
1434	0.115441
1446	0.144314
1458	0.17691
1470	0.179781
1482	0.370357
1494	0.489467
1506	0.138997
1518	0.0807181
1530	0.0664675
1542	0.0936926
1554	0.126926
1566	0.126341
1578	0.0786975
1590	0.081303
1602	0.148675
1614	0.120333
1626	0.0280227
1638	0.0237688
1650	0.0184514
1662	0.0161649
1674	0.0204188
1686	0.0262148
1698	0.0213228
1710	0.01558
1722	0.0174942
1734	0.0352544
1746	0.0363178
1758	0.0181855
1770	0.0133467
1782	0.0105285
1794	0.0131872
1806	0.0117515
1818	0.0152078
1830	0.0138252
1842	0.01223
1854	0.0114856
1866	0.00999671
1878	0.0196212
1890	0.032702
1902	0.0135062
1914	0.0101031
1926	0.00946497
1938	0.00760388
1950	0.00739119
1962	0.00627453
1974	0.00723166
1986	0.00760388
1998	0.00744436
2010	0.00744436
2022	0.00595549
2034	0.00537057
2046	0.00467931
2058	0.00547692
2070	0.00611501
2082	0.0055301
2094	0.00494518
2106	0.0053174
2118	0.00568962
2130	0.00526423
2142	0.00462614
2154	0.00446662
2166	0.00398805
2178	0.00494518
2190	0.00478566
2202	0.0038817
2214	0.00404122
2226	0.00457296
2238	0.00457296
2250	0.00398805
2262	0.00356266
2274	0.00324361
2286	0.00313727
2298	0.00414757
2310	0.00297774
2322	0.000957132
2334	0.000957132
2346	0.000957132
2358	0.000957132
2370	0.000957132
2382	0.00308409
2394	0.00489201
2406	0.00638088
2418	0.00845467
2430	0.00685945
2442	0.00462614
2454	0.00467931
2466	0.00521105
2478	0.00515788
2490	0.0051047
2502	0.00483883
2514	0.00499836
2526	0.00611501
2538	0.00505153
2550	0.00467931
2562	0.0053174
2574	0.00584914
2586	0.00999671
2598	0.0109007
2610	0.00558327
2622	0.00563644
2634	0.00563644
2646	0.00568962
2658	0.00574279
2670	0.00489201
2682	0.00483883
2694	0.00483883
2706	0.0053174
2718	0.0055301
2730	0.00914593
2742	0.0201529
2754	0.0214291
2766	0.00962449
2778	0.00749753
2790	0.00802927
2802	0.0113261
2814	0.0154736
2826	0.0193022
2838	0.0274378
2850	0.0451447
2862	0.0889069
2874	0.149525
2886	0.151546
2898	0.127352
2910	0.124427
2922	0.196797
2934	0.390935
2946	0.267093
2958	0.172709
2970	0.158246
2982	0.193075
2994	0.170689
3006	0.140752
3018	0.189353
3030	0.193394
3042	0.166435
3054	0.193819
3066	0.197222
3078	0.0798142
3090	0.0434432
3102	0.035148
3114	0.0214291
3126	0.0104221
3138	0.0081888
3150	0.00701897
3162	0.00648723
3174	0.00584914
3186	0.00595549
3198	0.00430709
3210	0.0053174
3222	0.00483883
3234	0.00457296
3246	0.00334996
3258	0.00462614
3270	0.00260553
3282	0.00212696
3294	0.0028714
3306	0.00281822
3318	0.00297774
3330	0.00233966
3342	0.00207379
3354	0.00228648
3366	0.0028714
3378	0.0026587
3390	0.00356266
3402	0.00324361
3414	0.00202061
3426	0.00276505
3438	0.00249918
3450	0.002446
3462	0.00249918
3474	0.00223331
3486	0.00223331
3498	0.0028714
3510	0.00101031
3522	0.00159522
3534	0.00164839
3546	0.00260553
3558	0.00297774
3570	0.00441344
3582	0.00239283
3594	0.00372218
3606	0.0028714
3618	0.00478566
3630	0.00951815
3642	0.00398805
3654	0.00600866
3666	0.0055301
3678	0.0104753
3690	0.011911
3702	0.00680627
3714	0.00914593
3726	0.0091991
3738	0.0121768
3750	0.014676
3762	0.0105816
3774	0.0094118
3786	0.0105816
3798	0.0117515
3810	0.0124959
3822	0.014357
3834	0.0138252
3846	0.0135062
3858	0.0129745
3870	0.0137189
3882	0.0142506
3894	0.0135062
3906	0.0126022
3918	0.0129745
3930	0.0144633
3942	0.0120173
3954	0
3966	0.000957132
