Infrared Spectrum: Ethanone, 1-(4-pyridinyl)-
Formula: C 7 H 7 N O
CAS: 1122-54-9
Origin: Sadtler Research Labs Under US-EPA Contract
1/CM	ABSORBANCE
450	0.018916
462	0.00857938
474	0.01044
486	0.0100265
498	0.0107501
510	0.00816591
522	0.0106467
534	0.0172621
546	0.0139544
558	0.0190193
570	0.0677047
582	0.306067
594	0.32581
606	0.106467
618	0.0416565
630	0.0226372
642	0.0163318
654	0.012714
666	0.0178823
678	0.0121972
690	0.00702889
702	0.0105433
714	0.00909621
726	0.014678
738	0.0195362
750	0.00981977
762	0.01044
774	0.0152982
786	0.0263583
798	0.112462
810	0.279502
822	0.161561
834	0.0529234
846	0.0159184
858	0.0136443
870	0.0174689
882	0.0132308
894	0.00888948
906	0.00919957
918	0.00826928
930	0.0128174
942	0.0409329
954	0.087551
966	0.066361
978	0.0314233
990	0.0452743
1002	0.033904
1014	0.0183991
1026	0.0194328
1038	0.0194328
1050	0.0196395
1062	0.0673946
1074	0.0912722
1086	0.0437238
1098	0.0282189
1110	0.0186059
1122	0.0160217
1134	0.0137477
1146	0.0131275
1158	0.0159184
1170	0.023154
1182	0.0248078
1194	0.0310098
1206	0.0678081
1218	0.0874476
1230	0.129828
1242	0.241876
1254	0.733485
1266	1.02539
1278	0.192467
1290	0.0284257
1302	0.0300795
1314	0.0476517
1326	0.0452743
1338	0.0408296
1350	0.112049
1362	0.322399
1374	0.272886
1386	0.0863106
1398	0.164042
1410	0.213451
1422	0.151431
1434	0.0847601
1446	0.0569547
1458	0.0406228
1470	0.0240843
1482	0.0293559
1494	0.0290458
1506	0.0249112
1518	0.026255
1530	0.0342141
1542	0.0788683
1554	0.12745
1566	0.126933
1578	0.0741134
1590	0.0823827
1602	0.0444474
1614	0.0167453
1626	0.0187092
1638	0.0163318
1650	0.027392
1662	0.03163
1674	0.067498
1686	0.0926159
1698	0.226785
1710	0.775969
1722	0.767389
1734	0.214588
1746	0.0640869
1758	0.0544739
1770	0.0431036
1782	0.0165386
1794	0.0123006
1806	0.0100265
1818	0.00568513
1830	0.0101299
1842	0.0135409
1854	0.0132308
1866	0.0103366
1878	0.0057885
1890	0.00609859
1902	0.00733899
1914	0.00868274
1926	0.0128174
1938	0.0198463
1950	0.016952
1962	0.00878611
1974	0.00630533
1986	0.00413464
1998	0.00434137
2010	0.00299761
2022	0.00248078
2034	0.00310098
2046	0.00330771
2058	0.00186059
2070	0.00289425
2082	0.00299761
2094	0.00268752
2106	0.00258415
2118	0.00124039
2130	0.00113703
2142	0.00206732
2154	0.00144712
2166	0.00155049
2178	0.00155049
2190	0.000930294
2202	0.00186059
2214	0.00248078
2226	0.00113703
2238	0.000826928
2250	0.000723562
2262	0.000620196
2274	0.00175722
2286	0.00186059
2298	0.00186059
2310	0.00237742
2322	0.00155049
2334	0.00113703
2346	0.00268752
2358	0
2370	0.00361781
2382	0.00392791
2394	0.00258415
2406	0.00206732
2418	0.00217069
2430	0.00206732
2442	0.00227405
2454	0.00217069
2466	0.000723562
2478	0.00113703
2490	0.00124039
2502	0.00113703
2514	0.00217069
2526	0.00217069
2538	0.00124039
2550	0.00217069
2562	0.00113703
2574	0.00124039
2586	0.00217069
2598	0.00217069
2610	0.00258415
2622	0.00361781
2634	0.00310098
2646	0.00330771
2658	0.0045481
2670	0.00382454
2682	0.00299761
2694	0.00206732
2706	0.00134376
2718	0.00206732
2730	0.00186059
2742	0.00186059
2754	0.00299761
2766	0.00330771
2778	0.00258415
2790	0.00310098
2802	0.00330771
2814	0.00351444
2826	0.00413464
2838	0.0057885
2850	0.00837265
2862	0.00919957
2874	0.0103366
2886	0.0121972
2898	0.0103366
2910	0.00919957
2922	0.0133342
2934	0.0187092
2946	0.0212934
2958	0.027392
2970	0.0400026
2982	0.0455844
2994	0.0374185
3006	0.0386589
3018	0.0740101
3030	0.110188
3042	0.131998
3054	0.102332
3066	0.0879645
3078	0.125176
3090	0.11515
3102	0.0461012
3114	0.0170554
3126	0.0114736
3138	0.00816591
3150	0.0054784
3162	0.00506493
3174	0.00382454
3186	0.00361781
3198	0.00413464
3210	0.00330771
3222	0.00361781
3234	0.00341108
3246	0.00341108
3258	0.00351444
3270	0.00361781
3282	0.00320435
3294	0.00310098
3306	0.00279088
3318	0.00289425
3330	0.00320435
3342	0.00258415
3354	0.00320435
3366	0.00444474
3378	0.00330771
3390	0.00723562
3402	0.0162285
3414	0.0201564
3426	0.0117837
3438	0.00423801
3450	0.00310098
3462	0.00248078
3474	0.00227405
3486	0.00217069
3498	0.00248078
3510	0.00206732
3522	0.00217069
3534	0.00351444
3546	0.00330771
3558	0.00258415
3570	0.00361781
3582	0.00258415
3594	0.0045481
3606	0.00196395
3618	0.00341108
3630	0.00527167
3642	0.00330771
3654	0.00351444
3666	0.00051683
3678	0.00795918
3690	0.00289425
3702	0.00496157
3714	0.00609859
3726	0.00434137
3738	0.00537503
3750	0.0054784
3762	0.00392791
3774	0.00413464
3786	0.00248078
3798	0.00237742
3810	0.00268752
3822	0.00620196
3834	0.00258415
3846	0.00392791
3858	0.00537503
3870	0.0051683
3882	0.00475484
3894	0.00444474
3906	0.0057885
3918	0.00444474
3930	0.00382454
3942	0.00423801
3954	0.00351444
3966	0.00299761
