Infrared Spectrum: Cyclopentaneacetic acid
Formula: C 7 H 12 O 2
CAS: 1123-00-8
Origin: Sadtler Research Labs Under US-EPA Contract
1/CM	ABSORBANCE
450	0.0107364
462	0.0100437
474	0.00912015
486	0.0183558
498	0.0356725
510	0.0587615
522	0.0541437
534	0.0375196
546	0.0415602
558	0.0684589
570	0.101476
582	0.156774
594	0.266447
606	0.276837
618	0.214266
630	0.193948
642	0.152734
654	0.0942031
666	0.0662654
678	0.0497568
690	0.0445618
702	0.0466398
714	0.0376351
726	0.027245
738	0.0184712
750	0.0102746
762	0.00600314
774	0.00288613
786	0.00092356
798	0.0012699
810	0.00207801
822	0.00427147
834	0.0081966
846	0.0141997
858	0.0195102
870	0.021011
882	0.0213573
894	0.0212419
906	0.0154696
918	0.0141997
930	0.015816
942	0.0180094
954	0.0204338
966	0.02205
978	0.0195102
990	0.0160469
1002	0.0187021
1014	0.0244743
1026	0.0305929
1038	0.0459471
1050	0.0727303
1062	0.122025
1074	0.196834
1086	0.312856
1098	0.518117
1110	0.661846
1122	0.554829
1134	0.354301
1146	0.280416
1158	0.280647
1170	0.283533
1182	0.226272
1194	0.183788
1206	0.136571
1218	0.113252
1230	0.103092
1242	0.0900471
1254	0.0849675
1266	0.0890081
1278	0.0884309
1290	0.0900471
1302	0.0898162
1314	0.0820814
1326	0.0790798
1338	0.0948958
1350	0.122025
1362	0.119024
1374	0.147077
1386	0.166703
1398	0.105863
1410	0.0649955
1422	0.0698442
1434	0.0745775
1446	0.0655728
1458	0.0659191
1470	0.0465243
1482	0.0327864
1494	0.0197411
1506	0.0106209
1518	0.00658037
1530	0.00392513
1542	0.0035788
1554	0.00253979
1566	0.00184712
1578	0.00196256
1590	0.00219345
1602	0.00242435
1614	0.00300157
1626	0.00392513
1638	0.00450236
1650	0.00600314
1662	0.00669581
1674	0.00992827
1686	0.0155851
1698	0.0266678
1710	0.0509112
1722	0.11406
1734	0.15689
1746	0.241626
1758	0.439153
1770	0.88731
1782	1.15445
1794	0.624442
1806	0.24763
1818	0.0988209
1830	0.039944
1842	0.0207801
1854	0.012699
1866	0.00912015
1878	0.00669581
1890	0.00519502
1902	0.00473325
1914	0.00450236
1926	0.00438691
1938	0.00427147
1950	0.00450236
1962	0.00427147
1974	0.00415602
1986	0.00300157
1998	0.00184712
2010	0.0012699
2022	0.00115445
2034	0.0012699
2046	0.00092356
2058	0.000346335
2070	0.00069267
2082	0.00023089
2094	0.00023089
2106	0.000115445
2118	0.000115445
2130	0.000346335
2142	0.00069267
2154	0.0012699
2166	0.00207801
2178	0.00277068
2190	0.0033479
2202	0.00346335
2214	0.0035788
2226	0.00323246
2238	0.00288613
2250	0.00277068
2262	0.0023089
2274	0.00207801
2286	0.00242435
2298	0.00277068
2310	0.00277068
2322	0.00207801
2334	0.00184712
2346	0.00253979
2358	0.00138534
2370	0.00138534
2382	0.00150079
2394	0.00115445
2406	0.00115445
2418	0.00138534
2430	0.00092356
2442	0.00115445
2454	0.00138534
2466	0.00161623
2478	0.00138534
2490	0.00150079
2502	0.00161623
2514	0.00184712
2526	0.00207801
2538	0.0023089
2550	0.00265524
2562	0.00277068
2574	0.0033479
2586	0.00346335
2598	0.00415602
2610	0.00427147
2622	0.00496413
2634	0.0056568
2646	0.00623403
2658	0.00611859
2670	0.00542591
2682	0.00531047
2694	0.00542591
2706	0.0056568
2718	0.00623403
2730	0.00658037
2742	0.00669581
2754	0.00715759
2766	0.00808115
2778	0.0092356
2790	0.0111982
2802	0.0133916
2814	0.016855
2826	0.0250516
2838	0.0398285
2850	0.0698442
2862	0.141766
2874	0.265639
2886	0.297502
2898	0.204569
2910	0.204338
2922	0.294962
2934	0.383739
2946	0.527584
2958	0.766901
2970	0.76413
2982	0.410407
2994	0.168434
3006	0.0821968
3018	0.0488332
3030	0.0331327
3042	0.0252825
3054	0.0219346
3066	0.0196257
3078	0.017894
3090	0.0166241
3102	0.0159314
3114	0.015816
3126	0.015816
3138	0.0152387
3150	0.0143152
3162	0.0135071
3174	0.0130453
3186	0.0123526
3198	0.0117754
3210	0.0108518
3222	0.01039
3234	0.00992827
3246	0.00946649
3258	0.0081966
3270	0.00796571
3282	0.00715759
3294	0.00681126
3306	0.0056568
3318	0.00542591
3330	0.00450236
3342	0.00427147
3354	0.00415602
3366	0.00300157
3378	0.00311701
3390	0.00288613
3402	0.00253979
3414	0.00242435
3426	0.00173168
3438	0.00138534
3450	0.00115445
3462	0.00184712
3474	0.00138534
3486	0.00323246
3498	0.00380969
3510	0.00542591
3522	0.00738848
3534	0.0100437
3546	0.017894
3558	0.0445618
3570	0.362497
3582	0.392513
3594	0.0458317
3606	0.0107364
3618	0.00634948
3630	0.00542591
3642	0.00300157
3654	0.00484869
3666	0.00161623
3678	0.0033479
3690	0.00323246
3702	0.00219345
3714	0.0035788
3726	0.00404058
3738	0.00484869
3750	0.00600314
3762	0.00253979
3774	0.00161623
3786	0.00253979
3798	0.00300157
3810	0.00323246
3822	0.00404058
3834	0.0035788
3846	0.00253979
3858	0.00392513
3870	0.0046178
3882	0.00323246
3894	0.00207801
3906	0.0046178
3918	0.00277068
3930	0.00300157
3942	0.00242435
3954	0.001039
3966	0.00207801
