Infrared Spectrum: 1-Methyl-1-cyclohexanecarboxylic acid
Formula: C 8 H 14 O 2
CAS: 1123-25-7
Origin: Sadtler Research Labs Under US-EPA Contract
1/CM	ABSORBANCE
450	0
462	0.00613541
474	0.00602963
486	0.0138576
498	0.0231665
510	0.0434768
522	0.0778563
534	0.0836744
546	0.0939353
558	0.136777
570	0.156453
582	0.21146
594	0.20067
606	0.0911849
618	0.0614599
630	0.0801835
642	0.0388224
654	0.00962625
666	0.00698168
678	0.00666433
690	0.0285614
702	0.104725
714	0.0830397
726	0.0203103
738	0.0223202
750	0.0259168
762	0.0503527
774	0.0588153
786	0.02634
798	0.0208393
810	0.0260226
822	0.0132229
834	0.00740481
846	0.0168195
858	0.0171368
870	0.0181947
882	0.018512
894	0.0152328
906	0.00793373
918	0.011213
930	0.0276094
942	0.0158675
954	0.0140691
966	0.0300424
978	0.0217913
990	0.012165
1002	0.0110014
1014	0.0196756
1026	0.0395628
1038	0.0559592
1050	0.0652681
1062	0.0920312
1074	0.181735
1086	0.38981
1098	0.67278
1110	0.654374
1122	0.338506
1134	0.144605
1146	0.155818
1158	0.195064
1170	0.136989
1182	0.124612
1194	0.111389
1206	0.053632
1218	0.0306771
1230	0.0281383
1242	0.0298308
1254	0.0280325
1266	0.0328985
1278	0.0464387
1290	0.0507758
1302	0.0629409
1314	0.0705573
1326	0.0666433
1338	0.046333
1350	0.0337448
1362	0.0352257
1374	0.0479197
1386	0.0611426
1398	0.0359662
1410	0.018512
1422	0.0225318
1434	0.0427363
1446	0.115515
1458	0.177821
1470	0.144605
1482	0.0604021
1494	0.019993
1506	0.0119535
1518	0.00909734
1530	0.010261
1542	0.0118477
1554	0.00793373
1566	0.00677011
1578	0.00888577
1590	0.00973204
1602	0.0122708
1614	0.0127997
1626	0.0163964
1638	0.0210508
1650	0.019993
1662	0.0133287
1674	0.0168195
1686	0.0221086
1698	0.0320522
1710	0.0601905
1722	0.103456
1734	0.134556
1746	0.247426
1758	0.753704
1770	0.918408
1782	0.330149
1794	0.115621
1806	0.0626235
1818	0.0303597
1830	0.0127997
1842	0.00719324
1854	0.00528915
1866	0.00476023
1878	0.00349084
1890	0.00412554
1902	0.00306771
1914	0.00253879
1926	0.00264458
1938	0.00306771
1950	0.00306771
1962	0.00296192
1974	0.00253879
1986	0.00285614
1998	0.00275036
2010	0.00179831
2022	0.00148096
2034	0.00105783
2046	0.000740481
2058	0.000846264
2070	0.00169253
2082	0.00137518
2094	0.000846264
2106	0.000740481
2118	0.00116361
2130	0.00169253
2142	0.00222144
2154	0.00275036
2166	0.00275036
2178	0.00317349
2190	0.00380819
2202	0.00454867
2214	0.00423132
2226	0.00317349
2238	0.00264458
2250	0.00264458
2262	0.00327927
2274	0.00359662
2286	0.00380819
2298	0.00370241
2310	0.00401975
2322	0.00253879
2334	0.00200988
2346	0.00465445
2358	0.00169253
2370	0.00444289
2382	0.00486602
2394	0.00285614
2406	0.00306771
2418	0.00359662
2430	0.00476023
2442	0.00581806
2454	0.00571228
2466	0.00539493
2478	0.00581806
2490	0.00581806
2502	0.00571228
2514	0.00518337
2526	0.0049718
2538	0.0049718
2550	0.00528915
2562	0.00602963
2574	0.00602963
2586	0.00655855
2598	0.00761638
2610	0.00856842
2622	0.00962625
2634	0.0106841
2646	0.0123766
2658	0.0154443
2670	0.0186178
2682	0.0181947
2694	0.0147038
2706	0.0137518
2718	0.0130113
2730	0.013646
2742	0.0149154
2754	0.016079
2766	0.0174542
2778	0.0203103
2790	0.023378
2802	0.0270804
2814	0.0299366
2826	0.0333216
2838	0.044852
2850	0.111178
2862	0.269324
2874	0.31206
2886	0.222356
2898	0.191785
2910	0.232723
2922	0.352152
2934	0.761109
2946	1.01784
2958	0.555149
2970	0.264881
2982	0.207652
2994	0.102927
3006	0.0426305
3018	0.023378
3030	0.0217913
3042	0.0186178
3054	0.0177715
3066	0.0188294
3078	0.0172426
3090	0.0155501
3102	0.0144923
3114	0.0143865
3126	0.0131171
3138	0.0124824
3150	0.0118477
3162	0.0111072
3174	0.011213
3186	0.0110014
3198	0.0104725
3210	0.00973204
3222	0.00888577
3234	0.00877999
3246	0.00825107
3258	0.00772216
3270	0.00772216
3282	0.00708746
3294	0.00687589
3306	0.00666433
3318	0.00687589
3330	0.00677011
3342	0.00677011
3354	0.00634698
3366	0.00602963
3378	0.0056065
3390	0.00539493
3402	0.00476023
3414	0.00423132
3426	0.00412554
3438	0.00380819
3450	0.00454867
3462	0.0043371
3474	0.0043371
3486	0.00444289
3498	0.00634698
3510	0.00920312
3522	0.00782794
3534	0.00465445
3546	0.00708746
3558	0.0579691
3570	0.301799
3582	0.264034
3594	0.0294077
3606	0.00518337
3618	0.00528915
3630	0.00486602
3642	0.00306771
3654	0.00349084
3666	0.00264458
3678	0.00412554
3690	0.00423132
3702	0.00380819
3714	0.0043371
3726	0.00359662
3738	0.0043371
3750	0.00454867
3762	0.00338506
3774	0.00306771
3786	0.00338506
3798	0.00359662
3810	0.00370241
3822	0.00444289
3834	0.00412554
3846	0.0043371
3858	0.0043371
3870	0.00507758
3882	0.00380819
3894	0.00412554
3906	0.00507758
3918	0.0043371
3930	0.00412554
3942	0.00285614
3954	0.00380819
3966	0.00380819
