Infrared Spectrum: Phenol, 2,4-dichloro-5-methyl-
Formula: C 7 H 6 Cl 2 O
CAS: 1124-07-8
Origin: Sadtler Research Labs Under US-EPA Contract
1/CM	ABSORBANCE
450	0.0169138
462	0.000977886
474	0.0135455
486	0.00760578
498	0.00901828
510	0.0127125
522	0.0117346
534	0.0142699
546	0.0283587
558	0.0269462
570	0.00760578
582	0.00380289
594	0.00677277
606	0.0151029
618	0.00930803
630	0.00575866
642	0.00746091
654	0.00318718
666	0.00246282
678	0.00869232
690	0.0274895
702	0.1515
714	0.171384
726	0.0450552
738	0.0782671
750	0.012966
762	0.0203545
774	0.0145234
786	0.00619328
798	0.00699007
810	0.00680898
822	0.00445481
834	0.00459969
846	0.0068452
858	0.0268375
870	0.0896033
882	0.057985
894	0.0114449
906	0.00304231
918	0.00271635
930	0.00253526
942	0.00249904
954	0.00597597
966	0.0183987
978	0.0487494
990	0.0320891
1002	0.0223103
1014	0.0299885
1026	0.0191955
1038	0.013618
1050	0.014125
1062	0.0248093
1074	0.0377029
1086	0.0662789
1098	0.058311
1110	0.0178555
1122	0.0139077
1134	0.0179279
1146	0.0321616
1158	0.196265
1170	0.154832
1182	0.0578764
1194	0.15791
1206	0.209956
1218	0.120135
1230	0.071603
1242	0.0496187
1254	0.0474456
1266	0.102099
1278	0.156027
1290	0.15657
1302	0.244037
1314	0.119012
1326	0.0335379
1338	0.012966
1350	0.0098513
1362	0.0109016
1374	0.0199923
1386	0.0339
1398	0.0245558
1410	0.0278516
1422	0.0446206
1434	0.0356023
1446	0.0813456
1458	0.238894
1470	0.299849
1482	0.356095
1494	0.178229
1506	0.0575866
1518	0.0296988
1530	0.0274532
1542	0.0383186
1554	0.0528058
1566	0.0642869
1578	0.0636712
1590	0.0470834
1602	0.023759
1614	0.0172035
1626	0.00680898
1638	0.00210064
1650	0.0022093
1662	0.00173846
1674	0.00213686
1686	0.00173846
1698	0.00231795
1710	0.00778687
1722	0.0125314
1734	0.00909072
1746	0.00315097
1758	0.00239039
1770	0.00268013
1782	0.00137628
1794	0.00123141
1806	0.00195577
1818	0.00199199
1830	0.000760578
1842	0.000760578
1854	0.00115898
1866	0.00130385
1878	0.00210064
1890	0.00264391
1902	0.00235417
1914	0.00130385
1926	0.000651924
1938	0.000434616
1950	0.000796796
1962	0.00115898
1974	0.00162981
1986	0.00239039
1998	0.00210064
2010	0.0022093
2022	0.00112276
2034	0.00072436
2046	0.00072436
2058	0.000434616
2070	0.000507052
2082	0.000579488
2094	0.000688142
2106	0.00036218
2118	0.000869232
2130	0.000760578
2142	0.00105032
2154	0.000941668
2166	0.00126763
2178	0.00108654
2190	0.00170225
2202	0.00188334
2214	0.00206443
2226	0.00162981
2238	0.00105032
2250	0.00108654
2262	0.00137628
2274	0.00148494
2286	0.00239039
2298	0.00224552
2310	0.00268013
2322	0.00246282
2334	0.00191955
2346	0.00257148
2358	0.00293366
2370	0.00336827
2382	0.00373045
2394	0.00307853
2406	0.00325962
2418	0.00268013
2430	0.00344071
2442	0.0026077
2454	0.00231795
2466	0.00184712
2478	0.00130385
2490	0.00137628
2502	0.00152116
2514	0.00130385
2526	0.00166603
2538	0.0022093
2550	0.00268013
2562	0.00257148
2574	0.00278879
2586	0.00188334
2598	0.000796796
2610	0.000833014
2622	0.000579488
2634	0.000507052
2646	0.00036218
2658	0.00105032
2670	0.000941668
2682	0.00115898
2694	0.00130385
2706	0.00108654
2718	0.0014125
2730	0.00162981
2742	0.00152116
2754	0.00275257
2766	0.00170225
2778	0.00119519
2790	0.00177468
2802	0.00191955
2814	0.00217308
2826	0.00315097
2838	0.00369424
2850	0.00525161
2862	0.00959777
2874	0.014451
2886	0.0131471
2898	0.0109016
2910	0.0107567
2922	0.0144872
2934	0.035059
2946	0.0393327
2958	0.0198475
2970	0.0228536
2982	0.0218395
2994	0.0213324
3006	0.0140526
3018	0.0101773
3030	0.0098513
3042	0.0105032
3054	0.00977886
3066	0.0100324
3078	0.00807661
3090	0.00398398
3102	0.00293366
3114	0.00264391
3126	0.00184712
3138	0.00195577
3150	0.00159359
3162	0.00137628
3174	0.00246282
3186	0.002825
3198	0.00202821
3210	0.00184712
3222	0.00188334
3234	0.00199199
3246	0.00119519
3258	0.00152116
3270	0.00264391
3282	0.00257148
3294	0.00155737
3306	0.00184712
3318	0.00195577
3330	0.00173846
3342	0.00137628
3354	0.00105032
3366	0.00210064
3378	0.00184712
3390	0.00130385
3402	0.00195577
3414	0.00173846
3426	0.00108654
3438	0.00144872
3450	0.00152116
3462	0.00148494
3474	0.000977886
3486	0.00253526
3498	0.00166603
3510	0.00264391
3522	0.0018109
3534	0.00184712
3546	0.00633815
3558	0.00887341
3570	0.098694
3582	0.320203
3594	0.0854383
3606	0.0121692
3618	0.00630193
3630	0.00843879
3642	0.010141
3654	0.0168052
3666	0.00565001
3678	0.00420129
3690	0.00517917
3702	0.00347693
3714	0.00612084
3726	0.00604841
3738	0.00651924
3750	0.0068452
3762	0.00344071
3774	0.00253526
3786	0.00264391
3798	0.002825
3810	0.00383911
3822	0.00449103
3834	0.00365802
3846	0.00405642
3858	0.00445481
3870	0.00438238
3882	0.00612084
3894	0.00449103
3906	0.0054327
3918	0.00470834
3930	0.00445481
3942	0.00521539
3954	0.00268013
3966	0.00307853
