Infrared Spectrum: Ketone, methyl 1,3,5-trimethyl-pyrazol-4-yl,
Formula: C 8 H 12 N 2 O
CAS: 1125-28-6
Origin: Sadtler Research Labs Under US-EPA Contract
1/CM	ABSORBANCE
450	0
462	0.00876632
474	0.0131495
486	0.0132538
498	0.012419
510	0.012732
522	0.0147149
534	0.0155498
546	0.0232725
558	0.0495715
570	0.0673128
582	0.0563549
594	0.0442491
606	0.046545
618	0.0496758
630	0.0217071
642	0.0151323
654	0.016176
666	0.0252554
678	0.128781
690	0.18044
702	0.039031
714	0.019933
726	0.0155498
738	0.0136713
750	0.0109579
762	0.0104361
774	0.00928813
786	0.0123146
798	0.012732
810	0.0105405
822	0.0126277
834	0.0177414
846	0.016176
858	0.0126277
870	0.0146105
882	0.0137757
894	0.0136713
906	0.0131495
918	0.0222289
930	0.0573985
942	0.108744
954	0.107596
966	0.0558331
978	0.0521805
990	0.0917333
1002	0.0845324
1014	0.0643907
1026	0.0658518
1038	0.0777489
1050	0.0950729
1062	0.123877
1074	0.22542
1086	0.145271
1098	0.0360045
1110	0.0267164
1122	0.0299516
1134	0.0343348
1146	0.041327
1158	0.0668954
1170	0.0996648
1182	0.0636602
1194	0.0207678
1206	0.0175326
1218	0.0220202
1230	0.0366307
1242	0.0896461
1254	0.168021
1266	0.117615
1278	0.0521805
1290	0.0647038
1302	0.123772
1314	0.113336
1326	0.0541634
1338	0.0675216
1350	0.176161
1362	0.241074
1374	0.18785
1386	0.287723
1398	0.268938
1410	0.340217
1422	0.418488
1434	0.304525
1446	0.365785
1458	0.453762
1470	0.367977
1482	0.301916
1494	0.308595
1506	0.264242
1518	0.345852
1530	0.538711
1542	0.4475
1554	0.178353
1566	0.0830714
1578	0.0640777
1590	0.0557288
1602	0.0470668
1614	0.0446665
1626	0.05145
1638	0.0817147
1650	0.10363
1662	0.254119
1674	0.926204
1686	0.910132
1698	0.182006
1710	0.0703393
1722	0.0582334
1734	0.0333955
1746	0.0165934
1758	0.0114797
1770	0.0122102
1782	0.0131495
1794	0.0116884
1806	0.0135669
1818	0.012419
1830	0.00876632
1842	0.00845324
1854	0.0120015
1866	0.0121059
1878	0.0136713
1890	0.0109579
1902	0.0111666
1914	0.0102274
1926	0.0099143
1938	0.0102274
1950	0.00960121
1962	0.0106448
1974	0.0114797
1986	0.0116884
1998	0.0117928
2010	0.011271
2022	0.0109579
2034	0.0128364
2046	0.0129408
2058	0.0117928
2070	0.0118972
2082	0.0105405
2094	0.00939249
2106	0.00907941
2118	0.00897505
2130	0.00897505
2142	0.00897505
2154	0.00834888
2166	0.00720091
2178	0.00709655
2190	0.00720091
2202	0.00740963
2214	0.00814016
2226	0.00740963
2238	0.00678346
2250	0.00699219
2262	0.00699219
2274	0.00709655
2286	0.0080358
2298	0.00866196
2310	0.00918377
2322	0.00939249
2334	0.00887068
2346	0.00887068
2358	0.00887068
2370	0.00928813
2382	0.0099143
2394	0.00949685
2406	0.0102274
2418	0.0102274
2430	0.0107492
2442	0.0104361
2454	0.0107492
2466	0.0110623
2478	0.0115841
2490	0.0111666
2502	0.0113753
2514	0.0115841
2526	0.0113753
2538	0.0113753
2550	0.0113753
2562	0.0111666
2574	0.0111666
2586	0.0105405
2598	0.0103317
2610	0.0107492
2622	0.0110623
2634	0.0108535
2646	0.0113753
2658	0.011271
2670	0.0110623
2682	0.0115841
2694	0.0115841
2706	0.0128364
2718	0.01388
2730	0.0158629
2742	0.0198286
2754	0.0220202
2766	0.0210809
2778	0.0206635
2790	0.0228551
2802	0.0279687
2814	0.0316214
2826	0.0386136
2838	0.0441447
2850	0.0458145
2862	0.0554157
2874	0.0733658
2886	0.0913159
2898	0.10363
2910	0.105926
2922	0.12899
2934	0.222289
2946	0.310474
2958	0.290437
2970	0.207261
2982	0.152471
2994	0.12659
3006	0.105196
3018	0.0744094
3030	0.0572942
3042	0.0511369
3054	0.046545
3066	0.0417444
3078	0.0365263
3090	0.031517
3102	0.02776
3114	0.0245248
3126	0.0222289
3138	0.0197242
3150	0.0178457
3162	0.0159672
3174	0.0146105
3186	0.0129408
3198	0.0129408
3210	0.012732
3222	0.0122102
3234	0.0123146
3246	0.0113753
3258	0.0115841
3270	0.0114797
3282	0.0121059
3294	0.0129408
3306	0.012732
3318	0.0142975
3330	0.0192024
3342	0.0212896
3354	0.0157585
3366	0.0108535
3378	0.00980993
3390	0.0107492
3402	0.0115841
3414	0.0104361
3426	0.0104361
3438	0.010123
3450	0.0105405
3462	0.0100187
3474	0.0099143
3486	0.00980993
3498	0.0115841
3510	0.0108535
3522	0.00939249
3534	0.00960121
3546	0.00960121
3558	0.00970557
3570	0.0110623
3582	0.00970557
3594	0.00939249
3606	0.00907941
3618	0.00918377
3630	0.0109579
3642	0.00772271
3654	0.00814016
3666	0.00845324
3678	0.010123
3690	0.00876632
3702	0.00876632
3714	0.00897505
3726	0.00928813
3738	0.00928813
3750	0.00876632
3762	0.0085576
3774	0.00793144
3786	0.00876632
3798	0.00949685
3810	0.00897505
3822	0.00980993
3834	0.00918377
3846	0.00928813
3858	0.00887068
3870	0.0110623
3882	0.0106448
3894	0.0113753
3906	0.0116884
3918	0.011271
3930	0.0120015
3942	0.0114797
3954	0.0109579
3966	0.0109579
