Infrared Spectrum: Benzenamine, N-butyl-
Formula: C 10 H 15 N
CAS: 1126-78-9
Origin: Sadtler Research Labs Under US-EPA Contract
1/CM	ABSORBANCE
450	0.0366991
462	0.0329963
474	0.0371928
486	0.0495356
498	0.063524
510	0.0566944
522	0.0427059
534	0.038098
546	0.0389208
558	0.0348888
570	0.0320089
582	0.0256729
594	0.0213118
606	0.0205712
618	0.0292935
630	0.0301986
642	0.0313506
654	0.0381802
666	0.0443516
678	0.0975077
690	0.198801
702	0.116927
714	0.0544727
726	0.0712588
738	0.193617
750	0.270389
762	0.113224
774	0.0440225
786	0.0244386
798	0.0126719
810	0.0106148
822	0.0131656
834	0.00748794
846	0.00460796
858	0.0163747
870	0.0281415
882	0.0152227
894	0.00551309
906	0.00485482
918	0.0022217
930	0.00098742
942	0.00246855
954	0.00617137
966	0.00781707
978	0.0102033
990	0.0282238
1002	0.0211472
1014	0.00510167
1026	0.0186787
1038	0.0269895
1050	0.0162101
1062	0.0290466
1074	0.0428705
1086	0.0486304
1098	0.0401551
1110	0.0305277
1122	0.0361231
1134	0.0595743
1146	0.0719171
1158	0.0540612
1170	0.0373574
1182	0.0723285
1194	0.0400728
1206	0.035794
1218	0.0477253
1230	0.0602326
1242	0.147372
1254	0.267179
1266	0.221347
1278	0.155519
1290	0.148771
1302	0.222745
1314	0.286599
1326	0.198883
1338	0.0762782
1350	0.0496179
1362	0.0515104
1374	0.0571058
1386	0.049371
1398	0.0313506
1410	0.0336546
1422	0.0784176
1434	0.124168
1446	0.0611378
1458	0.0808039
1470	0.134618
1482	0.199541
1494	0.314822
1506	0.82285
1518	0.299435
1530	0.0854118
1542	0.0431173
1554	0.0411425
1566	0.0397437
1578	0.060644
1590	0.195427
1602	0.641165
1614	0.518889
1626	0.148278
1638	0.0366991
1650	0.015881
1662	0.0155519
1674	0.0127542
1686	0.00938049
1698	0.0122605
1710	0.029458
1722	0.0108616
1734	0.00551309
1746	0.00732337
1758	0.0131656
1770	0.0103679
1782	0.00847536
1794	0.00970963
1806	0.00938049
1818	0.00946277
1830	0.00814622
1842	0.00312683
1854	0.00230398
1866	0.00205712
1878	0.00255083
1890	0.00427882
1902	0.010697
1914	0.013577
1926	0.0120136
1938	0.00617137
1950	0.0016457
1962	0.00205712
1974	0.00139885
1986	0.000740565
1998	0.00065828
2010	0.00049371
2022	0.000905135
2034	0.00139885
2046	0.00131656
2058	0.00123427
2070	0.00148113
2082	0.00032914
2094	0.000740565
2106	0.00131656
2118	0.00082285
2130	0.00123427
2142	0.00131656
2154	0.00065828
2166	0.000905135
2178	0.00065828
2190	0.000411425
2202	0.000740565
2214	0.00065828
2226	0.00082285
2238	0.000905135
2250	0.000411425
2262	0.00082285
2274	0.00131656
2286	0.00139885
2298	0.00106971
2310	0.00131656
2322	0.00032914
2334	0.00172799
2346	0.00238627
2358	0.00016457
2370	0.00460796
2382	0.00337368
2394	0.00296226
2406	0.0032914
2418	0.00271541
2430	0.00255083
2442	0.00197484
2454	0.00172799
2466	0.00238627
2478	0.00213941
2490	0.00230398
2502	0.00172799
2514	0.00205712
2526	0.00312683
2538	0.00485482
2550	0.00707651
2562	0.0088045
2574	0.00938049
2586	0.00847536
2598	0.00650052
2610	0.00518396
2622	0.00510167
2634	0.00501939
2646	0.00501939
2658	0.00641823
2670	0.00773479
2682	0.0088045
2694	0.0103679
2706	0.0100388
2718	0.00995649
2730	0.0110262
2742	0.0120959
2754	0.012425
2766	0.0127542
2778	0.0142353
2790	0.0185964
2802	0.0261666
2814	0.0360408
2826	0.0523333
2838	0.0780062
2850	0.115446
2862	0.179052
2874	0.243728
2886	0.25821
2898	0.179052
2910	0.184565
2922	0.274174
2934	0.401304
2946	0.428129
2958	0.323956
2970	0.434712
2982	0.238873
2994	0.0783353
3006	0.0641
3018	0.103103
3030	0.134701
3042	0.100717
3054	0.1491
3066	0.18868
3078	0.10154
3090	0.0969317
3102	0.0649229
3114	0.0404019
3126	0.0198307
3138	0.00806393
3150	0.00501939
3162	0.00403197
3174	0.00345597
3186	0.0032914
3198	0.00271541
3210	0.00296226
3222	0.00172799
3234	0.00172799
3246	0.00139885
3258	0.000575995
3270	0.00131656
3282	0.00049371
3294	0.000740565
3306	0.00082285
3318	0.00106971
3330	0.00098742
3342	0.00106971
3354	0.00123427
3366	0.00148113
3378	0.00156342
3390	0.00263312
3402	0.00575995
3414	0.0120959
3426	0.0247678
3438	0.0291289
3450	0.0226284
3462	0.0171976
3474	0.0111908
3486	0.00559538
3498	0.0038674
3510	0.00304455
3522	0.00205712
3534	0.00172799
3546	0.00139885
3558	0.0016457
3570	0.00279769
3582	0.00271541
3594	0.00353826
3606	0.00123427
3618	0.00205712
3630	0.0032914
3642	0.00255083
3654	0.00427882
3666	0.00016457
3678	0.00501939
3690	0.00271541
3702	0.00148113
3714	0.00213941
3726	0.00115199
3738	0.00287997
3750	0.000905135
3762	0.00098742
3774	0.0016457
3786	0.000740565
3798	0.00246855
3810	0.000246855
3822	0.00131656
3834	0.000740565
3846	0.000905135
3858	0.00246855
3870	0.00271541
3882	0.00131656
3894	0.00279769
3906	0.00312683
3918	0.00213941
3930	0.00172799
3942	0.000246855
3954	0.00106971
3966	0.00230398
