Infrared Spectrum: 1H-Pyrazole, 1-phenyl-
Formula: C 9 H 8 N 2
CAS: 1126-00-7
Origin: Sadtler Research Labs Under US-EPA Contract
1/CM	ABSORBANCE
450	0.0443751
462	0.0140343
474	0.0142348
486	0.00307418
498	0.0322789
510	0.0411673
522	0.037358
534	0.0225217
546	0.00989084
558	0.00761862
570	0.0124972
582	0.00955669
594	0.00928937
606	0.0218534
618	0.0280686
630	0.0237915
642	0.0367565
654	0.0700378
666	0.0511918
678	0.127712
690	0.261372
702	0.135799
714	0.0676988
726	0.160927
738	0.413477
750	0.473624
762	0.301871
774	0.114613
786	0.0355536
798	0.0185119
810	0.0150367
822	0.0216529
834	0.0384941
846	0.0355536
858	0.0226554
870	0.0257295
882	0.0374916
894	0.039296
906	0.0550011
918	0.0560704
930	0.171753
942	0.262174
954	0.0199153
966	0.0152372
978	0.0141011
990	0.0115616
1002	0.0169748
1014	0.026331
1026	0.0783916
1038	0.347716
1050	0.229227
1062	0.0382936
1074	0.0327467
1086	0.0211183
1098	0.0199153
1110	0.0613499
1122	0.0763867
1134	0.0288037
1146	0.0147026
1158	0.0118957
1170	0.0102918
1182	0.0142348
1194	0.0921586
1206	0.0843395
1218	0.0179773
1230	0.0205836
1242	0.0360214
1254	0.0665627
1266	0.0380263
1278	0.0186456
1290	0.0118289
1302	0.0167743
1314	0.0349521
1326	0.130051
1338	0.163667
1350	0.0352194
1362	0.0284696
1374	0.0778569
1386	0.256828
1398	0.326732
1410	0.249543
1422	0.121764
1434	0.0537313
1446	0.0344174
1458	0.0413009
1470	0.0495879
1482	0.101782
1494	0.262842
1506	0.398641
1518	0.632279
1530	0.490599
1542	0.0303408
1554	0.0280018
1566	0.050724
1578	0.0625529
1590	0.166407
1602	0.459991
1614	0.226487
1626	0.0462464
1638	0.0207173
1650	0.0175763
1662	0.0176431
1674	0.0115616
1686	0.0203163
1698	0.032613
1710	0.0253954
1722	0.0205168
1734	0.0193807
1746	0.0346179
1758	0.0272666
1770	0.00848741
1782	0.0160392
1794	0.0116952
1806	0.00835375
1818	0.00447761
1830	0.00240588
1842	0.00434395
1854	0.00948986
1866	0.0132992
1878	0.0141011
1890	0.00741813
1902	0.00253954
1914	0.00421029
1926	0.00942303
1938	0.0134328
1950	0.0147694
1962	0.0110938
1974	0.00314101
1986	0.0013366
1998	0.00013366
2010	0.00033415
2022	0.00160392
2034	0.00180441
2046	0.00113611
2058	0.00060147
2070	0.00354199
2082	0.00461127
2094	0.00167075
2106	0.00100245
2118	0.00080196
2130	0.00020049
2142	0.00053464
2154	0.00053464
2166	0.00093562
2178	0.00046781
2190	0.00080196
2202	0.00187124
2214	0.00126977
2226	0.00167075
2238	0.00314101
2250	0.00253954
2262	0.00167075
2274	0.0026732
2286	0.00380931
2298	0.0060147
2310	0.00701715
2322	0.00581421
2334	0.00354199
2346	0.00487859
2358	0.00327467
2370	0.00695032
2382	0.0073513
2394	0.00294052
2406	0.00314101
2418	0.00374248
2430	0.00581421
2442	0.00948986
2454	0.00902205
2466	0.00294052
2478	0.00253954
2490	0.00340833
2502	0.00594787
2514	0.00487859
2526	0.00394297
2538	0.00367565
2550	0.00347516
2562	0.00561372
2574	0.00634885
2586	0.00955669
2598	0.00822009
2610	0.00641568
2622	0.00634885
2634	0.00848741
2646	0.00975718
2658	0.00862107
2670	0.0102918
2682	0.00902205
2694	0.00581421
2706	0.00674983
2718	0.00795277
2730	0.00674983
2742	0.00548006
2754	0.00628202
2766	0.00862107
2778	0.0114948
2790	0.00728447
2802	0.00494542
2814	0.00648251
2826	0.00581421
2838	0.00574738
2850	0.00695032
2862	0.00674983
2874	0.00748496
2886	0.00842058
2898	0.0105591
2910	0.0132992
2922	0.0143016
2934	0.0103586
2946	0.00902205
2958	0.0080196
2970	0.00741813
2982	0.00755179
2994	0.00882156
3006	0.0123635
3018	0.0180441
3030	0.0265983
3042	0.0523947
3054	0.117955
3066	0.134529
3078	0.113477
3090	0.0926932
3102	0.0520606
3114	0.0586099
3126	0.0477166
3138	0.0249276
3150	0.0139006
3162	0.0108265
3174	0.00434395
3186	0.00554689
3198	0.00608153
3210	0.00507908
3222	0.00247271
3234	0.00461127
3246	0.00354199
3258	0.00487859
3270	0.00568055
3282	0.00340833
3294	0.00394297
3306	0.00461127
3318	0.00327467
3330	0.00354199
3342	0.00253954
3354	0.00374248
3366	0.00367565
3378	0.00407663
3390	0.00568055
3402	0.00621519
3414	0.00628202
3426	0.00347516
3438	0.00521274
3450	0.00287369
3462	0.00494542
3474	0.00421029
3486	0.00153709
3498	0.00561372
3510	0.00501225
3522	0.00360882
3534	0.0046781
3546	0.00581421
3558	0.00274003
3570	0.00574738
3582	0.00441078
3594	0.00447761
3606	0.00594787
3618	0.00414346
3630	0.00354199
3642	0.00741813
3654	0.0060147
3666	0.00568055
3678	0.00514591
3690	0.00407663
3702	0.00594787
3714	0.00541323
3726	0.00447761
3738	0.00634885
3750	0.00855424
3762	0.00374248
3774	0.00454444
3786	0.0073513
3798	0.00474493
3810	0.00875473
3822	0.00367565
3834	0.00374248
3846	0.00307418
3858	0.00454444
3870	0.00608153
3882	0.00521274
3894	0.00548006
3906	0.00701715
3918	0.00828692
3930	0.0093562
3942	0.00674983
3954	0.0086879
3966	0.00681666
