Infrared Spectrum: Benzoic acid, 4-chloro-, methyl ester
Formula: C 8 H 7 Cl O 2
CAS: 1126-46-1
Origin: Sadtler Research Labs Under US-EPA Contract
1/CM	ABSORBANCE
450	0.00643072
462	0.0137189
474	0.0252942
486	0.0212928
498	0.013576
510	0.0347259
522	0.0958893
534	0.0498738
546	0.00443006
558	0.00514458
570	0.00214357
582	0.00200067
594	0.00257229
606	0.00242939
618	0.00528748
630	0.00500167
642	0.00214357
654	0.00200067
666	0.00886011
678	0.0241509
690	0.033154
702	0.0167199
714	0.00700235
726	0.027009
738	0.0104321
750	0.0834565
762	0.193493
774	0.105607
786	0.0160054
798	0.0142905
810	0.0387273
822	0.0911734
834	0.0654505
846	0.0858859
858	0.0517316
870	0.0111466
882	0.0028581
894	0.00385843
906	0.00342972
918	0.00485877
930	0.0058591
942	0.00514458
954	0.0138618
966	0.0267232
978	0.0184347
990	0.00614491
1002	0.0168628
1014	0.227076
1026	0.116182
1038	0.0205783
1050	0.0215787
1062	0.0317249
1074	0.0783119
1086	0.300243
1098	0.740391
1110	0.548898
1122	0.421713
1134	0.132616
1146	0.0490164
1158	0.0454438
1170	0.152337
1182	0.128614
1194	0.0876008
1206	0.0560188
1218	0.0773116
1230	0.156195
1242	0.136188
1254	0.279951
1266	0.908447
1278	1.42905
1290	0.683229
1302	0.189635
1314	0.108322
1326	0.0455867
1338	0.0388702
1350	0.043586
1362	0.0385844
1374	0.0295813
1386	0.0447293
1398	0.0788836
1410	0.0728816
1422	0.0418712
1434	0.143334
1446	0.158625
1458	0.0434431
1470	0.0350117
1482	0.0768829
1494	0.129043
1506	0.015005
1518	0.00728816
1530	0.0127185
1542	0.0152908
1554	0.0190064
1566	0.0367266
1578	0.0550184
1590	0.160625
1602	0.253513
1614	0.0670224
1626	0.0262945
1638	0.015005
1650	0.0122898
1662	0.0202925
1674	0.0257229
1686	0.0232935
1698	0.0335827
1710	0.0463012
1722	0.0960322
1734	0.371267
1746	0.963608
1758	0.521889
1770	0.0968896
1782	0.037584
1794	0.0412995
1806	0.027152
1818	0.0162912
1830	0.00614491
1842	0.00400134
1854	0.00414425
1866	0.00400134
1878	0.00543039
1890	0.00557329
1902	0.00928883
1914	0.0172915
1926	0.0204354
1938	0.0145763
1950	0.00700235
1962	0.00357262
1974	0.0027152
1986	0.0028581
1998	0.00300101
2010	0.00400134
2022	0.00357262
2034	0.00443006
2046	0.00543039
2058	0.00700235
2070	0.00914592
2082	0.012004
2094	0.0118611
2106	0.00771687
2118	0.00443006
2130	0.0027152
2142	0.00228648
2154	0.00200067
2166	0.00200067
2178	0.00214357
2190	0.00228648
2202	0.00214357
2214	0.0027152
2226	0.00328682
2238	0.00371553
2250	0.00443006
2262	0.00457296
2274	0.00485877
2286	0.00400134
2298	0.00171486
2310	0.00028581
2322	0
2334	0
2346	0
2358	0.00128615
2370	0.00200067
2382	0.00471586
2394	0.00514458
2406	0.00457296
2418	0.00371553
2430	0.00242939
2442	0.00257229
2454	0.0028581
2466	0.00328682
2478	0.00300101
2490	0.00300101
2502	0.00300101
2514	0.00371553
2526	0.00443006
2538	0.00643072
2550	0.00871721
2562	0.00800268
2574	0.00685944
2586	0.0058591
2598	0.00514458
2610	0.00457296
2622	0.00400134
2634	0.00314391
2646	0.00357262
2658	0.00400134
2670	0.00385843
2682	0.00400134
2694	0.00385843
2706	0.00328682
2718	0.00357262
2730	0.00314391
2742	0.00314391
2754	0.00400134
2766	0.00457296
2778	0.00428715
2790	0.00357262
2802	0.00357262
2814	0.00485877
2826	0.00685944
2838	0.0114324
2850	0.0310104
2862	0.0201496
2874	0.0124327
2886	0.013576
2898	0.0190064
2910	0.0244368
2922	0.0252942
2934	0.0217216
2946	0.0344401
2958	0.139475
2970	0.125613
2982	0.0284381
2994	0.0321536
3006	0.0417283
3018	0.0371553
3030	0.0341543
3042	0.0268661
3054	0.0185777
3066	0.0160054
3078	0.0194351
3090	0.0227219
3102	0.0204354
3114	0.0127185
3126	0.00771687
3138	0.00685944
3150	0.00643072
3162	0.00500167
3174	0.00328682
3186	0.00342972
3198	0.00257229
3210	0.0028581
3222	0.0028581
3234	0.00242939
3246	0.0028581
3258	0.00228648
3270	0.00257229
3282	0.00257229
3294	0.0027152
3306	0.00200067
3318	0.00300101
3330	0.00314391
3342	0.00328682
3354	0.00328682
3366	0.00257229
3378	0.00314391
3390	0.0027152
3402	0.00185776
3414	0.00214357
3426	0.00214357
3438	0.00157196
3450	0.00185776
3462	0.00485877
3474	0.00843139
3486	0.00471586
3498	0.00128615
3510	0.000142905
3522	0.000714525
3534	0.00242939
3546	0.00100033
3558	0.00171486
3570	0.00214357
3582	0.00185776
3594	0.00314391
3606	0.00114324
3618	0.00157196
3630	0.00200067
3642	0.00114324
3654	0.00171486
3666	0.00114324
3678	0.00314391
3690	0.00300101
3702	0.00171486
3714	0.00228648
3726	0.00228648
3738	0.0027152
3750	0.00100033
3762	0.00142905
3774	0.00100033
3786	0.00157196
3798	0.00142905
3810	0.00028581
3822	0.00114324
3834	0.00157196
3846	0.000428715
3858	0.00100033
3870	0.00142905
3882	0.00057162
3894	0.00142905
3906	0.00214357
3918	0.00257229
3930	0.00142905
3942	0.000428715
3954	0.00157196
3966	0.00085743
