Infrared Spectrum: Cyclohexanone, 2-butyl-
Formula: C 10 H 18 O
CAS: 1126-18-7
Origin: Sadtler Research Labs Under US-EPA Contract
1/CM	ABSORBANCE
450	0.00835434
462	0.0084772
474	0.00405431
486	0.00307145
498	0.0132687
510	0.0189201
522	0.0168315
534	0.0114258
546	0.00810863
558	0.00356288
570	0.00663433
582	0.0046686
594	0.00307145
606	0.0014743
618	0.0023343
630	0.000368574
642	0.00122858
654	0.00172001
666	0.00516004
678	0.00159715
690	0.00442289
702	0.0110572
714	0.0208859
726	0.0116715
738	0.0141287
750	0.0113029
762	0.00835434
774	0.00737148
786	0.0101972
798	0.00786291
810	0.00712576
822	0.0184287
834	0.0245716
846	0.0114258
858	0.00823149
870	0.0114258
882	0.013883
894	0.0122858
906	0.00958292
918	0.0144972
930	0.0170773
942	0.0172001
954	0.0210087
966	0.0160944
978	0.0141287
990	0.0116715
1002	0.0130229
1014	0.0254316
1026	0.0278888
1038	0.0297316
1050	0.0491432
1062	0.0624119
1074	0.046686
1086	0.0396831
1098	0.0374717
1110	0.0560232
1122	0.134161
1134	0.104061
1146	0.0621661
1158	0.034646
1170	0.0264145
1182	0.0315745
1194	0.0476689
1206	0.0450889
1218	0.0534432
1230	0.0630262
1242	0.0443517
1254	0.036366
1266	0.0258002
1278	0.0238345
1290	0.0310831
1302	0.0411574
1314	0.0636404
1326	0.0447203
1338	0.0582347
1350	0.0573747
1362	0.0518461
1374	0.0536889
1386	0.0495118
1398	0.0269059
1410	0.0208859
1422	0.0375945
1434	0.0723634
1446	0.105658
1458	0.158241
1470	0.108606
1482	0.0401746
1494	0.0131458
1506	0.0104429
1518	0.00786291
1530	0.0038086
1542	0.0061429
1554	0.00405431
1566	0.00208859
1578	0.00356288
1590	0.00319431
1602	0.000982864
1614	0.00417717
1626	0.00675719
1638	0.0076172
1650	0.0160944
1662	0.0127772
1674	0.0213773
1686	0.0417717
1698	0.065729
1710	0.19559
1722	0.612693
1734	0.669576
1746	0.198293
1758	0.0664662
1770	0.0443517
1782	0.0294859
1794	0.022483
1806	0.0140058
1818	0.00577433
1830	0.00540575
1842	0.00368574
1854	0.00184287
1866	0.00307145
1878	0.0014743
1890	0.00172001
1902	0.00196573
1914	0.00110572
1926	0.000491432
1938	0.00122858
1950	0.00061429
1962	0.00135144
1974	0.00135144
1986	0
1998	0.000491432
2010	0.000491432
2022	0.000368574
2034	0.00135144
2046	0.000860006
2058	0.000491432
2070	0.00061429
2082	0
2094	0
2106	0.000491432
2118	0.000491432
2130	0.000737148
2142	0.00122858
2154	0.00061429
2166	0.00122858
2178	0.00122858
2190	0.00159715
2202	0.00172001
2214	0.00122858
2226	0.00110572
2238	0.000982864
2250	0.000737148
2262	0.000860006
2274	0.00110572
2286	0.000737148
2298	0.00172001
2310	0.00208859
2322	0.00258002
2334	0.00282573
2346	0.00122858
2358	0.00344002
2370	0.000982864
2382	0.00110572
2394	0.00172001
2406	0.00208859
2418	0.0014743
2430	0.000982864
2442	0.000491432
2454	0
2466	0.000368574
2478	0.000245716
2490	0.000245716
2502	0.000860006
2514	0.00135144
2526	0.00172001
2538	0.00172001
2550	0.00221144
2562	0.00331717
2574	0.00344002
2586	0.00368574
2598	0.00430003
2610	0.00417717
2622	0.00442289
2634	0.00491432
2646	0.00651147
2658	0.00909149
2670	0.0125315
2682	0.0120401
2694	0.00970578
2706	0.00970578
2718	0.00946007
2730	0.00958292
2742	0.0116715
2754	0.0115487
2766	0.0114258
2778	0.0142515
2790	0.0200259
2802	0.0266602
2814	0.0309602
2826	0.0378403
2838	0.0617976
2850	0.140672
2862	0.359851
2874	0.524112
2886	0.353708
2898	0.240925
2910	0.310462
2922	0.500032
2934	0.95731
2946	1.21531
2958	0.706188
2970	0.642302
2982	0.290436
2994	0.0898092
3006	0.0512318
3018	0.0362431
3030	0.0288716
3042	0.0221144
3054	0.0163401
3066	0.0132687
3078	0.0119172
3090	0.0105658
3102	0.00946007
3114	0.00774005
3126	0.00700291
3138	0.00626576
3150	0.00565147
3162	0.00552861
3174	0.00540575
3186	0.00540575
3198	0.0046686
3210	0.00368574
3222	0.00307145
3234	0.00294859
3246	0.00270288
3258	0.00208859
3270	0.00159715
3282	0.000860006
3294	0.000982864
3306	0.000982864
3318	0.000491432
3330	0.000737148
3342	0.000982864
3354	0.00221144
3366	0.00270288
3378	0.00245716
3390	0.00331717
3402	0.00368574
3414	0.00319431
3426	0.00823149
3438	0.0117944
3450	0.00724862
3462	0.00221144
3474	0.00159715
3486	0.000737148
3498	0.00208859
3510	0.000860006
3522	0.00122858
3534	0.00159715
3546	0.00061429
3558	0.00258002
3570	0.00491432
3582	0.00688005
3594	0.00454575
3606	0.00282573
3618	0.00184287
3630	0.00196573
3642	0.00319431
3654	0.00405431
3666	0.00479146
3678	0.00319431
3690	0.00417717
3702	0.00344002
3714	0.00270288
3726	0.00172001
3738	0.00258002
3750	0.00270288
3762	0.00344002
3774	0.00405431
3786	0.00344002
3798	0.00430003
3810	0.00430003
3822	0.0038086
3834	0.00430003
3846	0.00270288
3858	0.00368574
3870	0.00319431
3882	0.00282573
3894	0.0038086
3906	0.00294859
3918	0.00393146
3930	0.00393146
3942	0.00417717
3954	0.00442289
3966	0.00528289
