Infrared Spectrum: Benzene, butoxy-
Formula: C 10 H 14 O
CAS: 1126-79-0
Origin: Sadtler Research Labs Under US-EPA Contract
1/CM	ABSORBANCE
450	0.00430299
462	0.00274659
474	0.00476076
486	0.0128174
498	0.0231629
510	0.0264588
522	0.015564
534	0.00787356
546	0.00704958
558	0.00549318
570	0.00823977
582	0.0142823
594	0.00970462
606	0.0152894
618	0.00787356
630	0.00393678
642	0.00750735
654	0.00906375
666	0.0186768
678	0.0663759
690	0.120209
702	0.0624391
714	0.0273743
726	0.0342408
738	0.102906
750	0.197663
762	0.124787
774	0.0541078
786	0.0348817
798	0.038086
810	0.0322267
822	0.0258179
834	0.0174866
846	0.0125428
858	0.0205994
870	0.0420228
882	0.0482484
894	0.0293885
906	0.0196839
918	0.0140992
930	0.0125428
942	0.0166626
954	0.0316773
966	0.0462343
978	0.0550234
990	0.0407411
1002	0.0474245
1014	0.082947
1026	0.133118
1038	0.148957
1050	0.106842
1062	0.0916446
1074	0.11673
1086	0.0753481
1098	0.0407411
1110	0.0344239
1122	0.0349732
1134	0.0270997
1146	0.0360719
1158	0.0556642
1170	0.11966
1182	0.0511781
1194	0.053467
1206	0.1138
1218	0.268159
1230	0.334626
1242	0.84302
1254	0.52524
1266	0.16269
1278	0.135956
1290	0.143921
1302	0.143921
1314	0.0727846
1326	0.0477907
1338	0.0495302
1350	0.0285645
1362	0.0244447
1374	0.035431
1386	0.081116
1398	0.0615236
1410	0.0207825
1422	0.0170289
1434	0.0287476
1446	0.0401002
1458	0.0642702
1470	0.17743
1482	0.198029
1494	0.418489
1506	0.294251
1518	0.0445863
1530	0.0269166
1542	0.0201417
1554	0.019867
1566	0.0351564
1578	0.0802004
1590	0.214875
1602	0.39203
1614	0.132386
1626	0.0272828
1638	0.0150147
1650	0.0101624
1662	0.00869753
1674	0.0075989
1686	0.0108033
1698	0.011261
1710	0.00878909
1722	0.00750735
1734	0.00567629
1746	0.00650026
1758	0.0127259
1770	0.0117188
1782	0.00823977
1794	0.00668337
1806	0.00558473
1818	0.00677492
1830	0.00851443
1842	0.00897219
1854	0.00878909
1866	0.00503541
1878	0.00521852
1890	0.00393678
1902	0.00677492
1914	0.0109864
1926	0.0125428
1938	0.0124512
1950	0.00860598
1962	0.00540163
1974	0.00695803
1986	0.00668337
1998	0.00750735
2010	0.0075989
2022	0.00842288
2034	0.0105286
2046	0.0110779
2058	0.00823977
2070	0.00796511
2082	0.00576784
2094	0.00558473
2106	0.00430299
2118	0.00366212
2130	0.00375367
2142	0.00274659
2154	0.00256348
2166	0.00302125
2178	0.00283814
2190	0.00329591
2202	0.00247193
2214	0.00219727
2226	0.00265504
2238	0.00173951
2250	0.00228882
2262	0.00219727
2274	0.00256348
2286	0.00265504
2298	0.00210572
2310	0.00173951
2322	0.00100708
2334	9.1553e-05
2346	0.00357057
2358	0
2370	0.00393678
2382	0.00485231
2394	0.00402833
2406	0.00411989
2418	0.00494386
2430	0.00430299
2442	0.00421144
2454	0.00476076
2466	0.00540163
2478	0.0060425
2490	0.0060425
2502	0.0046692
2514	0.00476076
2526	0.00540163
2538	0.00659182
2550	0.00650026
2562	0.00494386
2574	0.00457765
2586	0.00411989
2598	0.00411989
2610	0.00430299
2622	0.00430299
2634	0.00439454
2646	0.00320435
2658	0.00384523
2670	0.00411989
2682	0.00421144
2694	0.00503541
2706	0.00521852
2718	0.00585939
2730	0.00741579
2742	0.0109864
2754	0.0114441
2766	0.00952151
2778	0.0091553
2790	0.0091553
2802	0.00997928
2814	0.0118103
2826	0.0151062
2838	0.0238038
2850	0.0426637
2862	0.0732424
2874	0.130646
2886	0.186036
2898	0.147034
2910	0.157654
2922	0.183564
2934	0.215882
2946	0.29123
2958	0.275666
2970	0.345796
2982	0.198487
2994	0.0639955
3006	0.0334168
3018	0.0333253
3030	0.0499879
3042	0.0846865
3054	0.0855105
3066	0.0693056
3078	0.0960391
3090	0.0661928
3102	0.0512697
3114	0.0335084
3126	0.0116272
3138	0.00439454
3150	0.0046692
3162	0.00329591
3174	0.0031128
3186	0.00393678
3198	0.00302125
3210	0.00338746
3222	0.00256348
3234	0.00109864
3246	0.00247193
3258	0.000640871
3270	0.00091553
3282	0.00183106
3294	0.000457765
3306	0.00109864
3318	0.00173951
3330	0.000274659
3342	0.00192261
3354	0.000183106
3366	0.00164795
3378	0.00201417
3390	0.000274659
3402	0.00164795
3414	0.00137329
3426	0.000640871
3438	0.00183106
3450	0.000274659
3462	0.00173951
3474	0.0015564
3486	0.000549318
3498	0.00219727
3510	0.000823977
3522	0.00109864
3534	0.00091553
3546	0.00100708
3558	0.00119019
3570	0.00201417
3582	0.00128174
3594	0.00173951
3606	0.000183106
3618	0.00119019
3630	0.0015564
3642	0.00183106
3654	0.0029297
3666	0.00146485
3678	0.00228882
3690	0.00302125
3702	0.00137329
3714	0.00347901
3726	0.00109864
3738	0.00100708
3750	0.00091553
3762	0.00109864
3774	0.00219727
3786	0.00183106
3798	0.00173951
3810	0.00228882
3822	0.00146485
3834	0.00219727
3846	0.00210572
3858	0.00338746
3870	0.00274659
3882	0.00366212
3894	0.00366212
3906	0.00439454
3918	0.00393678
3930	0.00357057
3942	0.00402833
3954	0.000366212
3966	0.000823977
