Infrared Spectrum: Naphthalene, 1-ethyl-
Formula: C 12 H 12
CAS: 1127-76-0
Origin: Sadtler Research Labs Under US-EPA Contract
1/CM	ABSORBANCE
450	0.00628959
462	0.00923018
474	0.0158465
486	0.00253217
498	0.00236881
510	0.00522771
522	0.00931186
534	0.00947523
546	0.0191138
558	0.0155198
570	0.0212376
582	0.0170717
594	0.00367573
606	0.00326732
618	0.00449256
630	0.00490098
642	0.0106188
654	0.00392078
666	0.00588118
678	0.00637127
690	0.021646
702	0.0253217
714	0.0152747
726	0.0411682
738	0.0278539
750	0.0495816
762	0.300348
774	0.81683
786	0.454239
798	0.23974
810	0.0663266
822	0.0141312
834	0.0116807
846	0.0286707
858	0.0437821
870	0.0161732
882	0.0114356
894	0.0127425
906	0.00677969
918	0.00898513
930	0.0111906
942	0.0233613
954	0.0345519
966	0.0298143
978	0.0128242
990	0.0147846
1002	0.0405148
1014	0.0454974
1026	0.0410049
1038	0.0232797
1050	0.0304678
1062	0.0405148
1074	0.0231163
1086	0.0230346
1098	0.0111906
1110	0.00759652
1122	0.00792325
1134	0.0111089
1146	0.013396
1158	0.0200123
1170	0.028099
1182	0.00906681
1194	0.00808662
1206	0.0108638
1218	0.0127425
1230	0.0120074
1242	0.0179703
1254	0.0361856
1266	0.0288341
1278	0.0155198
1290	0.00939354
1302	0.0120891
1314	0.0260569
1326	0.0263836
1338	0.0140495
1350	0.0154381
1362	0.0187871
1374	0.0347153
1386	0.0728612
1398	0.0970394
1410	0.0443539
1422	0.021891
1434	0.0251584
1446	0.0405965
1458	0.0672251
1470	0.0811929
1482	0.0451707
1494	0.0348786
1506	0.0766187
1518	0.073433
1530	0.0230346
1542	0.00890345
1554	0.00751484
1566	0.0104554
1578	0.028589
1590	0.0570964
1602	0.0542375
1614	0.0197673
1626	0.0156015
1638	0.0142128
1650	0.0108638
1662	0.0144579
1674	0.0209925
1686	0.0240965
1698	0.0165816
1710	0.0110272
1722	0.0170717
1734	0.0137227
1746	0.0142128
1758	0.0153564
1770	0.0111089
1782	0.0136411
1794	0.02524
1806	0.0196039
1818	0.0124975
1830	0.0134777
1842	0.00874008
1854	0.0171534
1866	0.0147846
1878	0.00392078
1890	0.00775988
1902	0.0159282
1914	0.0315296
1926	0.0286707
1938	0.0235247
1950	0.0129876
1962	0.00187871
1974	0.00081683
1986	0.00081683
1998	0.000980196
2010	0.00114356
2022	0.000735147
2034	0.00081683
2046	0.00204207
2058	0.00326732
2070	0.00114356
2082	0.00302227
2094	0.00220544
2106	0.00130693
2118	0.00138861
2130	0.00106188
2142	0.00147029
2154	0.000735147
2166	0.00220544
2178	0.000408415
2190	0.000898513
2202	0.00122525
2214	0.00106188
2226	0.00236881
2238	0.00196039
2250	0.00245049
2262	0.00163366
2274	0.00204207
2286	0.0028589
2298	0.00245049
2310	0.00424752
2322	0.00514603
2334	0.0071881
2346	0.003349
2358	0.00375742
2370	0.00539108
2382	0.00441088
2394	0.0043292
2406	0.00506435
2418	0.00669801
2430	0.00473761
2442	0.00392078
2454	0.00277722
2466	0.00318564
2478	0.00375742
2490	0.00375742
2502	0.00473761
2514	0.00351237
2526	0.0048193
2538	0.00367573
2550	0.00539108
2562	0.00261386
2574	0.00171534
2586	0.00236881
2598	0.00171534
2610	0.00245049
2622	0.00400247
2634	0.00677969
2646	0.00294059
2658	0.00367573
2670	0.00604454
2682	0.00204207
2694	0.00269554
2706	0.00400247
2718	0.00555444
2730	0.00628959
2742	0.00890345
2754	0.00645296
2766	0.00547276
2778	0.00824998
2790	0.00849503
2802	0.0119257
2814	0.013396
2826	0.0169901
2838	0.0232797
2850	0.0312846
2862	0.0489281
2874	0.0941805
2886	0.189913
2898	0.168104
2910	0.123668
2922	0.121626
2934	0.1757
2946	0.280254
2958	0.231571
2970	0.393467
2982	0.452687
2994	0.12669
3006	0.0978562
3018	0.114193
3030	0.128161
3042	0.220217
3054	0.331715
3066	0.4067
3078	0.332286
3090	0.186891
3102	0.10872
3114	0.0462326
3126	0.0183787
3138	0.018297
3150	0.0156015
3162	0.020094
3174	0.0192772
3186	0.0138861
3198	0.00898513
3210	0.00906681
3222	0.0125792
3234	0.0147029
3246	0.0126609
3258	0.011844
3270	0.0123341
3282	0.0076782
3294	0.00628959
3306	0.00645296
3318	0.00571781
3330	0.00906681
3342	0.00669801
3354	0.00775988
3366	0.00824998
3378	0.00686137
3390	0.00669801
3402	0.00359405
3414	0.00498266
3426	0.00228712
3438	0.00351237
3450	0.00359405
3462	0.00310395
3474	0.00547276
3486	0.000408415
3498	0.00555444
3510	0.00253217
3522	0.0038391
3534	0.00220544
3546	0.00245049
3558	0.0028589
3570	0.0028589
3582	0.00400247
3594	0.00220544
3606	0.00604454
3618	0.00392078
3630	0.00490098
3642	0.00343069
3654	0.00522771
3666	0.00441088
3678	0.00343069
3690	0.00669801
3702	0.00359405
3714	0.00498266
3726	0.00473761
3738	0.00571781
3750	0.00645296
3762	0.00473761
3774	0.00726979
3786	0.00604454
3798	0.00759652
3810	0.00800493
3822	0.00841335
3834	0.00743315
3846	0.00677969
3858	0.00784157
3870	0.00710642
3882	0.00963859
3894	0.00743315
3906	0.00686137
3918	0.00726979
3930	0.00792325
3942	0.00498266
3954	0.00514603
3966	0.00743315
