Infrared Spectrum: Phenol, 4-cyclohexyl-
Formula: C 12 H 16 O
CAS: 1131-60-8
Origin: Sadtler Research Labs Under US-EPA Contract
1/CM	ABSORBANCE
450	0.0082031
462	0.00722654
474	0.00703123
486	0.00747068
498	0.00742186
510	0.0130859
522	0.0242187
534	0.0284667
546	0.0161132
558	0.0148925
570	0.0154785
582	0.00683592
594	0.00649412
606	0.00502928
618	0.00556639
630	0.00512694
642	0.00312499
654	0.00532225
666	0.0033203
678	0.00166015
690	0.00566405
702	0.00229492
714	0.00146484
726	0.00571288
738	0.0123535
750	0.0144043
762	0.010498
774	0.010498
786	0.0132812
798	0.0285156
810	0.0508788
822	0.0637205
834	0.0606932
846	0.0208496
858	0.00786131
870	0.00742186
882	0.00620116
894	0.00659178
906	0.00468749
918	0.00527342
930	0.00444335
942	0.00439452
954	0.00439452
966	0.00566405
978	0.00434569
990	0.00922849
1002	0.012207
1014	0.0100097
1026	0.00781248
1038	0.00629881
1050	0.00810545
1062	0.00761717
1074	0.00991208
1086	0.0188964
1098	0.0254394
1110	0.0158203
1122	0.0214843
1134	0.0203613
1146	0.0238281
1158	0.0581541
1170	0.297851
1182	0.142089
1194	0.0842771
1206	0.0512694
1218	0.0354003
1230	0.0462889
1242	0.0504882
1254	0.14956
1266	0.0795896
1278	0.0207519
1290	0.0145507
1302	0.0127929
1314	0.0205078
1326	0.0346191
1338	0.0274413
1350	0.0214843
1362	0.0171386
1374	0.0130371
1386	0.007666
1398	0.0064453
1410	0.0073242
1422	0.0151855
1434	0.0359862
1446	0.039453
1458	0.0450682
1470	0.0211914
1482	0.0152343
1494	0.0237304
1506	0.103174
1518	0.205712
1530	0.0248535
1542	0.0114258
1554	0.00693358
1566	0.007666
1578	0.0137695
1590	0.0263671
1602	0.0398925
1614	0.0506835
1626	0.0238769
1638	0.00947263
1650	0.00571288
1662	0.00371093
1674	0.0036621
1686	0.00429686
1698	0.00361327
1710	0.00253906
1722	0.00273437
1734	0.00439452
1746	0.00395507
1758	0.00190429
1770	0.00185546
1782	0.000830076
1794	0.000878904
1806	0.00126953
1818	0.00131836
1830	0.00185546
1842	0.00185546
1854	0.00307616
1866	0.00361327
1878	0.00371093
1890	0.00302734
1902	0.00205078
1914	0.00146484
1926	0.00146484
1938	0.000781248
1950	0.000830076
1962	0.000830076
1974	0.0012207
1986	0.0012207
1998	0.000537108
2010	0.00107422
2022	0.00107422
2034	0.00107422
2046	0.000634764
2058	0.00146484
2070	0.00190429
2082	0.000927732
2094	0.00146484
2106	0.000830076
2118	0.000878904
2130	0.000781248
2142	0.000634764
2154	0.00073242
2166	0.00073242
2178	0.000634764
2190	0.000537108
2202	0.000585936
2214	0.000195312
2226	0.00048828
2238	0.000439452
2250	0.00097656
2262	0.00097656
2274	0.000927732
2286	0.000781248
2298	0.00136718
2310	0.00097656
2322	0.00141601
2334	0.00253906
2346	0.0027832
2358	0.00214843
2370	0.00214843
2382	0.00146484
2394	0.00117187
2406	0.00170898
2418	0.00317382
2430	0.00410155
2442	0.00170898
2454	0.00107422
2466	0.00102539
2478	0.00151367
2490	0.00185546
2502	0.00200195
2514	0.00200195
2526	0.00146484
2538	0.00117187
2550	0.00126953
2562	0.00136718
2574	0.00185546
2586	0.00185546
2598	0.00234374
2610	0.0024414
2622	0.0027832
2634	0.00263671
2646	0.00263671
2658	0.00463866
2670	0.00468749
2682	0.00419921
2694	0.00317382
2706	0.00234374
2718	0.00214843
2730	0.00166015
2742	0.0015625
2754	0.00175781
2766	0.00307616
2778	0.00405272
2790	0.00502928
2802	0.00581053
2814	0.00590819
2826	0.00795896
2838	0.0138672
2850	0.049121
2862	0.153418
2874	0.0958005
2886	0.040039
2898	0.0409667
2910	0.0825681
2922	0.185888
2934	0.441161
2946	0.299706
2958	0.0537596
2970	0.0151855
2982	0.00727537
2994	0.00800779
3006	0.0188476
3018	0.0355468
3030	0.0324706
3042	0.0306152
3054	0.0205078
3066	0.0173828
3078	0.0154296
3090	0.00810545
3102	0.0064453
3114	0.00546874
3126	0.00390624
3138	0.00253906
3150	0.0024414
3162	0.00185546
3174	0.00190429
3186	0.00126953
3198	0.00131836
3210	0.00131836
3222	0.00126953
3234	0.00131836
3246	0.00131836
3258	0.00136718
3270	0.00175781
3282	0.0015625
3294	0.00166015
3306	0.00131836
3318	0.00170898
3330	0.00161132
3342	0.00205078
3354	0.00283202
3366	0.0033203
3378	0.00297851
3390	0.00302734
3402	0.00317382
3414	0.00346679
3426	0.00385741
3438	0.00341796
3450	0.00327148
3462	0.00263671
3474	0.00292968
3486	0.00288085
3498	0.00273437
3510	0.00229492
3522	0.00229492
3534	0.00180664
3546	0.0012207
3558	0.00117187
3570	0.0012207
3582	0.0015625
3594	0.00112304
3606	0.00117187
3618	0.0027832
3630	0.00834959
3642	0.0358886
3654	0.108398
3666	0.0281249
3678	0.00478514
3690	0.0020996
3702	0.000585936
3714	0.000439452
3726	0.00048828
3738	0.000634764
3750	0.000390624
3762	4.8828e-05
3774	4.8828e-05
3786	4.8828e-05
3798	4.8828e-05
3810	4.8828e-05
3822	4.8828e-05
3834	0.00024414
3846	0.000292968
3858	0.000683592
3870	0.00024414
3882	0.000195312
3894	0.000195312
3906	0.000195312
3918	9.7656e-05
3930	9.7656e-05
3942	9.7656e-05
3954	4.8828e-05
3966	4.8828e-05
