Infrared Spectrum: Ethanone, 1-(3,4-dimethoxyphenyl)-
Formula: C 10 H 12 O 3
CAS: 1131-62-0
Origin: Sadtler Research Labs Under US-EPA Contract
1/CM	ABSORBANCE
450	0.0485377
462	0.0690244
474	0.0455435
486	0.0267903
498	0.0152862
510	0.0225354
522	0.0107161
534	0.014971
546	0.056102
558	0.0502712
570	0.118508
582	0.0887232
594	0.0504288
606	0.0312028
618	0.0181228
630	0.0111889
642	0.0406582
654	0.0475922
666	0.0247416
678	0.0200139
690	0.00520047
702	0.0078795
714	0.0063036
726	0.00614601
738	0.0244264
750	0.0625632
762	0.0959723
774	0.044598
786	0.0244264
798	0.0590962
810	0.0964451
822	0.0948692
834	0.0575203
846	0.0379792
858	0.0381368
870	0.0921901
882	0.114883
894	0.0620905
906	0.0330939
918	0.0200139
930	0.0201715
942	0.0353002
954	0.0806861
966	0.0890383
978	0.0737521
990	0.0687092
1002	0.112992
1014	0.255926
1026	0.430693
1038	0.394763
1050	0.156014
1062	0.0743825
1074	0.0904567
1086	0.0707579
1098	0.049956
1110	0.0805285
1122	0.206916
1134	0.337715
1146	0.286971
1158	0.189738
1170	0.294378
1182	0.30667
1194	0.223778
1206	0.393817
1218	0.576307
1230	0.401539
1242	0.312028
1254	0.510434
1266	1.20336
1278	1.5759
1290	1.20131
1302	0.510434
1314	0.253247
1326	0.164366
1338	0.131903
1350	0.193678
1362	0.30604
1374	0.116774
1386	0.0977058
1398	0.228033
1410	0.454017
1422	0.317071
1434	0.150026
1446	0.191945
1458	0.217632
1470	0.240167
1482	0.160111
1494	0.25372
1506	0.6748
1518	0.441725
1530	0.133006
1542	0.0694972
1554	0.0877776
1566	0.154123
1578	0.266012
1590	0.36419
1602	0.420293
1614	0.167518
1626	0.0515319
1638	0.0354577
1650	0.0417613
1662	0.0644543
1674	0.0669758
1686	0.227087
1698	0.865957
1710	0.442355
1722	0.0668182
1734	0.0416038
1746	0.0546837
1758	0.0297845
1770	0.0111889
1782	0.00929781
1794	0.00520047
1806	0.00677637
1818	0.00661878
1830	0.0047277
1842	0.00409734
1854	0.0078795
1866	0.0063036
1878	0.00803709
1890	0.00535806
1902	0.00756432
1914	0.0078795
1926	0.00661878
1938	0.0063036
1950	0.00709155
1962	0.00614601
1974	0.00614601
1986	0.00677637
1998	0.00819468
2010	0.0146559
2022	0.0195412
2034	0.0223778
2046	0.0167045
2058	0.0148135
2070	0.0116617
2082	0.00961299
2094	0.00803709
2106	0.00425493
2118	0.00189108
2130	0.00078795
2142	0.0015759
2154	0.00126072
2166	0.00173349
2178	0.0031518
2190	0.00173349
2202	0.00126072
2214	0.00220626
2226	0.00267903
2238	0.00330939
2250	0.00488529
2262	0.00504288
2274	0.00614601
2286	0.0047277
2298	0.00535806
2310	0.00504288
2322	0.00393975
2334	0.00393975
2346	0.00583083
2358	0.00283662
2370	0.00583083
2382	0.00378216
2394	0.00047277
2406	0.00015759
2418	0.00126072
2430	0.00204867
2442	0.00283662
2454	0.00299421
2466	0.0047277
2478	0.00520047
2490	0.00535806
2502	0.00520047
2514	0.00457011
2526	0.00520047
2538	0.00724914
2550	0.00898263
2562	0.00977058
2574	0.0127648
2586	0.0159166
2598	0.0163894
2610	0.0133951
2622	0.00929781
2634	0.00724914
2646	0.00646119
2658	0.0047277
2670	0.00378216
2682	0.00378216
2694	0.00330939
2706	0.00204867
2718	0.00236385
2730	0.00236385
2742	0.00362457
2754	0.00457011
2766	0.00457011
2778	0.00677637
2790	0.00977058
2802	0.0143407
2814	0.0263175
2826	0.0504288
2838	0.115986
2850	0.161057
2862	0.10007
2874	0.0751704
2886	0.0693396
2898	0.0808437
2910	0.112834
2922	0.147031
2934	0.19226
2946	0.28051
2958	0.254823
2970	0.204552
2982	0.143722
2994	0.133636
3006	0.216686
3018	0.19746
3030	0.0739097
3042	0.0513743
3054	0.049956
3066	0.0600418
3078	0.0739097
3090	0.053423
3102	0.0310452
3114	0.0211171
3126	0.0154438
3138	0.0104009
3150	0.00724914
3162	0.0063036
3174	0.00535806
3186	0.00457011
3198	0.00252144
3210	0.00126072
3222	0.0015759
3234	0.00047277
3246	0.00047277
3258	0
3270	0.00031518
3282	0.00063036
3294	0.00047277
3306	0.00110313
3318	0.00031518
3330	0.00126072
3342	0.00220626
3354	0.00283662
3366	0.00677637
3378	0.0127648
3390	0.0126072
3402	0.00393975
3414	0.00267903
3426	0.00204867
3438	0.00220626
3450	0.00189108
3462	0.00267903
3474	0.00110313
3486	0.00173349
3498	0.00204867
3510	0.00204867
3522	0.00220626
3534	0.00236385
3546	0.00236385
3558	0.00457011
3570	0.00330939
3582	0.00110313
3594	0.00409734
3606	0.00204867
3618	0.00204867
3630	0.0031518
3642	0.00236385
3654	0.00409734
3666	0.00220626
3678	0.00141831
3690	0.00173349
3702	0.00220626
3714	0.00189108
3726	0.00299421
3738	0.00378216
3750	0.00236385
3762	0.00204867
3774	0.00173349
3786	0.0015759
3798	0.00299421
3810	0.0015759
3822	0.00267903
3834	0.00110313
3846	0.00378216
3858	0.00362457
3870	0.00330939
3882	0.00441252
3894	0.0031518
3906	0.00598842
3918	0.00535806
3930	0.00110313
3942	0.00110313
3954	0.00598842
3966	0.00441252
