Infrared Spectrum: Ethanone, 1-(3,4,5-trimethoxyphenyl)-
Formula: C 11 H 14 O 4
CAS: 1136-86-3
Origin: Sadtler Research Labs Under US-EPA Contract
1/CM	ABSORBANCE
450	0.122568
462	0.0377381
474	0.0418237
486	0.0418237
498	0.026879
510	0.0318247
522	0.05064
534	0.0569835
546	0.0836474
558	0.00999899
570	0.0384907
582	0.0751537
594	0.146222
606	0.119988
618	0.0677351
630	0.0376306
642	0.0476296
654	0.0721432
666	0.0474146
678	0.0244061
690	0.0251587
702	0.0296744
714	0.0398884
726	0.0287068
738	0.0492423
750	0.0351577
762	0.0431139
774	0.06752
786	0.0667674
798	0.0552632
810	0.0428989
822	0.0501025
834	0.0571985
846	0.0581662
858	0.090636
870	0.0910661
882	0.111602
894	0.0689178
906	0.0471995
918	0.0580586
930	0.0644021
942	0.0464469
954	0.0513926
966	0.0846151
978	0.0960118
990	0.0967644
1002	0.187723
1014	0.365984
1026	0.237288
1038	0.178477
1050	0.116655
1062	0.11902
1074	0.171058
1086	0.28825
1098	0.441783
1110	0.650257
1122	0.762503
1134	0.592951
1146	0.360501
1158	0.201808
1170	0.284165
1182	0.348889
1194	0.293304
1206	0.45232
1218	0.60166
1230	0.465652
1242	0.267177
1254	0.202668
1266	0.160199
1278	0.15235
1290	0.208151
1302	0.252125
1314	0.419635
1326	0.966784
1338	0.803467
1350	0.345556
1362	0.501455
1374	0.198797
1386	0.15106
1398	0.317387
1410	0.65316
1422	0.40598
1434	0.244276
1446	0.203098
1458	0.299862
1470	0.30556
1482	0.288143
1494	0.428129
1506	0.303518
1518	0.152995
1530	0.111064
1542	0.106548
1554	0.139341
1566	0.252878
1578	0.491133
1590	0.417377
1602	0.173853
1614	0.0953667
1626	0.0731109
1638	0.0621442
1650	0.0666599
1662	0.0900984
1674	0.0887007
1686	0.155146
1698	0.67477
1710	0.393294
1722	0.0879481
1734	0.070853
1746	0.0780566
1758	0.0490273
1770	0.0340826
1782	0.0262339
1794	0.0225784
1806	0.0203205
1818	0.0193529
1830	0.0163424
1842	0.0165575
1854	0.0156973
1866	0.0160199
1878	0.0174176
1890	0.0148372
1902	0.013762
1914	0.0134395
1926	0.0146222
1938	0.0161274
1950	0.020428
1962	0.0216107
1974	0.0184928
1986	0.0172026
1998	0.0196754
2010	0.0232235
2022	0.0222558
2034	0.0174176
2046	0.0126869
2058	0.0112892
2070	0.0113967
2082	0.0119343
2094	0.0136545
2106	0.0140846
2118	0.0148372
2130	0.0152673
2142	0.0174176
2154	0.0163424
2166	0.0150522
2178	0.0154823
2190	0.013117
2202	0.00892383
2214	0.00892383
2226	0.0104291
2238	0.0124719
2250	0.0126869
2262	0.0117192
2274	0.00967644
2286	0.0074186
2298	0.00795618
2310	0.00709606
2322	0.00698854
2334	0.00612841
2346	0.00989147
2358	0.00623593
2370	0.0111817
2382	0.0104291
2394	0.00688102
2406	0.00731109
2418	0.00913886
2430	0.00978396
2442	0.00924638
2454	0.00935389
2466	0.0101065
2478	0.00989147
2490	0.00956892
2502	0.00774115
2514	0.00591338
2526	0.00559083
2538	0.00462319
2550	0.00634344
2562	0.0110741
2574	0.0123643
2586	0.0130094
2598	0.013332
2610	0.0146222
2622	0.0147297
2634	0.0148372
2646	0.0134395
2658	0.0115042
2670	0.00752612
2682	0.00860128
2694	0.00892383
2706	0.0103215
2718	0.010214
2730	0.0122568
2742	0.0124719
2754	0.00935389
2766	0.0087088
2778	0.00827873
2790	0.0141921
2802	0.0215032
2814	0.0316097
2826	0.0593488
2838	0.148372
2850	0.157833
2862	0.102785
2874	0.104398
2886	0.104291
2898	0.112569
2910	0.122891
2922	0.151598
2934	0.207721
2946	0.365984
2958	0.301045
2970	0.219333
2982	0.169015
2994	0.167725
3006	0.250405
3018	0.18482
3030	0.0794543
3042	0.0559083
3054	0.0476296
3066	0.0478446
3078	0.0518227
3090	0.0526828
3102	0.0396734
3114	0.0282767
3126	0.0221483
3138	0.0153748
3150	0.013547
3162	0.0111817
3174	0.0122568
3186	0.0101065
3198	0.00645096
3210	0.00548332
3222	0.00688102
3234	0.00623593
3246	0.0060209
3258	0.0080637
3270	0.00903134
3282	0.00838625
3294	0.00935389
3306	0.00989147
3318	0.00946141
3330	0.00989147
3342	0.0119343
3354	0.0117192
3366	0.013332
3378	0.0179552
3390	0.0213957
3402	0.0140846
3414	0.0105366
3426	0.00967644
3438	0.0103215
3450	0.010214
3462	0.00666599
3474	0.00731109
3486	0.00612841
3498	0.00881631
3510	0.00795618
3522	0.0080637
3534	0.00838625
3546	0.00817122
3558	0.00913886
3570	0.00795618
3582	0.00612841
3594	0.00731109
3606	0.00569835
3618	0.00591338
3630	0.00666599
3642	0.00666599
3654	0.00881631
3666	0.00666599
3678	0.00881631
3690	0.00903134
3702	0.00989147
3714	0.0112892
3726	0.0111817
3738	0.0115042
3750	0.0106441
3762	0.013117
3774	0.013547
3786	0.013332
3798	0.0119343
3810	0.00935389
3822	0.0146222
3834	0.0111817
3846	0.0176326
3858	0.0118268
3870	0.00666599
3882	0.013762
3894	0.0124719
3906	0.0110741
3918	0.0138696
3930	0.00795618
3942	0.017095
3954	0.0152673
3966	0.017095
