Infrared Spectrum: Phenol, 3,5-bis(1,1-dimethylethyl)-
Formula: C 14 H 22 O
CAS: 1138-52-9
Origin: Sadtler Research Labs Under US-EPA Contract
1/CM	ABSORBANCE
450	0.00884354
462	0.0018424
474	0.00933485
486	0.0124055
498	0.0147392
510	0.0114229
522	0.0149849
534	0.0162132
546	0.0212491
558	0.0370938
570	0.0257937
582	0.0136338
594	0.00491308
606	0.0031935
618	0.00343916
630	0.00233371
642	0.00233371
654	0.00171958
666	0.00245654
678	0.00405329
690	0.0151077
702	0.106368
714	0.0557635
726	0.0058957
738	0.00343916
750	0.00233371
762	0.000982616
774	0.000982616
786	0.00147392
798	0.00331633
810	0.0090892
822	0.00933485
834	0.0324263
846	0.0593254
858	0.0690288
870	0.0663266
882	0.0272676
894	0.0649755
906	0.0481482
918	0.0250567
930	0.0325492
942	0.0835224
954	0.238407
966	0.110544
978	0.0243197
990	0.0160903
1002	0.0159675
1014	0.0136338
1026	0.0165816
1038	0.0105631
1050	0.0077381
1062	0.00601852
1074	0.00700114
1086	0.0110544
1098	0.0160903
1110	0.0332861
1122	0.0743103
1134	0.0770125
1146	0.0713625
1158	0.103543
1170	0.204138
1182	0.393292
1194	0.355339
1206	0.175643
1218	0.0835224
1230	0.0800832
1242	0.177485
1254	0.199594
1266	0.10342
1278	0.172081
1290	0.230301
1302	0.143708
1314	0.167536
1326	0.0836452
1338	0.0320578
1350	0.044709
1362	0.106982
1374	0.124178
1386	0.0636244
1398	0.0986301
1410	0.0861017
1422	0.214579
1434	0.185837
1446	0.103298
1458	0.0966648
1470	0.113369
1482	0.182521
1494	0.118774
1506	0.041147
1518	0.0325492
1530	0.029847
1542	0.035497
1554	0.0438492
1566	0.0676777
1578	0.113861
1590	0.30805
1602	0.608239
1614	0.342196
1626	0.0905235
1638	0.0257937
1650	0.0148621
1662	0.00958051
1674	0.0101946
1686	0.0111773
1698	0.0090892
1710	0.0105631
1722	0.0140023
1734	0.0165816
1746	0.0103175
1758	0.0058957
1770	0.00405329
1782	0.00356198
1794	0.00294785
1806	0.00171958
1818	0.00171958
1830	0.00171958
1842	0.00110544
1854	0.000736962
1866	0.00122827
1878	0.000736962
1890	0.00110544
1902	0.00110544
1914	0.000491308
1926	0.00110544
1938	0.00122827
1950	0.00122827
1962	0.0013511
1974	0.000368481
1986	0.000491308
1998	0.000368481
2010	0.000859789
2022	0.000859789
2034	0.000614135
2046	0.000491308
2058	0.000368481
2070	0.000982616
2082	0.000491308
2094	0.000122827
2106	0.000368481
2118	0.000736962
2130	0.00171958
2142	0.00233371
2154	0.00245654
2166	0.00294785
2178	0.00294785
2190	0.0013511
2202	0.000614135
2214	0.000245654
2226	0.000368481
2238	0.000614135
2250	0.000859789
2262	0.000982616
2274	0.00122827
2286	0.00147392
2298	0.00233371
2310	0.00294785
2322	0.00282502
2334	0.00245654
2346	0.00331633
2358	0.00331633
2370	0.00466743
2382	0.00626418
2394	0.00528156
2406	0.00515873
2418	0.00405329
2430	0.00331633
2442	0.00257937
2454	0.00159675
2466	0.00208806
2478	0.00245654
2490	0.00282502
2502	0.0031935
2514	0.00294785
2526	0.00245654
2538	0.00270219
2550	0.00294785
2562	0.00380764
2574	0.00368481
2586	0.00356198
2598	0.00331633
2610	0.00356198
2622	0.00380764
2634	0.00380764
2646	0.0045446
2658	0.00503591
2670	0.00552721
2682	0.00515873
2694	0.00552721
2706	0.006387
2718	0.00933485
2730	0.0106859
2742	0.00982616
2754	0.0105631
2766	0.00921203
2778	0.00958051
2790	0.0131425
2802	0.0124055
2814	0.0162132
2826	0.019898
2838	0.0254252
2850	0.0402873
2862	0.100472
2874	0.212368
2886	0.225142
2898	0.220474
2910	0.286433
2922	0.294539
2934	0.271325
2946	0.342196
2958	0.79248
2970	1.22827
2982	0.548054
2994	0.146533
3006	0.0499906
3018	0.0339003
3030	0.0367253
3042	0.0427438
3054	0.0420068
3066	0.0455688
3078	0.0438492
3090	0.0325492
3102	0.0210034
3114	0.0158447
3126	0.0121599
3138	0.0100718
3150	0.0090892
3162	0.00945768
3174	0.0109316
3186	0.0125284
3198	0.0124055
3210	0.0116686
3222	0.0116686
3234	0.0105631
3246	0.0100718
3258	0.00884354
3270	0.00896637
3282	0.00822941
3294	0.00749245
3306	0.00614135
3318	0.00540439
3330	0.00540439
3342	0.00675548
3354	0.00798376
3366	0.00786093
3378	0.00859789
3390	0.00798376
3402	0.00650983
3414	0.00663266
3426	0.00614135
3438	0.00515873
3450	0.00442177
3462	0.00442177
3474	0.00515873
3486	0.0045446
3498	0.00540439
3510	0.00429895
3522	0.00466743
3534	0.00503591
3546	0.00159675
3558	0.0031935
3570	0.00147392
3582	0.00540439
3594	0.00515873
3606	0.00565004
3618	0.00491308
3630	0.0108088
3642	0.105754
3654	0.261007
3666	0.0273904
3678	0.00196523
3690	0.000122827
3702	0.00282502
3714	0.000368481
3726	0.000122827
3738	0.000122827
3750	0.000122827
3762	0.00282502
3774	0.00442177
3786	0.00417612
3798	0.00442177
3810	0.00368481
3822	0.00245654
3834	0.0045446
3846	0.00565004
3858	0.00307067
3870	0.00356198
3882	0.00356198
3894	0.00687831
3906	0.00429895
3918	0.00601852
3930	0.00663266
3942	0.00601852
3954	0.00872072
3966	0.00626418
