Infrared Spectrum: Metyridine
Formula: C 8 H 11 N O
CAS: 114-91-0
Origin: Sadtler Research Labs Under US-EPA Contract
1/CM	ABSORBANCE
450	0
462	0.020868
474	0.0184795
486	0.0114397
498	0.0458845
510	0.0712781
522	0.069141
534	0.0408561
546	0.0194852
558	0.019988
570	0.0263993
582	0.050033
594	0.0647412
606	0.0589585
618	0.0428675
630	0.0341934
642	0.0202395
654	0.0105597
666	0.00502844
678	0.00930261
690	0.0173481
702	0.0258965
714	0.037839
726	0.0805808
738	0.259719
750	0.407304
762	0.295798
774	0.128477
786	0.0690153
798	0.0394733
810	0.0310506
822	0.0402275
834	0.0538043
846	0.0423646
858	0.0192338
870	0.016971
882	0.0211194
894	0.0196109
906	0.0218737
918	0.0316792
930	0.0525472
942	0.066124
954	0.0727867
966	0.0895062
978	0.0927747
990	0.10962
1002	0.131494
1014	0.10874
1026	0.0823407
1038	0.104969
1050	0.139665
1062	0.127345
1074	0.124077
1086	0.210315
1098	0.419623
1110	0.750746
1122	1.19865
1134	1.1006
1146	0.485873
1158	0.253811
1170	0.224771
1182	0.290267
1194	0.297558
1206	0.225148
1218	0.189195
1230	0.141173
1242	0.114774
1254	0.107106
1266	0.0790722
1278	0.0680097
1290	0.0685125
1302	0.066124
1314	0.0580785
1326	0.0364562
1338	0.0481473
1350	0.0520444
1362	0.0754266
1374	0.173984
1386	0.212326
1398	0.106226
1410	0.0678839
1422	0.141802
1434	0.39599
1446	0.317672
1458	0.206292
1470	0.410446
1482	0.380401
1494	0.0940318
1506	0.047393
1518	0.0277821
1530	0.0289135
1542	0.0375876
1554	0.0705239
1566	0.179892
1578	0.332883
1590	0.56482
1602	0.444011
1614	0.111883
1626	0.0455074
1638	0.0222508
1650	0.0131997
1662	0.0119425
1674	0.0105597
1686	0.011314
1698	0.0134511
1710	0.0123197
1722	0.0100569
1734	0.016971
1746	0.0206166
1758	0.0243879
1770	0.0240108
1782	0.0153367
1794	0.0129482
1806	0.0103083
1818	0.0105597
1830	0.0144568
1842	0.0158396
1854	0.0126968
1866	0.0206166
1878	0.00892548
1890	0.00930261
1902	0.0142053
1914	0.0173481
1926	0.0187309
1938	0.0252679
1950	0.0230051
1962	0.0250165
1974	0.0223766
1986	0.0115654
1998	0.00942832
2010	0.010434
2022	0.012194
2034	0.0123197
2046	0.0125711
2058	0.0123197
2070	0.0137025
2082	0.0157139
2094	0.017851
2106	0.0157139
2118	0.0144568
2130	0.0120683
2142	0.0100569
2154	0.00842264
2166	0.0080455
2178	0.00779408
2190	0.00905119
2202	0.00892548
2214	0.00842264
2226	0.0091769
2238	0.00993117
2250	0.00980546
2262	0.00829693
2274	0.00716553
2286	0.00779408
2298	0.0091769
2310	0.00741695
2322	0.00565699
2334	0.00402275
2346	0.00502844
2358	0.00553128
2370	0.00653697
2382	0.00628555
2394	0.00502844
2406	0.00590842
2418	0.00628555
2430	0.00666268
2442	0.00540557
2454	0.00553128
2466	0.00477702
2478	0.00502844
2490	0.00527986
2502	0.00439989
2514	0.00502844
2526	0.00565699
2538	0.00578271
2550	0.00628555
2562	0.00678839
2574	0.00854835
2586	0.0105597
2598	0.0125711
2610	0.0134511
2622	0.0123197
2634	0.011314
2646	0.012194
2658	0.0143311
2670	0.016091
2682	0.0172224
2694	0.0184795
2706	0.0204909
2718	0.0287878
2730	0.0427417
2742	0.0456331
2754	0.0409818
2766	0.0388447
2778	0.0461359
2790	0.0666268
2802	0.119174
2814	0.256702
2826	0.38191
2838	0.383167
2850	0.334894
2862	0.422389
2874	0.516546
2886	0.515415
2898	0.473679
2910	0.443131
2922	0.457211
2934	0.530123
2946	0.438103
2958	0.337911
2970	0.305352
2982	0.321946
2994	0.369213
3006	0.232188
3018	0.268644
3030	0.191961
3042	0.11754
3054	0.143939
3066	0.225023
3078	0.331877
3090	0.196989
3102	0.0835978
3114	0.0323077
3126	0.0228794
3138	0.025645
3150	0.0227537
3162	0.0124454
3174	0.00993117
3186	0.00930261
3198	0.00779408
3210	0.00603413
3222	0.00527986
3234	0.00389704
3246	0.00515415
3258	0.00603413
3270	0.00439989
3282	0.00477702
3294	0.00515415
3306	0.00540557
3318	0.00527986
3330	0.00527986
3342	0.00427417
3354	0.00414846
3366	0.00515415
3378	0.00490273
3390	0.00540557
3402	0.00502844
3414	0.00414846
3426	0.00502844
3438	0.00565699
3450	0.00603413
3462	0.00590842
3474	0.00553128
3486	0.00641126
3498	0.00615984
3510	0.00465131
3522	0.00666268
3534	0.00490273
3546	0.0101826
3558	0.00553128
3570	0.0119425
3582	0.00540557
3594	0.00754266
3606	0.00666268
3618	0.00678839
3630	0.00641126
3642	0.00691411
3654	0.00703982
3666	0.00741695
3678	0.00678839
3690	0.00590842
3702	0.00942832
3714	0.00754266
3726	0.0143311
3738	0.00993117
3750	0.00389704
3762	0.0080455
3774	0.00691411
3786	0.00879977
3798	0.00653697
3810	0.00930261
3822	0.00603413
3834	0.00527986
3846	0.00955404
3858	0.00955404
3870	0.0100569
3882	0.0100569
3894	0.00842264
3906	0.0101826
3918	0.0106854
3930	0.0101826
3942	0.00817122
3954	0.0120683
3966	0.0110626
