Infrared Spectrum: Citric acid, triallyl ester,
Formula: C 17 H 22 O 8
CAS: 115-72-0
Origin: Sadtler Research Labs Under US-EPA Contract
1/CM	ABSORBANCE
450	0.0202141
462	0.018339
474	0.0343903
486	0.0112134
498	0.036978
510	0.0154512
522	0.0347653
534	0.0225018
546	0.0277897
558	0.0099758
570	0.0114009
582	0.0280147
594	0.0201391
606	0.0298899
618	0.0292898
630	0.0300399
642	0.0361529
654	0.0216017
666	0.0322151
678	0.0227268
690	0.0222768
702	0.0286148
714	0.0186765
726	0.0230643
738	0.0282023
750	0.0231769
762	0.0225393
774	0.0209642
786	0.0287273
798	0.0245645
810	0.0232519
822	0.0243019
834	0.0209642
846	0.0246395
858	0.0244895
870	0.0236644
882	0.0264771
894	0.0261396
906	0.0356279
918	0.0544544
930	0.0894822
942	0.0673554
954	0.0550919
966	0.0669429
978	0.0949201
990	0.1535
1002	0.140449
1014	0.101746
1026	0.0738809
1038	0.0796564
1050	0.0894072
1062	0.086932
1074	0.0797314
1086	0.0619175
1098	0.0628175
1110	0.0724933
1122	0.0910573
1134	0.12031
1146	0.155412
1158	0.208779
1170	0.278422
1182	0.282623
1194	0.241707
1206	0.228206
1218	0.232031
1230	0.218642
1242	0.167826
1254	0.132048
1266	0.128898
1278	0.140974
1290	0.108346
1302	0.075006
1314	0.0613549
1326	0.06293
1338	0.0699806
1350	0.0671304
1362	0.0802939
1374	0.104708
1386	0.0648052
1398	0.0423034
1410	0.0429034
1422	0.0516791
1434	0.0472913
1446	0.0414408
1458	0.0396032
1470	0.0261021
1482	0.0215267
1494	0.0174014
1506	0.0169889
1518	0.0166138
1530	0.0145137
1542	0.0146262
1554	0.0141386
1566	0.0139511
1578	0.0136886
1590	0.012526
1602	0.0133136
1614	0.0140261
1626	0.0151137
1638	0.0186015
1650	0.0250145
1662	0.0186015
1674	0.0182265
1686	0.0199141
1698	0.0231769
1710	0.0306024
1722	0.0456787
1734	0.0861444
1746	0.196516
1758	0.359504
1770	0.323313
1782	0.138386
1794	0.068293
1806	0.0432035
1818	0.0284273
1830	0.0206642
1842	0.0175514
1854	0.0169514
1866	0.0169889
1878	0.0137636
1890	0.0123385
1902	0.0108384
1914	0.0100508
1926	0.00960077
1938	0.00945076
1950	0.00926324
1962	0.00937575
1974	0.00828816
1986	0.00847568
1998	0.00802564
2010	0.00783813
2022	0.00806315
2034	0.00798814
2046	0.0074631
2058	0.0074631
2070	0.00705056
2082	0.00693806
2094	0.00656303
2106	0.00660053
2118	0.006188
2130	0.00588797
2142	0.006188
2154	0.00585047
2166	0.00570046
2178	0.00513791
2190	0.0049879
2202	0.0049504
2214	0.00487539
2226	0.00450036
2238	0.00453786
2250	0.00476288
2262	0.00438785
2274	0.0049879
2286	0.00581297
2298	0.00761311
2310	0.00892571
2322	0.00678804
2334	0.00506291
2346	0.00611299
2358	0.00390031
2370	0.00487539
2382	0.00596298
2394	0.00315025
2406	0.00300024
2418	0.00273772
2430	0.00330026
2442	0.00300024
2454	0.00292523
2466	0.00213767
2478	0.00202516
2490	0.00228768
2502	0.00180014
2514	0.00165013
2526	0.00150012
2538	0.00116259
2550	0.00165013
2562	0.000937575
2574	0.00101258
2586	0.000862569
2598	0.000262521
2610	0.00075006
2622	0.00105008
2634	0.000787563
2646	0.000712557
2658	0.000787563
2670	0.0012376
2682	0.000675054
2694	0.0012001
2706	0.000975078
2718	0.00116259
2730	0.00135011
2742	0.00146262
2754	0.00183765
2766	0.00191265
2778	0.00191265
2790	0.00168764
2802	0.0024752
2814	0.00273772
2826	0.00303774
2838	0.00333777
2850	0.00341277
2862	0.00450036
2874	0.006188
2886	0.0105008
2898	0.0119635
2910	0.00990079
2922	0.0113259
2934	0.0171014
2946	0.0303024
2958	0.0411408
2970	0.0252395
2982	0.019164
2994	0.0208892
3006	0.0171389
3018	0.0151512
3030	0.0171014
3042	0.00986329
3054	0.00690055
3066	0.00780062
3078	0.0111384
3090	0.0178139
3102	0.0192015
3114	0.00843818
3126	0.00420034
3138	0.00232519
3150	0.00191265
3162	0.00187515
3174	0.00183765
3186	0.00161263
3198	0.00116259
3210	0.00146262
3222	0.0012001
3234	0.00101258
3246	0.00075006
3258	0.000862569
3270	0.00105008
3282	0.00105008
3294	0.00138761
3306	0.00142511
3318	0.00101258
3330	0.00112509
3342	0.00157513
3354	0.00165013
3366	0.00157513
3378	0.00180014
3390	0.00075006
3402	0.00198766
3414	0.00165013
3426	0.00183765
3438	0.00273772
3450	0.00262521
3462	0.00296274
3474	0.00408783
3486	0.00438785
3498	0.00472538
3510	0.00397532
3522	0.0037128
3534	0.00273772
3546	0.00367529
3558	0.00551294
3570	0.00555044
3582	0.00491289
3594	0.00491289
3606	0.00423784
3618	0.0024377
3630	0.00232519
3642	0.00172514
3654	0.0024377
3666	0.00195016
3678	0.00142511
3690	0.0012001
3702	0.000712557
3714	0.00198766
3726	0.00146262
3738	0.00135011
3750	0.0025502
3762	0.000225018
3774	0.000412533
3786	0.00135011
3798	0.00307525
3810	0.00108759
3822	0.00116259
3834	0.0024752
3846	0.00150012
3858	0.0025502
3870	0.000112509
3882	0.00225018
3894	0
3906	0.0024752
3918	0.00240019
3930	0.00075006
3942	0.000562545
3954	0.0012001
3966	0.00326276
