Infrared Spectrum: Mephobarbital
Formula: C 13 H 14 N 2 O 3
CAS: 115-38-8
Origin: Sadtler Research Labs Under US-EPA Contract
1/CM	ABSORBANCE
450	0.000596076
462	0.00119215
474	0.00298038
486	0.00124183
498	0.00357646
510	0.00814637
522	0.00536468
534	0.00630847
546	0.0191738
558	0.0200182
570	0.00576207
582	0.00268234
594	0.00516599
606	0.00764964
618	0.0142065
630	0.0214587
642	0.0321881
654	0.0242901
666	0.0106797
678	0.0126666
690	0.0254822
702	0.0224522
714	0.0223528
726	0.0241908
738	0.0151006
750	0.0305986
762	0.0463449
774	0.013213
786	0.00730193
798	0.00606011
810	0.00536468
822	0.00317907
834	0.00158954
846	0.000794768
858	0.00397384
870	0.00203659
882	0.000149019
894	0.000347711
906	0.000794768
918	0.00104313
930	0.00337776
942	0.00322874
954	0.0031294
966	0.00759997
978	0.0137594
990	0.00794768
1002	0.00606011
1014	0.00610978
1026	0.0103817
1038	0.030996
1050	0.0344234
1062	0.0149019
1074	0.0131137
1086	0.00909016
1098	0.0105803
1110	0.0166901
1122	0.0152496
1134	0.0162431
1146	0.012915
1158	0.0142562
1170	0.0274195
1182	0.0528024
1194	0.0382482
1206	0.023694
1218	0.0165411
1230	0.0145045
1242	0.0220051
1254	0.0411292
1266	0.0305489
1278	0.0241908
1290	0.0375031
1302	0.075801
1314	0.127858
1326	0.112062
1338	0.0990976
1350	0.0868781
1362	0.0686978
1374	0.0998427
1386	0.157165
1398	0.115688
1410	0.0671579
1422	0.0727213
1434	0.141121
1446	0.152595
1458	0.073516
1470	0.0373044
1482	0.0241411
1494	0.0305489
1506	0.0280652
1518	0.0165908
1530	0.0111268
1542	0.00814637
1554	0.00784833
1566	0.00904049
1578	0.0106797
1590	0.0116235
1602	0.0122692
1614	0.00884179
1626	0.00909016
1638	0.0100339
1650	0.0140078
1662	0.0172862
1674	0.0288103
1686	0.0515606
1698	0.153788
1710	0.398576
1722	0.21111
1734	0.247173
1746	0.49673
1758	0.242802
1770	0.148572
1782	0.0639788
1794	0.0291581
1806	0.0152993
1818	0.0099346
1830	0.00834506
1842	0.0073516
1854	0.00610978
1866	0.00561305
1878	0.00461959
1890	0.00481828
1902	0.00486795
1914	0.00397384
1926	0.00362613
1938	0.00337776
1950	0.00347711
1962	0.00322874
1974	0.00213594
1986	0.00178823
1998	0.00158954
2010	0.00149019
2022	0.00109281
2034	0.00134117
2046	0.00109281
2058	0.00124183
2070	0.00114248
2082	0.000794768
2094	0.00134117
2106	0.00104313
2118	0.000794768
2130	0.00099346
2142	0.000894114
2154	0.00099346
2166	0.000943787
2178	0.00099346
2190	0.000943787
2202	0.000844441
2214	0.000894114
2226	0.000894114
2238	0.00104313
2250	0.000844441
2262	0.000943787
2274	0.000943787
2286	0.00134117
2298	0.00168888
2310	0.00099346
2322	9.9346e-05
2334	4.9673e-05
2346	4.9673e-05
2358	4.9673e-05
2370	4.9673e-05
2382	0.00134117
2394	0.000894114
2406	0.000745095
2418	0.000745095
2430	0.000844441
2442	0.000695422
2454	0.000894114
2466	0.000794768
2478	0.000894114
2490	0.00104313
2502	0.00109281
2514	0.00104313
2526	0.00109281
2538	0.00109281
2550	0.000596076
2562	0.00104313
2574	0.000695422
2586	0.000596076
2598	0.000596076
2610	0.000645749
2622	0.000745095
2634	0.000596076
2646	0.000695422
2658	0.000695422
2670	0.000844441
2682	0.000844441
2694	0.000695422
2706	0.00099346
2718	0.00144052
2730	0.00114248
2742	0.00124183
2754	0.00153986
2766	0.00163921
2778	0.00188757
2790	0.00178823
2802	0.00218561
2814	0.00213594
2826	0.00273201
2838	0.00347711
2850	0.00516599
2862	0.00561305
2874	0.00779866
2886	0.0113254
2898	0.015498
2910	0.0109281
2922	0.013064
2934	0.0181803
2946	0.0309463
2958	0.0346221
2970	0.0293071
2982	0.0357646
2994	0.0215581
3006	0.0109281
3018	0.0080967
3030	0.00913983
3042	0.0109281
3054	0.0103817
3066	0.0168391
3078	0.0223528
3090	0.00998427
3102	0.00894114
3114	0.00695422
3126	0.0036758
3138	0.00307973
3150	0.00293071
3162	0.00263267
3174	0.00198692
3186	0.0018379
3198	0.00124183
3210	0.00139084
3222	0.00119215
3234	0.00124183
3246	0.00099346
3258	0.000943787
3270	0.00119215
3282	0.00144052
3294	0.00134117
3306	0.00104313
3318	0.000844441
3330	0.00134117
3342	0.00144052
3354	0.00144052
3366	0.00168888
3378	0.0012915
3390	0.00203659
3402	0.00372547
3414	0.0116732
3426	0.0629357
3438	0.0479841
3450	0.00764964
3462	0.00591109
3474	0.00342744
3486	0.00307973
3498	0.00263267
3510	0.0023843
3522	0.00124183
3534	0.00109281
3546	0.000844441
3558	0.000894114
3570	0.000894114
3582	0.00104313
3594	0.00049673
3606	0.000198692
3618	0.000596076
3630	0.00049673
3642	0.00049673
3654	0.000596076
3666	0.000645749
3678	0.000149019
3690	0.000645749
3702	0.000397384
3714	0.000347711
3726	0.000248365
3738	0.000695422
3750	0.000645749
3762	0.000794768
3774	0.000943787
3786	0.000695422
3798	0.000347711
3810	0.000943787
3822	0.000645749
3834	0.00124183
3846	0.00124183
3858	0.0012915
3870	0.000397384
3882	0.000447057
3894	0.00109281
3906	0.00119215
3918	0.000149019
3930	0.00134117
3942	0.00119215
3954	0.00163921
3966	0.000447057
