Infrared Spectrum: Cyclobutane, octafluoro-
Formula: C 4 F 8
CAS: 115-25-3
Origin: Sadtler Research Labs Under US-EPA Contract
1/CM	ABSORBANCE
450	0.00058032
462	0.0041783
474	0.00284357
486	0.00139277
498	0.00261144
510	0.00446846
522	0.0045265
534	0.00261144
546	0.0041783
558	0.0205433
570	0.0920388
582	0.0153204
594	0.00243734
606	0.00336586
618	0.00441043
630	0.00371405
642	0.00174096
654	0.00168293
666	0.00208915
678	0.00330782
690	0.00278554
702	0.00156686
714	0.00255341
726	0.00353995
738	0.00266947
750	0.00336586
762	0.00243734
774	0.00191506
786	0.00284357
798	0.00266947
810	0.0030757
822	0.00348192
834	0.00278554
846	0.00295963
858	0.00371405
870	0.00255341
882	0.00342389
894	0.00313373
906	0.00185702
918	0.00348192
930	0.00626746
942	0.0378949
954	0.402162
966	0.414697
978	0.0658083
990	0.036328
1002	0.0201951
1014	0.00609336
1026	0.00266947
1038	0.00313373
1050	0.00377208
1062	0.00237931
1074	0.00232128
1086	0.00394618
1098	0.00383011
1110	0.00365602
1122	0.00464256
1134	0.00696384
1146	0.0118966
1158	0.0103297
1170	0.00777629
1182	0.0123028
1194	0.0279134
1206	0.0962751
1218	0.205143
1230	0.304494
1242	0.293178
1254	0.107649
1266	0.105386
1278	0.15187
1290	0.182046
1302	0.0800842
1314	0.0582641
1326	0.13092
1338	0.199166
1350	0.103819
1362	0.010968
1374	0.00446846
1386	0.0059773
1398	0.0085307
1410	0.00638352
1422	0.00406224
1434	0.00383011
1446	0.00324979
1458	0.00266947
1470	0.00394618
1482	0.00237931
1494	0.00266947
1506	0.00255341
1518	0.00319176
1530	0.00295963
1542	0.00214718
1554	0.0016249
1566	0.00208915
1578	0.00197309
1590	0.00168293
1602	0.00220522
1614	0.00220522
1626	0.00232128
1638	0.00232128
1650	0.00185702
1662	0.00174096
1674	0.00121867
1686	0.00156686
1698	0.00133474
1710	0.00174096
1722	0.0014508
1734	0.00133474
1746	0.00133474
1758	0.000812448
1770	0.000348192
1782	0.000638352
1794	0.00110261
1806	0.00185702
1818	0.00226325
1830	0.00197309
1842	0.00191506
1854	0.00133474
1866	0.00139277
1878	0.00116064
1890	0.00104458
1902	0.00104458
1914	0.0014508
1926	0.00179899
1938	0.00208915
1950	0.00174096
1962	0.00174096
1974	0.00139277
1986	0.00208915
1998	0.00226325
2010	0.00133474
2022	0.000754416
2034	0.00121867
2046	0.00139277
2058	0.00110261
2070	0.00087048
2082	0.000754416
2094	0.00087048
2106	0.000812448
2118	0.00104458
2130	0.00104458
2142	0.000986544
2154	0.00110261
2166	0.00179899
2178	0.00255341
2190	0.0014508
2202	0.00110261
2214	0.00121867
2226	0.00110261
2238	0.00110261
2250	0.000986544
2262	0.00110261
2274	0.00116064
2286	0.00058032
2298	0.00029016
2310	0.000696384
2322	0.0014508
2334	0.00261144
2346	0.00295963
2358	0.00232128
2370	0.00295963
2382	0.00237931
2394	0.00208915
2406	0.00116064
2418	0.00110261
2430	0.00110261
2442	0.00116064
2454	0.0012767
2466	0.000638352
2478	0.00139277
2490	0.00197309
2502	0.00214718
2514	0.00214718
2526	0.00203112
2538	0.00220522
2550	0.00278554
2562	0.00220522
2574	0.00133474
2586	0.000986544
2598	0.00116064
2610	0.00133474
2622	0.00150883
2634	0.00116064
2646	0.00110261
2658	0.00110261
2670	0.00139277
2682	0.00116064
2694	0.00121867
2706	0.000928512
2718	0.00139277
2730	0.00116064
2742	0.00104458
2754	0.000928512
2766	0.00121867
2778	0.00104458
2790	0.000754416
2802	0.000754416
2814	0.000696384
2826	0.00110261
2838	0.00058032
2850	0.000812448
2862	0.000812448
2874	0.000928512
2886	0.000696384
2898	0.000812448
2910	0.000812448
2922	0.000754416
2934	0.000638352
2946	0.000812448
2958	0.000696384
2970	0.00087048
2982	0.000696384
2994	0.00116064
3006	0.000812448
3018	0.0012767
3030	0.00058032
3042	0.00116064
3054	0.000928512
3066	0.0012767
3078	0.00104458
3090	0.00116064
3102	0.000754416
3114	0.000696384
3126	0.00116064
3138	0.00104458
3150	0.00087048
3162	0.00104458
3174	0.000928512
3186	0.000986544
3198	0.00110261
3210	0.000928512
3222	0.000986544
3234	0.000928512
3246	0.000986544
3258	0.000812448
3270	0.000754416
3282	0.000928512
3294	0.00139277
3306	0.000696384
3318	0.000928512
3330	0.00133474
3342	0.000696384
3354	0.000754416
3366	0.000696384
3378	0.000464256
3390	0.000986544
3402	0.00116064
3414	0.00150883
3426	0.00087048
3438	0.00121867
3450	0.000464256
3462	0.00110261
3474	0.00121867
3486	0.000928512
3498	0.000986544
3510	0.00139277
3522	0.000696384
3534	0.00133474
3546	0.00087048
3558	0.00104458
3570	0.00150883
3582	0.0012767
3594	0.000928512
3606	0.00174096
3618	0.00133474
3630	0.00179899
3642	0.00156686
3654	0.00197309
3666	0.00191506
3678	0.00208915
3690	0.00133474
3702	0.00203112
3714	0.00168293
3726	0.00185702
3738	0.00110261
3750	0.00139277
3762	0.00203112
3774	0.00110261
3786	0.0014508
3798	0.000696384
3810	0.00110261
3822	0.00237931
3834	0.0016249
3846	0.00243734
3858	0.00150883
3870	0.0016249
3882	0.00116064
3894	0.00208915
3906	0.00150883
3918	0.00168293
3930	0.00110261
3942	0.0012767
3954	0.000464256
3966	0.00237931
