Infrared Spectrum: Phosphoric acid, triphenyl ester
Formula: C 18 H 15 O 4 P
CAS: 115-86-6
Origin: Sadtler Research Labs Under US-EPA Contract
1/CM	ABSORBANCE
450	0.0187832
462	0.0215497
474	0.0352367
486	0.063921
498	0.0840147
510	0.0939887
522	0.0625378
534	0.0271555
546	0.0254811
558	0.0368383
570	0.0463027
582	0.0404057
594	0.018492
606	0.0113573
618	0.0187832
630	0.000946439
642	0.00138326
654	0.015507
666	0.0184192
678	0.0610089
690	0.116121
702	0.0155798
714	0.0187104
726	0.0283932
738	0.0578784
750	0.179023
762	0.158128
774	0.165044
786	0.0632658
798	0.0130317
810	0.0104108
822	0.0168175
834	0.0118669
846	0.0120125
858	0.0135414
870	0.0226417
882	0.0286116
894	0.0547479
906	0.0707645
918	0.0969736
930	0.18259
942	0.329142
954	0.637172
966	0.551628
978	0.240468
990	0.109714
1002	0.0918046
1014	0.102943
1026	0.160895
1038	0.0195112
1050	0.00742591
1062	0.0167447
1074	0.0242434
1086	0.00604265
1098	0.00946439
1110	0.0142694
1122	0.0212585
1134	0.0352367
1146	0.0794281
1158	0.244108
1170	0.239012
1182	0.414249
1194	0.600698
1206	0.203557
1218	0.0905669
1230	0.0961
1242	0.0698909
1254	0.0419345
1266	0.0293396
1278	0.043609
1290	0.08831
1302	0.150047
1314	0.158055
1326	0.0773168
1338	0.0445554
1350	0.00873636
1362	0.00356735
1374	0.00262091
1386	0.0024025
1398	0.00385856
1410	0.00283932
1422	0.00407697
1434	0.00778992
1446	0.0186376
1458	0.0475404
1470	0.0668332
1482	0.221394
1494	0.312616
1506	0.0564223
1518	0.0205304
1530	0.00917318
1542	0.0106292
1554	0.0134686
1566	0.0270099
1578	0.0840875
1590	0.169194
1602	0.0741135
1614	0.0136142
1626	0.00444098
1638	0.00211129
1650	0.00262091
1662	0.00145606
1674	0.00203848
1686	0.00378576
1698	0.00414977
1710	0.00546022
1722	0.00764432
1734	0.00655227
1746	0.00262091
1758	0.00123765
1770	0.00407697
1782	0.00465939
1794	0.00269371
1806	0.00116485
1818	0.000291212
1830	0.00116485
1842	0.00203848
1854	0.00604265
1866	0.00684348
1878	0.00684348
1890	0.00655227
1902	0.00611545
1914	0.00815394
1926	0.0102652
1938	0.0130317
1950	0.0105564
1962	0.00771712
1974	0.00524182
1986	0.00429538
1998	0.00422257
2010	0.00305773
2022	0.00211129
2034	0.00182007
2046	0.00138326
2058	0.000946439
2070	0.00160167
2082	0.00123765
2094	0.000800833
2106	0.00101924
2118	0.00101924
2130	0.00116485
2142	0.00123765
2154	0.00101924
2166	0.00145606
2178	0.00145606
2190	0.00145606
2202	0.00131045
2214	0.00196568
2226	0.00189288
2238	0.0024753
2250	0.0024753
2262	0.00298492
2274	0.0024753
2286	0.0024753
2298	0.0024025
2310	0.00349454
2322	0.00400416
2334	0.00262091
2346	0.00342174
2358	0.0024025
2370	0.00298492
2382	0.00429538
2394	0.00342174
2406	0.00291212
2418	0.00305773
2430	0.00334894
2442	0.00291212
2454	0.00196568
2466	0.00145606
2478	0.00145606
2490	0.00138326
2502	0.00196568
2514	0.00189288
2526	0.00152886
2538	0.00145606
2550	0.00160167
2562	0.00189288
2574	0.00189288
2586	0.00138326
2598	0.00138326
2610	0.00189288
2622	0.00189288
2634	0.00203848
2646	0.00225689
2658	0.00138326
2670	0.00138326
2682	0.00138326
2694	0.00131045
2706	0.00152886
2718	0.000946439
2730	0.000946439
2742	0.000946439
2754	0.00145606
2766	0.00131045
2778	0.00123765
2790	0.00167447
2802	0.00167447
2814	0.00189288
2826	0.00291212
2838	0.0049506
2850	0.00662507
2862	0.00669788
2874	0.00509621
2886	0.00516901
2898	0.00611545
2910	0.00815394
2922	0.0127405
2934	0.0123037
2946	0.00778992
2958	0.00626106
2970	0.00465939
2982	0.00356735
2994	0.00458659
3006	0.00749871
3018	0.010702
3030	0.0175455
3042	0.0266459
3054	0.029922
3066	0.033999
3078	0.0387312
3090	0.0238066
3102	0.0145606
3114	0.00633386
3126	0.00422257
3138	0.00218409
3150	0.00218409
3162	0.00145606
3174	0.00145606
3186	0.00152886
3198	0.00283932
3210	0.00123765
3222	0.00109205
3234	0.00167447
3246	0.00189288
3258	0.000800833
3270	0.00138326
3282	0.0023297
3294	0.00145606
3306	0.00218409
3318	0.00152886
3330	0.00211129
3342	0.00189288
3354	0.0024753
3366	0.0024025
3378	0.00174727
3390	0.00269371
3402	0.00276651
3414	0.00211129
3426	0.0023297
3438	0.00189288
3450	0.00283932
3462	0.00334894
3474	0.00269371
3486	0.00320333
3498	0.00313053
3510	0.00211129
3522	0.00269371
3534	0.00283932
3546	0.00320333
3558	0.00327613
3570	0.00334894
3582	0.00356735
3594	0.00298492
3606	0.00407697
3618	0.00320333
3630	0.00538742
3642	0.00538742
3654	0.00516901
3666	0.00407697
3678	0.00436818
3690	0.00444098
3702	0.0024025
3714	0.00320333
3726	0.00189288
3738	0.00327613
3750	0.00364015
3762	0.00196568
3774	0.0024025
3786	0.00138326
3798	0.00276651
3810	0.00167447
3822	0.00371295
3834	0.00320333
3846	0.00276651
3858	0.00283932
3870	0.00444098
3882	0.00444098
3894	0.00320333
3906	0.00422257
3918	0.00465939
3930	0.00356735
3942	0.00349454
3954	0
3966	0.000291212
