Infrared Spectrum: Tri(2-chloroethyl) phosphate
Formula: C 6 H 12 Cl 3 O 4 P
CAS: 115-96-8
Origin: Sadtler Research Labs Under US-EPA Contract
1/CM	ABSORBANCE
450	0.00985838
462	0.00147488
474	0.0145935
486	0.0265478
498	0.0288765
510	0.0402098
522	0.0489814
534	0.0523969
546	0.044712
558	0.0262373
570	0.0108675
582	0.0034155
594	0.003726
606	0.00426938
618	0.00349313
630	0.002484
642	0.004347
654	0.00947025
666	0.0232875
678	0.0700178
690	0.0488261
702	0.0212692
714	0.020493
726	0.0326025
738	0.0494471
750	0.050301
762	0.0595384
774	0.0593055
786	0.0794104
798	0.0797985
810	0.0468855
822	0.0506891
834	0.0582964
846	0.0646616
858	0.0738214
870	0.0890359
882	0.0902003
894	0.0756844
906	0.090045
918	0.125287
930	0.151679
942	0.155716
954	0.150748
966	0.174035
978	0.132195
990	0.0996705
1002	0.171318
1014	0.405358
1026	0.766314
1038	0.67984
1050	0.429266
1062	0.469476
1074	0.676812
1086	0.415139
1098	0.204464
1110	0.123579
1122	0.0771592
1134	0.0487485
1146	0.0343879
1158	0.0270911
1170	0.0250729
1182	0.0287989
1194	0.0477394
1206	0.0700954
1218	0.0411413
1230	0.0259268
1242	0.0274793
1254	0.0477394
1266	0.0767711
1278	0.107744
1290	0.213003
1302	0.223327
1314	0.195693
1326	0.0929171
1338	0.0357851
1350	0.0204154
1362	0.0150592
1374	0.0134291
1386	0.0239085
1398	0.0152921
1410	0.00721912
1422	0.00985838
1434	0.032913
1446	0.0264701
1458	0.0303514
1470	0.0208811
1482	0.0100136
1494	0.00481275
1506	0.0027945
1518	0.00178538
1530	0.00225113
1542	0.00116438
1554	0.00139725
1566	0.00108675
1578	0.0015525
1590	0.0009315
1602	0.00131963
1614	0.000853875
1626	0.00170775
1638	0.00108675
1650	0.00147488
1662	0.0009315
1674	0.000621
1686	0.00100913
1698	0.000543375
1710	0.00147488
1722	0.00131963
1734	0.00131963
1746	0.00302738
1758	0.0034155
1770	0.00380363
1782	0.00364838
1794	0.00388125
1806	0.004347
1818	0.0046575
1830	0.00411412
1842	0.00395888
1854	0.00426938
1866	0.00426938
1878	0.004968
1890	0.00520088
1902	0.004968
1914	0.00395888
1926	0.00302738
1938	0.00263925
1950	0.00225113
1962	0.001863
1974	0.00139725
1986	0.001242
1998	0.0009315
2010	0.000698625
2022	0.000698625
2034	0.0009315
2046	0.000853875
2058	0.00100913
2070	0.00100913
2082	0.00077625
2094	0.000543375
2106	0.000543375
2118	0.000698625
2130	0.00046575
2142	0.0003105
2154	7.7625e-05
2166	7.7625e-05
2178	0.00015525
2190	0.00015525
2202	0.000388125
2214	0.00131963
2226	0.00170775
2238	0.001863
2250	0.00178538
2262	0.001863
2274	0.00209588
2286	0.00194063
2298	0.0009315
2310	7.7625e-05
2322	0.000232875
2334	0.00131963
2346	0.00108675
2358	0.000543375
2370	0.0009315
2382	0.00201825
2394	0.00256163
2406	0.00240638
2418	0.00232875
2430	0.00256163
2442	0.0021735
2454	0.00232875
2466	0.00225113
2478	0.00240638
2490	0.002484
2502	0.00271688
2514	0.00256163
2526	0.00263925
2538	0.002484
2550	0.00225113
2562	0.00201825
2574	0.00178538
2586	0.0015525
2598	0.00147488
2610	0.0015525
2622	0.00163013
2634	0.00201825
2646	0.00170775
2658	0.00201825
2670	0.00232875
2682	0.00232875
2694	0.0027945
2706	0.00318263
2718	0.0034155
2730	0.00318263
2742	0.00364838
2754	0.00481275
2766	0.00419175
2778	0.00318263
2790	0.00287213
2802	0.00271688
2814	0.00294975
2826	0.00357075
2838	0.004347
2850	0.006831
2862	0.00698625
2874	0.00690862
2886	0.0145159
2898	0.0253058
2910	0.0225113
2922	0.0220455
2934	0.0212692
2946	0.0364061
2958	0.0473513
2970	0.0752963
2982	0.0731228
2994	0.0457987
3006	0.0301185
3018	0.0240638
3030	0.0137396
3042	0.00830588
3054	0.0058995
3066	0.00442462
3078	0.00388125
3090	0.00349313
3102	0.00302738
3114	0.00271688
3126	0.00302738
3138	0.00256163
3150	0.002484
3162	0.00287213
3174	0.00263925
3186	0.00256163
3198	0.00302738
3210	0.002484
3222	0.00287213
3234	0.0027945
3246	0.002484
3258	0.00271688
3270	0.00256163
3282	0.00240638
3294	0.00271688
3306	0.00256163
3318	0.0027945
3330	0.00256163
3342	0.00225113
3354	0.0027945
3366	0.0027945
3378	0.00232875
3390	0.00232875
3402	0.002484
3414	0.00232875
3426	0.00225113
3438	0.002484
3450	0.00232875
3462	0.0021735
3474	0.0021735
3486	0.00201825
3498	0.002484
3510	0.00240638
3522	0.002484
3534	0.00178538
3546	0.00077625
3558	0.00108675
3570	0.0015525
3582	0.00256163
3594	0.001242
3606	0.00139725
3618	0.00147488
3630	0.00201825
3642	0.00163013
3654	0.0015525
3666	0.00326025
3678	0.00100913
3690	0.00232875
3702	0.00225113
3714	0.00139725
3726	0.00116438
3738	0.00170775
3750	0.0034155
3762	0.00194063
3774	0.00240638
3786	0.00209588
3798	0.00131963
3810	0.00380363
3822	0.001863
3834	0.00194063
3846	0.00263925
3858	0.00147488
3870	0.00147488
3882	0.00232875
3894	0.002484
3906	0.003105
3918	0.00201825
3930	0.00225113
3942	0.00225113
3954	0.002484
3966	0.00294975
