Infrared Spectrum: Diphenyl methyl phosphate
Formula: C 13 H 13 O 4 P
CAS: 115-89-9
Origin: Sadtler Research Labs Under US-EPA Contract
1/CM	ABSORBANCE
450	0.0145247
462	0.0215601
474	0.0292763
486	0.0321131
498	0.0661553
510	0.0919139
522	0.119261
534	0.123346
546	0.0651341
558	0.0431201
570	0.0495881
582	0.043574
594	0.023943
606	0.00964529
618	0.0156594
630	0.00226948
642	0.00113474
654	0.00340422
666	0.0149786
678	0.0462974
690	0.0971337
702	0.0367656
714	0.017248
726	0.0247373
738	0.0549214
750	0.123233
762	0.17248
774	0.165218
786	0.0700135
798	0.0472052
810	0.0693326
822	0.13197
834	0.0745524
846	0.0389216
858	0.0348365
870	0.0234891
882	0.0291628
894	0.0473187
906	0.0750063
918	0.104056
930	0.247033
942	0.706035
954	1.13474
966	0.583029
978	0.219118
990	0.127658
1002	0.119261
1014	0.152509
1026	0.239317
1038	0.159658
1050	0.34428
1062	0.621497
1074	0.421896
1086	0.205274
1098	0.11268
1110	0.0835169
1122	0.0692191
1134	0.0592334
1146	0.0636589
1158	0.147516
1170	0.248168
1182	0.265075
1194	0.920955
1206	0.60754
1218	0.297188
1230	0.282777
1242	0.169303
1254	0.0831764
1266	0.0642263
1278	0.0685383
1290	0.114155
1302	0.205048
1314	0.248054
1326	0.222296
1338	0.121077
1350	0.0424393
1362	0.0189502
1374	0.0118013
1386	0.011007
1398	0.00896445
1410	0.00748928
1422	0.00748928
1434	0.0105531
1446	0.0223544
1458	0.0464109
1470	0.0607086
1482	0.200168
1494	0.579285
1506	0.143318
1518	0.0406237
1530	0.0247373
1542	0.0189502
1554	0.0197445
1566	0.0317727
1578	0.0957721
1590	0.226494
1602	0.173729
1614	0.0411911
1626	0.013163
1638	0.00658149
1650	0.00646802
1662	0.00351769
1674	0.00453896
1686	0.00487938
1698	0.00544675
1710	0.00782971
1722	0.0087375
1734	0.00669497
1746	0.00431201
1758	0.00340422
1770	0.00975876
1782	0.00975876
1794	0.00510633
1806	0.00340422
1818	0.00204253
1830	0.00204253
1842	0.00431201
1854	0.00794318
1866	0.01078
1878	0.0121417
1890	0.0108935
1902	0.00941834
1914	0.0118013
1926	0.0155459
1938	0.015319
1950	0.0130495
1962	0.00771623
1974	0.00601412
1986	0.0061276
1998	0.00601412
2010	0.00487938
2022	0.00295032
2034	0.00170211
2046	0.00136169
2058	0.00113474
2070	0.00102127
2082	0.000453896
2094	0.000226948
2106	0.00056737
2118	0.000907792
2130	0.000453896
2142	0.000340422
2154	0.000113474
2166	0.000226948
2178	0.000453896
2190	0.000226948
2202	0.000226948
2214	0.00113474
2226	0.000907792
2238	0.00102127
2250	0.00170211
2262	0.00204253
2274	0.00158864
2286	0.000907792
2298	0.000453896
2310	0.00102127
2322	0.00113474
2334	0.000453896
2346	0.000340422
2358	0.00102127
2370	0
2382	0.00192906
2394	0.00340422
2406	0.00374464
2418	0.00419854
2430	0.00374464
2442	0.0030638
2454	0.00204253
2466	0.00113474
2478	0.00102127
2490	0.00113474
2502	0.00136169
2514	0.00113474
2526	0.00170211
2538	0.00158864
2550	0.00170211
2562	0.00215601
2574	0.00192906
2586	0.00102127
2598	0.000907792
2610	0.00158864
2622	0.00136169
2634	0.00113474
2646	0.000680844
2658	0.000680844
2670	0.000226948
2682	0.000226948
2694	0.000680844
2706	0.000453896
2718	0.00056737
2730	0.00056737
2742	0.00056737
2754	0.000340422
2766	0.000340422
2778	0.000794318
2790	0.00147516
2802	0.00124821
2814	0.00181558
2826	0.00295032
2838	0.00453896
2850	0.00851055
2862	0.0271203
2874	0.0212196
2886	0.00839708
2898	0.00817013
2910	0.0100992
2922	0.0121417
2934	0.0137304
2946	0.0177019
2958	0.0465243
2970	0.0710347
2982	0.0248508
2994	0.0211062
3006	0.0232622
3018	0.0262125
3030	0.0351769
3042	0.0491342
3054	0.0660419
3066	0.0595739
3078	0.0921409
3090	0.0658149
3102	0.0339287
3114	0.0195175
3126	0.00885097
3138	0.00487938
3150	0.00363117
3162	0.00249643
3174	0.00215601
3186	0.00226948
3198	0.00192906
3210	0.00170211
3222	0.00181558
3234	0.00170211
3246	0.00170211
3258	0.00124821
3270	0.00124821
3282	0.00124821
3294	0.00147516
3306	0.00102127
3318	0.00113474
3330	0.00113474
3342	0.00158864
3354	0.00113474
3366	0.00124821
3378	0.00158864
3390	0.00124821
3402	0.00113474
3414	0.00147516
3426	0.00113474
3438	0.00170211
3450	0.00136169
3462	0.00124821
3474	0.00181558
3486	0.00124821
3498	0.000907792
3510	0.00181558
3522	0.00215601
3534	0.00136169
3546	0.000680844
3558	0.000794318
3570	0.00136169
3582	0.00238295
3594	0.00102127
3606	0.00170211
3618	0.00192906
3630	0.00317727
3642	0.00351769
3654	0.00397159
3666	0.0056737
3678	0.00056737
3690	0.00249643
3702	0.00317727
3714	0.00283685
3726	0.00295032
3738	0.00170211
3750	0.00465243
3762	0.00317727
3774	0.00340422
3786	0.00295032
3798	0.00226948
3810	0.00453896
3822	0.00226948
3834	0.0026099
3846	0.00249643
3858	0.00272338
3870	0.00204253
3882	0.00249643
3894	0.00181558
3906	0.00238295
3918	0.00340422
3930	0.00295032
3942	0.00226948
3954	0.00238295
3966	0.00385812
