Infrared Spectrum: 3,5-Pyridinedicarboxylic acid, 2,4,6-trimethyl-, diethyl ester
Formula: C 14 H 19 N O 4
CAS: 1150-55-6
Origin: Sadtler Research Labs Under US-EPA Contract
1/CM	ABSORBANCE
450	0.00489637
462	0.00265976
474	0.00344559
486	0.00241796
498	0.00338514
510	0.00241796
522	0.00598445
534	0.00713298
546	0.00507772
558	0.0061658
570	0.005924
582	0.00392918
594	0.000241796
606	0.00229706
618	0.00193437
630	0.00362694
642	0.00683074
654	0.0128756
666	0.0090069
678	0.0113644
690	0.00725388
702	0.0087651
714	0.00507772
726	0.00719343
738	0.00519861
750	0.0119689
762	0.0134197
774	0.0184369
786	0.0180743
798	0.0170466
810	0.0123316
822	0.0128756
834	0.0154749
846	0.018316
858	0.0241796
870	0.0170466
882	0.00997408
894	0.00749568
906	0.00852331
918	0.00930915
930	0.0132383
942	0.011304
954	0.0102159
966	0.0109413
978	0.0134197
990	0.0194646
1002	0.0309499
1014	0.0431001
1026	0.077012
1038	0.224145
1050	0.227953
1062	0.0950258
1074	0.0760448
1086	0.109352
1098	0.239983
1110	0.221546
1122	0.0877719
1134	0.0535578
1146	0.045639
1158	0.0460017
1170	0.0556735
1182	0.0843264
1194	0.199542
1206	0.517383
1218	0.509041
1230	0.44702
1242	0.2181
1254	0.108022
1266	0.136736
1278	0.185216
1290	0.0940586
1302	0.0652849
1314	0.0440069
1326	0.028411
1338	0.023152
1350	0.02424
1362	0.0358463
1374	0.0632901
1386	0.0644991
1398	0.0505958
1410	0.052772
1422	0.0481174
1434	0.0534369
1446	0.0659499
1458	0.0608721
1470	0.0602677
1482	0.0462435
1494	0.0361485
1506	0.0360276
1518	0.0416494
1530	0.0537392
1542	0.0684887
1554	0.107357
1566	0.140786
1578	0.11576
1590	0.0455785
1602	0.0215803
1614	0.0149309
1626	0.013601
1638	0.010095
1650	0.0109413
1662	0.0120898
1674	0.0145682
1686	0.0171071
1698	0.0306476
1710	0.052107
1722	0.0910966
1734	0.253342
1746	0.576381
1758	0.178748
1770	0.0589378
1782	0.0298014
1794	0.0171071
1806	0.0119085
1818	0.00797927
1830	0.00634714
1842	0.00598445
1854	0.0060449
1866	0.0058031
1878	0.00664939
1890	0.00550086
1902	0.005924
1914	0.00471502
1926	0.00423143
1938	0.00368739
1950	0.00435233
1962	0.00459412
1974	0.00507772
1986	0.00435233
1998	0.00386874
2010	0.00392918
2022	0.00356649
2034	0.00356649
2046	0.00326425
2058	0.00398963
2070	0.00398963
2082	0.00441278
2094	0.00386874
2106	0.00423143
2118	0.00374784
2130	0.00386874
2142	0.00290155
2154	0.00278065
2166	0.00199482
2178	0.00181347
2190	0.00175302
2202	0.00247841
2214	0.00241796
2226	0.0032038
2238	0.00259931
2250	0.0030829
2262	0.00241796
2274	0.00278065
2286	0.00247841
2298	0.00344559
2310	0.00332469
2322	0.00417098
2334	0.00356649
2346	0.00435233
2358	0.00489637
2370	0.00386874
2382	0.00332469
2394	0.0032038
2406	0.00326425
2418	0.0027202
2430	0.0030829
2442	0.00229706
2454	0.00314335
2466	0.00259931
2478	0.0027202
2490	0.00145078
2502	0.00205527
2514	0.00108808
2526	0.00145078
2538	0.00060449
2550	0.00151122
2562	0.000906735
2574	0.00199482
2586	0.00187392
2598	0.00259931
2610	0.00163212
2622	0.00175302
2634	0.000725388
2646	0.00163212
2658	0.000906735
2670	0.00181347
2682	0.00175302
2694	0.00223661
2706	0.00175302
2718	0.00175302
2730	0.00235751
2742	0.0028411
2754	0.00253886
2766	0.0028411
2778	0.00344559
2790	0.00380829
2802	0.00507772
2814	0.00544041
2826	0.00725388
2838	0.00785837
2850	0.0100345
2862	0.0128756
2874	0.018316
2886	0.0250259
2898	0.0265976
2910	0.0334283
2922	0.0380829
2934	0.0594214
2946	0.0848099
2958	0.0553108
2970	0.0677029
2982	0.100829
2994	0.0975042
3006	0.0556735
3018	0.0360276
3030	0.0221848
3042	0.0168653
3054	0.013601
3066	0.0116667
3078	0.00906735
3090	0.00695163
3102	0.00531951
3114	0.00441278
3126	0.00392918
3138	0.00380829
3150	0.00411053
3162	0.00398963
3174	0.00405008
3186	0.00362694
3198	0.00332469
3210	0.00211571
3222	0.00211571
3234	0.000846286
3246	0.00175302
3258	0.000725388
3270	0.00217616
3282	0.00139033
3294	0.00253886
3306	0.00157167
3318	0.00187392
3330	0.000785837
3342	0.00126943
3354	0.00102763
3366	0.00217616
3378	0.00145078
3390	0.00241796
3402	0.00247841
3414	0.0028411
3426	0.00241796
3438	0.002962
3450	0.00338514
3462	0.00417098
3474	0.00447323
3486	0.00259931
3498	0.00187392
3510	0.0032038
3522	0.00278065
3534	0.00350604
3546	0.00211571
3558	0.00259931
3570	0.00163212
3582	0.00151122
3594	0.00114853
3606	0.00193437
3618	0.00217616
3630	0.00151122
3642	0.00259931
3654	0.00223661
3666	0.00211571
3678	0.000846286
3690	0.000544041
3702	0.00187392
3714	0.00102763
3726	0.00199482
3738	0.00169257
3750	0.00211571
3762	0.00290155
3774	0.00350604
3786	0.002962
3798	0.00290155
3810	0.0028411
3822	0.00132988
3834	0.00181347
3846	0.00187392
3858	0.00253886
3870	0.00302245
3882	0.00344559
3894	0.00223661
3906	0.00229706
3918	0.00205527
3930	0.00211571
3942	0.00169257
3954	0
3966	0.000241796
