Infrared Spectrum: 2-Propanone, 1,1,1,3,3,3-hexachloro-
Formula: C 3 Cl 6 O
CAS: 116-16-5
Origin: Sadtler Research Labs Under US-EPA Contract
1/CM	ABSORBANCE
450	0.0521194
462	0.0230607
474	0.0273117
486	0.0134521
498	0.00739572
510	0.0103074
522	0.00593987
534	0.00675514
546	0.00786159
558	0.00209642
570	0.00384344
582	0.0110062
594	0.00704631
606	0.0155485
618	0.0311552
630	0.052003
642	0.141916
654	0.3271
666	0.45539
678	0.0934656
690	0.0267294
702	0.0219542
714	0.0128697
726	0.0138015
738	0.0145585
750	0.0104239
762	0.0142091
774	0.0178778
786	0.0205566
798	0.0263218
810	0.0340669
822	0.0929997
834	0.262053
846	0.58234
858	0.30305
870	0.0906121
882	0.134055
894	0.187513
906	0.0763448
918	0.0289423
930	0.0217213
942	0.0203819
954	0.0139179
966	0.0113556
978	0.0101327
990	0.0105986
1002	0.0118215
1014	0.0118215
1026	0.0115303
1038	0.0124038
1050	0.0143838
1062	0.0195666
1074	0.0249242
1086	0.0446655
1098	0.0815858
1110	0.0322034
1122	0.0172955
1134	0.0133938
1146	0.0108898
1158	0.0101327
1170	0.0113556
1182	0.0115886
1194	0.011705
1206	0.0130444
1218	0.0148497
1230	0.0129862
1242	0.0114721
1254	0.00960861
1266	0.00815276
1278	0.0085604
1290	0.00867687
1302	0.00879333
1314	0.00949214
1326	0.00960861
1338	0.0100745
1350	0.0100162
1362	0.00989978
1374	0.00931744
1386	0.00960861
1398	0.00692985
1410	0.00920097
1422	0.00681338
1434	0.00984155
1446	0.00762865
1458	0.00442578
1470	0.00553223
1482	0.00687161
1494	0.00646397
1506	0.00634751
1518	0.00634751
1530	0.00955038
1542	0.00518283
1554	0.0083857
1566	0.00646397
1578	0.00774512
1590	0.00652221
1602	0.00786159
1614	0.00611457
1626	0.00949214
1638	0.00460049
1650	0.00879333
1662	0.00553223
1674	0.00494989
1686	0.0058234
1698	0.00623104
1710	0.0128115
1722	0.0165385
1734	0.0239924
1746	0.0371533
1758	0.0460631
1770	0.0574187
1782	0.109247
1794	0.0819352
1806	0.0194502
1818	0.00949214
1830	0.00716278
1842	0.00646397
1854	0.00663868
1866	0.00512459
1878	0.00541576
1890	0.005474
1902	0.00611457
1914	0.00640574
1926	0.00745395
1938	0.00733748
1950	0.00675514
1962	0.00611457
1974	0.00512459
1986	0.00477519
1998	0.00489166
2010	0.00535753
2022	0.0058234
2034	0.00559046
2046	0.005474
2058	0.00535753
2070	0.00494989
2082	0.00512459
2094	0.00500812
2106	0.005474
2118	0.00541576
2130	0.00518283
2142	0.00506636
2154	0.00454225
2166	0.00454225
2178	0.00430932
2190	0.00442578
2202	0.00460049
2214	0.00506636
2226	0.00471695
2238	0.00494989
2250	0.00442578
2262	0.00436755
2274	0.00413461
2286	0.00384344
2298	0.00314464
2310	0.00221289
2322	0.00209642
2334	0.00168879
2346	0.00139762
2358	0.00157232
2370	0.00122291
2382	0.00384344
2394	0.00454225
2406	0.00460049
2418	0.00518283
2430	0.00494989
2442	0.00506636
2454	0.00500812
2466	0.00471695
2478	0.00471695
2490	0.00465872
2502	0.00506636
2514	0.00524106
2526	0.005474
2538	0.00512459
2550	0.00535753
2562	0.00483342
2574	0.00454225
2586	0.00500812
2598	0.00512459
2610	0.00518283
2622	0.0059981
2634	0.0059981
2646	0.00593987
2658	0.00559046
2670	0.00576517
2682	0.00553223
2694	0.0058234
2706	0.0059981
2718	0.0058234
2730	0.00524106
2742	0.00541576
2754	0.00529929
2766	0.00489166
2778	0.005474
2790	0.00646397
2802	0.00687161
2814	0.00687161
2826	0.00739572
2838	0.00733748
2850	0.00704631
2862	0.00745395
2874	0.00786159
2886	0.0087351
2898	0.00745395
2910	0.00698808
2922	0.00716278
2934	0.00727925
2946	0.00762865
2958	0.00681338
2970	0.00733748
2982	0.00745395
2994	0.00739572
3006	0.00745395
3018	0.00727925
3030	0.00780336
3042	0.00710455
3054	0.00727925
3066	0.00710455
3078	0.00687161
3090	0.00745395
3102	0.00745395
3114	0.00704631
3126	0.00727925
3138	0.00727925
3150	0.00733748
3162	0.00716278
3174	0.00710455
3186	0.00745395
3198	0.00698808
3210	0.00762865
3222	0.00727925
3234	0.00716278
3246	0.00716278
3258	0.00698808
3270	0.00716278
3282	0.00722102
3294	0.00739572
3306	0.00791982
3318	0.00786159
3330	0.0083857
3342	0.00815276
3354	0.00791982
3366	0.00757042
3378	0.00727925
3390	0.00757042
3402	0.00768689
3414	0.00821099
3426	0.00821099
3438	0.00861863
3450	0.00745395
3462	0.00791982
3474	0.00896804
3486	0.0083857
3498	0.0089098
3510	0.00949214
3522	0.0112974
3534	0.0100162
3546	0.00821099
3558	0.00704631
3570	0.00710455
3582	0.00972508
3594	0.00791982
3606	0.00704631
3618	0.00832746
3630	0.0101327
3642	0.00611457
3654	0.00419285
3666	0.0110062
3678	0.0058234
3690	0.00430932
3702	0.00879333
3714	0.00727925
3726	0.0085604
3738	0.00372698
3750	0.0121127
3762	0.00733748
3774	0.00663868
3786	0.00704631
3798	0.00337757
3810	0.011938
3822	0.00757042
3834	0.00745395
3846	0.00698808
3858	0.005474
3870	0.00710455
3882	0.00832746
3894	0.00378521
3906	0.00925921
3918	0.00698808
3930	0.00669691
3942	0.00861863
3954	0.00593987
3966	0.00879333
