Infrared Spectrum: Butanoic acid, 2-methyl-
Formula: C 5 H 10 O 2
CAS: 116-53-0
Origin: Sadtler Research Labs Under US-EPA Contract
1/CM	ABSORBANCE
450	0.00821475
462	0.0159266
474	0.027159
486	0.062868
498	0.0665563
510	0.0618621
522	0.0774534
534	0.0948888
546	0.133783
558	0.191454
570	0.26874
582	0.344181
594	0.335128
606	0.267902
618	0.216769
630	0.138813
642	0.0673945
654	0.0331943
666	0.0246443
678	0.0157589
690	0.0182736
702	0.0269913
714	0.044762
726	0.0684004
738	0.0972358
750	0.116851
762	0.112659
774	0.0794652
786	0.0417444
798	0.029506
810	0.0279972
822	0.0212913
834	0.00955594
846	0.0045265
858	0.00670592
870	0.00972358
882	0.00754416
894	0.0045265
906	0.00285002
918	0.00100589
930	0.00301766
942	0.00519709
954	0.0172677
966	0.0330267
978	0.036212
990	0.0315178
1002	0.0598503
1014	0.0948888
1026	0.106792
1038	0.117186
1050	0.167145
1062	0.228169
1074	0.289863
1086	0.475785
1098	0.749051
1110	0.789454
1122	0.62583
1134	0.522391
1146	0.391626
1158	0.339822
1170	0.400846
1182	0.361449
1194	0.194807
1206	0.0883505
1218	0.0548209
1230	0.0464385
1242	0.039062
1254	0.0434208
1266	0.0605209
1278	0.0779563
1290	0.0920388
1302	0.0975711
1314	0.0819799
1326	0.0678974
1338	0.0692386
1350	0.0824828
1362	0.107295
1374	0.146524
1386	0.179551
1398	0.157924
1410	0.0875123
1422	0.0467738
1434	0.0405708
1446	0.075274
1458	0.153733
1470	0.180389
1482	0.105618
1494	0.0348708
1506	0.018106
1518	0.0120707
1530	0.00720886
1542	0.00955594
1554	0.00754416
1566	0.00570003
1578	0.00737651
1590	0.00486179
1602	0.00368826
1614	0.00670592
1626	0.00502944
1638	0.0083824
1650	0.00687357
1662	0.00737651
1674	0.0122383
1686	0.0186089
1698	0.0246443
1710	0.050965
1722	0.130095
1734	0.203189
1746	0.345187
1758	0.804543
1770	1.3774
1782	1.35242
1794	0.642595
1806	0.208554
1818	0.0873446
1830	0.0363796
1842	0.0206207
1854	0.0129089
1866	0.0107295
1878	0.0083824
1890	0.00704122
1902	0.00570003
1914	0.00486179
1926	0.00368826
1938	0.00318531
1950	0.00234707
1962	0.00234707
1974	0.00251472
1986	0.00217942
1998	0.00100589
2010	0.000670592
2022	0.000502944
2034	0.00083824
2046	0.00083824
2058	0.00100589
2070	0.00150883
2082	0.00201178
2094	0.00150883
2106	0.00117354
2118	0.00117354
2130	0.00150883
2142	0.00100589
2154	0.00083824
2166	0.00117354
2178	0.00184413
2190	0.00318531
2202	0.00435885
2214	0.0041912
2226	0.00402355
2238	0.00335296
2250	0.00251472
2262	0.00201178
2274	0.00100589
2286	0.00167648
2298	0.00368826
2310	0.00502944
2322	0.00737651
2334	0.00586768
2346	0.0038559
2358	0.00922064
2370	0.000167648
2382	0.000167648
2394	0.00217942
2406	0.00217942
2418	0.00150883
2430	0.00083824
2442	0.00083824
2454	0.00167648
2466	0.00184413
2478	0.00117354
2490	0.00201178
2502	0.00150883
2514	0.00217942
2526	0.00167648
2538	0.00184413
2550	0.00134118
2562	0.00134118
2574	0.000670592
2586	0.000335296
2598	0.00083824
2610	0.000670592
2622	0.000670592
2634	0.00184413
2646	0.00234707
2658	0.00234707
2670	0.00100589
2682	0.00268237
2694	0.00167648
2706	0.00150883
2718	0.00234707
2730	0.0038559
2742	0.00553238
2754	0.00938829
2766	0.00787946
2778	0.00670592
2790	0.00720886
2802	0.00972358
2814	0.0110648
2826	0.0149207
2838	0.0212913
2850	0.0288355
2862	0.0558268
2874	0.119868
2886	0.20386
2898	0.202183
2910	0.165469
2922	0.192963
2934	0.292043
2946	0.374023
2958	0.376034
2970	0.517026
2982	0.630524
2994	0.410738
3006	0.135124
3018	0.0415767
3030	0.0239737
3042	0.0211236
3054	0.0199501
3066	0.0196148
3078	0.0179383
3090	0.015256
3102	0.014753
3114	0.0134118
3126	0.0130765
3138	0.012406
3150	0.0125736
3162	0.0127412
3174	0.012406
3186	0.012406
3198	0.0107295
3210	0.0083824
3222	0.00720886
3234	0.00620298
3246	0.00519709
3258	0.00502944
3270	0.00469414
3282	0.00352061
3294	0.0045265
3306	0.00502944
3318	0.00435885
3330	0.00234707
3342	0.00335296
3354	0.00201178
3366	0.00217942
3378	0.00318531
3390	0.00285002
3402	0.00100589
3414	0.00167648
3426	0.000670592
3438	0.00150883
3450	0.00134118
3462	0.00167648
3474	0.00201178
3486	0.00268237
3498	0.00637062
3510	0.00855005
3522	0.014753
3534	0.0182736
3546	0.0222972
3558	0.12121
3570	0.412079
3582	0.419288
3594	0.118695
3606	0.0132442
3618	0.00586768
3630	0.00100589
3642	0.0041912
3654	0.00234707
3666	0.0045265
3678	0.00167648
3690	0.00318531
3702	0.00217942
3714	0.000167648
3726	0.00268237
3738	0.000335296
3750	0
3762	0.000167648
3774	0.000670592
3786	0.000167648
3798	0.00117354
3810	0.000502944
3822	0.000167648
3834	0.00083824
3846	0.000502944
3858	0.00083824
3870	0.000502944
3882	0.00570003
3894	0.0087177
3906	0.00318531
3918	0.00167648
3930	0.000167648
3942	0.000670592
3954	0.000670592
3966	0.00217942
