Infrared Spectrum: Acetic acid, dichloro-, methyl ester
Formula: C 3 H 4 Cl 2 O 2
CAS: 116-54-1
Origin: Sadtler Research Labs Under US-EPA Contract
1/CM	ABSORBANCE
450	0
462	0.00784867
474	0.0234772
486	0.0179005
498	0.0114288
510	0.0183824
522	0.0373156
534	0.0182447
546	0.0156285
558	0.0324963
570	0.028985
582	0.027608
594	0.0314635
606	0.0426858
618	0.0497083
630	0.0556292
642	0.0685726
654	0.0607928
666	0.0782113
678	0.147472
690	0.143135
702	0.130123
714	0.167163
726	0.158626
738	0.110708
750	0.098728
762	0.125579
774	0.0995542
786	0.0798637
798	0.0931513
810	0.197869
822	0.264652
834	0.189332
846	0.0829618
858	0.0471609
870	0.0343552
882	0.0479871
894	0.0481936
906	0.0346994
918	0.0307751
930	0.0297423
942	0.0221002
954	0.0227887
966	0.0262999
978	0.0360075
990	0.0724969
1002	0.176802
1014	0.240761
1026	0.230503
1038	0.110157
1050	0.0432365
1062	0.0347682
1074	0.0338732
1086	0.035801
1098	0.0435808
1110	0.0587962
1122	0.0680218
1134	0.0760082
1146	0.181414
1158	0.480559
1170	0.478149
1182	0.206062
1194	0.181552
1206	0.197112
1218	0.180313
1230	0.176044
1242	0.202138
1254	0.208954
1266	0.362278
1278	0.56235
1290	0.57729
1302	0.558288
1314	0.313671
1326	0.0859912
1338	0.0605862
1350	0.0509475
1362	0.0435119
1374	0.0337355
1386	0.0351125
1398	0.0288473
1410	0.0318078
1422	0.0351125
1434	0.092394
1446	0.157662
1458	0.0660941
1470	0.0512918
1482	0.0406203
1494	0.0338732
1506	0.0257492
1518	0.0252672
1530	0.0281588
1542	0.0184513
1554	0.0236837
1566	0.0263688
1578	0.0238903
1590	0.021274
1602	0.0232706
1614	0.0240968
1626	0.0201036
1638	0.0153531
1650	0.0171432
1662	0.0186578
1674	0.0134942
1686	0.0157662
1698	0.0164547
1710	0.0241656
1722	0.0373845
1734	0.0522556
1746	0.115802
1758	0.36634
1770	0.68848
1782	0.514088
1794	0.455636
1806	0.269609
1818	0.0897778
1830	0.0377976
1842	0.0232706
1854	0.0196905
1866	0.0184513
1878	0.0171432
1890	0.0187267
1902	0.0192086
1914	0.0167301
1926	0.0146646
1938	0.0159727
1950	0.0146646
1962	0.0121861
1974	0.0141827
1986	0.0157662
1998	0.0130811
2010	0.01494
2022	0.0167301
2034	0.0174874
2046	0.0171432
2058	0.0177628
2070	0.0159727
2082	0.0128057
2094	0.015422
2106	0.0153531
2118	0.0146646
2130	0.0139073
2142	0.0148712
2154	0.0153531
2166	0.0147335
2178	0.014045
2190	0.0143892
2202	0.012668
2214	0.0114288
2226	0.0105337
2238	0.00819291
2250	0.00922563
2262	0.00895024
2274	0.00963872
2286	0.008606
2298	0.00867485
2310	0.0105337
2322	0.00716019
2334	0.0121861
2346	0.0111534
2358	0.0110157
2370	0.00963872
2382	0.0110845
2394	0.0128057
2406	0.00977642
2418	0.0112911
2430	0.0120484
2442	0.0120484
2454	0.0117042
2466	0.011773
2478	0.0123238
2490	0.00956987
2502	0.010878
2514	0.0122549
2526	0.0118419
2538	0.0102584
2550	0.0120484
2562	0.0119107
2574	0.0113599
2586	0.0111534
2598	0.0110845
2610	0.0110845
2622	0.0103272
2634	0.0130811
2646	0.00991411
2658	0.0109468
2670	0.0124615
2682	0.0110157
2694	0.0113599
2706	0.0100518
2718	0.0124615
2730	0.00908794
2742	0.0111534
2754	0.0125992
2766	0.0101895
2778	0.0106714
2790	0.0106714
2802	0.0139073
2814	0.0114976
2826	0.0122549
2838	0.0164547
2850	0.0287785
2862	0.0334601
2874	0.0196217
2886	0.0190709
2898	0.0210675
2910	0.027608
2922	0.0294669
2934	0.026713
2946	0.0292604
2958	0.101895
2970	0.141207
2982	0.0559046
2994	0.0364894
3006	0.0479871
3018	0.0536326
3030	0.0448889
3042	0.0445447
3054	0.0318766
3066	0.021274
3078	0.0206544
3090	0.0180382
3102	0.0172808
3114	0.0166612
3126	0.0168678
3138	0.0128746
3150	0.0121172
3162	0.0159039
3174	0.011773
3186	0.0102584
3198	0.0130123
3210	0.0139761
3222	0.0119107
3234	0.0110845
3246	0.0129434
3258	0.0112911
3270	0.0101207
3282	0.0132188
3294	0.0121172
3306	0.0109468
3318	0.0112911
3330	0.012668
3342	0.0139073
3354	0.0101895
3366	0.0117042
3378	0.0121172
3390	0.0123926
3402	0.0134254
3414	0.0119796
3426	0.0128057
3438	0.0119107
3450	0.0137008
3462	0.0132188
3474	0.0110845
3486	0.0132877
3498	0.0142515
3510	0.0157662
3522	0.0192774
3534	0.0164547
3546	0.0134254
3558	0.0166612
3570	0.0232706
3582	0.027608
3594	0.0165235
3606	0.0128746
3618	0.012668
3630	0.00839946
3642	0.011773
3654	0.0110157
3666	0.0129434
3678	0.0070225
3690	0.0110157
3702	0.0125992
3714	0.00812406
3726	0.00929448
3738	0.00771098
3750	0.0100518
3762	0.0087437
3774	0.00977642
3786	0.00970757
3798	0.00915678
3810	0.0106026
3822	0.00819291
3834	0.0084683
3846	0.00839946
3858	0.0100518
3870	0.00970757
3882	0.00915678
3894	0.0109468
3906	0.00963872
3918	0.00888139
3930	0.0113599
3942	0.0156973
3954	0.00681595
3966	0.00716019
