Infrared Spectrum: Benzene, 1,2,4,5-tetrachloro-3-nitro-
Formula: C 6 H Cl 4 N O 2
CAS: 117-18-0
Origin: Sadtler Research Labs Under US-EPA Contract
1/CM	ABSORBANCE
450	0.0582698
462	0.0146462
474	0.00535452
486	0.0266151
498	0.00188983
510	0.0283475
522	0.0236229
534	0.0283475
546	0.118744
558	0.0600022
570	0.0214181
582	0.0138588
594	0.0143312
606	0.0374817
618	0.0828376
630	0.274813
642	0.142052
654	0.0344894
666	0.0234654
678	0.0418913
690	0.0492931
702	0.0140163
714	0.0154336
726	0.0330721
738	0.289302
750	0.196228
762	0.0231504
774	0.0815777
786	0.230874
798	0.0365368
810	0.0510255
822	0.0371667
834	0.0149612
846	0.0163785
858	0.0247253
870	0.105201
882	0.0658291
894	0.0160636
906	0.0141737
918	0.0114965
930	0.0192133
942	0.0187408
954	0.016851
966	0.0089767
978	0.0103941
990	0.011024
1002	0.0152761
1014	0.0247253
1026	0.0362218
1038	0.0299223
1050	0.0201582
1062	0.0184259
1074	0.0272451
1086	0.0752783
1098	0.16977
1110	0.277963
1122	0.045356
1134	0.0244103
1146	0.0214181
1158	0.0714986
1170	0.317177
1182	0.100634
1194	0.0455135
1206	0.103626
1218	0.0570099
1230	0.0551201
1242	0.0798454
1254	0.0173235
1266	0.0239379
1278	0.0184259
1290	0.0329146
1302	0.0792155
1314	0.103626
1326	0.376549
1338	0.600337
1350	0.267096
1362	0.227252
1374	0.174967
1386	0.0554351
1398	0.089452
1410	0.393872
1422	0.665693
1434	0.364423
1446	0.135595
1458	0.0343319
1470	0.0307098
1482	0.0341745
1494	0.0600022
1506	0.100949
1518	0.0965389
1530	0.0540177
1542	0.0875622
1554	0.295129
1566	1.22272
1578	0.837511
1590	0.14158
1602	0.022993
1614	0.0407889
1626	0.0823652
1638	0.0543327
1650	0.0365368
1662	0.00125989
1674	0.0140163
1686	0.0179534
1698	0.0277175
1710	0.0198432
1722	0.00850424
1734	0.0125989
1746	0.0239379
1758	0.0125989
1770	0.0129139
1782	0.0125989
1794	0.0108665
1806	0.0102366
1818	0.0103941
1830	0.0122839
1842	0.00629944
1854	0.00803179
1866	0.0108665
1878	0.0067719
1890	0.00834676
1902	0.00771681
1914	0.00803179
1926	0.00771681
1938	0.00755933
1950	0.00881922
1962	0.00803179
1974	0.00944916
1986	0.00850424
1998	0.00771681
2010	0.00724436
2022	0.00724436
2034	0.00755933
2046	0.00740184
2058	0.00740184
2070	0.00771681
2082	0.00661441
2094	0.0067719
2106	0.0067719
2118	0.00740184
2130	0.00645693
2142	0.00598447
2154	0.00645693
2166	0.0067719
2178	0.0067719
2190	0.0056695
2202	0.00535452
2214	0.00582698
2226	0.00551201
2238	0.00535452
2250	0.00519704
2262	0.00472458
2274	0.00535452
2286	0.00881922
2298	0.0154336
2310	0.0207882
2322	0.0146462
2334	0.00629944
2346	0.0240954
2358	0.00299223
2370	0.00708687
2382	0.00992162
2394	0.00251978
2406	0.00204732
2418	0.00236229
2430	0.00251978
2442	0.00330721
2454	0.00377966
2466	0.00503955
2478	0.00346469
2490	0.0022048
2502	0.00188983
2514	0.00125989
2526	0.00125989
2538	0.00157486
2550	0.0022048
2562	0.00330721
2574	0.00377966
2586	0.00472458
2598	0.00472458
2610	0.00440961
2622	0.00488207
2634	0.00503955
2646	0.00598447
2658	0.00692938
2670	0.00992162
2682	0.0108665
2694	0.0125989
2706	0.0130713
2718	0.0124414
2730	0.0133863
2742	0.0127564
2754	0.0127564
2766	0.0135438
2778	0.0125989
2790	0.010709
2802	0.0105516
2814	0.00992162
2826	0.0105516
2838	0.0108665
2850	0.0118114
2862	0.0129139
2874	0.0152761
2886	0.0211031
2898	0.02756
2910	0.022993
2922	0.0228355
2934	0.0236229
2946	0.0174809
2958	0.0135438
2970	0.0143312
2982	0.0129139
2994	0.011024
3006	0.00992162
3018	0.00834676
3030	0.0089767
3042	0.00803179
3054	0.0089767
3066	0.0078743
3078	0.0118114
3090	0.0204732
3102	0.00960665
3114	0.00818927
3126	0.0089767
3138	0.0078743
3150	0.00724436
3162	0.00661441
3174	0.00771681
3186	0.00755933
3198	0.00755933
3210	0.00755933
3222	0.00818927
3234	0.0078743
3246	0.0078743
3258	0.00803179
3270	0.00803179
3282	0.00881922
3294	0.00771681
3306	0.00803179
3318	0.00881922
3330	0.0078743
3342	0.0089767
3354	0.00850424
3366	0.0100791
3378	0.0103941
3390	0.00976413
3402	0.0102366
3414	0.0103941
3426	0.0105516
3438	0.00913419
3450	0.00913419
3462	0.00834676
3474	0.00944916
3486	0.00740184
3498	0.00803179
3510	0.00582698
3522	0.00755933
3534	0.00614195
3546	0.00740184
3558	0.00535452
3570	0.0125989
3582	0.00377966
3594	0.0127564
3606	0.00645693
3618	0.00692938
3630	0.0193708
3642	0.00692938
3654	0.0259852
3666	0.00692938
3678	0.00913419
3690	0.0184259
3702	0.00960665
3714	0.0157486
3726	0.0067719
3738	0.00960665
3750	0.0355918
3762	0.00519704
3774	0.00771681
3786	0.0108665
3798	0.0184259
3810	0.00362218
3822	0.0206307
3834	0.0132288
3846	0.0149612
3858	0.0135438
3870	0.0132288
3882	0.0135438
3894	0.00692938
3906	0.0157486
3918	0.0176384
3930	0.0100791
3942	0.0129139
3954	0.0155911
3966	0.0196858
