Infrared Spectrum: Bis(2-butoxyethyl) phthalate
Formula: C 20 H 30 O 6
CAS: 117-83-9
Origin: Sadtler Research Labs Under US-EPA Contract
1/CM	ABSORBANCE
450	0.0239101
462	0.0402044
474	0.0117779
486	0
498	0.0414442
510	0.0351567
522	0.0358652
534	0.0324558
546	0.030109
558	0.0392303
570	0.0289135
582	0.0282936
594	0.0252385
606	0.0236445
618	0.0271424
630	0.0236002
642	0.0255041
654	0.0320573
666	0.0249728
678	0.0247071
690	0.0355995
702	0.0471118
714	0.0405144
726	0.0514068
738	0.0711105
750	0.0667712
762	0.0464033
774	0.0399388
786	0.039496
798	0.0366622
810	0.0298434
822	0.0342269
834	0.038699
846	0.0385661
858	0.039496
870	0.0375477
882	0.0345811
894	0.0374149
906	0.0391418
918	0.034714
930	0.0336956
942	0.0348468
954	0.04109
966	0.0470675
978	0.051451
990	0.0447208
1002	0.0464033
1014	0.0510525
1026	0.0604395
1038	0.0908142
1050	0.0927624
1062	0.138723
1074	0.234496
1086	0.135136
1098	0.175075
1110	0.289578
1122	0.404701
1134	0.343553
1146	0.211206
1158	0.109898
1170	0.0677896
1182	0.0507426
1194	0.0455178
1206	0.0486615
1218	0.0553475
1230	0.0832426
1242	0.158515
1254	0.261284
1266	0.393189
1278	0.43543
1290	0.32044
1302	0.138944
1314	0.0714647
1326	0.0534435
1338	0.0557017
1350	0.0508311
1362	0.062122
1374	0.0590669
1386	0.0683652
1398	0.0403815
1410	0.0322344
1422	0.0290021
1434	0.035201
1446	0.0520709
1458	0.0552589
1470	0.0489272
1482	0.0428611
1494	0.0294449
1506	0.0203236
1518	0.0181097
1530	0.0166043
1542	0.0143018
1554	0.0162943
1566	0.0182425
1578	0.0264782
1590	0.0217848
1602	0.024043
1614	0.0175341
1626	0.0151431
1638	0.0145232
1650	0.0137262
1662	0.0166928
1674	0.0158515
1686	0.0176226
1698	0.0236887
1710	0.0360423
1722	0.0617235
1734	0.153556
1746	0.393454
1758	0.250658
1770	0.081383
1782	0.038389
1794	0.024043
1806	0.0186853
1818	0.0158958
1830	0.0135933
1842	0.0119108
1854	0.0111581
1866	0.0104939
1878	0.0088556
1890	0.00889988
1902	0.00889988
1914	0.00934266
1926	0.00978544
1938	0.0111581
1950	0.00898843
1962	0.0104053
1974	0.00863421
1986	0.00739443
1998	0.00695165
2010	0.0062432
2022	0.0070402
2034	0.00863421
2046	0.00907699
2058	0.00810287
2070	0.0103168
2082	0.00814715
2094	0.00540192
2106	0.00633175
2118	0.00535764
2130	0.00566758
2142	0.00518053
2154	0.00376363
2166	0.00438352
2178	0.00394074
2190	0.00376363
2202	0.0036308
2214	0.00340941
2226	0.00407358
2238	0.00438352
2250	0.00358652
2262	0.00407358
2274	0.0048263
2286	0.00557903
2298	0.00615464
2310	0.00673026
2322	0.00332085
2334	0.00429497
2346	0.00978544
2358	0.00256812
2370	0.0122207
2382	0.011468
2394	0.00447208
2406	0.00478202
2418	0.0044278
2430	0.00407358
2442	0.00389646
2454	0.00411785
2466	0.0036308
2478	0.00385219
2490	0.00451636
2502	0.00385219
2514	0.00473775
2526	0.00518053
2538	0.00500341
2550	0.00438352
2562	0.0040293
2574	0.00513625
2586	0.0052248
2598	0.0058447
2610	0.00504769
2622	0.00349796
2634	0.00349796
2646	0.00451636
2658	0.00296663
2670	0.00540192
2682	0.0104496
2694	0.00969688
2706	0.0112466
2718	0.0127521
2730	0.0132834
2742	0.0140804
2754	0.0148331
2766	0.0151874
2778	0.0154087
2790	0.018641
2802	0.0215634
2814	0.0254598
2826	0.030906
2838	0.0415328
2850	0.0702692
2862	0.115654
2874	0.14045
2886	0.134827
2898	0.107153
2910	0.105382
2922	0.124244
2934	0.148464
2946	0.176138
2958	0.180964
2970	0.18247
2982	0.0979872
2994	0.0549933
3006	0.0320573
3018	0.0207221
3030	0.0169142
3042	0.0137705
3054	0.0129735
3066	0.017047
3078	0.0297548
3090	0.0146117
3102	0.0096526
3114	0.0088556
3126	0.00726159
3138	0.00642031
3150	0.00518053
3162	0.00646459
3174	0.00549047
3186	0.00500341
3198	0.00429497
3210	0.00416213
3222	0.0040293
3234	0.00495914
3246	0.0048263
3258	0.00504769
3270	0.00518053
3282	0.00615464
3294	0.00526908
3306	0.00531336
3318	0.00588897
3330	0.00407358
3342	0.00637603
3354	0.00487058
3366	0.00487058
3378	0.00593325
3390	0.00642031
3402	0.00593325
3414	0.00611036
3426	0.00566758
3438	0.00668598
3450	0.00677453
3462	0.00606609
3474	0.00854565
3486	0.00717304
3498	0.00398502
3510	0.00544619
3522	0.00478202
3534	0.00606609
3546	0.00553475
3558	0.00509197
3570	0.00349796
3582	0.00425069
3594	0.00513625
3606	0.00553475
3618	0.00615464
3630	0.00509197
3642	0.00531336
3654	0.00340941
3666	0.00540192
3678	0.00553475
3690	0.00371935
3702	0.00349796
3714	0.00695165
3726	0.00770437
3738	0.00544619
3750	0.00371935
3762	0.00473775
3774	0.00597753
3786	0.00469347
3798	0.00416213
3810	0.00491486
3822	0.00358652
3834	0.00553475
3846	0.00478202
3858	0.00655314
3870	0.00712876
3882	0.00256812
3894	0.00580042
3906	0.00650887
3918	0.00571186
3930	0.00823571
3942	0.00420641
3954	0.0103168
3966	0.00673026
