Infrared Spectrum: Di-n-octyl phthalate
Formula: C 24 H 38 O 4
CAS: 117-84-0
Origin: Sadtler Research Labs Under US-EPA Contract
1/CM	ABSORBANCE
450	0.0141707
462	0.0120317
474	0.026559
486	0.0210333
498	0.0217463
510	0.000623868
522	0.0200529
534	0.0193399
546	0.0188943
558	0.0177357
570	0.0154185
582	0.00935802
594	0.0170227
606	0.0180922
618	0.0145272
630	0.0112296
642	0.0174683
654	0.026559
666	0.0126556
678	0.022281
690	0.0442055
702	0.0608717
714	0.0540983
726	0.0719231
738	0.115326
750	0.100799
762	0.0673777
774	0.0669321
786	0.0579306
798	0.04171
810	0.0344019
822	0.0331541
834	0.0286979
846	0.0285197
858	0.0283414
870	0.0297674
882	0.0290544
894	0.0319064
906	0.0375212
918	0.0412644
930	0.0500877
942	0.0599805
954	0.0770923
966	0.0698732
978	0.0610499
990	0.0499986
1002	0.046701
1014	0.0448294
1026	0.0581088
1038	0.132438
1050	0.115326
1062	0.310865
1074	0.363715
1086	0.121209
1098	0.127626
1110	0.333146
1122	0.575652
1134	0.403197
1146	0.172277
1158	0.0913521
1170	0.056772
1182	0.0339562
1194	0.0482161
1206	0.0588218
1218	0.0827962
1230	0.163275
1242	0.359972
1254	0.626631
1266	0.858977
1278	0.785272
1290	0.587238
1302	0.268174
1314	0.141083
1326	0.0904609
1338	0.0745077
1350	0.0649714
1362	0.0611391
1374	0.075488
1386	0.118178
1398	0.0566829
1410	0.0360061
1422	0.0343127
1434	0.0396602
1446	0.0795877
1458	0.117376
1470	0.13529
1482	0.0695167
1494	0.0440273
1506	0.0335997
1518	0.0237961
1530	0.0198747
1542	0.0219245
1554	0.0219245
1566	0.0237961
1578	0.047414
1590	0.0303913
1602	0.0382342
1614	0.0228157
1626	0.0193399
1638	0.0188052
1650	0.0163988
1662	0.020855
1674	0.0234396
1686	0.0331541
1698	0.0490182
1710	0.0742403
1722	0.145629
1734	0.411486
1746	0.89124
1758	0.335106
1770	0.112029
1782	0.0551678
1794	0.0349366
1806	0.0252221
1818	0.0197855
1830	0.0175574
1842	0.012923
1854	0.0114079
1866	0.0101601
1878	0.00802116
1890	0.0085559
1902	0.00882328
1914	0.00882328
1926	0.010071
1938	0.0119426
1950	0.00766466
1962	0.00917977
1974	0.0066843
1986	0.00534744
1998	0.00436708
2010	0.00508007
2022	0.00401058
2034	0.00525832
2046	0.00659518
2058	0.00588218
2070	0.00677342
2082	0.00802116
2094	0.00757554
2106	0.00516919
2118	0.00606043
2130	0.00508007
2142	0.0048127
2154	0.00472357
2166	0.0048127
2178	0.00516919
2190	0.00490182
2202	0.00365408
2214	0.00401058
2226	0.00383233
2238	0.00383233
2250	0.00356496
2262	0.00303022
2274	0.0022281
2286	0.00276284
2298	0.00365408
2310	0.00347584
2322	0.00392146
2334	0.00133686
2346	0.000712992
2358	0.00329759
2370	0
2382	0.00231722
2394	0.00508007
2406	0.00534744
2418	0.00383233
2430	0.0040997
2442	0.00374321
2454	0.00267372
2466	0.00160423
2478	0.00303022
2490	0.00240635
2502	0.00213898
2514	0.00151511
2526	0.00213898
2538	0.0022281
2550	0.00213898
2562	0.00240635
2574	0.00401058
2586	0.0048127
2598	0.00499094
2610	0.00472357
2622	0.00436708
2634	0.0044562
2646	0.00525832
2658	0.00730817
2670	0.0106949
2682	0.0105166
2694	0.0111405
2706	0.0101601
2718	0.0104275
2730	0.012923
2742	0.0163988
2754	0.0165771
2766	0.0147055
2778	0.0168444
2790	0.0179139
2802	0.0212115
2814	0.026559
2826	0.0335106
2838	0.0475031
2850	0.080479
2862	0.176911
2874	0.260509
2886	0.264787
2898	0.216839
2910	0.252488
2922	0.364161
2934	0.523425
2946	0.508007
2958	0.417724
2970	0.606132
2982	0.2696
2994	0.112653
3006	0.0614064
3018	0.04171
3030	0.0364517
3042	0.0327085
3054	0.0271828
3066	0.0367191
3078	0.0659518
3090	0.0286979
3102	0.0185378
3114	0.01221
3126	0.0102493
3138	0.00882328
3150	0.0106058
3162	0.00873415
3174	0.00739729
3186	0.00686255
3198	0.00953627
3210	0.00659518
3222	0.00561481
3234	0.00623868
3246	0.00516919
3258	0.00454532
3270	0.00606043
3282	0.0063278
3294	0.00383233
3306	0.00499094
3318	0.00418883
3330	0.00347584
3342	0.00383233
3354	0.00204985
3366	0.00383233
3378	0.00427795
3390	0.0044562
3402	0.00320846
3414	0.00392146
3426	0.00579306
3438	0.00570394
3450	0.00802116
3462	0.00802116
3474	0.00623868
3486	0.00490182
3498	0.00213898
3510	0.00294109
3522	0.00320846
3534	0.00240635
3546	0.0018716
3558	0.00347584
3570	0.00276284
3582	0.00401058
3594	0.00311934
3606	0.00106949
3618	0.00552569
3630	0.00418883
3642	0.00508007
3654	0.0018716
3666	0.00383233
3678	0.00356496
3690	0.0048127
3702	0.00294109
3714	0.00133686
3726	0.00374321
3738	0.00338671
3750	0.00508007
3762	0.000712992
3774	0.00249547
3786	0.00303022
3798	0.00606043
3810	0.0066843
3822	0.00757554
3834	0.00311934
3846	0.00811028
3858	0.00802116
3870	0.00499094
3882	0.00383233
3894	0.00793204
3906	0.00900152
3918	0.00570394
3930	0.00534744
3942	0.0063278
3954	0.0063278
3966	0.0102493
