Infrared Spectrum: Bis(2-methoxyethyl) phthalate
Formula: C 14 H 18 O 6
CAS: 117-82-8
Origin: Sadtler Research Labs Under US-EPA Contract
1/CM	ABSORBANCE
450	0.00703492
462	0.00937989
474	0.0177548
486	0.00628117
498	0.0136511
510	0.0152423
522	0.0128136
534	0.0154936
546	0.0119761
558	0.0087099
570	0.0134836
582	0.00477369
594	0.00159123
606	0.00192623
618	0.000921239
630	0.00175873
642	0.0041037
654	0.0117249
666	0.00276372
678	0.00602993
690	0.0180898
702	0.0412045
714	0.0341696
726	0.044722
738	0.086764
750	0.0851727
762	0.0422932
774	0.0331646
786	0.0343371
798	0.0188435
810	0.0185085
822	0.019681
834	0.0264647
846	0.0371846
858	0.0438845
870	0.0399483
882	0.0328296
894	0.0304009
906	0.022026
918	0.0208535
930	0.0238685
942	0.0283909
954	0.0328296
966	0.0291447
978	0.038022
990	0.0415395
1002	0.0355096
1014	0.0444707
1026	0.0670829
1038	0.126377
1050	0.133245
1062	0.203594
1074	0.383487
1086	0.21289
1098	0.23098
1110	0.37687
1122	0.660696
1134	0.601318
1146	0.330892
1158	0.179558
1170	0.113731
1182	0.0905327
1194	0.114485
1206	0.132826
1218	0.0972326
1230	0.125958
1242	0.257696
1254	0.46062
1266	0.721916
1278	0.807508
1290	0.597633
1302	0.242621
1314	0.101169
1326	0.0692604
1338	0.0741179
1350	0.0510031
1362	0.0516731
1374	0.0546881
1386	0.0404508
1398	0.0534319
1410	0.0398645
1422	0.0263809
1434	0.0335833
1446	0.0628955
1458	0.0722754
1470	0.0552743
1482	0.0409533
1494	0.0298146
1506	0.0164148
1518	0.0127298
1530	0.00937989
1542	0.00829115
1554	0.00937989
1566	0.0122274
1578	0.0277209
1590	0.020686
1602	0.0249572
1614	0.0133998
1626	0.00988238
1638	0.00912864
1650	0.00896114
1662	0.0114736
1674	0.0130648
1686	0.0191785
1698	0.0286422
1710	0.0510031
1722	0.0997451
1734	0.246306
1746	0.729956
1758	0.521086
1770	0.161887
1782	0.064403
1794	0.0310709
1806	0.0231147
1818	0.0161636
1830	0.0114736
1842	0.0100499
1854	0.00728616
1866	0.00644867
1878	0.00510869
1890	0.00376871
1902	0.00435495
1914	0.00569493
1926	0.00636492
1938	0.0103011
1950	0.00695117
1962	0.0083749
1974	0.00703492
1986	0.00527619
1998	0.00452245
2010	0.00418745
2022	0.00385245
2034	0.00334996
2046	0.00401995
2058	0.0044387
2070	0.00527619
2082	0.00602993
2094	0.00577868
2106	0.00519244
2118	0.00485744
2130	0.0046062
2142	0.0039362
2154	0.00309871
2166	0.00200998
2178	0.00167498
2190	0.00133998
2202	0.000502494
2214	0.000753741
2226	0.000921239
2238	0.00108874
2250	0.00159123
2262	0.00142373
2274	0.00150748
2286	0.00175873
2298	0.00242872
2310	0.00234497
2322	0.00326621
2334	0.00226122
2346	0.00226122
2358	0.00217747
2370	0.00251247
2382	0.00251247
2394	0.00175873
2406	0.00159123
2418	0.00108874
2430	0.000669992
2442	0.000334996
2454	0.000251247
2466	0.000251247
2478	8.3749e-05
2490	0.000418745
2502	0.000502494
2514	0.000418745
2526	0.00117249
2538	0.00108874
2550	0.00108874
2562	0.00167498
2574	0.00142373
2586	0.00167498
2598	0.00192623
2610	0.00209372
2622	0.00209372
2634	0.00217747
2646	0.00209372
2658	0.00226122
2670	0.00267997
2682	0.00276372
2694	0.00334996
2706	0.00435495
2718	0.00728616
2730	0.0106361
2742	0.0105524
2754	0.0105524
2766	0.0118924
2778	0.0155773
2790	0.0218585
2802	0.0325784
2814	0.0550231
2826	0.0998288
2838	0.0982376
2850	0.0935476
2862	0.100331
2874	0.10678
2886	0.136678
2898	0.137935
2910	0.125121
2922	0.11951
2934	0.135171
2946	0.132742
2958	0.146728
2970	0.12219
2982	0.104351
2994	0.118337
3006	0.0743691
3018	0.0344208
3030	0.0247897
3042	0.021691
3054	0.019011
3066	0.0262134
3078	0.0528456
3090	0.0236172
3102	0.0105524
3114	0.00770491
3126	0.00468994
3138	0.00376871
3150	0.00401995
3162	0.00343371
3174	0.00251247
3186	0.00217747
3198	0.00133998
3210	0.00150748
3222	0.000921239
3234	0.00117249
3246	0.000921239
3258	0.00083749
3270	0.000921239
3282	0.000921239
3294	0.00100499
3306	0.00125624
3318	0.00108874
3330	0.00125624
3342	0.00175873
3354	0.00167498
3366	0.00117249
3378	0.000586243
3390	0.00117249
3402	0.000921239
3414	0.00083749
3426	0.00108874
3438	0.00142373
3450	0.00167498
3462	0.00351746
3474	0.00435495
3486	0.0042712
3498	0.00234497
3510	0.00125624
3522	0.000669992
3534	0.00117249
3546	0.00167498
3558	0.00117249
3570	0.00150748
3582	0.00108874
3594	0.00083749
3606	0.00100499
3618	0.00100499
3630	0.00142373
3642	0.00159123
3654	0.00167498
3666	0
3678	0.00318246
3690	0.00242872
3702	0.00167498
3714	0.00192623
3726	0.00117249
3738	0.00301496
3750	0.00133998
3762	0.00159123
3774	0.00209372
3786	0.00167498
3798	0.00267997
3810	0
3822	0.00267997
3834	0.00150748
3846	0.00200998
3858	0.00159123
3870	0.00343371
3882	0.00251247
3894	0.00301496
3906	0.00192623
3918	0.00150748
3930	0.00184248
3942	0.00276372
3954	0.00276372
3966	0.00293122
