Infrared Spectrum: Benzoic acid, 2-hydroxy-, phenylmethyl ester
Formula: C 14 H 12 O 3
CAS: 118-58-1
Origin: Sadtler Research Labs Under US-EPA Contract
1/CM	ABSORBANCE
450	0.00143342
462	0.00412109
474	0.00382246
486	0.0013737
498	0.00131397
510	0.00651013
522	0.0348203
534	0.052977
546	0.0027474
558	0.0091978
570	0.00854082
582	0.0183359
594	0.0186345
606	0.0151704
618	0.00788383
630	0.00567397
642	0.00531561
654	0.0151704
666	0.0467057
678	0.0578148
690	0.112046
702	0.141969
714	0.0831983
726	0.0548882
738	0.0819441
750	0.181089
762	0.0929934
774	0.0129008
786	0.00645041
798	0.00704767
810	0.00555452
822	0.00716712
834	0.015051
846	0.020486
858	0.0169622
870	0.00937698
882	0.0059726
894	0.00872
906	0.0176192
918	0.013737
930	0.0113479
942	0.0232931
954	0.0357759
966	0.0280712
978	0.0148718
990	0.00770465
1002	0.0130203
1014	0.016126
1026	0.05668
1038	0.0411512
1050	0.0208444
1062	0.0502296
1074	0.166456
1086	0.296301
1098	0.0785397
1110	0.0634887
1122	0.102729
1134	0.249416
1146	0.114793
1158	0.44902
1170	0.112345
1182	0.12865
1194	0.126918
1206	0.365881
1218	0.30084
1230	0.208026
1242	0.245414
1254	0.363851
1266	0.153914
1278	0.163351
1290	0.313084
1302	0.572832
1314	0.223435
1326	0.165919
1338	0.0836164
1350	0.0486767
1362	0.0493934
1374	0.0907238
1386	0.132293
1398	0.112404
1410	0.0960991
1422	0.0557841
1434	0.0388219
1446	0.052977
1458	0.0956213
1470	0.129068
1482	0.181089
1494	0.118676
1506	0.0619956
1518	0.0242488
1530	0.0131397
1542	0.0122438
1554	0.0178581
1566	0.0319534
1578	0.0667139
1590	0.0967561
1602	0.0790175
1614	0.143701
1626	0.062772
1638	0.025503
1650	0.033566
1662	0.0526783
1674	0.118019
1686	0.329568
1698	0.393535
1710	0.139221
1722	0.0494531
1734	0.0382246
1746	0.0571578
1758	0.0376871
1770	0.0169622
1782	0.0105715
1794	0.0118855
1806	0.0140953
1818	0.00794356
1830	0.00531561
1842	0.00471835
1854	0.00328493
1866	0.00424055
1878	0.00441972
1890	0.00483781
1902	0.00370301
1914	0.00483781
1926	0.00883945
1938	0.00645041
1950	0.00883945
1962	0.00567397
1974	0.00215014
1986	0.00107507
1998	0.000537534
2010	0.0013737
2022	0.00131397
2034	0.00220986
2046	0.00280712
2058	0.00262794
2070	0.00232931
2082	0.00167233
2094	0.00113479
2106	0.00119452
2118	0.000656986
2130	0.000537534
2142	0.000955616
2154	0.000776438
2166	0.000537534
2178	0.00101534
2190	0.000537534
2202	0.000418082
2214	0.000477808
2226	0.000537534
2238	0.000537534
2250	0.00059726
2262	0.00059726
2274	0.00107507
2286	0.0016126
2298	0.00238904
2310	0.00310575
2322	0.00310575
2334	0.00155288
2346	0.00340438
2358	0.00256822
2370	0.00441972
2382	0.00537534
2394	0.00280712
2406	0.00220986
2418	0.00244877
2430	0.00250849
2442	0.00238904
2454	0.00292657
2466	0.0029863
2478	0.00250849
2490	0.0029863
2502	0.0029863
2514	0.00310575
2526	0.00358356
2538	0.00382246
2550	0.00424055
2562	0.00424055
2574	0.00418082
2586	0.00430027
2598	0.00430027
2610	0.00477808
2622	0.00483781
2634	0.00477808
2646	0.00424055
2658	0.0029863
2670	0.00304603
2682	0.00453918
2694	0.00603233
2706	0.00561424
2718	0.00609205
2730	0.00615178
2742	0.00662959
2754	0.00668931
2766	0.00764493
2778	0.00770465
2790	0.00776438
2802	0.00728657
2814	0.00728657
2826	0.00764493
2838	0.00836164
2850	0.00836164
2862	0.0089589
2874	0.00979506
2886	0.0132592
2898	0.0184553
2910	0.0174997
2922	0.0147523
2934	0.0153496
2946	0.0214416
2958	0.0370301
2970	0.0386427
2982	0.0240099
2994	0.0196499
3006	0.0185151
3018	0.0243682
3030	0.0422263
3042	0.0612789
3054	0.0550674
3066	0.0674307
3078	0.0895293
3090	0.0555452
3102	0.0444959
3114	0.0289671
3126	0.0192915
3138	0.0145731
3150	0.013737
3162	0.0151107
3174	0.0182164
3186	0.0209638
3198	0.024189
3210	0.0299825
3222	0.0408526
3234	0.0590093
3246	0.077166
3258	0.0863041
3270	0.0840942
3282	0.0729852
3294	0.0645638
3306	0.0556049
3318	0.0489156
3330	0.0441375
3342	0.0409123
3354	0.0369107
3366	0.033566
3378	0.0306992
3390	0.0280712
3402	0.0237112
3414	0.0203666
3426	0.0188734
3438	0.0155885
3450	0.014394
3462	0.0174997
3474	0.0304603
3486	0.0362537
3498	0.0238904
3510	0.0183956
3522	0.0139759
3534	0.00973534
3546	0.00764493
3558	0.00615178
3570	0.00656986
3582	0.00794356
3594	0.00609205
3606	0.00358356
3618	0.00244877
3630	0.00256822
3642	0.00113479
3654	0.00203068
3666	0.00125425
3678	0.00143342
3690	0.000776438
3702	0.000418082
3714	0.00119452
3726	0.00203068
3738	0.00155288
3750	0.0013737
3762	0.00185151
3774	0.00197096
3786	0.00155288
3798	0.00113479
3810	0.00149315
3822	0.00286685
3834	0.000955616
3846	0.00179178
3858	0.00197096
3870	0.00304603
3882	0.00250849
3894	0.00310575
3906	0.00209041
3918	0.00238904
3930	0.000716712
3942	0.000537534
3954	5.9726e-05
3966	0.00131397
