Infrared Spectrum: 1H-Isoindole-1,3(2H)-dione, 2-(hydroxymethyl)-
Formula: C 9 H 7 N O 3
CAS: 118-29-6
Origin: Sadtler Research Labs Under US-EPA Contract
1/CM	ABSORBANCE
450	0.00624182
462	0
474	0.00559163
486	0.00247072
498	0.00559163
510	0.017165
522	0.0438228
534	0.10143
546	0.145773
558	0.0851749
570	0.0439528
582	0.0221065
594	0.0106631
606	0.0075422
618	0.00260076
630	0.0120935
642	0.0211962
654	0.0075422
666	0.00663194
678	0.0037711
690	0.00988289
702	0.095968
714	0.263717
726	0.1039
738	0.0200259
750	0.0148243
762	0.00663194
774	0.00741217
786	0.0241871
798	0.0110532
810	0.00117034
822	0.00403118
834	0.00260076
846	0.00065019
858	0.000780228
870	0.000910266
882	0.00169049
894	0.00182053
906	0.00130038
918	0.0027308
930	0.00208061
942	0.00338099
954	0.00702205
966	0.00858251
978	0.0111833
990	0.0222365
1002	0.0544859
1014	0.111443
1026	0.197658
1038	0.1355
1050	0.0328996
1062	0.0447331
1074	0.0555262
1086	0.0572167
1098	0.040962
1110	0.020416
1122	0.0157346
1134	0.0100129
1146	0.00845247
1158	0.0113133
1170	0.0288684
1182	0.0418722
1194	0.027308
1206	0.0152144
1218	0.0109232
1230	0.00871255
1242	0.0133939
1254	0.0258776
1266	0.0417422
1278	0.0772426
1290	0.201559
1302	0.199998
1314	0.0631985
1326	0.0418722
1338	0.095968
1350	0.151884
1362	0.159817
1374	0.099089
1386	0.0330297
1398	0.0092327
1410	0.00728213
1422	0.0149544
1434	0.00975285
1446	0.0107932
1458	0.0175551
1470	0.0280882
1482	0.0126137
1494	0.00325095
1506	0.00676198
1518	0.00169049
1530	0.00637186
1542	0.00806236
1554	0.00910266
1566	0.00910266
1578	0.0143042
1590	0.0157346
1602	0.0227566
1614	0.0247072
1626	0.0172951
1638	0.0174251
1650	0.0163848
1662	0.020416
1674	0.0157346
1686	0.013784
1698	0.0202859
1710	0.0430426
1722	0.0746418
1734	0.10169
1746	0.261766
1758	1.09115
1770	1.29349
1782	0.325225
1794	0.281532
1806	0.13628
1818	0.0569566
1830	0.0417422
1842	0.023927
1854	0.0130038
1866	0.0100129
1878	0.010273
1890	0.00858251
1902	0.00741217
1914	0.00611179
1926	0.00637186
1938	0.00832243
1950	0.00572167
1962	0.0037711
1974	0.00455133
1986	0.00221065
1998	0.000910266
2010	0.000390114
2022	0.00065019
2034	0.000520152
2046	0.00065019
2058	0.000130038
2070	0.000520152
2082	0.00117034
2094	0.00169049
2106	0.00195057
2118	0.00182053
2130	0.00130038
2142	0.00130038
2154	0.00130038
2166	0.00182053
2178	0.00195057
2190	0.0010403
2202	0.00065019
2214	0.000260076
2226	0.000260076
2238	0.00065019
2250	0.00156046
2262	0.00208061
2274	0.00260076
2286	0.00468137
2298	0.00715209
2310	0.00962281
2322	0.00832243
2334	0.00611179
2346	0.00702205
2358	0.00533156
2370	0.00611179
2382	0.00715209
2394	0.00312091
2406	0.00286084
2418	0.00208061
2430	0.00195057
2442	0.00195057
2454	0.00156046
2466	0.00143042
2478	0.00182053
2490	0.00156046
2502	0.00195057
2514	0.00208061
2526	0.00247072
2538	0.00234068
2550	0.00260076
2562	0.00221065
2574	0.00260076
2586	0.00390114
2598	0.00442129
2610	0.00494144
2622	0.00507148
2634	0.00572167
2646	0.00689201
2658	0.00676198
2670	0.00806236
2682	0.00767224
2694	0.00897262
2706	0.0120935
2718	0.0124836
2730	0.0196357
2742	0.0192456
2754	0.0234068
2766	0.0244471
2778	0.0261376
2790	0.0161247
2802	0.0348502
2814	0.0261376
2826	0.0235369
2838	0.0163848
2850	0.0145643
2862	0.0166449
2874	0.0157346
2886	0.0162547
2898	0.0234068
2910	0.0124836
2922	0.0122236
2934	0.010403
2946	0.010143
2958	0.0110532
2970	0.0117034
2982	0.0106631
2994	0.010143
3006	0.00897262
3018	0.010273
3030	0.013524
3042	0.0169049
3054	0.0219764
3066	0.0253574
3078	0.0276981
3090	0.0317293
3102	0.0222365
3114	0.0127437
3126	0.00936274
3138	0.00949277
3150	0.00936274
3162	0.00936274
3174	0.00936274
3186	0.0092327
3198	0.00988289
3210	0.010273
3222	0.00936274
3234	0.00871255
3246	0.00871255
3258	0.00845247
3270	0.00897262
3282	0.00871255
3294	0.00728213
3306	0.00728213
3318	0.00793232
3330	0.00741217
3342	0.00702205
3354	0.00663194
3366	0.00611179
3378	0.00494144
3390	0.00520152
3402	0.00481141
3414	0.00351103
3426	0.00494144
3438	0.00845247
3450	0.0267878
3462	0.0806236
3474	0.162938
3486	0.10377
3498	0.00910266
3510	0.00793232
3522	0.0124836
3534	0.0145643
3546	0.0156046
3558	0.00468137
3570	0.00507148
3582	0.00260076
3594	0.0027308
3606	0.00143042
3618	0.00286084
3630	0.00429125
3642	0.0010403
3654	0.00117034
3666	0.0027308
3678	0.00208061
3690	0.00143042
3702	0.0027308
3714	0.00169049
3726	0.00468137
3738	0.00234068
3750	0.00312091
3762	0.00130038
3774	0.00169049
3786	0.00182053
3798	0.00065019
3810	0.00234068
3822	0.00234068
3834	0.00065019
3846	0.0027308
3858	0.00195057
3870	0.00234068
3882	0.0027308
3894	0.00338099
3906	0.00403118
3918	0.00156046
3930	0.00143042
3942	0.00065019
3954	0.00156046
3966	0.00455133
