Infrared Spectrum: Benzoic acid, 2-chloro-
Formula: C 7 H 5 Cl O 2
CAS: 118-91-2
Origin: Sadtler Research Labs Under US-EPA Contract
1/CM	ABSORBANCE
450	0.0863409
462	0.0187161
474	0.0215185
486	0.00363646
498	0.0136451
510	0.0149462
522	0.015113
534	0.0294586
546	0.0350968
558	0.0375656
570	0.053546
582	0.0428702
594	0.0197503
606	0.0195168
618	0.0340292
630	0.0762322
642	0.026823
654	0.00467068
666	0.00787343
678	0.0320275
690	0.0522783
702	0.038433
714	0.0182824
726	0.016681
738	0.0757985
750	0.135116
762	0.0513108
774	0.0345964
786	0.032995
798	0.0123773
810	0.00720619
822	0.00266896
834	0.0016681
846	0.0023687
858	0.00270232
870	0.00316939
882	0.00170146
894	0.00156801
906	0.00210181
918	0.00180155
930	0.00136784
942	0.00326948
954	0.00493758
966	0.00283577
978	0.00226862
990	0.00320275
1002	0.00523783
1014	0.0136451
1026	0.0344629
1038	0.108293
1050	0.115566
1062	0.0441046
1074	0.0452722
1086	0.0725957
1098	0.150463
1110	0.153398
1122	0.0758652
1134	0.0656898
1146	0.0522115
1158	0.0541132
1170	0.0918122
1182	0.155834
1194	0.125341
1206	0.0441046
1218	0.0286246
1230	0.0211515
1242	0.0205844
1254	0.0284911
1266	0.0341293
1278	0.0365981
1290	0.0363979
1302	0.0384664
1314	0.0594511
1326	0.0746308
1338	0.0771663
1350	0.0645888
1362	0.0459395
1374	0.0366648
1386	0.022486
1398	0.010042
1410	0.00790679
1422	0.0165809
1434	0.0523116
1446	0.0501431
1458	0.0167144
1470	0.0278239
1482	0.0313603
1494	0.00970834
1506	0.00470404
1518	0.0040368
1530	0.00346965
1542	0.0066724
1554	0.00683921
1566	0.0120437
1578	0.0185826
1590	0.0377324
1602	0.0349634
1614	0.0129778
1626	0.0069393
1638	0.0047374
1650	0.00560482
1662	0.00363646
1674	0.00553809
1686	0.00753981
1698	0.0106091
1710	0.0206177
1722	0.0381328
1734	0.060185
1746	0.137785
1758	0.265962
1770	0.328716
1782	0.232867
1794	0.0887429
1806	0.0470404
1818	0.01945
1830	0.010042
1842	0.00593844
1854	0.00376991
1866	0.00393672
1878	0.00336956
1890	0.00293586
1902	0.0036031
1914	0.00373654
1926	0.00560482
1938	0.00573826
1950	0.00443715
1962	0.00603852
1974	0.00390335
1986	0.00133448
1998	0.00103422
2010	0.00103422
2022	0.00083405
2034	0.00113431
2046	0.00103422
2058	0.00066724
2070	0.00100086
2082	0.000800688
2094	0.000800688
2106	0.000967498
2118	0.000733964
2130	0.000934136
2142	0.00133448
2154	0.000633878
2166	0.000400344
2178	0.000433706
2190	0.00100086
2202	0.00123439
2214	0.00153465
2226	0.000967498
2238	0.00136784
2250	0.000700602
2262	0.00106758
2274	0.00160138
2286	0.00216853
2298	0.00326948
2310	0.00393672
2322	0.00376991
2334	0.00366982
2346	0.00467068
2358	0.00386999
2370	0.00543801
2382	0.00543801
2394	0.00200172
2406	0.00206844
2418	0.00226862
2430	0.00220189
2442	0.00223525
2454	0.00216853
2466	0.00216853
2478	0.00246879
2490	0.00216853
2502	0.00246879
2514	0.00226862
2526	0.00260224
2538	0.0026356
2550	0.00300258
2562	0.00260224
2574	0.00246879
2586	0.00220189
2598	0.00223525
2610	0.0023687
2622	0.00230198
2634	0.00246879
2646	0.00223525
2658	0.00216853
2670	0.00190163
2682	0.00213517
2694	0.00206844
2706	0.00186827
2718	0.0014012
2730	0.00126776
2742	0.000867412
2754	0.00116767
2766	0.00110095
2778	0.00200172
2790	0.00283577
2802	0.00276905
2814	0.00286913
2826	0.00323611
2838	0.00343629
2850	0.00413689
2862	0.00547137
2874	0.00523783
2886	0.00447051
2898	0.00443715
2910	0.00507102
2922	0.00633878
2934	0.00854067
2946	0.00770662
2958	0.00577163
2970	0.00557145
2982	0.00567154
2994	0.00587171
3006	0.00507102
3018	0.00573826
3030	0.00607188
3042	0.00607188
3054	0.00770662
3066	0.0159804
3078	0.0265562
3090	0.0209847
3102	0.00870748
3114	0.00550473
3126	0.00487085
3138	0.00497094
3150	0.00483749
3162	0.0040368
3174	0.0040368
3186	0.00370318
3198	0.00400344
3210	0.00330284
3222	0.00343629
3234	0.00293586
3246	0.00286913
3258	0.00320275
3270	0.0030693
3282	0.00266896
3294	0.00266896
3306	0.00276905
3318	0.00323611
3330	0.00256887
3342	0.00310267
3354	0.00326948
3366	0.00243543
3378	0.00253551
3390	0.00320275
3402	0.00283577
3414	0.00293586
3426	0.00310267
3438	0.00296922
3450	0.00300258
3462	0.00213517
3474	0.00246879
3486	0.00323611
3498	0.00523783
3510	0.00543801
3522	0.00753981
3534	0.00980843
3546	0.0107092
3558	0.0285579
3570	0.118235
3582	0.111963
3594	0.0314604
3606	0.00553809
3618	0.00470404
3630	0.00283577
3642	0.00216853
3654	0.00223525
3666	0.00130112
3678	0.00280241
3690	0.00240206
3702	0.00313603
3714	0.000800688
3726	0.00213517
3738	0.00483749
3750	0.000366982
3762	0.001935
3774	0.00136784
3786	0.00233534
3798	0.00286913
3810	0.000934136
3822	0.00143457
3834	0.00196836
3846	0.00253551
3858	0.00233534
3870	0.0030693
3882	3.3362e-05
3894	0.00180155
3906	0.000967498
3918	0.00170146
3930	0.00206844
3942	0.00223525
3954	0.00226862
3966	0.000133448
