Infrared Spectrum: Benzene, hexachloro-
Formula: C 6 Cl 6
CAS: 118-74-1
Origin: Sadtler Research Labs Under US-EPA Contract
1/CM	ABSORBANCE
450	0.00376785
462	0.00117359
474	0.00247072
486	0.00364431
498	0.00487967
510	0.00667094
522	0.00210011
534	0.00432376
546	0.00438553
558	0.000185304
570	0.00185304
582	0.00630034
594	0.00364431
606	0.00407669
618	0.0044473
630	0.00426199
642	0.00623857
654	0.00722686
666	0.0118595
678	0.0369373
690	0.164797
702	0.222735
714	0.0497232
726	0.0126624
738	0.0116124
750	0.00549735
762	0.00580619
774	0.00858575
786	0.00506498
798	0.00475614
810	0.00592973
822	0.00512674
834	0.0044473
846	0.00605326
858	0.00568266
870	0.00605326
882	0.00580619
894	0.00580619
906	0.00562089
918	0.0112418
930	0.0166774
942	0.0121683
954	0.00605326
966	0.00562089
978	0.00525028
990	0.00352078
1002	0.00469437
1014	0.00611503
1026	0.00592973
1038	0.00525028
1050	0.0044473
1062	0.00413846
1074	0.00487967
1086	0.00420022
1098	0.00475614
1110	0.00487967
1122	0.00543558
1134	0.00494144
1146	0.00407669
1158	0.00370608
1170	0.00420022
1182	0.00457083
1194	0.00605326
1206	0.00648564
1218	0.00401492
1230	0.00438553
1242	0.00580619
1254	0.00870929
1266	0.0134037
1278	0.0219276
1290	0.0667712
1302	0.142931
1314	0.048982
1326	0.0372461
1338	0.287407
1350	0.57574
1362	0.0559618
1374	0.0075357
1386	0.0090799
1398	0.00982111
1410	0.00809161
1422	0.00592973
1434	0.00852398
1446	0.00957404
1458	0.00413846
1470	0.00382962
1482	0.00382962
1494	0.00339724
1506	0.00315017
1518	0.00277956
1530	0.00358254
1542	0.00228542
1554	0.00333547
1566	0.00500321
1578	0.00531205
1590	0.00543558
1602	0.00352078
1614	0.00370608
1626	0.00339724
1638	0.00240895
1650	0.00284133
1662	0.00345901
1674	0.00345901
1686	0.00160597
1698	0.00277956
1710	0.00475614
1722	0.00555912
1734	0.00339724
1746	0.00364431
1758	0.0030884
1770	0.00210011
1782	0.00259426
1794	0.00240895
1806	0.00345901
1818	0.00339724
1830	0.00197658
1842	0.00247072
1854	0.00240895
1866	0.00277956
1878	0.00321194
1890	0.0030884
1902	0.00321194
1914	0.00364431
1926	0.00370608
1938	0.00296486
1950	0.00271779
1962	0.00216188
1974	0.00259426
1986	0.0029031
1998	0.00253249
2010	0.00185304
2022	0.00247072
2034	0.00234718
2046	0.00216188
2058	0.00179127
2070	0.00240895
2082	0.00222365
2094	0.00265602
2106	0.00228542
2118	0.00234718
2130	0.00166774
2142	0.00203834
2154	0.00253249
2166	0.00203834
2178	0.00265602
2190	0.00247072
2202	0.00203834
2214	0.00265602
2226	0.00389138
2238	0.0029031
2250	0.00228542
2262	0.00216188
2274	0.00148243
2286	0.00222365
2298	0.00228542
2310	0.0030884
2322	0.00265602
2334	0.00203834
2346	0.00105006
2358	0.0032737
2370	0.00166774
2382	0.00203834
2394	0.00203834
2406	0.0013589
2418	0.00179127
2430	0.0015442
2442	0.00148243
2454	0.00129713
2466	0.00117359
2478	0.000988288
2490	0.00142066
2502	0.00111182
2514	0.00111182
2526	0.0015442
2538	0.00105006
2550	0.000988288
2562	0.000555912
2574	0.00092652
2586	0.00123536
2598	0.00117359
2610	0.000988288
2622	0.000802984
2634	0.00123536
2646	0.000741216
2658	0.000988288
2670	0.000741216
2682	0.000741216
2694	0.000988288
2706	0.0013589
2718	0.00228542
2730	0.00222365
2742	0.00111182
2754	0.00123536
2766	0.00142066
2778	0.000802984
2790	0.000741216
2802	0.00061768
2814	0.00117359
2826	0.00092652
2838	0.000802984
2850	0.000679448
2862	0.0017295
2874	0.000864752
2886	0.000370608
2898	0.0017295
2910	0.0017295
2922	0.00216188
2934	0.00240895
2946	0.00240895
2958	0.00185304
2970	0.00117359
2982	0.00129713
2994	0.000555912
3006	0.000370608
3018	0.00142066
3030	0.00111182
3042	0.0013589
3054	0.0013589
3066	0.00142066
3078	0.00166774
3090	0.00092652
3102	0.00197658
3114	0.00148243
3126	0.00129713
3138	0.00117359
3150	0.000741216
3162	0.000432376
3174	0.00129713
3186	0.00123536
3198	0.00111182
3210	0.000988288
3222	0.00160597
3234	0.00166774
3246	0.00160597
3258	0.000679448
3270	0.000555912
3282	0.000741216
3294	0.000679448
3306	0.0013589
3318	0.000988288
3330	0.00203834
3342	0.000741216
3354	0.00179127
3366	0.00197658
3378	0.00061768
3390	0.00166774
3402	0.000494144
3414	0.0013589
3426	0.00148243
3438	0.00111182
3450	0.00111182
3462	0.00179127
3474	0.00129713
3486	0.00117359
3498	0.00166774
3510	0.00123536
3522	0.00092652
3534	0.000555912
3546	0.00166774
3558	0.00123536
3570	0.0015442
3582	0.00197658
3594	0.0017295
3606	0.00265602
3618	0.00160597
3630	0.000123536
3642	0.00203834
3654	0.00123536
3666	0.00185304
3678	0.00117359
3690	0.00111182
3702	0.00123536
3714	0.00092652
3726	0.0013589
3738	0.000555912
3750	6.1768e-05
3762	0.00129713
3774	0.0015442
3786	0.00197658
3798	0.000864752
3810	0.00160597
3822	0.000802984
3834	0.00117359
3846	0.000802984
3858	0.00210011
3870	0.000864752
3882	0.00160597
3894	0.00123536
3906	0.00216188
3918	0.000247072
3930	0.00142066
3942	0.00247072
3954	0
3966	0.000123536
