Infrared Spectrum: 5-Chloro-2-nitrobenzotrifluoride
Formula: C 7 H 3 Cl F 3 N O 2
CAS: 118-83-2
Origin: Sadtler Research Labs Under US-EPA Contract
1/CM	ABSORBANCE
450	0
462	0.0293733
474	0.0378118
486	0.034999
498	0.0435297
510	0.0421464
522	0.0603145
534	0.0419158
546	0.0361057
558	0.039933
570	0.0400252
582	0.0335234
594	0.0352296
606	0.0409936
618	0.034584
630	0.0302034
642	0.0307567
654	0.0400252
666	0.0338001
678	0.0321862
690	0.0312639
702	0.0305261
714	0.0363363
726	0.0574094
738	0.0398869
750	0.034999
762	0.0372585
774	0.0298345
786	0.0288661
798	0.0329701
810	0.0339845
822	0.032924
834	0.0607295
846	0.050216
858	0.0721192
870	0.130128
882	0.0362901
894	0.0526138
906	0.0405786
918	0.0296039
930	0.0280361
942	0.0285894
954	0.032094
966	0.0321401
978	0.0328317
990	0.0338923
1002	0.0336156
1014	0.0335234
1026	0.0338462
1038	0.0437142
1050	0.0921318
1062	0.071658
1074	0.0373046
1086	0.040763
1098	0.0506771
1110	0.0915784
1122	0.0794971
1134	0.0744709
1146	0.107856
1158	0.104997
1170	0.217049
1182	0.450606
1194	0.289722
1206	0.0970196
1218	0.0717503
1230	0.0515993
1242	0.0434375
1254	0.0493398
1266	0.0932385
1278	0.156412
1290	0.122151
1302	0.385404
1314	0.18099
1326	0.0797276
1338	0.0686608
1350	0.15157
1362	0.213545
1374	0.0773298
1386	0.0696291
1398	0.0894573
1410	0.0674157
1422	0.0408552
1434	0.041178
1446	0.0372585
1458	0.0361057
1470	0.0431608
1482	0.0624818
1494	0.0441292
1506	0.0395641
1518	0.0466192
1530	0.0565333
1542	0.0843388
1554	0.216819
1566	0.272337
1578	0.123672
1590	0.0935612
1602	0.0639573
1614	0.0479565
1626	0.0381346
1638	0.0355524
1650	0.0342151
1662	0.0335234
1674	0.0331084
1686	0.0323706
1698	0.0321862
1710	0.0328779
1722	0.034169
1734	0.0345379
1746	0.0330623
1758	0.0363824
1770	0.0418697
1782	0.0426997
1794	0.043622
1806	0.0351835
1818	0.0316789
1830	0.030895
1842	0.0303878
1854	0.0303878
1866	0.0301572
1878	0.0298806
1890	0.0294656
1902	0.0307106
1914	0.0323706
1926	0.0302034
1938	0.02965
1950	0.0301572
1962	0.0299267
1974	0.0294656
1986	0.0298806
1998	0.0299728
2010	0.0291889
2022	0.0282205
2034	0.0280361
2046	0.0283128
2058	0.0276672
2070	0.0278516
2082	0.0302956
2094	0.0305723
2106	0.0299728
2118	0.0300189
2130	0.0299267
2142	0.0302956
2154	0.0296961
2166	0.0298345
2178	0.02965
2190	0.0295117
2202	0.0294195
2214	0.0291428
2226	0.0301572
2238	0.0297884
2250	0.0298345
2262	0.0293733
2274	0.0292811
2286	0.0295117
2298	0.0297884
2310	0.0314484
2322	0.0329701
2334	0.0302495
2346	0.0273444
2358	0.0338462
2370	0.0255922
2382	0.0255922
2394	0.0284511
2406	0.0289122
2418	0.0286817
2430	0.0282205
2442	0.0278978
2454	0.0279439
2466	0.0277594
2478	0.0274828
2490	0.0274366
2502	0.0268833
2514	0.0271139
2526	0.0271139
2538	0.0272522
2550	0.0270677
2562	0.0269755
2574	0.0273905
2586	0.0266988
2598	0.0264683
2610	0.0264683
2622	0.0270677
2634	0.0282205
2646	0.0287278
2658	0.0290506
2670	0.0298806
2682	0.02799
2694	0.0266988
2706	0.0272061
2718	0.0272061
2730	0.0268833
2742	0.0265605
2754	0.0260533
2766	0.0264222
2778	0.0260994
2790	0.0260994
2802	0.0259149
2814	0.0265144
2826	0.0260533
2838	0.0259149
2850	0.0264222
2862	0.0269294
2874	0.0271139
2886	0.0280361
2898	0.0291889
2910	0.0308028
2922	0.0292811
2934	0.0277594
2946	0.0268372
2958	0.0269294
2970	0.0269755
2982	0.0261916
2994	0.0262838
3006	0.0264683
3018	0.0274366
3030	0.0272522
3042	0.02799
3054	0.0280361
3066	0.0284511
3078	0.0271139
3090	0.0287278
3102	0.0290967
3114	0.0303417
3126	0.02799
3138	0.0275289
3150	0.02716
3162	0.0272983
3174	0.0271139
3186	0.028405
3198	0.0271139
3210	0.028405
3222	0.0274828
3234	0.0278516
3246	0.0290044
3258	0.0281283
3270	0.0272522
3282	0.0278055
3294	0.02716
3306	0.0286356
3318	0.0284972
3330	0.0274828
3342	0.0276211
3354	0.0278516
3366	0.0293272
3378	0.0276211
3390	0.0286356
3402	0.0272522
3414	0.0284972
3426	0.030065
3438	0.0287739
3450	0.0292811
3462	0.0290967
3474	0.0294195
3486	0.0293272
3498	0.0295578
3510	0.0282205
3522	0.0299728
3534	0.0298345
3546	0.0289583
3558	0.0281283
3570	0.0304339
3582	0.0297884
3594	0.0314484
3606	0.0308028
3618	0.0296039
3630	0.0289122
3642	0.0304339
3654	0.0277594
3666	0.0282667
3678	0.0287278
3690	0.0293733
3702	0.028405
3714	0.02882
3726	0.0298345
3738	0.027575
3750	0.0273444
3762	0.0287278
3774	0.0280822
3786	0.0286817
3798	0.0277133
3810	0.02799
3822	0.0298806
3834	0.027575
3846	0.0280361
3858	0.0291428
3870	0.0262838
3882	0.0304339
3894	0.0277594
3906	0.0265144
3918	0.0306645
3930	0.0283589
3942	0.0298806
3954	0.0280361
3966	0.0294195
