Infrared Spectrum: Homosalate
Formula: C 16 H 22 O 3
CAS: 118-56-9
Origin: Sadtler Research Labs Under US-EPA Contract
1/CM	ABSORBANCE
450	0.0213558
462	0.00856294
474	0.0133087
486	0.0171259
498	0.0182607
510	0.0187766
522	0.0500365
534	0.0525125
546	0.0258952
558	0.0247603
570	0.0231096
582	0.0126897
594	0.0145467
606	0.0151657
618	0.014753
630	0.0144435
642	0.0194988
654	0.0545759
666	0.086558
678	0.0516872
690	0.0772728
702	0.156609
714	0.115858
726	0.0818122
738	0.06448
750	0.232128
762	0.155784
774	0.0395133
786	0.0285775
798	0.0457034
810	0.0189829
822	0.0169196
834	0.0080471
846	0.025792
858	0.0549885
870	0.0453939
882	0.0204273
894	0.0254825
906	0.0272364
918	0.0385848
930	0.111937
942	0.0730429
954	0.0513777
966	0.0275459
978	0.0420925
990	0.0937797
1002	0.050346
1014	0.0734556
1026	0.0845978
1038	0.109049
1050	0.0692257
1062	0.090891
1074	0.261634
1086	0.469311
1098	0.135975
1110	0.116786
1122	0.171878
1134	0.449503
1146	0.255753
1158	0.966787
1170	0.283815
1182	0.360469
1194	0.222327
1206	0.531418
1218	0.684623
1230	0.398022
1242	0.587026
1254	0.726715
1266	0.290934
1278	0.293616
1290	0.445892
1302	1.03168
1314	0.460336
1326	0.430314
1338	0.295679
1350	0.174044
1362	0.162077
1374	0.287117
1386	0.217169
1398	0.209741
1410	0.177655
1422	0.151966
1434	0.12473
1446	0.104097
1458	0.212836
1470	0.286498
1482	0.388221
1494	0.213351
1506	0.110802
1518	0.0510682
1530	0.0314662
1542	0.0261015
1554	0.0332201
1566	0.0506555
1578	0.126793
1590	0.179822
1602	0.15207
1614	0.277831
1626	0.114929
1638	0.0603533
1650	0.0897562
1662	0.138451
1674	0.339113
1686	0.760039
1698	0.431242
1710	0.139896
1722	0.09151
1734	0.105541
1746	0.109564
1758	0.0391007
1770	0.0216653
1782	0.014753
1794	0.0131023
1806	0.0194988
1818	0.0109358
1830	0.00897562
1842	0.00784077
1854	0.0048489
1866	0.00567424
1878	0.00371405
1890	0.00649958
1902	0.00577741
1914	0.0108326
1926	0.0133087
1938	0.00753126
1950	0.01042
1962	0.0028887
1974	0.00206336
1986	0.0025792
1998	0.00175386
2010	0.00144435
2022	0.00165069
2034	0.00278554
2046	0.00268237
2058	0.00237286
2070	0.00299187
2082	0.00206336
2094	0.00309504
2106	0.0022697
2118	0.0028887
2130	0.00196019
2142	0.0025792
2154	0.00350771
2166	0.00309504
2178	0.00268237
2190	0.00165069
2202	0.00144435
2214	0.00216653
2226	0.00216653
2238	0.00361088
2250	0.00196019
2262	0.00175386
2274	0.00278554
2286	0.00330138
2298	0.00381722
2310	0.00299187
2322	0.00247603
2334	0.00247603
2346	0.0025792
2358	0.00268237
2370	0.00278554
2382	0.00588058
2394	0.00474573
2406	0.00464256
2418	0.00474573
2430	0.00495206
2442	0.00536474
2454	0.0054679
2466	0.00557107
2478	0.00526157
2490	0.00526157
2502	0.00598374
2514	0.00567424
2526	0.00649958
2538	0.00722176
2550	0.00835661
2562	0.00732493
2574	0.00732493
2586	0.00784077
2598	0.00825344
2610	0.01042
2622	0.0125865
2634	0.0121738
2646	0.0111421
2658	0.0102136
2670	0.01042
2682	0.011658
2694	0.0146499
2706	0.015372
2718	0.0165069
2730	0.0200146
2742	0.0188797
2754	0.0186734
2766	0.0188797
2778	0.0208399
2790	0.0230065
2802	0.0236255
2814	0.0304346
2826	0.0440527
2838	0.0940892
2850	0.140721
2862	0.0993508
2874	0.194472
2886	0.252246
2898	0.232541
2910	0.352835
2922	0.428044
2934	0.407204
2946	0.376047
2958	0.677195
2970	0.403593
2982	0.0972874
2994	0.110493
3006	0.0758285
3018	0.0433306
3030	0.0445686
3042	0.0441559
3054	0.0605596
3066	0.0803679
3078	0.0918195
3090	0.0697416
3102	0.0555044
3114	0.0401324
3126	0.0347676
3138	0.0377595
3150	0.0413704
3162	0.0499333
3174	0.0593216
3186	0.0694321
3198	0.0860421
3210	0.105025
3222	0.128547
3234	0.140824
3246	0.139999
3258	0.127516
3270	0.111318
3282	0.10193
3294	0.093986
3306	0.0858358
3318	0.0796457
3330	0.0751063
3342	0.0698447
3354	0.063242
3366	0.0603533
3378	0.0520998
3390	0.0448781
3402	0.040545
3414	0.0348708
3426	0.0339423
3438	0.0328074
3450	0.0479731
3462	0.053441
3474	0.0436401
3486	0.0326011
3498	0.02703
3510	0.0209431
3522	0.0184671
3534	0.0139277
3546	0.0137213
3558	0.0111421
3570	0.0125865
3582	0.0155784
3594	0.00928512
3606	0.00784077
3618	0.00247603
3630	0.00567424
3642	0.00443622
3654	0.00464256
3666	0.00588058
3678	0.00206336
3690	0.00340454
3702	0.00402355
3714	0.00299187
3726	0.00165069
3738	0.00165069
3750	0.00598374
3762	0.00134118
3774	0.00371405
3786	0.00402355
3798	0.00371405
3810	0.00629325
3822	0.000722176
3834	0.00361088
3846	0.00464256
3858	0.0054679
3870	0.00340454
3882	0.00422989
3894	0.00608691
3906	0.00608691
3918	0.00794394
3930	0.00495206
3942	0.00897562
3954	0.00763443
3966	0.00051584
