Infrared Spectrum: Benzoic acid, 2-hydroxy-, phenyl ester
Formula: C 13 H 10 O 3
CAS: 118-55-8
Origin: Sadtler Research Labs Under US-EPA Contract
1/CM	ABSORBANCE
450	0.0024882
462	0.00661338
474	0.015715
486	0.0166317
498	0.0282869
510	0.0159114
522	0.00674434
534	0.00982185
546	0.0111314
558	0.0175484
570	0.0337217
582	0.0247511
594	0.020364
606	0.0081194
618	0.012441
630	0.0127684
642	0.0163697
654	0.0215426
666	0.0583418
678	0.0728781
690	0.110856
702	0.0710447
714	0.0397458
726	0.0410553
738	0.100183
750	0.166644
762	0.107189
774	0.0197747
786	0.0320192
798	0.0267154
810	0.03418
822	0.0282869
834	0.0170245
846	0.00844679
858	0.0276321
870	0.0209533
882	0.0182686
894	0.00674434
906	0.0160424
918	0.0254713
930	0.0192508
942	0.0113279
954	0.0125065
966	0.00419066
978	0.0125065
990	0.00988733
1002	0.0227867
1014	0.0142744
1026	0.02665
1038	0.020364
1050	0.0720924
1062	0.203378
1074	0.0759556
1086	0.020364
1098	0.0385671
1110	0.0462282
1122	0.0902301
1134	0.0756937
1146	0.114457
1158	0.340229
1170	0.213462
1182	0.298781
1194	0.65479
1206	0.351229
1218	0.168412
1230	0.149685
1242	0.186091
1254	0.252356
1266	0.142351
1278	0.12441
1290	0.205539
1302	0.403351
1314	0.198794
1326	0.14222
1338	0.0756937
1350	0.0529725
1362	0.0489128
1374	0.0503534
1386	0.0639075
1398	0.0792296
1410	0.0645623
1422	0.0436745
1434	0.0300549
1446	0.0308406
1458	0.0742532
1470	0.145363
1482	0.192901
1494	0.221777
1506	0.0786403
1518	0.0385017
1530	0.0235724
1542	0.0231796
1554	0.02665
1566	0.0422994
1578	0.101492
1590	0.148834
1602	0.128077
1614	0.119958
1626	0.0637765
1638	0.0258642
1650	0.0220009
1662	0.0254059
1674	0.0315609
1686	0.0595859
1698	0.175353
1710	0.31371
1722	0.132202
1734	0.0395493
1746	0.0267154
1758	0.0466865
1770	0.0488473
1782	0.0199711
1794	0.00831583
1806	0.0104112
1818	0.00805392
1830	0.00608955
1842	0.00615503
1854	0.00543476
1866	0.00445257
1878	0.00582763
1890	0.00569667
1902	0.00694077
1914	0.00648242
1926	0.0101492
1938	0.00798844
1950	0.00962541
1962	0.00622051
1974	0.00556571
1986	0.00491093
1998	0.00589311
2010	0.00464901
2022	0.00360135
2034	0.00438709
2046	0.00353587
2058	0.00392874
2070	0.00556571
2082	0.0040597
2094	0.00386326
2106	0.00333943
2118	0.00314299
2130	0.00464901
2142	0.00275012
2154	0.00353587
2166	0.00301203
2178	0.00314299
2190	0.00366682
2202	0.00320847
2214	0.00144054
2226	0.00275012
2238	0.00117862
2250	0.00327395
2262	0.00366682
2274	0.00379778
2286	0.00320847
2298	0.00432161
2310	0.00340491
2322	0.00556571
2334	0.000785748
2346	0.00386326
2358	0.000851227
2370	0.00425614
2382	0.00517284
2394	0.00484545
2406	0.00340491
2418	0.00458353
2430	0.00288108
2442	0.0049764
2454	0.00353587
2466	0.00347039
2478	0.00314299
2490	0.00399422
2502	0.00419066
2514	0.00510736
2526	0.00209533
2538	0.00360135
2550	0.00353587
2562	0.00412518
2574	0.00464901
2586	0.00477997
2598	0.00392874
2610	0.00615503
2622	0.00425614
2634	0.0053038
2646	0.00353587
2658	0.00314299
2670	0.00477997
2682	0.00438709
2694	0.00517284
2706	0.0040597
2718	0.00288108
2730	0.00438709
2742	0.00445257
2754	0.0040597
2766	0.00641694
2778	0.00432161
2790	0.00589311
2802	0.00576215
2814	0.0040597
2826	0.00392874
2838	0.00307751
2850	0.00261916
2862	0.00589311
2874	0.00451805
2886	0.00622051
2898	0.00510736
2910	0.00589311
2922	0.00595859
2934	0.00674434
2946	0.0037323
2958	0.00602407
2970	0.00438709
2982	0.0100838
2994	0.00864323
3006	0.0116553
3018	0.0169591
3030	0.0269773
3042	0.0351622
3054	0.0499605
3066	0.0474723
3078	0.057687
3090	0.0489128
3102	0.0348348
3114	0.0210188
3126	0.0115898
3138	0.00661338
3150	0.00975637
3162	0.00844679
3174	0.0136196
3186	0.0159114
3198	0.0177448
3210	0.0178758
3222	0.0210188
3234	0.0247511
3246	0.0380433
3258	0.0481271
3270	0.0611574
3282	0.0632527
3294	0.0559191
3306	0.0499605
3318	0.0434126
3330	0.0362754
3342	0.0360135
3354	0.0305132
3366	0.031299
3378	0.0251439
3390	0.02187
3402	0.0210842
3414	0.0180722
3426	0.0146673
3438	0.0118517
3450	0.00870871
3462	0.0110005
3474	0.0117862
3486	0.0143399
3498	0.0249475
3510	0.0182686
3522	0.0143399
3534	0.0123755
3546	0.00942898
3558	0.00694077
3570	0.0115243
3582	0.0181377
3594	0.0147328
3606	0.00360135
3618	0.00543476
3630	0.00713721
3642	0.0240308
3654	0.028025
3666	0.0246856
3678	0.00451805
3690	0.00235724
3702	0.000785748
3714	0.00412518
3726	0.00130958
3738	0.00111314
3750	0.000785748
3762	0.000785748
3774	0.000785748
3786	0.00353587
3798	0.000785748
3810	0.00242272
3822	0.000785748
3834	0.000785748
3846	0.00117862
3858	0.000916706
3870	0.000785748
3882	0.000785748
3894	0.000785748
3906	0.00680982
3918	0.00353587
3930	0.00104766
3942	0.000785748
3954	0.000785748
3966	0.000785748
