Infrared Spectrum: Benzoic acid, 2-hydroxy-, ethyl ester
Formula: C 9 H 10 O 3
CAS: 118-61-6
Origin: Sadtler Research Labs Under US-EPA Contract
1/CM	ABSORBANCE
450	0
462	0.0134852
474	0.0107717
486	0.00838715
498	0.0234347
510	0.0370021
522	0.0616702
534	0.0437448
546	0.017021
558	0.0288617
570	0.0248326
582	0.0194056
594	0.0247503
606	0.0173499
618	0.036591
630	0.0262304
642	0.0245859
654	0.0337953
666	0.0638082
678	0.0658638
690	0.0900386
702	0.173828
714	0.130988
726	0.0718664
738	0.0707152
750	0.179913
762	0.144802
774	0.0371666
786	0.0235991
798	0.040209
810	0.0411957
822	0.0462116
834	0.0306707
846	0.0350287
858	0.0587101
870	0.0408668
882	0.0309996
894	0.0228591
906	0.0155409
918	0.0191589
930	0.0156231
942	0.0199812
954	0.0208034
966	0.0197345
978	0.0236814
990	0.0249148
1002	0.0431692
1014	0.0653705
1026	0.0809114
1038	0.0768822
1050	0.0325619
1062	0.0345353
1074	0.0798424
1086	0.291084
1098	0.28171
1110	0.116022
1122	0.111171
1134	0.218395
1146	0.164536
1158	0.467872
1170	0.211077
1182	0.189944
1194	0.180899
1206	0.423305
1218	0.500516
1230	0.235334
1242	0.278585
1254	0.445259
1266	0.242816
1278	0.173499
1290	0.261646
1302	0.805413
1314	0.438517
1326	0.300129
1338	0.164207
1350	0.0774578
1362	0.0794313
1374	0.202525
1386	0.137237
1398	0.143322
1410	0.171526
1422	0.146693
1434	0.0865028
1446	0.0712086
1458	0.104099
1470	0.182133
1482	0.279983
1494	0.194796
1506	0.0892985
1518	0.0555855
1530	0.0321508
1542	0.0313285
1554	0.0309996
1566	0.0415246
1578	0.0904497
1590	0.13255
1602	0.100646
1614	0.181968
1626	0.133619
1638	0.0476917
1650	0.0559966
1662	0.0833782
1674	0.169799
1686	0.538093
1698	0.635368
1710	0.203923
1722	0.0624925
1734	0.0462938
1746	0.0651238
1758	0.0534475
1770	0.0263949
1782	0.0196523
1794	0.0171854
1806	0.0216257
1818	0.0204745
1830	0.0157054
1842	0.0157876
1854	0.0125807
1866	0.0139786
1878	0.0132385
1890	0.0136497
1902	0.0148009
1914	0.0146364
1926	0.01957
1938	0.0155409
1950	0.0179255
1962	0.0134852
1974	0.012334
1986	0.0129919
1998	0.0122518
2010	0.0105251
2022	0.0111006
2034	0.0110184
2046	0.0110184
2058	0.0110184
2070	0.0103606
2082	0.0112651
2094	0.0110184
2106	0.0119229
2118	0.0112651
2130	0.0100317
2142	0.0110184
2154	0.0107717
2166	0.0114296
2178	0.0103606
2190	0.00879829
2202	0.00953833
2214	0.00846938
2226	0.0094561
2238	0.00953833
2250	0.00896274
2262	0.0103606
2274	0.010854
2286	0.0116762
2298	0.00962056
2310	0.0073182
2322	0.00888052
2334	0.00805825
2346	0.00764711
2358	0.00904497
2370	0.00789379
2382	0.0105251
2394	0.0107717
2406	0.0114296
2418	0.0105251
2430	0.00994947
2442	0.0125807
2454	0.0113473
2466	0.0127452
2478	0.0111829
2490	0.00986724
2502	0.012334
2514	0.0111829
2526	0.0111829
2538	0.011594
2550	0.0120874
2562	0.0136497
2574	0.0110184
2586	0.011594
2598	0.0104428
2610	0.0111006
2622	0.0148831
2634	0.013403
2646	0.0135675
2658	0.0114296
2670	0.0104428
2682	0.0129096
2694	0.0124985
2706	0.014143
2718	0.0132385
2730	0.0138141
2742	0.0156231
2754	0.014472
2766	0.0158698
2778	0.0156231
2790	0.0160343
2802	0.0179255
2814	0.0157876
2826	0.0173499
2838	0.0165276
2850	0.0168565
2862	0.0203923
2874	0.0214612
2886	0.0325619
2898	0.0327263
2910	0.0384
2922	0.0430869
2934	0.0419358
2946	0.0661927
2958	0.054681
2970	0.0603546
2982	0.104839
2994	0.128521
3006	0.0776223
3018	0.051063
3030	0.0416891
3042	0.0380711
3054	0.0436625
3066	0.0613413
3078	0.0648771
3090	0.0539409
3102	0.0475272
3114	0.0312463
3126	0.0272171
3138	0.0250792
3150	0.0273816
3162	0.0306707
3174	0.0351109
3186	0.0446493
3198	0.0538587
3210	0.0736754
3222	0.105168
3234	0.14143
3246	0.158205
3258	0.143486
3270	0.119723
3282	0.0990013
3294	0.0828026
3306	0.0734287
3318	0.0641371
3330	0.0606835
3342	0.0575589
3354	0.0508163
3366	0.0477739
3378	0.0428403
3390	0.0397156
3402	0.0342064
3414	0.027875
3426	0.0269705
3438	0.024257
3450	0.0245036
3462	0.027546
3474	0.0407846
3486	0.0416891
3498	0.0272994
3510	0.0240103
3522	0.0212146
3534	0.0161165
3546	0.0171854
3558	0.0148831
3570	0.0147186
3582	0.0137319
3594	0.0106895
3606	0.0111829
3618	0.0110184
3630	0.0116762
3642	0.0105251
3654	0.00920942
3666	0.0103606
3678	0.00953833
3690	0.00888052
3702	0.00814047
3714	0.00756488
3726	0.00970279
3738	0.0101961
3750	0.0113473
3762	0.00904497
3774	0.00723598
3786	0.00830493
3798	0.00797602
3810	0.00723598
3822	0.00838715
3834	0.00740043
3846	0.00978501
3858	0.00879829
3870	0.00789379
3882	0.00740043
3894	0.00723598
3906	0.00846938
3918	0.00723598
3930	0.00830493
3942	0.0111829
3954	0.00715375
3966	0.00723598
