Infrared Spectrum: Phenol, 2,4,6-tribromo-
Formula: C 6 H 3 Br 3 O
CAS: 118-79-6
Origin: Sadtler Research Labs Under US-EPA Contract
1/CM	ABSORBANCE
450	0.00349728
462	0.0397816
474	0.0119673
486	0.0206558
498	0.0180328
510	0.0243717
522	0.0309291
534	0.0256285
546	0.0693445
558	0.0314209
570	0.0345356
582	0.0271039
594	0.0196722
606	0.0295083
618	0.0284154
630	0.0233881
642	0.0285247
654	0.0433881
666	0.0510384
678	0.176667
690	0.0632243
702	0.036175
714	0.038634
726	0.0591259
738	0.149235
750	0.0556833
762	0.0368854
774	0.0516942
786	0.0297815
798	0.0239345
810	0.0212023
822	0.0210383
834	0.0242624
846	0.0385247
858	0.108853
870	0.0353007
882	0.026175
894	0.0213662
906	0.0210383
918	0.0207105
930	0.0200547
942	0.0204919
954	0.0201094
966	0.0191804
978	0.0204372
990	0.0197268
1002	0.0191258
1014	0.0182514
1026	0.0208197
1038	0.0220766
1050	0.0208197
1062	0.0220219
1074	0.0251367
1086	0.0239345
1098	0.0313116
1110	0.0438253
1122	0.0274318
1134	0.0271039
1146	0.0578691
1158	0.217214
1170	0.119836
1182	0.0515849
1194	0.0642625
1206	0.0851369
1218	0.0617489
1230	0.124864
1242	0.0383608
1254	0.0507106
1266	0.11776
1278	0.0632243
1290	0.0258471
1302	0.0475412
1314	0.226285
1326	0.0743718
1338	0.0289619
1350	0.0374865
1362	0.0242624
1374	0.0650276
1386	0.141148
1398	0.0662844
1410	0.0538253
1422	0.0391805
1434	0.0483608
1446	0.15929
1458	0.54645
1470	0.0981971
1482	0.0231695
1494	0.017705
1506	0.00808746
1518	0.0087432
1530	0.0128416
1542	0.0148088
1554	0.0704921
1566	0.0485794
1578	0.0319673
1590	0.0250274
1602	0.0112022
1614	0.00928965
1626	0.00628418
1638	0.00519128
1650	0
1662	0.00972681
1674	0.00262296
1686	0.00174864
1698	0.000710385
1710	0.0144263
1722	0.0137159
1734	0.0100547
1746	0.00978145
1758	0.00830604
1770	0.00601095
1782	0.00715849
1794	0.00486341
1806	0.00879785
1818	0.00868856
1830	0.00459018
1842	0.0060656
1854	0.00814211
1866	0.00688527
1878	0.00868856
1890	0.00699456
1902	0.00846998
1914	0.00792353
1926	0.00836068
1938	0.00945359
1950	0.00907107
1962	0.00825139
1974	0.00770495
1986	0.00814211
1998	0.00754101
2010	0.0076503
2022	0.00710385
2034	0.00704921
2046	0.00710385
2058	0.00715849
2070	0.00710385
2082	0.00688527
2094	0.00715849
2106	0.00786888
2118	0.00770495
2130	0.00726779
2142	0.00743172
2154	0.00710385
2166	0.00677598
2178	0.00726779
2190	0.00688527
2202	0.00693992
2214	0.00693992
2226	0.00748637
2238	0.00715849
2250	0.00677598
2262	0.00628418
2274	0.00633882
2286	0.00754101
2298	0.0087432
2310	0.00797817
2322	0.00584702
2334	0.00491805
2346	0.00551915
2358	0.00683063
2370	0.00633882
2382	0.0093443
2394	0.00786888
2406	0.00797817
2418	0.00830604
2430	0.00830604
2442	0.00792353
2454	0.00786888
2466	0.00803282
2478	0.00901642
2490	0.00890714
2502	0.00808746
2514	0.00792353
2526	0.00846998
2538	0.00830604
2550	0.0076503
2562	0.00737708
2574	0.00715849
2586	0.00770495
2598	0.00721314
2610	0.00808746
2622	0.00830604
2634	0.00819675
2646	0.00781424
2658	0.00836068
2670	0.00770495
2682	0.00814211
2694	0.00830604
2706	0.00797817
2718	0.00857927
2730	0.0087432
2742	0.00836068
2754	0.00841533
2766	0.00841533
2778	0.00868856
2790	0.00852462
2802	0.00841533
2814	0.00857927
2826	0.00939894
2838	0.0103826
2850	0.00918036
2862	0.00989075
2874	0.00945359
2886	0.00879785
2898	0.00939894
2910	0.00972681
2922	0.00890714
2934	0.00918036
2946	0.00945359
2958	0.00879785
2970	0.00950823
2982	0.00901642
2994	0.00923501
3006	0.00967216
3018	0.00978145
3030	0.00945359
3042	0.00918036
3054	0.00923501
3066	0.00918036
3078	0.0113662
3090	0.0149181
3102	0.01
3114	0.0101093
3126	0.0103826
3138	0.0105465
3150	0.0102733
3162	0.00918036
3174	0.0102733
3186	0.00928965
3198	0.00928965
3210	0.00923501
3222	0.00972681
3234	0.0098361
3246	0.00896178
3258	0.00956288
3270	0.00978145
3282	0.0120765
3294	0.0106558
3306	0.00967216
3318	0.00923501
3330	0.0093443
3342	0.010164
3354	0.00918036
3366	0.00907107
3378	0.0101093
3390	0.00967216
3402	0.00857927
3414	0.0093443
3426	0.011694
3438	0.0108197
3450	0.00956288
3462	0.00939894
3474	0.00912572
3486	0.00972681
3498	0.0098361
3510	0.0110383
3522	0.0133334
3534	0.0286886
3546	0.314045
3558	0.140602
3570	0.030164
3582	0.0151913
3594	0.0124591
3606	0.00846998
3618	0.00972681
3630	0.00852462
3642	0.0106558
3654	0.0105465
3666	0.00923501
3678	0.00797817
3690	0.00814211
3702	0.0093443
3714	0.00836068
3726	0.00710385
3738	0.00846998
3750	0.00715849
3762	0.00825139
3774	0.00989075
3786	0.00868856
3798	0.0107104
3810	0.011858
3822	0.0106011
3834	0.00737708
3846	0.0115301
3858	0.00989075
3870	0.0122405
3882	0.00814211
3894	0.0113662
3906	0.00950823
3918	0.0161749
3930	0.0109836
3942	0.00814211
3954	0.0115301
3966	0.0122951
