Infrared Spectrum: Benzene, 1,3-dichloro-2-methyl-
Formula: C 7 H 6 Cl 2
CAS: 118-69-4
Origin: Sadtler Research Labs Under US-EPA Contract
1/CM	ABSORBANCE
450	0.0438648
462	0.0154303
474	0.0185358
486	0.0151392
498	0.0196033
510	0.0123248
522	0.00786073
534	0.0136835
546	0.010481
558	0.00650208
570	0.014848
582	0.0175653
594	0.0237763
606	0.016789
618	0.0112573
630	0.0125189
642	0.0130042
654	0.0073755
666	0.0118396
678	0.0342572
690	0.105586
702	0.097143
714	0.0284345
726	0.0158185
738	0.0221265
750	0.158379
762	0.770739
774	0.97046
786	0.398762
798	0.044253
810	0.0238733
822	0.0171771
834	0.016983
846	0.0145569
858	0.0121308
870	0.0146539
882	0.0131983
894	0.0158185
906	0.0132953
918	0.0112573
930	0.0139746
942	0.0220294
954	0.0335779
966	0.0700672
978	0.153333
990	0.273282
1002	0.372657
1014	0.1544
1026	0.0689997
1038	0.0776368
1050	0.0871473
1062	0.0816157
1074	0.103548
1086	0.260569
1098	0.253096
1110	0.0508521
1122	0.0151392
1134	0.0145569
1146	0.0262995
1158	0.0474555
1170	0.0369745
1182	0.0240674
1194	0.0644385
1206	0.114902
1218	0.0250379
1230	0.00989869
1242	0.010578
1254	0.0296961
1266	0.0581306
1278	0.0181476
1290	0.0132953
1302	0.0173712
1314	0.0136835
1326	0.0110632
1338	0.0143628
1350	0.0156244
1362	0.0177594
1374	0.033675
1386	0.0741431
1398	0.0555103
1410	0.0546369
1422	0.224176
1434	0.682719
1446	0.557529
1458	0.217092
1470	0.119367
1482	0.0981135
1494	0.0925819
1506	0.0529871
1518	0.0345484
1530	0.0307636
1542	0.0576453
1554	0.179147
1566	0.393619
1578	0.347716
1590	0.120822
1602	0.0362952
1614	0.0152362
1626	0.0103839
1638	0.0153333
1650	0.0174683
1662	0.0329956
1674	0.0235822
1686	0.0131983
1698	0.0116455
1710	0.00698731
1722	0.00766663
1734	0.0131983
1746	0.00999574
1758	0.00892823
1770	0.016886
1782	0.0224176
1794	0.0128101
1806	0.00650208
1818	0.00465821
1830	0.00795777
1842	0.0212531
1854	0.0255231
1866	0.0101898
1878	0.00553162
1890	0.00543458
1902	0.00960755
1914	0.0216413
1926	0.0216413
1938	0.00873414
1950	0.00397889
1962	0.00339661
1974	0.00427002
1986	0.00300843
1998	0.00223206
2010	0.00291138
2022	0.00378479
2034	0.00271729
2046	0.00300843
2058	0.0023291
2070	0.00262024
2082	0.00213501
2094	0.00135864
2106	0.00145569
2118	0.00184387
2130	0.00135864
2142	0.00203797
2154	0.00203797
2166	0.00184387
2178	0.00223206
2190	0.00300843
2202	0.00271729
2214	0.0025232
2226	0.00194092
2238	0.00213501
2250	0.0023291
2262	0.00184387
2274	0.00223206
2286	0.00213501
2298	0.00262024
2310	0.00378479
2322	0.00436707
2334	0.00320252
2346	0.00155274
2358	0.00145569
2370	0.00194092
2382	0.00194092
2394	0.00145569
2406	0.00223206
2418	0.00320252
2430	0.00194092
2442	0.00194092
2454	0.00329956
2466	0.00504639
2478	0.00417298
2490	0.00213501
2502	0.00135864
2514	0.00145569
2526	0.00213501
2538	0.0012616
2550	9.7046e-05
2562	0.000194092
2574	0.000388184
2586	0.00203797
2598	0.00300843
2610	0.00203797
2622	0.00145569
2634	0.0023291
2646	0.0035907
2658	0.00456116
2670	0.00291138
2682	0.00145569
2694	0.00145569
2706	0.00135864
2718	0.00097046
2730	0.00116455
2742	0.00203797
2754	0.00329956
2766	0.00184387
2778	0.00155274
2790	0.00184387
2802	0.00213501
2814	0.00271729
2826	0.00446412
2838	0.00630799
2850	0.00756959
2862	0.0145569
2874	0.0242615
2886	0.0199915
2898	0.0170801
2910	0.0217383
2922	0.0331897
2934	0.0604597
2946	0.0853034
2958	0.0730756
2970	0.0444471
2982	0.0258142
2994	0.0197974
3006	0.019021
3018	0.0197974
3030	0.0242615
3042	0.0303754
3054	0.0403711
3066	0.0624006
3078	0.0761811
3090	0.0609449
3102	0.0188269
3114	0.0110632
3126	0.00989869
3138	0.00863709
3150	0.00397889
3162	0.00155274
3174	0.00116455
3186	0.000776368
3198	0.000776368
3210	0.000679322
3222	0.00106751
3234	0.000582276
3246	0.00106751
3258	0.000291138
3270	0.000679322
3282	0.00097046
3294	0.000679322
3306	0.000776368
3318	0.00048523
3330	0.000194092
3342	0.000582276
3354	0
3366	0.000582276
3378	0.000582276
3390	0.000291138
3402	0.000582276
3414	0.00048523
3426	0.000873414
3438	0.00116455
3450	0.00106751
3462	0.00097046
3474	0.00135864
3486	0.00135864
3498	0.000873414
3510	0.00135864
3522	0.00116455
3534	0.000873414
3546	0.000388184
3558	0.000776368
3570	0.00145569
3582	0.00155274
3594	0.00097046
3606	0.0012616
3618	0.00145569
3630	0.00116455
3642	0.00164978
3654	0.00300843
3666	0.00194092
3678	0.00145569
3690	0.00097046
3702	0.00048523
3714	0.00213501
3726	0.00048523
3738	0.00262024
3750	0.000873414
3762	0.00242615
3774	0.00300843
3786	0.00262024
3798	0.00203797
3810	0.00203797
3822	0.00184387
3834	0.0023291
3846	0.00436707
3858	0.00465821
3870	0.00514344
3882	0.00397889
3894	0.00553162
3906	0.00397889
3918	0.0025232
3930	0.00203797
3942	0.00203797
3954	0.00291138
3966	0.00194092
