Infrared Spectrum: Benzoic acid, 2-methyl-
Formula: C 8 H 8 O 2
CAS: 118-90-1
Origin: Sadtler Research Labs Under US-EPA Contract
1/CM	ABSORBANCE
450	0.0149381
462	0.0143916
474	0.00528299
486	0.00643674
498	0.00965512
510	0.0110518
522	0.0200389
534	0.0270222
546	0.0385597
558	0.0516154
570	0.070622
582	0.0754192
594	0.0419603
606	0.0271436
618	0.0244718
630	0.0827061
642	0.0934542
654	0.0160919
666	0.00716543
678	0.00819774
690	0.0183386
702	0.0250183
714	0.0339447
726	0.12327
738	0.246661
750	0.103474
762	0.026172
774	0.0126913
786	0.0060724
798	0.00552588
810	0.00989801
822	0.0129949
834	0.00801557
846	0.00443285
858	0.00212534
870	0.00157882
882	0.00115376
894	0.00170027
906	0.00315765
918	0.0043114
930	0.00382561
942	0.0030362
954	0.0043114
966	0.00358272
978	0.00412923
990	0.00504009
1002	0.00728688
1014	0.0130557
1026	0.0237431
1038	0.0667357
1050	0.209741
1062	0.240042
1074	0.102016
1086	0.0781518
1098	0.0667964
1110	0.0718972
1122	0.0731117
1134	0.09394
1146	0.0909038
1158	0.077666
1170	0.175857
1182	0.264392
1194	0.159158
1206	0.0548338
1218	0.0358272
1230	0.0255041
1242	0.0232573
1254	0.0364951
1266	0.0531942
1278	0.0511903
1290	0.048397
1302	0.0498544
1314	0.0577485
1326	0.0643674
1338	0.097037
1350	0.0839813
1362	0.0359486
1374	0.0240467
1386	0.0247147
1398	0.0194924
1410	0.0109303
1422	0.0133593
1434	0.0208891
1446	0.0353414
1458	0.0399564
1470	0.0330339
1482	0.0313336
1494	0.0285403
1506	0.0194924
1518	0.0154239
1530	0.00655819
1542	0.0111125
1554	0.00601168
1566	0.0136022
1578	0.0184601
1590	0.0197353
1602	0.026172
1614	0.0212534
1626	0.00874426
1638	0.00589023
1650	0.00819774
1662	0.00467575
1674	0.0103838
1686	0.00953367
1698	0.0133593
1710	0.0324873
1722	0.0568984
1734	0.0883534
1746	0.36319
1758	0.575178
1770	0.289896
1782	0.0703791
1794	0.0664321
1806	0.0318801
1818	0.0119626
1830	0.00923005
1842	0.0047972
1854	0.00461502
1866	0.00528299
1878	0.00261113
1890	0.00297548
1902	0.00528299
1914	0.00473647
1926	0.00540444
1938	0.00552588
1950	0.00315765
1962	0.00491864
1974	0.00309692
1986	0.00163955
1998	0.00212534
2010	0.0012752
2022	0.000546516
2034	0.00091086
2046	0.000485792
2058	0.00030362
2070	0.00109303
2082	0.000364344
2094	0.000789412
2106	0.0015181
2118	0.00182172
2130	0.00163955
2142	0.0012752
2154	0.000850136
2166	0.00139665
2178	0.000850136
2190	0.000789412
2202	0.0012752
2214	0.000850136
2226	0.000425068
2238	0.000850136
2250	0.000425068
2262	0.00060724
2274	0.0015181
2286	0.00157882
2298	0.0043114
2310	0.00686181
2322	0.00667964
2334	0.00795484
2346	0.00807629
2358	0.00710471
2370	0.00789412
2382	0.00528299
2394	0.00236824
2406	0.00230751
2418	0.00200389
2430	0.00139665
2442	0.00170027
2454	0.00170027
2466	0.00139665
2478	0.00212534
2490	0.00145738
2502	0.00188244
2514	0.00170027
2526	0.00145738
2538	0.00139665
2550	0.00121448
2562	0.00121448
2574	0.00230751
2586	0.00255041
2598	0.00200389
2610	0.00224679
2622	0.00188244
2634	0.00157882
2646	0.001761
2658	0.00182172
2670	0.00200389
2682	0.00261113
2694	0.001761
2706	0.00267186
2718	0.00230751
2730	0.00224679
2742	0.00315765
2754	0.00376489
2766	0.00364344
2778	0.00376489
2790	0.00333982
2802	0.00364344
2814	0.00394706
2826	0.00443285
2838	0.00528299
2850	0.00674036
2862	0.0091086
2874	0.0124484
2886	0.0137236
2898	0.012327
2910	0.0132378
2922	0.0167598
2934	0.0269007
2946	0.0348556
2958	0.0307263
2970	0.0313336
2982	0.0337018
2994	0.0265971
3006	0.0168205
3018	0.0171242
3030	0.0265971
3042	0.0307263
3054	0.0281152
3066	0.0393492
3078	0.047304
3090	0.0316979
3102	0.0138451
3114	0.0110518
3126	0.00795484
3138	0.00595095
3150	0.00649747
3162	0.00619385
3174	0.0047972
3186	0.00497937
3198	0.0045543
3210	0.00412923
3222	0.0045543
3234	0.00406851
3246	0.00412923
3258	0.00382561
3270	0.00382561
3282	0.00364344
3294	0.00388634
3306	0.00315765
3318	0.00437213
3330	0.00406851
3342	0.00467575
3354	0.00473647
3366	0.00437213
3378	0.00388634
3390	0.0043114
3402	0.00412923
3414	0.00388634
3426	0.00382561
3438	0.00504009
3450	0.00473647
3462	0.00522226
3474	0.00570806
3486	0.0058295
3498	0.0075905
3510	0.00497937
3522	0.00589023
3534	0.00686181
3546	0.00661892
3558	0.0302406
3570	0.10991
3582	0.157579
3594	0.0748727
3606	0.00916932
3618	0.00333982
3630	0.0032791
3642	0.00746905
3654	0.0112947
3666	0.00558661
3678	0.00388634
3690	0.0063153
3702	0.00558661
3714	0.00267186
3726	0.00376489
3738	0.00686181
3750	0.00242896
3762	0.0047972
3774	0.00613312
3786	0.00546516
3798	0.0100195
3810	0.00510082
3822	0.00315765
3834	0.0043114
3846	0.00267186
3858	0.00540444
3870	0.00473647
3882	0.001761
3894	0.00874426
3906	0.00467575
3918	0.00309692
3930	0.0075905
3942	0.00807629
3954	0.00716543
3966	0.00661892
