Infrared Spectrum: 2,2-Dimethylvaleric acid
Formula: C 7 H 14 O 2
CAS: 1185-39-3
Origin: Sadtler Research Labs Under US-EPA Contract
1/CM	ABSORBANCE
450	0.0274863
462	0.000616285
474	0.00234188
486	0.00776519
498	0.0175025
510	0.0407981
522	0.0622448
534	0.0686541
546	0.0917032
558	0.15062
570	0.244049
582	0.302226
594	0.255142
606	0.151113
618	0.101564
630	0.0523842
642	0.0159002
654	0.00640936
666	0.00628611
678	0.00283491
690	0.0131885
702	0.0262537
714	0.0456051
726	0.0725984
738	0.056575
750	0.0368538
762	0.0449888
774	0.0772821
786	0.0622448
798	0.026377
810	0.0161467
822	0.0114629
834	0.0112164
846	0.0173792
858	0.012942
870	0.00603959
882	0.00603959
894	0.00591634
906	0.0109699
918	0.0161467
930	0.0126955
942	0.0173792
954	0.0209537
966	0.0191048
978	0.0113396
990	0.0126955
1002	0.0248979
1014	0.0342654
1026	0.0313073
1038	0.0460981
1050	0.0809798
1062	0.135459
1074	0.200909
1086	0.270303
1098	0.427579
1110	0.874508
1122	0.926769
1134	0.404653
1146	0.168862
1158	0.111548
1170	0.088745
1182	0.0803636
1194	0.083938
1206	0.0861566
1218	0.07001
1230	0.0504121
1242	0.0357445
1254	0.030691
1266	0.0320468
1278	0.0380864
1290	0.0511517
1302	0.0610122
1314	0.0740775
1326	0.0777752
1338	0.0676681
1350	0.0465911
1362	0.0589168
1374	0.0857869
1386	0.0935521
1398	0.0961405
1410	0.0501656
1422	0.0257607
1434	0.0319236
1446	0.0605192
1458	0.117587
1470	0.166274
1482	0.147292
1494	0.0520145
1506	0.0170095
1518	0.0119559
1530	0.0109699
1542	0.0128187
1554	0.0117094
1566	0.00850473
1578	0.00727216
1590	0.00542331
1602	0.00530005
1614	0.00603959
1626	0.00603959
1638	0.00751868
1650	0.00838148
1662	0.00899776
1674	0.0119559
1686	0.0184885
1698	0.0292119
1710	0.0639704
1722	0.115492
1734	0.157769
1746	0.292366
1758	0.835929
1770	1.23257
1782	0.53284
1794	0.170341
1806	0.0787612
1818	0.0394422
1830	0.0219397
1842	0.0146676
1854	0.00949079
1866	0.00603959
1878	0.00443725
1890	0.00394422
1902	0.0034512
1914	0.00283491
1926	0.00295817
1938	0.00320468
1950	0.00295817
1962	0.00271165
1974	0.00271165
1986	0.00271165
1998	0.00271165
2010	0.00295817
2022	0.00443725
2034	0.00505354
2046	0.00517679
2058	0.00493028
2070	0.00480702
2082	0.00209537
2094	0.000862799
2106	0.00197211
2118	0.00271165
2130	0.0025884
2142	0.00234188
2154	0.00246514
2166	0.0034512
2178	0.00394422
2190	0.00443725
2202	0.00530005
2214	0.00591634
2226	0.00566982
2238	0.00419074
2250	0.00295817
2262	0.0025884
2274	0.00271165
2286	0.00295817
2298	0.00295817
2310	0.00184885
2322	0.000493028
2334	0.00221863
2346	0.00653262
2358	0.000493028
2370	0.0120792
2382	0.0097373
2394	0.00603959
2406	0.00554656
2418	0.00616285
2430	0.00591634
2442	0.00542331
2454	0.00517679
2466	0.00517679
2478	0.00505354
2490	0.00517679
2502	0.00530005
2514	0.00505354
2526	0.00591634
2538	0.00616285
2550	0.00640936
2562	0.00677913
2574	0.00665588
2586	0.00727216
2598	0.00690239
2610	0.00751868
2622	0.00727216
2634	0.00690239
2646	0.00838148
2658	0.00702565
2670	0.00542331
2682	0.00788845
2694	0.00838148
2706	0.00813496
2718	0.00936753
2730	0.0117094
2742	0.0162699
2754	0.0166397
2766	0.0154071
2778	0.0146676
2790	0.0173792
2802	0.0178723
2814	0.0219397
2826	0.0271165
2838	0.0358678
2850	0.0564517
2862	0.0972498
2874	0.17293
2886	0.270426
2898	0.228765
2910	0.215823
2922	0.25243
2934	0.327864
2946	0.435713
2958	0.443602
2970	0.665095
2982	0.633294
2994	0.366073
3006	0.131392
3018	0.0505354
3030	0.0351282
3042	0.02687
3054	0.0214467
3066	0.0184885
3078	0.0197211
3090	0.0163932
3102	0.0149141
3114	0.0133118
3126	0.0140513
3138	0.0115862
3150	0.0114629
3162	0.0117094
3174	0.0112164
3186	0.0120792
3198	0.0114629
3210	0.0119559
3222	0.0104768
3234	0.00788845
3246	0.00825822
3258	0.00702565
3270	0.00714891
3282	0.00517679
3294	0.00431399
3306	0.00714891
3318	0.00813496
3330	0.00961405
3342	0.00677913
3354	0.00653262
3366	0.00480702
3378	0.00505354
3390	0.00382097
3402	0.00468377
3414	0.00591634
3426	0.00677913
3438	0.00628611
3450	0.00591634
3462	0.00394422
3474	0.00554656
3486	0.00677913
3498	0.00517679
3510	0.00924427
3522	0.0123257
3534	0.00949079
3546	0.0115862
3558	0.0655727
3570	0.323919
3582	0.322564
3594	0.060889
3606	0.00825822
3618	0.00443725
3630	0.00480702
3642	0.00197211
3654	0.00628611
3666	0.0088745
3678	0.00197211
3690	0.00369771
3702	0.00221863
3714	0.00147908
3726	0.00505354
3738	0.00493028
3750	0.00862799
3762	0.00838148
3774	0.00727216
3786	0.00456051
3798	0.00406748
3810	0.00394422
3822	0.000246514
3834	0.00566982
3846	0.0097373
3858	0.0140513
3870	0.0118327
3882	0.0034512
3894	0.00147908
3906	0.00283491
3918	0.000739542
3930	0.00147908
3942	0.00665588
3954	0.0025884
3966	0.0110931
