Infrared Spectrum: Benzenamine, 4-methyl-3-nitro-
Formula: C 7 H 8 N 2 O 2
CAS: 119-32-4
Origin: Sadtler Research Labs Under US-EPA Contract
1/CM	ABSORBANCE
450	0.0530726
462	0.0610212
474	0.0689699
486	0.0654235
498	0.0744728
510	0.066035
522	0.0610212
534	0.0484257
546	0.044757
558	0.0473251
570	0.0437787
582	0.0527057
594	0.0518497
606	0.0467136
618	0.0485479
630	0.0568635
642	0.102232
654	0.189545
666	0.188567
678	0.148212
690	0.163742
702	0.121798
714	0.0747174
726	0.0560074
738	0.0567412
750	0.0573526
762	0.0487925
774	0.0459799
786	0.044757
798	0.0973405
810	0.341792
822	0.274534
834	0.0446348
846	0.0313055
858	0.0755734
870	0.0810763
882	0.0295935
894	0.00684807
906	0.00366861
918	0.00550292
930	0.0165087
942	0.0139407
954	0.00305718
966	0.0056252
978	0.0056252
990	0.00415776
1002	0.00550292
1014	0.0056252
1026	0.00525834
1038	0.00794866
1050	0.00904924
1062	0.0144299
1074	0.0218894
1086	0.0256803
1098	0.0254357
1110	0.0233568
1122	0.0154082
1134	0.00978296
1146	0.0371752
1158	0.057108
1170	0.0135739
1182	0.00525834
1194	0.0117396
1206	0.024702
1218	0.0176093
1230	0.010639
1242	0.0284929
1254	0.0986856
1266	0.11654
1278	0.10211
1290	0.260471
1302	0.281382
1314	0.170835
1326	0.112137
1338	0.157139
1350	0.363192
1362	0.501499
1374	0.248854
1386	0.107735
1398	0.0728831
1410	0.0520943
1422	0.064323
1434	0.0615104
1446	0.0665241
1458	0.0946501
1470	0.0848672
1482	0.0838889
1494	0.160441
1506	0.342159
1518	0.455397
1530	0.734456
1542	1.0897
1554	0.820301
1566	0.395965
1578	0.275513
1590	0.147723
1602	0.0936718
1614	0.143198
1626	0.279304
1638	0.415409
1650	0.24812
1662	0.0657904
1674	0.0368084
1686	0.03155
1698	0.0233568
1710	0.0147967
1722	0.0189545
1734	0.0205442
1746	0.0127178
1758	0.00917152
1770	0.00672578
1782	0.00317946
1794	0.00330175
1806	0.000856009
1818	0
1830	0.00244574
1842	0.00256803
1854	0.00171202
1866	0.00611435
1878	0.00929381
1890	0.00684807
1902	0.00256803
1914	0.00342404
1926	0.00440233
1938	0.00489148
1950	0.00476919
1962	0.00452462
1974	0.00452462
1986	0.00403547
1998	0.00403547
2010	0.00354632
2022	0.00305718
2034	0.00244574
2046	0.00305718
2058	0.00354632
2070	0.00538063
2082	0.00428004
2094	0.00305718
2106	0.00330175
2118	0.00293489
2130	0.00195659
2142	0.00220117
2154	0.0028126
2166	0.00317946
2178	0.00342404
2190	0.00317946
2202	0.00330175
2214	0.00244574
2226	0.00244574
2238	0.00256803
2250	0.00220117
2262	0.00220117
2274	0.00256803
2286	0.00342404
2298	0.00538063
2310	0.0066035
2322	0.00648121
2334	0.00586978
2346	0.00623664
2358	0.0084378
2370	0.00464691
2382	0.00464691
2394	0.00415776
2406	0.00489148
2418	0.0056252
2430	0.00574749
2442	0.0056252
2454	0.00440233
2466	0.00354632
2478	0.00354632
2490	0.00317946
2502	0.0028126
2514	0.00317946
2526	0.00317946
2538	0.00403547
2550	0.00672578
2562	0.00623664
2574	0.00550292
2586	0.00684807
2598	0.00880466
2610	0.00819323
2622	0.00709265
2634	0.00672578
2646	0.00794866
2658	0.00733722
2670	0.00635892
2682	0.00709265
2694	0.00770408
2706	0.00721493
2718	0.00709265
2730	0.00672578
2742	0.00733722
2754	0.0094161
2766	0.0101498
2778	0.00745951
2790	0.00684807
2802	0.00794866
2814	0.0094161
2826	0.0124733
2838	0.0158973
2850	0.0201774
2862	0.0283706
2874	0.0405993
2886	0.0426782
2898	0.0383981
2910	0.0374198
2922	0.0412107
2934	0.0624887
2946	0.0902478
2958	0.0611435
2970	0.0464691
2982	0.0659127
2994	0.0578418
3006	0.0365638
3018	0.0332621
3030	0.0539286
3042	0.0764294
3054	0.0574749
3066	0.0610212
3078	0.0450016
3090	0.0206665
3102	0.0122287
3114	0.010639
3126	0.00892695
3138	0.0084378
3150	0.00770408
3162	0.00684807
3174	0.00611435
3186	0.00648121
3198	0.00831552
3210	0.0107613
3222	0.0133293
3234	0.014919
3246	0.0116173
3258	0.00856009
3270	0.00648121
3282	0.00574749
3294	0.00648121
3306	0.00648121
3318	0.00684807
3330	0.00782637
3342	0.00794866
3354	0.00978296
3366	0.0117396
3378	0.0150413
3390	0.0222562
3402	0.0432896
3414	0.0747174
3426	0.0807094
3438	0.0440233
3450	0.0139407
3462	0.013207
3474	0.0182208
3486	0.0325283
3498	0.0451239
3510	0.0443902
3522	0.0360747
3534	0.0125956
3546	0.00574749
3558	0.00525834
3570	0.00391318
3582	0.00415776
3594	0.00269031
3606	0.00489148
3618	0.00366861
3630	0.00330175
3642	0.00342404
3654	0.00244574
3666	0.00342404
3678	0.0028126
3690	0.00342404
3702	0.00440233
3714	0.00452462
3726	0.00476919
3738	0.00440233
3750	0.00207888
3762	0.00366861
3774	0.00366861
3786	0.00366861
3798	0.00476919
3810	0.00293489
3822	0.00391318
3834	0.00513605
3846	0.00684807
3858	0.0107613
3870	0.00623664
3882	0.00354632
3894	0.00305718
3906	0.0037909
3918	0.00452462
3930	0.00464691
3942	0.00684807
3954	0.00709265
3966	0.00501377
