Infrared Spectrum: Benzophenone
Formula: C 13 H 10 O
CAS: 119-61-9
Origin: Sadtler Research Labs Under US-EPA Contract
1/CM	ABSORBANCE
450	0
462	0.011485
474	0.0164476
486	0.0126902
498	0.00758577
510	0.00779845
522	0.00723129
534	0.00928725
546	0.00928725
558	0.00120522
570	0.00949993
582	0.00460817
594	0.00255222
606	0.00645145
618	0.00751487
630	0.0418281
642	0.228849
654	0.0247424
666	0.0284289
678	0.0574958
690	0.244162
702	0.457485
714	0.172629
726	0.0443803
738	0.0233954
750	0.0424661
762	0.0625294
774	0.0204887
786	0.0146044
798	0.0225446
810	0.0216939
822	0.00531713
834	0.00829472
846	0.0132574
858	0.00779845
870	0.0137536
882	0.0149588
894	0.0251677
906	0.0572832
918	0.157954
930	0.135622
942	0.166107
954	0.0153842
966	0.0174402
978	0.0105634
990	0.010138
1002	0.0219066
1014	0.0057425
1026	0.0254513
1038	0.0126902
1050	0.00659324
1062	0.0159514
1074	0.0212685
1086	0.0110596
1098	0.00751487
1110	0.0109178
1122	0.0165185
1134	0.0176529
1146	0.0291378
1158	0.0272237
1170	0.0490593
1182	0.0897531
1194	0.0248133
1206	0.0257349
1218	0.0299177
1230	0.0449474
1242	0.0820964
1254	0.108611
1266	0.438911
1278	0.610619
1290	0.125413
1302	0.145335
1314	0.173055
1326	0.0775591
1338	0.0239625
1350	0.0158096
1362	0.0120522
1374	0.0109887
1386	0.0108469
1398	0.00652234
1410	0.00552981
1422	0.00964172
1434	0.024317
1446	0.085783
1458	0.0454437
1470	0.0112014
1482	0.00978351
1494	0.00786934
1506	0.00411191
1518	0.00730219
1530	0.00843651
1542	0.0142499
1554	0.0227573
1566	0.0188581
1578	0.0366527
1590	0.0482086
1602	0.0750069
1614	0.0336751
1626	0.0203469
1638	0.0194961
1650	0.0289961
1662	0.0644436
1674	0.336326
1686	0.475705
1698	0.124066
1710	0.0550854
1722	0.0278617
1734	0.0172984
1746	0.0137536
1758	0.00872009
1770	0.0116268
1782	0.0108469
1794	0.00815293
1806	0.0179364
1818	0.0159514
1830	0.00545891
1842	0.0056716
1854	0.00517534
1866	0.00496265
1878	0.0085783
1890	0.0110596
1902	0.0133992
1914	0.0112014
1926	0.00730219
1938	0.00588429
1950	0.0127611
1962	0.0147462
1974	0.0103507
1986	0.00496265
1998	0.00354475
2010	0.00255222
2022	0.00241043
2034	0.00205595
2046	0.00233954
2058	0.00233954
2070	0.00226864
2082	0.00269401
2094	0.00191417
2106	0.00120522
2118	0.0014888
2130	0.00120522
2142	0.00127611
2154	0.00163059
2166	0.0014888
2178	0.00191417
2190	0.00184327
2202	0.00205595
2214	0.00241043
2226	0.00205595
2238	0.00177238
2250	0.00241043
2262	0.00233954
2274	0.00212685
2286	0.0028358
2298	0.00241043
2310	0.00418281
2322	0.00517534
2334	0.00276491
2346	0.0042537
2358	0.00184327
2370	0.00269401
2382	0.00304849
2394	0.00233954
2406	0.00326117
2418	0.00474997
2430	0.0029067
2442	0.00155969
2454	0.00170148
2466	0.00177238
2478	0.00106343
2490	0.00127611
2502	0.00134701
2514	0.00177238
2526	0.00198506
2538	0.0014888
2550	0.00219775
2562	0.0029067
2574	0.00241043
2586	0.0028358
2598	0.00361565
2610	0.00255222
2622	0.00269401
2634	0.00297759
2646	0.00262312
2658	0.0014888
2670	0.00163059
2682	0.00177238
2694	0.00113432
2706	0.00163059
2718	0.00191417
2730	0.00248133
2742	0.00382833
2754	0.00467907
2766	0.00304849
2778	0.00155969
2790	0.00155969
2802	0.00155969
2814	0.00191417
2826	0.00191417
2838	0.00269401
2850	0.00340296
2862	0.00489176
2874	0.00581339
2886	0.00411191
2898	0.00439549
2910	0.00361565
2922	0.00347386
2934	0.00397012
2946	0.00311938
2958	0.00297759
2970	0.0042537
2982	0.00467907
2994	0.00560071
3006	0.00949993
3018	0.0200633
3030	0.049981
3042	0.0683428
3054	0.0526041
3066	0.128745
3078	0.156253
3090	0.0993948
3102	0.0558653
3114	0.0211267
3126	0.00758577
3138	0.00645145
3150	0.00630966
3162	0.00680592
3174	0.00467907
3186	0.00319028
3198	0.00276491
3210	0.00219775
3222	0.00163059
3234	0.00233954
3246	0.0028358
3258	0.00241043
3270	0.00397012
3282	0.00276491
3294	0.00269401
3306	0.00311938
3318	0.00311938
3330	0.00531713
3342	0.00864919
3354	0.00666413
3366	0.00439549
3378	0.0028358
3390	0.00389923
3402	0.00354475
3414	0.00311938
3426	0.00198506
3438	0.00241043
3450	0.00319028
3462	0.00205595
3474	0.00233954
3486	0.00219775
3498	0.00134701
3510	0.00233954
3522	0.00155969
3534	0.00241043
3546	0.00297759
3558	0.00361565
3570	0.00205595
3582	0.00198506
3594	0.00354475
3606	0.00134701
3618	0.00134701
3630	0.00361565
3642	0.00389923
3654	0.00737308
3666	0.00163059
3678	0.00737308
3690	0.0057425
3702	0.0057425
3714	0.00595518
3726	0.0043246
3738	0.00609697
3750	0.00276491
3762	0.00375744
3774	0.00382833
3786	0.00482086
3798	0.00630966
3810	0.00219775
3822	0.00382833
3834	0.00510444
3846	0.00552981
3858	0.00595518
3870	0.0057425
3882	0.00375744
3894	0.00517534
3906	0.00531713
3918	0.00517534
3930	0.00517534
3942	0.00609697
3954	0.00630966
3966	0.00751487
