Infrared Spectrum: Methyl Salicylate
Formula: C 8 H 8 O 3
CAS: 119-36-8
Origin: Sadtler Research Labs Under US-EPA Contract
1/CM	ABSORBANCE
450	0.0593794
462	0.0174567
474	0.0096541
486	0.0261851
498	0.0387487
510	0.046948
522	0.0954831
534	0.0903254
546	0.0284333
558	0.0382197
570	0.0312105
582	0.0140183
594	0.0132248
606	0.0239369
618	0.0316073
630	0.0268463
642	0.0194405
654	0.0337232
666	0.107914
678	0.0911189
690	0.159094
702	0.299145
714	0.233021
726	0.0874159
738	0.0768361
750	0.272166
762	0.255371
774	0.0531637
786	0.0198372
798	0.0280366
810	0.0232756
822	0.0119023
834	0.0242014
846	0.111353
858	0.0949541
870	0.0308138
882	0.00912511
894	0.00277721
906	0.00568666
918	0.00370294
930	0.00145473
942	0.00383519
954	0.0194405
966	0.0374262
978	0.0322685
990	0.00528992
1002	0.0030417
1014	0.0116378
1026	0.06295
1038	0.0745879
1050	0.0214242
1062	0.0228789
1074	0.08001
1086	0.369104
1098	0.314618
1110	0.0829195
1122	0.142563
1134	0.274811
1146	0.222573
1158	0.600935
1170	0.385106
1182	0.270844
1194	0.331678
1206	0.736225
1218	0.946234
1230	0.494872
1242	0.463794
1254	0.733976
1266	0.379949
1278	0.232889
1290	0.302848
1302	1.06658
1314	1.17648
1326	0.6783
1338	0.540101
1350	0.232227
1362	0.0944251
1374	0.0968055
1386	0.138199
1398	0.205513
1410	0.211068
1422	0.140447
1434	0.181709
1446	0.514709
1458	0.244791
1470	0.270844
1482	0.455594
1494	0.391983
1506	0.143489
1518	0.0822583
1530	0.0482705
1542	0.0462868
1554	0.0444353
1566	0.065595
1578	0.166632
1590	0.242278
1602	0.166632
1614	0.299542
1626	0.24532
1638	0.0745879
1650	0.0879449
1662	0.114527
1674	0.213845
1686	0.665604
1698	1.32222
1710	0.760955
1722	0.14415
1734	0.0531637
1746	0.0801423
1758	0.0938961
1770	0.0435096
1782	0.0226144
1794	0.0167955
1806	0.0208952
1818	0.0183825
1830	0.0113733
1842	0.00938961
1854	0.00423194
1866	0.00740589
1878	0.00343845
1890	0.00502542
1902	0.00568666
1914	0.00925736
1926	0.0194405
1938	0.01706
1950	0.0163988
1962	0.00542217
1974	0.00277721
1986	0.00343845
1998	0.00423194
2010	0.0035707
2022	0.00409969
2034	0.00462868
2046	0.00806713
2058	0.0122991
2070	0.00806713
2082	0.00132248
2094	0.00251271
2106	0.00436418
2118	0.00317395
2130	0.00290946
2142	0.00423194
2154	0.00502542
2166	0.0035707
2178	0.0030417
2190	0.00211597
2202	0.000132248
2214	0.000396744
2226	0.000396744
2238	0.000793488
2250	0.00145473
2262	0.00211597
2274	0.00396744
2286	0.00621566
2298	0.0063479
2310	0.0068769
2322	0.00700914
2334	0.00608341
2346	0.00528992
2358	0.00515767
2370	0.00251271
2382	0.0033062
2394	0.00449643
2406	0.00528992
2418	0.00528992
2430	0.00489318
2442	0.00383519
2454	0.0035707
2466	0.00476093
2478	0.00449643
2490	0.00436418
2502	0.0066124
2514	0.0068769
2526	0.00595116
2538	0.00555442
2550	0.00793488
2562	0.00833162
2574	0.00700914
2586	0.00700914
2598	0.00767038
2610	0.00740589
2622	0.00780263
2634	0.00727364
2646	0.00714139
2658	0.00700914
2670	0.0035707
2682	0.00436418
2694	0.00846387
2706	0.00833162
2718	0.00833162
2730	0.00859612
2742	0.00859612
2754	0.00819938
2766	0.00952186
2778	0.0107121
2790	0.00912511
2802	0.0096541
2814	0.00767038
2826	0.00978635
2838	0.0132248
2850	0.0269786
2862	0.0428484
2874	0.0259206
2886	0.0207629
2898	0.0292268
2910	0.0400711
2922	0.0407324
2934	0.0331942
2946	0.0383519
2958	0.146399
2970	0.195198
2982	0.0411291
2994	0.0413936
3006	0.0636113
3018	0.0641403
3030	0.0759104
3042	0.0731331
3054	0.0774973
3066	0.105269
3078	0.110692
3090	0.0835807
3102	0.0683722
3114	0.0404679
3126	0.0271108
3138	0.0234079
3150	0.0226144
3162	0.0240691
3174	0.0294913
3186	0.0406001
3198	0.0568666
3210	0.0834485
3222	0.129339
3234	0.195727
3246	0.263438
3258	0.304699
3270	0.275076
3282	0.211465
3294	0.169277
3306	0.140183
3318	0.118759
3330	0.101434
3342	0.0878127
3354	0.0760426
3366	0.0648015
3378	0.0569989
3390	0.0518412
3402	0.046948
3414	0.0433773
3426	0.0403356
3438	0.0343845
3450	0.0292268
3462	0.0238046
3474	0.031475
3486	0.0510477
3498	0.0429806
3510	0.0276398
3522	0.0203662
3534	0.0169277
3546	0.0146795
3558	0.013357
3570	0.013886
3582	0.0104476
3594	0.0101831
3606	0.00886062
3618	0.00793488
3630	0.00528992
3642	0.00515767
3654	0.00462868
3666	0.00449643
3678	0.00370294
3690	0.000925736
3702	0.00502542
3714	0.00502542
3726	0.00476093
3738	0.00515767
3750	0.00528992
3762	0.00555442
3774	0.00489318
3786	0.0066124
3798	0.00489318
3810	0.00476093
3822	0.00502542
3834	0.00621566
3846	0.00753814
3858	0.00846387
3870	0.00767038
3882	0.00806713
3894	0.0068769
3906	0.00793488
3918	0.00833162
3930	0.00952186
3942	0.00978635
3954	0.00753814
3966	0.00727364
