Infrared Spectrum: Methanone, dicyclohexyl-
Formula: C 13 H 22 O
CAS: 119-60-8
Origin: Sadtler Research Labs Under US-EPA Contract
1/CM	ABSORBANCE
450	0.0161643
462	0.0206786
474	0.0214067
486	0.00116499
498	0.00407747
510	0.0113587
522	0.0072812
534	0.00626183
546	0.00990243
558	0.0126693
570	0.00218436
582	0.00597058
594	0.00873744
606	0.0066987
618	0.00961118
630	0.00946556
642	0.00902869
654	0.0131062
666	0.00655308
678	0.013543
690	0.0120868
702	0.019368
714	0.00553371
726	0.00815494
738	0.0227173
750	0.0307267
762	0.0160186
774	0.00873744
786	0.00961118
798	0.00917431
810	0.00145624
822	0.0110674
834	0.0030581
846	0.00873744
858	0.00961118
870	0.0152905
882	0.0211155
894	0.0257754
906	0.0179118
918	0.011213
930	0.0122324
942	0.00975681
954	0.0116499
966	0.0196592
978	0.0745595
990	0.130479
1002	0.0283967
1014	0.0265036
1026	0.0350954
1038	0.0276686
1050	0.0291248
1062	0.0484928
1074	0.0439784
1086	0.0304354
1098	0.029416
1110	0.0310179
1122	0.0241736
1134	0.0343673
1146	0.0917431
1158	0.0682977
1170	0.0380079
1182	0.0339304
1194	0.019368
1206	0.0151449
1218	0.0149993
1230	0.0225717
1242	0.052279
1254	0.0330566
1266	0.0176205
1278	0.0189311
1290	0.0327654
1302	0.0471822
1314	0.0514053
1326	0.0723751
1338	0.0448522
1350	0.0330566
1362	0.0512596
1374	0.0725208
1386	0.0423766
1398	0.0221348
1410	0.0202417
1422	0.0214067
1434	0.0281054
1446	0.103102
1458	0.149847
1470	0.0516965
1482	0.0167468
1494	0.0116499
1506	0.0066987
1518	0.00655308
1530	0.00407747
1542	0.00553371
1554	0.00597058
1566	0.00334935
1578	0.00830057
1590	0.00291248
1602	0.00713558
1614	0.00873744
1626	0.00698995
1638	0.0139799
1650	0.0155818
1662	0.00655308
1674	0.0163099
1686	0.0259211
1698	0.0847532
1710	0.261978
1722	0.23096
1734	0.0648027
1746	0.0286879
1758	0.011213
1770	0.011213
1782	0.00815494
1794	0.00465997
1806	0.00334935
1818	0.00247561
1830	0.00320373
1842	0.000436872
1854	0.00262123
1866	0.00262123
1878	0.00189311
1890	0.00116499
1902	0.000873744
1914	0.000145624
1926	0.00145624
1938	0.00145624
1950	0.00101937
1962	0.00072812
1974	0.00160186
1986	0.00145624
1998	0.00116499
2010	0.000582496
2022	0.000582496
2034	0.000436872
2046	0.00101937
2058	0.00160186
2070	0.00131062
2082	0.00160186
2094	0.00101937
2106	0.00189311
2118	0.00218436
2130	0.00189311
2142	0.00131062
2154	0.00189311
2166	0.00247561
2178	0.00291248
2190	0.00334935
2202	0.00276686
2214	0.00232998
2226	0.00203874
2238	0.00291248
2250	0.00203874
2262	0.00145624
2274	0.00145624
2286	0.00203874
2298	0.00276686
2310	0.00393185
2322	0.0042231
2334	0.00509684
2346	0.0115043
2358	0.00567934
2370	0.00640746
2382	0.0042231
2394	0.00232998
2406	0.00218436
2418	0.00189311
2430	0.00247561
2442	0.00101937
2454	0.00072812
2466	0.00116499
2478	0.00203874
2490	0.00232998
2502	0.00174749
2514	0.00131062
2526	0.00189311
2538	0.00203874
2550	0.00247561
2562	0.00276686
2574	0.0030581
2586	0.00436872
2598	0.00582496
2610	0.00611621
2622	0.0072812
2634	0.0072812
2646	0.00830057
2658	0.0129605
2670	0.0174749
2682	0.013543
2694	0.0100481
2706	0.00917431
2718	0.00698995
2730	0.00597058
2742	0.00626183
2754	0.00713558
2766	0.00800932
2778	0.0106306
2790	0.0157274
2802	0.0208242
2814	0.0219892
2826	0.0285423
2838	0.0442697
2850	0.130333
2862	0.46323
2874	0.328673
2886	0.15174
2898	0.147371
2910	0.253386
2922	0.473424
2934	1.20766
2946	1.23402
2958	0.316295
2970	0.104558
2982	0.0442697
2994	0.021698
3006	0.0139799
3018	0.0109218
3030	0.0107762
3042	0.00859182
3054	0.00859182
3066	0.00698995
3078	0.00597058
3090	0.0066987
3102	0.00597058
3114	0.00465997
3126	0.00451434
3138	0.0042231
3150	0.00465997
3162	0.00626183
3174	0.00567934
3186	0.00509684
3198	0.0030581
3210	0.00393185
3222	0.00378622
3234	0.00480559
3246	0.00465997
3258	0.00436872
3270	0.00436872
3282	0.00480559
3294	0.00436872
3306	0.00451434
3318	0.00451434
3330	0.00495122
3342	0.00465997
3354	0.00480559
3366	0.00509684
3378	0.00698995
3390	0.00597058
3402	0.00830057
3414	0.00800932
3426	0.00553371
3438	0.00582496
3450	0.00553371
3462	0.00495122
3474	0.00495122
3486	0.00247561
3498	0.00393185
3510	0.00320373
3522	0.00320373
3534	0.00451434
3546	0.00320373
3558	0.00145624
3570	0.0066987
3582	0.00626183
3594	0.00480559
3606	0.00538809
3618	0.00320373
3630	0.00626183
3642	0.0036406
3654	0.00888306
3666	0.00800932
3678	0.00203874
3690	0.00334935
3702	0.00582496
3714	0.00626183
3726	0.00276686
3738	0.00116499
3750	0.013543
3762	0.00465997
3774	0.00495122
3786	0.00480559
3798	0.00742682
3810	0.00655308
3822	0.0066987
3834	0.00655308
3846	0.00931994
3858	0.00320373
3870	0.00698995
3882	0.00597058
3894	0.00436872
3906	0.00495122
3918	0.00902869
3930	0.00582496
3942	0.00771807
3954	0.0072812
3966	0.0078637
