Infrared Spectrum: Phenol, 2-cyclohexyl-
Formula: C 12 H 16 O
CAS: 119-42-6
Origin: Sadtler Research Labs Under US-EPA Contract
1/CM	ABSORBANCE
450	0
462	0.0211037
474	0.0424368
486	0.0385372
498	0.0353258
510	0.032229
522	0.0244298
534	0.0198421
546	0.0277559
558	0.0245445
570	0.0199568
582	0.0135339
594	0.0166306
606	0.012387
618	0.0186951
630	0.0188098
642	0.0121576
654	0.0113547
666	0.0095196
678	0.00791389
690	0.0103225
702	0.0116988
714	0.0214478
726	0.0574617
738	0.180299
750	0.285473
762	0.0774184
774	0.0223653
786	0.0174335
798	0.0391107
810	0.0424368
822	0.0270678
834	0.0568882
846	0.036358
858	0.0189245
870	0.0223653
882	0.0252327
894	0.0340641
906	0.0175482
918	0.0114694
930	0.013878
942	0.0126163
954	0.0114694
966	0.0126163
978	0.0151396
990	0.0295911
1002	0.0417486
1014	0.0253474
1026	0.0344082
1038	0.0516123
1050	0.047598
1062	0.0305086
1074	0.0470245
1086	0.0795976
1098	0.064458
1110	0.0356698
1122	0.0445013
1134	0.0784507
1146	0.0956548
1158	0.12559
1170	0.195668
1182	0.204729
1194	0.227782
1206	0.176055
1218	0.11435
1230	0.122723
1242	0.192686
1254	0.150134
1266	0.076845
1278	0.0957695
1290	0.0766156
1302	0.0570029
1314	0.110565
1326	0.144285
1338	0.0566588
1350	0.0379637
1362	0.0250033
1374	0.0175482
1386	0.0166306
1398	0.018007
1410	0.0186951
1422	0.0242004
1434	0.0451894
1446	0.139239
1458	0.21161
1470	0.101963
1482	0.120773
1494	0.174794
1506	0.107698
1518	0.0498919
1530	0.0203008
1542	0.0151396
1554	0.01686
1566	0.0268384
1578	0.0578058
1590	0.0740923
1602	0.0597556
1614	0.0442719
1626	0.0181217
1638	0.00929021
1650	0.012387
1662	0.0122723
1674	0.0175482
1686	0.0126163
1698	0.0114694
1710	0.0114694
1722	0.00940491
1734	0.0103225
1746	0.0110106
1758	0.0126163
1770	0.0151396
1782	0.0134192
1794	0.0126163
1806	0.0111253
1818	0.0106665
1830	0.00894613
1842	0.00825797
1854	0.00997838
1866	0.0096343
1878	0.012731
1890	0.0169747
1902	0.0126163
1914	0.0113547
1926	0.0151396
1938	0.0100931
1950	0.0076845
1962	0.00791389
1974	0.00779919
1986	0.00779919
1998	0.00745511
2010	0.00814327
2022	0.00802858
2034	0.00814327
2046	0.00894613
2058	0.00848736
2070	0.00825797
2082	0.00871674
2094	0.00802858
2106	0.00791389
2118	0.00814327
2130	0.00791389
2142	0.00779919
2154	0.00779919
2166	0.00745511
2178	0.00779919
2190	0.00791389
2202	0.00802858
2214	0.00825797
2226	0.00860205
2238	0.00871674
2250	0.00814327
2262	0.00791389
2274	0.00745511
2286	0.0076845
2298	0.00837266
2310	0.00906083
2322	0.00929021
2334	0.00860205
2346	0.00779919
2358	0.00940491
2370	0.00837266
2382	0.00974899
2394	0.00997838
2406	0.00986368
2418	0.0102078
2430	0.00997838
2442	0.00974899
2454	0.00940491
2466	0.00974899
2478	0.0116988
2490	0.0116988
2502	0.00974899
2514	0.00974899
2526	0.00986368
2538	0.00894613
2550	0.00837266
2562	0.00906083
2574	0.00997838
2586	0.0108959
2598	0.0118135
2610	0.0118135
2622	0.0125016
2634	0.0129604
2646	0.0142221
2658	0.0178923
2670	0.0190392
2682	0.0166306
2694	0.0144514
2706	0.0128457
2718	0.0118135
2730	0.0110106
2742	0.0108959
2754	0.0107812
2766	0.012387
2778	0.0157131
2790	0.0189245
2802	0.0221359
2814	0.0248886
2826	0.0317702
2838	0.0462217
2850	0.126737
2862	0.378605
2874	0.235467
2886	0.0979487
2898	0.103225
2910	0.212069
2922	0.452927
2934	1.05461
2946	0.798844
2958	0.175597
2970	0.057347
2982	0.0294764
2994	0.0231682
3006	0.029247
3018	0.0496625
3030	0.0778772
3042	0.0861352
3054	0.0715691
3066	0.0816621
3078	0.103798
3090	0.057347
3102	0.0328025
3114	0.0213331
3126	0.0139927
3138	0.0116988
3150	0.0116988
3162	0.0125016
3174	0.0110106
3186	0.00883144
3198	0.00837266
3210	0.00837266
3222	0.00779919
3234	0.00802858
3246	0.00814327
3258	0.00871674
3270	0.00825797
3282	0.00860205
3294	0.00802858
3306	0.00825797
3318	0.00791389
3330	0.00848736
3342	0.00940491
3354	0.00997838
3366	0.0108959
3378	0.0102078
3390	0.0103225
3402	0.0102078
3414	0.0108959
3426	0.0105518
3438	0.0108959
3450	0.00986368
3462	0.00894613
3474	0.0096343
3486	0.00917552
3498	0.00837266
3510	0.00871674
3522	0.00825797
3534	0.00848736
3546	0.0104372
3558	0.0100931
3570	0.00906083
3582	0.01124
3594	0.012387
3606	0.0125016
3618	0.0185804
3630	0.0388813
3642	0.17617
3654	0.214363
3666	0.0623935
3678	0.0170894
3690	0.012387
3702	0.0129604
3714	0.00929021
3726	0.0122723
3738	0.0100931
3750	0.00974899
3762	0.01124
3774	0.0104372
3786	0.00883144
3798	0.0104372
3810	0.00974899
3822	0.0131898
3834	0.0115841
3846	0.0144514
3858	0.0118135
3870	0.0143367
3882	0.0134192
3894	0.0120429
3906	0.01124
3918	0.0137633
3930	0.0139927
3942	0.0135339
3954	0.0116988
3966	0.0118135
