Infrared Spectrum: Phenol, 4-methyl-2-nitro-
Formula: C 7 H 7 N O 3
CAS: 119-33-5
Origin: Sadtler Research Labs Under US-EPA Contract
1/CM	ABSORBANCE
450	0.00118472
462	0.0334091
474	0.0322244
486	0.0177708
498	0.0207326
510	0.021088
522	0.0433608
534	0.127239
546	0.14418
558	0.0906311
570	0.0518907
582	0.0370817
594	0.0433608
606	0.0496398
618	0.0541417
630	0.067766
642	0.0970286
654	0.142048
666	0.189437
678	0.238366
690	0.155909
702	0.0626717
714	0.0206141
726	0.0118472
738	0.0176523
750	0.0462041
762	0.125343
774	0.185172
786	0.091105
798	0.0229836
810	0.113852
822	0.341199
834	0.199388
846	0.0458487
858	0.01706
870	0.0202587
882	0.0309212
894	0.0265377
906	0.050943
918	0.088854
930	0.0453748
942	0.0123211
954	0.0119657
966	0.010544
978	0.0114918
990	0.0137428
1002	0.0180077
1014	0.0176523
1026	0.0140982
1038	0.0193109
1050	0.0265377
1062	0.0494028
1074	0.102478
1086	0.0901572
1098	0.0440716
1110	0.0522462
1122	0.0617239
1134	0.106151
1146	0.115747
1158	0.112075
1170	0.214908
1182	0.480285
1194	0.474125
1206	0.230428
1218	0.227822
1230	0.311581
1242	0.477205
1254	0.735474
1266	0.576959
1278	0.286228
1290	0.27758
1302	0.40008
1314	0.734526
1326	1.1044
1338	0.873376
1350	0.506112
1362	0.27758
1374	0.200099
1386	0.174983
1398	0.160767
1410	0.235167
1422	0.404108
1434	0.409913
1446	0.2264
1458	0.151289
1470	0.148801
1482	0.337527
1494	0.529451
1506	0.327575
1518	0.232679
1530	0.44735
1542	0.964599
1554	1.06281
1566	0.552316
1578	0.323666
1590	0.32722
1602	0.248791
1614	0.206378
1626	0.329945
1638	0.317979
1650	0.152947
1662	0.0593545
1674	0.0251161
1686	0.0249976
1698	0.0267747
1710	0.0180077
1722	0.016823
1734	0.0197848
1746	0.0146905
1758	0.0222727
1770	0.0280779
1782	0.01706
1794	0.00983318
1806	0.00414652
1818	0.00248791
1830	0.00758221
1842	0.0106625
1854	0.00663443
1866	0.00473888
1878	0.00225097
1890	0.00331722
1902	0.00616054
1914	0.012795
1926	0.00864846
1938	0.00177708
1950	0.00059236
1962	0.00059236
1974	0.000710832
1986	0.00059236
1998	0.00189555
2010	0.00177708
2022	0.00142166
2034	0.000710832
2046	0.000947776
2058	0.000355416
2070	0.00165861
2082	0.00272486
2094	0.00284333
2106	0.00142166
2118	0.000355416
2130	0.000236944
2142	0.00165861
2154	0.00248791
2166	0.0021325
2178	0.00118472
2190	0.000710832
2202	0.00059236
2214	0.000710832
2226	0.000118472
2238	0.000710832
2250	0.00165861
2262	0.00272486
2274	0.00308027
2286	0.00319874
2298	0.00462041
2310	0.00568666
2322	0.00521277
2334	0.00414652
2346	0.0050943
2358	0.00639749
2370	0.00651596
2382	0.00722679
2394	0.00710832
2406	0.00864846
2418	0.00817457
2430	0.00568666
2442	0.0050943
2454	0.00497582
2466	0.00450194
2478	0.00438346
2490	0.00533124
2502	0.0067529
2514	0.00687138
2526	0.0059236
2538	0.00710832
2550	0.00995165
2562	0.0124396
2574	0.0114918
2586	0.00852998
2598	0.00781915
2610	0.00924082
2622	0.0104255
2634	0.0108994
2646	0.00864846
2658	0.00770068
2670	0.00734526
2682	0.00722679
2694	0.00651596
2706	0.00746374
2718	0.00841151
2730	0.0100701
2742	0.012795
2754	0.0146905
2766	0.0110179
2778	0.0088854
2790	0.0106625
2802	0.0132689
2814	0.0152829
2826	0.0176523
2838	0.0214434
2850	0.0261823
2862	0.0387403
2874	0.0645672
2886	0.0742819
2898	0.0643303
2910	0.0656335
2922	0.0873139
2934	0.137664
2946	0.121078
2958	0.0620793
2970	0.0508245
2982	0.0462041
2994	0.044427
3006	0.0447824
3018	0.0571035
3030	0.0703724
3042	0.0850629
3054	0.0668182
3066	0.0456117
3078	0.0522462
3090	0.0353047
3102	0.014809
3114	0.0111364
3126	0.00935929
3138	0.0097147
3150	0.010781
3162	0.0129134
3174	0.016823
3186	0.0214434
3198	0.0284333
3210	0.0394512
3222	0.0559188
3234	0.0784285
3246	0.111364
3258	0.151052
3270	0.177234
3282	0.182802
3294	0.174865
3306	0.160885
3318	0.14264
3330	0.127357
3342	0.116576
3354	0.110179
3366	0.101767
3378	0.0915789
3390	0.0807979
3402	0.0706093
3414	0.0603022
3426	0.0511799
3438	0.0445455
3450	0.0405174
3462	0.0368448
3474	0.0344754
3486	0.0319874
3498	0.0298549
3510	0.0266562
3522	0.0238129
3534	0.0209695
3546	0.0196664
3558	0.018837
3570	0.0183632
3582	0.0165861
3594	0.0152829
3606	0.0136243
3618	0.0116103
3630	0.00983318
3642	0.00746374
3654	0.00556818
3666	0.00236944
3678	0.00331722
3690	0.00106625
3702	0.000355416
3714	0.000473888
3726	0.000829304
3738	0.00118472
3750	0
3762	0.000118472
3774	0.000118472
3786	0.000118472
3798	0.000118472
3810	0.000118472
3822	0.000118472
3834	0.000118472
3846	0.000236944
3858	0.000118472
3870	0.000118472
3882	0.000118472
3894	0.000118472
3906	0.000236944
3918	0.000118472
3930	0.000118472
3942	0.000118472
3954	0.000710832
3966	0.000118472
