Infrared Spectrum: Naphthalene, 1,2,3,4-tetrahydro-
Formula: C 10 H 12
CAS: 119-64-2
Origin: Sadtler Research Labs Under US-EPA Contract
1/CM	ABSORBANCE
450	0.000260578
462	0.0105534
474	0.0115957
486	0.0046904
498	0.00325723
510	0.00416925
522	0.00338751
534	0.00312694
546	0.00508127
558	0.00377838
570	0.00495098
582	0.00885965
594	0.00729618
606	0.00677503
618	0.00273607
630	0.00247549
642	0.00338751
654	0.00195434
666	0
678	0.00482069
690	0.00625387
702	0.00977168
714	0.0276213
726	0.176151
738	0.460962
750	0.348393
762	0.0906811
774	0.0165467
786	0.0152438
798	0.0244943
810	0.0328328
822	0.0222794
834	0.0112049
846	0.0113351
858	0.0178496
870	0.0171981
882	0.0102928
894	0.0113351
906	0.0121169
918	0.00885965
930	0.0142015
942	0.0259275
954	0.0198039
966	0.0106837
978	0.0131592
990	0.016677
1002	0.0109443
1014	0.00768705
1026	0.0142015
1038	0.0272304
1050	0.012638
1062	0.0130289
1074	0.0149832
1086	0.00742647
1098	0.0106837
1110	0.0224097
1122	0.0217583
1134	0.0140712
1146	0.0130289
1158	0.00898994
1170	0.00625387
1182	0.00690532
1194	0.00872936
1206	0.0104231
1218	0.012638
1230	0.016677
1242	0.0291847
1254	0.0360901
1266	0.0171981
1278	0.0317905
1290	0.0495098
1302	0.0263184
1314	0.00885965
1326	0.0106837
1338	0.0177193
1350	0.0386958
1362	0.0373929
1374	0.0106837
1386	0.00872936
1398	0.0112049
1410	0.00938081
1422	0.0177193
1434	0.0530276
1446	0.135761
1458	0.18032
1470	0.108661
1482	0.0738739
1494	0.189049
1506	0.118824
1518	0.00938081
1530	0.00442983
1542	0.0095111
1554	0.00703561
1566	0.0104231
1578	0.0316602
1590	0.0377838
1602	0.028403
1614	0.0192828
1626	0.00664474
1638	0.00690532
1650	0.00612358
1662	0.00429954
1674	0.0106837
1686	0.0153741
1698	0.011726
1710	0.00938081
1722	0.00820821
1734	0.00742647
1746	0.00573272
1758	0.00690532
1770	0.00690532
1782	0.00820821
1794	0.0134198
1806	0.0161558
1818	0.0128986
1830	0.0136803
1842	0.010814
1854	0.00534185
1866	0.00690532
1878	0.00820821
1890	0.0083385
1902	0.0109443
1914	0.0164164
1926	0.0135501
1938	0.0170679
1950	0.0112049
1962	0.00195434
1974	0.00156347
1986	0.00221491
1998	0.00221491
2010	0.00182405
2022	0.00195434
2034	0.00130289
2046	0.00182405
2058	0.00195434
2070	0.00182405
2082	0.00156347
2094	0.00104231
2106	0.00104231
2118	0.000912023
2130	0.000912023
2142	0.00143318
2154	0.00208462
2166	0.00208462
2178	0.00169376
2190	0.00195434
2202	0.0023452
2214	0.00247549
2226	0.00299665
2238	0.00286636
2250	0.00260578
2262	0.00312694
2274	0.00299665
2286	0.0023452
2298	0.0023452
2310	0.00442983
2322	0.00664474
2334	0.00560243
2346	0.00403896
2358	0.00299665
2370	0.00338751
2382	0.00299665
2394	0.00338751
2406	0.00338751
2418	0.00299665
2430	0.00299665
2442	0.0035178
2454	0.0023452
2466	0.000912023
2478	0.00130289
2490	0.00156347
2502	0.00169376
2514	0.00169376
2526	0.0011726
2538	0.000651445
2550	0.000130289
2562	0.0011726
2574	0.00325723
2586	0.00508127
2598	0.00495098
2610	0.00390867
2622	0.0035178
2634	0.00429954
2646	0.00560243
2658	0.0122472
2670	0.0177193
2682	0.0138106
2694	0.0095111
2706	0.00651445
2718	0.00482069
2730	0.00429954
2742	0.0046904
2754	0.00638416
2766	0.0095111
2778	0.0145924
2790	0.0196736
2802	0.0254064
2814	0.0289242
2826	0.0347872
2838	0.0955018
2850	0.255106
2862	0.372236
2874	0.381877
2886	0.263575
2898	0.262793
2910	0.293411
2922	0.608059
2934	1.05964
2946	1.25742
2958	0.73939
2970	0.120126
2982	0.0510733
2994	0.0445588
3006	0.0906811
3018	0.224227
3030	0.258103
3042	0.150223
3054	0.164946
3066	0.211589
3078	0.227485
3090	0.122211
3102	0.0381747
3114	0.0231914
3126	0.0106837
3138	0.00586301
3150	0.00599329
3162	0.00781734
3174	0.00586301
3186	0.00338751
3198	0.00273607
3210	0.0023452
3222	0.00299665
3234	0.00247549
3246	0.00286636
3258	0.00195434
3270	0.00208462
3282	0.00182405
3294	0.000781734
3306	0.00130289
3318	0.00247549
3330	0.00273607
3342	0.00260578
3354	0.0023452
3366	0.00130289
3378	0.00195434
3390	0.00169376
3402	0.00156347
3414	0.00182405
3426	0.00104231
3438	0.000521156
3450	0.00143318
3462	0.00156347
3474	0.00156347
3486	0.00143318
3498	0.00130289
3510	0.0023452
3522	0.00247549
3534	0.00221491
3546	0.00169376
3558	0.00156347
3570	0.00156347
3582	0.000651445
3594	0.00130289
3606	0.00156347
3618	0.0011726
3630	0.000651445
3642	0.0023452
3654	0.00338751
3666	0.00182405
3678	0.00247549
3690	0.0023452
3702	0.00143318
3714	0.00182405
3726	0.00208462
3738	0.00364809
3750	0.00325723
3762	0.0023452
3774	0.00156347
3786	0.00247549
3798	0.00286636
3810	0.00286636
3822	0.00299665
3834	0.00221491
3846	0.00208462
3858	0.00286636
3870	0.00429954
3882	0.0023452
3894	0.00247549
3906	0
3918	0.00130289
3930	0.00208462
3942	0.0023452
3954	0.00130289
3966	0.00286636
