Infrared Spectrum: Propanedioic acid, dibutyl ester
Formula: C 11 H 20 O 4
CAS: 1190-39-2
Origin: Sadtler Research Labs Under US-EPA Contract
1/CM	ABSORBANCE
450	0.0219351
462	0.0157378
474	0.00905127
486	0.00668653
498	0.0075835
510	0.00187549
522	0.0081543
534	0.00269092
546	0.0140254
558	0.0124761
570	0.0168794
582	0.025686
594	0.040853
606	0.0258491
618	0.0256045
630	0.0198149
642	0.0207935
654	0.0191626
666	0.0202227
678	0.0348189
690	0.034085
702	0.0194072
714	0.0238921
726	0.0245444
738	0.0260938
750	0.0276431
762	0.0287031
774	0.0307417
786	0.0326172
798	0.0362866
810	0.0399561
822	0.0375098
834	0.0437886
846	0.0427285
858	0.0342481
870	0.0344927
882	0.0366128
894	0.04069
906	0.0424024
918	0.0416685
930	0.0467241
942	0.0629512
954	0.0763242
966	0.0904312
978	0.10201
990	0.0922251
1002	0.11783
1014	0.176296
1026	0.207445
1038	0.131121
1050	0.0940191
1062	0.148979
1074	0.13055
1086	0.0886372
1098	0.0983409
1110	0.13161
1122	0.205162
1134	0.334489
1146	0.475314
1158	0.424431
1170	0.364986
1182	0.337996
1194	0.31182
1206	0.315571
1218	0.316387
1230	0.328944
1242	0.353081
1254	0.362459
1266	0.357648
1278	0.31867
1290	0.272517
1302	0.263792
1314	0.284177
1326	0.316061
1338	0.227505
1350	0.121744
1362	0.0885557
1374	0.0798306
1386	0.0985039
1398	0.0906758
1410	0.076895
1422	0.0790967
1434	0.0585479
1446	0.0622989
1458	0.0877403
1470	0.0994009
1482	0.0658052
1494	0.035145
1506	0.0268276
1518	0.0220166
1530	0.0201411
1542	0.020875
1554	0.017124
1566	0.0173687
1578	0.0165532
1590	0.0154932
1602	0.0162271
1614	0.0154116
1626	0.0164717
1638	0.0167163
1650	0.017124
1662	0.0185918
1674	0.0198965
1686	0.0263384
1698	0.034085
1710	0.0543892
1722	0.0919805
1734	0.17018
1746	0.444165
1758	0.808907
1770	0.715866
1782	0.342236
1794	0.134383
1806	0.071187
1818	0.0428101
1830	0.0297632
1842	0.0220982
1854	0.0179395
1866	0.0154116
1878	0.0144331
1890	0.0130469
1902	0.0118237
1914	0.0116606
1926	0.0111714
1938	0.0114976
1950	0.0106821
1962	0.010519
1974	0.0108452
1986	0.00970362
1998	0.00978516
2010	0.0108452
2022	0.00962207
2034	0.0100298
2046	0.00921436
2058	0.0092959
2070	0.00880664
2082	0.00880664
2094	0.00880664
2106	0.00848047
2118	0.00807276
2130	0.0075835
2142	0.00750196
2154	0.0070127
2166	0.00676807
2178	0.0064419
2190	0.00627881
2202	0.00627881
2214	0.00595264
2226	0.00562647
2238	0.00505567
2250	0.00546338
2262	0.00578955
2274	0.0053003
2286	0.00570801
2298	0.00921436
2310	0.011416
2322	0.0110083
2334	0.00880664
2346	0.0113345
2358	0.0132915
2370	0.00888819
2382	0.0087251
2394	0.00424024
2406	0.00415869
2418	0.00366943
2430	0.00399561
2442	0.00358789
2454	0.00342481
2466	0.00277246
2478	0.00277246
2490	0.00277246
2502	0.00260938
2514	0.00203857
2526	0.00203857
2538	0.00244629
2550	0.00154932
2562	0.00203857
2574	0.00212012
2586	0.00260938
2598	0.00309863
2610	0.00293555
2622	0.00187549
2634	0.00252783
2646	0.00252783
2658	0.00350635
2670	0.00366943
2682	0.00464795
2694	0.00456641
2706	0.00521875
2718	0.0053003
2730	0.0064419
2742	0.0070127
2754	0.00839893
2766	0.00856202
2778	0.0087251
2790	0.00921436
2802	0.0104375
2814	0.0125576
2826	0.0167163
2838	0.0247891
2850	0.0419946
2862	0.0684146
2874	0.11416
2886	0.166592
2898	0.136829
2910	0.144983
2922	0.187957
2934	0.234355
2946	0.313696
2958	0.326335
2970	0.482979
2982	0.308314
2994	0.132426
3006	0.0636035
3018	0.0356343
3030	0.0243814
3042	0.0188364
3054	0.0136992
3066	0.00937744
3078	0.0081543
3090	0.00742041
3102	0.00652344
3114	0.00611572
3126	0.00489258
3138	0.00570801
3150	0.00432178
3162	0.00440332
3174	0.00366943
3186	0.00391406
3198	0.00301709
3210	0.00383252
3222	0.00285401
3234	0.00277246
3246	0.0017124
3258	0.00146777
3270	0.00212012
3282	0.000652344
3294	0.000163086
3306	0.00146777
3318	0.00203857
3330	0.000978516
3342	0.00154932
3354	0.000978516
3366	0.00203857
3378	0.000244629
3390	0.00179395
3402	0.000896973
3414	0.0017124
3426	0.0011416
3438	0.000570801
3450	0.0017124
3462	0.000326172
3474	0.0022832
3486	0.00375098
3498	0.00848047
3510	0.00774659
3522	0.00358789
3534	0.00269092
3546	0.000163086
3558	0.000163086
3570	0.00146777
3582	0.00154932
3594	0.00244629
3606	0.0011416
3618	0.000652344
3630	0.00244629
3642	0.00236475
3654	0.00179395
3666	0.00277246
3678	0.00440332
3690	0.00212012
3702	0.00195703
3714	0.00154932
3726	0.00179395
3738	0.00318018
3750	0.00252783
3762	0.00383252
3774	0.00236475
3786	0.00269092
3798	0.0022832
3810	0.00309863
3822	0.00424024
3834	0.00407715
3846	0.00203857
3858	0.00391406
3870	0.00448487
3882	0.00285401
3894	0.00334326
3906	0.00342481
3918	0.00277246
3930	0.00138623
3942	0.00277246
3954	0
3966	8.1543e-05
