Infrared Spectrum: 1,10-Decanedithiol
Formula: C 10 H 22 S 2
CAS: 1191-67-9
Origin: Sadtler Research Labs Under US-EPA Contract
1/CM	ABSORBANCE
450	0
462	0.0511551
474	0.0410163
486	0.0566854
498	0.0494653
510	0.0453176
522	0.0493117
534	0.0470074
546	0.0463929
558	0.0490045
570	0.0434742
582	0.0474683
594	0.0476219
606	0.0476219
618	0.0433206
630	0.0571463
642	0.0500798
654	0.0539203
666	0.0490045
678	0.0502334
690	0.054842
702	0.0685141
714	0.079421
726	0.082647
738	0.0784993
750	0.0691285
762	0.0642127
774	0.0599114
786	0.0620621
798	0.0589897
810	0.0551492
822	0.0566854
834	0.0574535
846	0.0562246
858	0.0553028
870	0.0562246
882	0.0537666
894	0.0543811
906	0.054842
918	0.0543811
930	0.0554565
942	0.0551492
954	0.0543811
966	0.0560709
978	0.0553028
990	0.0545347
1002	0.0551492
1014	0.054842
1026	0.0560709
1038	0.0589897
1050	0.0597578
1062	0.0579144
1074	0.0579144
1086	0.0571463
1098	0.0562246
1110	0.0586825
1122	0.0572999
1134	0.0589897
1146	0.0560709
1158	0.0529986
1170	0.0528449
1182	0.053613
1194	0.0540739
1206	0.0577607
1218	0.0639055
1230	0.0748125
1242	0.0889454
1254	0.0957046
1266	0.105075
1278	0.122281
1290	0.126428
1302	0.117058
1314	0.0996987
1326	0.0783457
1338	0.0768095
1350	0.0957046
1362	0.0874092
1374	0.0726618
1386	0.0566854
1398	0.0520768
1410	0.0543811
1422	0.0655953
1434	0.101696
1446	0.141176
1458	0.163758
1470	0.124278
1482	0.0678996
1494	0.0528449
1506	0.0477755
1518	0.0448567
1530	0.0420916
1542	0.0433206
1554	0.0423988
1566	0.0402482
1578	0.0427061
1590	0.0410163
1602	0.0399409
1614	0.0416307
1626	0.0396337
1638	0.0413235
1650	0.0384048
1662	0.0391728
1674	0.0394801
1686	0.0417844
1698	0.0422452
1710	0.0385584
1722	0.0396337
1734	0.0404018
1746	0.0388656
1758	0.0390192
1770	0.0391728
1782	0.0384048
1794	0.038712
1806	0.0384048
1818	0.0380975
1830	0.0384048
1842	0.0380975
1854	0.0376367
1866	0.0380975
1878	0.0376367
1890	0.037483
1902	0.0376367
1914	0.0382511
1926	0.0376367
1938	0.0384048
1950	0.0380975
1962	0.038712
1974	0.0390192
1986	0.0384048
1998	0.038712
2010	0.0393265
2022	0.0390192
2034	0.0396337
2046	0.0399409
2058	0.0396337
2070	0.0396337
2082	0.0390192
2094	0.038712
2106	0.0384048
2118	0.0382511
2130	0.0377903
2142	0.0380975
2154	0.038712
2166	0.0385584
2178	0.0390192
2190	0.038712
2202	0.038712
2214	0.0385584
2226	0.0384048
2238	0.0384048
2250	0.0384048
2262	0.0384048
2274	0.0382511
2286	0.0385584
2298	0.0384048
2310	0.0384048
2322	0.0384048
2334	0.0373294
2346	0.0373294
2358	0.0391728
2370	0.0373294
2382	0.0373294
2394	0.038712
2406	0.038712
2418	0.0393265
2430	0.0388656
2442	0.0390192
2454	0.0396337
2466	0.0397873
2478	0.0394801
2490	0.0405554
2502	0.0410163
2514	0.0410163
2526	0.0422452
2538	0.0428597
2550	0.0442423
2562	0.0447031
2574	0.047161
2586	0.0565318
2598	0.0592969
2610	0.0510015
2622	0.0486972
2634	0.0482364
2646	0.0485436
2658	0.0500798
2670	0.0519232
2682	0.0533058
2694	0.0534594
2706	0.0522305
2718	0.0511551
2730	0.0510015
2742	0.0511551
2754	0.0526913
2766	0.0543811
2778	0.0565318
2790	0.0617548
2802	0.0686677
2814	0.0775776
2826	0.095551
2838	0.127657
2850	0.252703
2862	0.556254
2874	0.436124
2886	0.256544
2898	0.275592
2910	0.442269
2922	0.82094
2934	1.53619
2946	1.07303
2958	0.497572
2970	0.362694
2982	0.167598
2994	0.104
3006	0.0795746
3018	0.0666706
3030	0.0602186
3042	0.0553028
3054	0.0510015
3066	0.04839
3078	0.0467002
3090	0.0465466
3102	0.0442423
3114	0.0447031
3126	0.0428597
3138	0.0437814
3150	0.0445495
3162	0.0427061
3174	0.0425525
3186	0.0423988
3198	0.0414771
3210	0.0422452
3222	0.0411699
3234	0.0404018
3246	0.0404018
3258	0.0404018
3270	0.0396337
3282	0.0404018
3294	0.0404018
3306	0.0394801
3318	0.0402482
3330	0.0404018
3342	0.0405554
3354	0.0404018
3366	0.0402482
3378	0.0402482
3390	0.0404018
3402	0.0396337
3414	0.0408627
3426	0.0405554
3438	0.0390192
3450	0.0397873
3462	0.0413235
3474	0.0393265
3486	0.0397873
3498	0.0402482
3510	0.0394801
3522	0.0400946
3534	0.0396337
3546	0.0382511
3558	0.038712
3570	0.0399409
3582	0.0402482
3594	0.0400946
3606	0.0400946
3618	0.0414771
3630	0.0414771
3642	0.0404018
3654	0.0416307
3666	0.0404018
3678	0.0437814
3690	0.041938
3702	0.0405554
3714	0.0391728
3726	0.0408627
3738	0.0411699
3750	0.0404018
3762	0.040709
3774	0.0416307
3786	0.041938
3798	0.0405554
3810	0.0425525
3822	0.0445495
3834	0.0427061
3846	0.0420916
3858	0.0414771
3870	0.0434742
3882	0.0425525
3894	0.0465466
3906	0.0422452
3918	0.0420916
3930	0.0396337
3942	0.0433206
3954	0.0430133
3966	0.0456248
