Infrared Spectrum: Ethanone, 1-(2-furanyl)-
Formula: C 6 H 6 O 2
CAS: 1192-62-7
Origin: Sadtler Research Labs Under US-EPA Contract
1/CM	ABSORBANCE
450	0.0195654
462	0.00876631
474	0.00825812
486	0.0170244
498	0.0203277
510	0.00736878
522	0.0102909
534	0.0268071
546	0.0154999
558	0.0115614
570	0.0151187
582	0.0435775
594	0.117773
606	0.129208
618	0.265657
630	0.214711
642	0.0374792
654	0.015881
666	0.00990974
678	0.00724174
690	0.00139753
702	0.00241391
714	0.00902041
726	0.0602208
738	0.226908
750	0.582642
762	0.281792
774	0.0943967
786	0.00863926
798	0.0092745
810	0.0287128
822	0.0604748
834	0.0674625
846	0.0297292
858	0.0138482
870	0.0379874
882	0.152204
894	0.263243
906	0.138991
918	0.0877902
930	0.0345571
942	0.0463725
954	0.084741
966	0.118028
978	0.0960483
990	0.0814378
1002	0.208486
1014	0.222334
1026	0.141913
1038	0.0777534
1050	0.0498028
1062	0.0645404
1074	0.0730526
1086	0.0904582
1098	0.153474
1110	0.143945
1122	0.0390037
1134	0.0107991
1146	0.0406554
1158	0.214584
1170	0.241899
1182	0.0731796
1194	0.0247744
1206	0.0274424
1218	0.0772452
1230	0.0830894
1242	0.050184
1254	0.13645
1266	0.58963
1278	0.769022
1290	0.329944
1302	0.0777534
1314	0.0196924
1326	0.0221064
1338	0.0442127
1350	0.155507
1362	0.268707
1374	0.240756
1386	0.137847
1398	0.121077
1410	0.0910934
1422	0.0914746
1434	0.0808025
1446	0.0783886
1458	0.140388
1470	0.428152
1482	0.474651
1494	0.194765
1506	0.0653027
1518	0.0228686
1530	0.0231227
1542	0.0332866
1554	0.101384
1566	0.348874
1578	0.458135
1590	0.224113
1602	0.0515815
1614	0.0275694
1626	0.0297292
1638	0.0337948
1650	0.0293481
1662	0.0459914
1674	0.060983
1686	0.221699
1698	1.08626
1710	1.21458
1722	0.502221
1734	0.0654297
1746	0.0218523
1758	0.03443
1770	0.0378603
1782	0.0337948
1794	0.0276965
1806	0.0269342
1818	0.018422
1830	0.00711469
1842	0.00406554
1854	0.00546306
1866	0.0034303
1878	0.00774993
1890	0.0125778
1902	0.0149917
1914	0.00559011
1926	0.00177867
1938	0.00177867
1950	0.00241391
1962	0.00330325
1974	0.0029221
1986	0.00203277
1998	0.00241391
2010	0.00266801
2022	0.00190572
2034	0.00304915
2046	0.00254096
2058	0.000889336
2070	0.00279506
2082	0.00584421
2094	0.00559011
2106	0.00508192
2118	0.0029221
2130	0.00063524
2142	0.000762288
2154	0.00101638
2166	0.00177867
2178	0.00254096
2190	0.00241391
2202	0.00215982
2214	0.00152458
2226	0.00190572
2238	0.00330325
2250	0.0029221
2262	0.00279506
2274	0.0029221
2286	0.00165162
2298	0.0029221
2310	0.00393849
2322	0.00444668
2334	0.00228686
2346	0.00215982
2358	0.00330325
2370	0.00495487
2382	0.00762288
2394	0.0060983
2406	0.00368439
2418	0.00190572
2430	0.00254096
2442	0.00571716
2454	0.0060983
2466	0.00495487
2478	0.00381144
2490	0.0029221
2502	0.00127048
2514	0.000381144
2526	0.00139753
2538	0.0029221
2550	0.0034303
2562	0.00279506
2574	0.00241391
2586	0.00228686
2598	0.00203277
2610	0.00279506
2622	0.00457373
2634	0.00889336
2646	0.00876631
2658	0.00571716
2670	0.00419258
2682	0.0031762
2694	0.0034303
2706	0.00241391
2718	0.00177867
2730	0.00241391
2742	0.00419258
2754	0.00622535
2766	0.00444668
2778	0.00304915
2790	0.00381144
2802	0.00444668
2814	0.00266801
2826	0.00520897
2838	0.0100368
2850	0.0127048
2862	0.0102909
2874	0.00622535
2886	0.00559011
2898	0.00736878
2910	0.00749583
2922	0.0119425
2934	0.0223604
2946	0.0257907
2958	0.0208359
2970	0.0240121
2982	0.0255366
2994	0.0205818
3006	0.0236309
3018	0.0372251
3030	0.0312538
3042	0.0167703
3054	0.0139753
3066	0.0138482
3078	0.0129589
3090	0.0125778
3102	0.0111802
3114	0.00965565
3126	0.0163892
3138	0.0151187
3150	0.00889336
3162	0.0092745
3174	0.00647945
3186	0.00559011
3198	0.0029221
3210	0.00228686
3222	0.00330325
3234	0.00254096
3246	0.00355734
3258	0.00368439
3270	0.00355734
3282	0.00470078
3294	0.00266801
3306	0.0031762
3318	0.0034303
3330	0.0031762
3342	0.00495487
3354	0.00419258
3366	0.00419258
3378	0.0153728
3390	0.0276965
3402	0.0275694
3414	0.010545
3426	0.00457373
3438	0.00215982
3450	0.00279506
3462	0.00381144
3474	0.00393849
3486	0.00215982
3498	0.00063524
3510	0.0029221
3522	0.00533602
3534	0.0034303
3546	0.00228686
3558	0.00559011
3570	0.00470078
3582	0.00584421
3594	0.0060983
3606	0.00101638
3618	0.00114343
3630	0.00190572
3642	0.00381144
3654	0.00266801
3666	0.00152458
3678	0.00177867
3690	0.0029221
3702	0.000254096
3714	0.000127048
3726	0.000381144
3738	0.000889336
3750	0.00152458
3762	0.00228686
3774	0.00266801
3786	0.00165162
3798	0.00114343
3810	0.00165162
3822	0.000381144
3834	0.00241391
3846	0.00101638
3858	0.00114343
3870	0.0031762
3882	0.00393849
3894	0.00330325
3906	0.00266801
3918	0.00330325
3930	0.00559011
3942	0.00254096
3954	0.00876631
3966	0.0029221
