Infrared Spectrum: 1-Cyclohexylethanol
Formula: C 8 H 16 O
CAS: 1193-81-3
Origin: Sadtler Research Labs Under US-EPA Contract
1/CM	ABSORBANCE
450	0.016927
462	0.00954068
474	0.00907904
486	0.0106179
498	0.00507811
510	0.0101562
522	0.00830963
534	0.00830963
546	0.00815575
558	0.00553975
570	0.00569363
582	0.00261599
594	0.0060014
606	0.00830963
618	0.0106179
630	0.0101562
642	0.00738634
654	0.00507811
666	0.00630916
678	0.00723245
690	0.00477034
702	0.0043087
714	0.00461646
726	0.00507811
738	0.00492422
750	0.00415481
762	0.00677081
774	0.0110795
786	0.00954068
798	0.00446258
810	0.00661693
822	0.0163115
834	0.0306225
846	0.0215435
858	0.0269293
870	0.0306225
882	0.0455491
894	0.0566286
906	0.0296992
918	0.0266216
930	0.0772488
942	0.0974073
954	0.03647
966	0.0175425
978	0.0238517
990	0.0406248
1002	0.0537048
1014	0.0627839
1026	0.0875589
1038	0.10664
1050	0.107717
1062	0.129261
1074	0.144649
1086	0.116335
1098	0.122182
1110	0.141571
1122	0.122644
1134	0.084789
1146	0.0683236
1158	0.0592446
1170	0.0446258
1182	0.0546281
1194	0.0543203
1206	0.0475495
1218	0.061245
1230	0.0797109
1242	0.100023
1254	0.101716
1266	0.0827885
1278	0.0569363
1290	0.0475495
1302	0.0523199
1314	0.043087
1326	0.0433947
1338	0.0503194
1350	0.0633994
1362	0.0714012
1374	0.111564
1386	0.139109
1398	0.0920214
1410	0.0492422
1422	0.0298531
1434	0.039086
1446	0.120028
1458	0.160653
1470	0.0724784
1482	0.0203124
1494	0.0101562
1506	0.00830963
1518	0.00615528
1530	0.00384705
1542	0.00538587
1554	0.00400093
1566	0.00276988
1578	0.00292376
1590	0.00215435
1602	0.0016927
1614	0.0043087
1626	0.0033854
1638	0.00661693
1650	0.00307764
1662	0.00184658
1674	0.00292376
1686	0.00677081
1698	0.00646304
1710	0.00661693
1722	0.00523199
1734	0.00400093
1746	0.00353929
1758	0.00215435
1770	0.00415481
1782	0.00246211
1794	0.00230823
1806	0.00246211
1818	0.00138494
1830	0.00138494
1842	0.000461646
1854	0.00076941
1866	0.00107717
1878	0.00076941
1890	0.00153882
1902	0.00123106
1914	0.00123106
1926	0.00076941
1938	0.00107717
1950	0.000615528
1962	0.00107717
1974	0.000923292
1986	0.000923292
1998	0.00107717
2010	0.00107717
2022	0.000615528
2034	0.000307764
2046	0.000307764
2058	0.00076941
2070	0.000615528
2082	0.000461646
2094	0.00076941
2106	0.000307764
2118	0.000615528
2130	0.000923292
2142	0.00123106
2154	0.00076941
2166	0.00138494
2178	0.00184658
2190	0.00215435
2202	0.00200047
2214	0.0016927
2226	0.00215435
2238	0.00215435
2250	0.00200047
2262	0.00123106
2274	0.00107717
2286	0.00107717
2298	0.00153882
2310	0.00184658
2322	0.00307764
2334	0.00353929
2346	0.00230823
2358	0.00553975
2370	0.0016927
2382	0.00261599
2394	0.00323152
2406	0.00292376
2418	0.00261599
2430	0.0016927
2442	0.00200047
2454	0.0016927
2466	0.0016927
2478	0.00215435
2490	0.00292376
2502	0.00230823
2514	0.00215435
2526	0.00246211
2538	0.00230823
2550	0.00215435
2562	0.00400093
2574	0.00569363
2586	0.00723245
2598	0.00923292
2610	0.0100023
2622	0.0110795
2634	0.0136955
2646	0.0152343
2658	0.0212357
2670	0.0263138
2682	0.0223129
2694	0.0180042
2706	0.0161576
2718	0.0146188
2730	0.0136955
2742	0.014311
2754	0.0147727
2766	0.0149266
2778	0.0186197
2790	0.0250828
2802	0.0330846
2814	0.0375472
2826	0.0467801
2838	0.0798648
2850	0.25252
2862	0.615836
2874	0.545666
2886	0.295607
2898	0.257137
2910	0.417328
2922	0.820191
2934	1.53882
2946	1.17827
2958	0.391168
2970	0.252366
2982	0.259291
2994	0.137109
3006	0.0347773
3018	0.0153882
3030	0.0121567
3042	0.0118489
3054	0.00954068
3066	0.0060014
3078	0.00492422
3090	0.00507811
3102	0.00461646
3114	0.00415481
3126	0.00477034
3138	0.0043087
3150	0.00461646
3162	0.00569363
3174	0.00492422
3186	0.00477034
3198	0.00323152
3210	0.00461646
3222	0.00276988
3234	0.00153882
3246	0.00215435
3258	0.00215435
3270	0.00107717
3282	0.00153882
3294	0.00246211
3306	0.00200047
3318	0.00153882
3330	0.0016927
3342	0.00261599
3354	0.00323152
3366	0.00276988
3378	0.00323152
3390	0.00384705
3402	0.00400093
3414	0.00384705
3426	0.00446258
3438	0.0060014
3450	0.00584752
3462	0.0043087
3474	0.0033854
3486	0.00384705
3498	0.00153882
3510	0.00353929
3522	0.00215435
3534	0.00107717
3546	0.00215435
3558	0.00138494
3570	0.0033854
3582	0.0016927
3594	0.00323152
3606	0.00230823
3618	0.00523199
3630	0.0132339
3642	0.0275449
3654	0.0572441
3666	0.0530893
3678	0.0186197
3690	0.00723245
3702	0.00630916
3714	0.00584752
3726	0.00446258
3738	0.00323152
3750	0.00553975
3762	0.00261599
3774	0.00446258
3786	0.00261599
3798	0.00754022
3810	0.0060014
3822	0.00707857
3834	0.0060014
3846	0.00538587
3858	0.0060014
3870	0.0060014
3882	0.0101562
3894	0.00492422
3906	0.00877127
3918	0.00800186
3930	0.00492422
3942	0.00784798
3954	0.00923292
3966	0.0076941
