Infrared Spectrum: Benzonitrile, 4-fluoro-
Formula: C 7 H 4 F N
CAS: 1194-02-1
Origin: Sadtler Research Labs Under US-EPA Contract
1/CM	ABSORBANCE
450	0.002182
462	0.0245971
474	0.0291595
486	0.0318374
498	0.0128937
510	0.0246963
522	0.0557403
534	0.153137
546	0.160675
558	0.0658568
570	0.0268783
582	0.0180511
594	0.0123978
606	0.0150757
618	0.0125961
630	0.00942229
642	0.0106125
654	0.0121994
666	0.076271
678	0.150062
690	0.0857924
702	0.0267791
714	0.0119018
726	0.0228119
738	0.0208282
750	0
762	0.0077362
774	0.0088272
786	0.00962065
798	0.0323333
810	0.0674438
822	0.167419
834	0.339202
846	0.428863
858	0.198959
870	0.0403671
882	0.0191421
894	0.0169601
906	0.0147781
918	0.0208282
930	0.0193405
942	0.0190429
954	0.0157699
966	0.0123978
978	0.0127945
990	0.0113067
1002	0.0151748
1014	0.0294571
1026	0.0238037
1038	0.0110092
1050	0.0128937
1062	0.0131912
1074	0.0280685
1086	0.0485
1098	0.0442352
1110	0.0309448
1122	0.015274
1134	0.0192413
1146	0.0327301
1158	0.19281
1170	0.146889
1182	0.0175552
1194	0.0184479
1206	0.0301513
1218	0.0647658
1230	0.244484
1242	0.767966
1254	0.769355
1266	0.154228
1278	0.0393753
1290	0.0331268
1302	0.0335235
1314	0.0206299
1326	0.0153732
1338	0.0111084
1350	0.0237045
1362	0.0183487
1374	0.01091
1386	0.0139847
1398	0.0206299
1410	0.0259857
1422	0.0171585
1434	0.00733947
1446	0.0136871
1458	0.00347137
1470	0.0367965
1482	0.072502
1494	0.148773
1506	0.883513
1518	0.852767
1530	0.032135
1542	0.000297546
1554	0.028862
1566	0.0389785
1578	0.0417556
1590	0.11396
1602	0.501663
1614	0.416862
1626	0.0497894
1638	0.0294571
1650	0.0253906
1662	0.0370941
1674	0.0191421
1686	0.0111084
1698	0.00446319
1710	0.0155716
1722	0.0125961
1734	0.00099182
1746	0.0104141
1758	0.0189438
1770	0.022316
1782	0.0159683
1794	0.00833129
1806	0.0139847
1818	0.0133896
1830	0.0077362
1842	0.00862883
1854	0.0137863
1866	0.0115051
1878	0.0209274
1890	0.0331268
1902	0.0360031
1914	0.0248947
1926	0.0157699
1938	0.012001
1950	0.0103149
1962	0.0099182
1974	0.00952147
1986	0.00981902
1998	0.0107117
2010	0.00932311
2022	0.0060501
2034	0.00743865
2046	0.00793456
2058	0.00862883
2070	0.00962065
2082	0.0110092
2094	0.00892638
2106	0.00555419
2118	0.00366973
2130	0.00297546
2142	0.00198364
2154	0.00158691
2166	0.00138855
2178	0.00188446
2190	0.00138855
2202	0.000793456
2214	0.00416564
2226	0.0357055
2238	0.0794448
2250	0.0398712
2262	0.00466155
2274	0.00327301
2286	0.002182
2298	0.00287628
2310	0.00515746
2322	0.00416564
2334	0.00287628
2346	0.00565337
2358	0.00505828
2370	0.00436401
2382	0.00505828
2394	0.0049591
2406	0.00545501
2418	0.0038681
2430	0.00366973
2442	0.00704192
2454	0.00555419
2466	0.00436401
2478	0.00892638
2490	0.0113067
2502	0.00694274
2514	0.00366973
2526	0.00426483
2538	0.0060501
2550	0.0100174
2562	0.012001
2574	0.00763701
2586	0.00208282
2598	0.00128937
2610	0.00168609
2622	0.002182
2634	0.0027771
2646	0.00366973
2658	0.00208282
2670	0.00247955
2682	0.00178528
2694	0.00297546
2706	0.002182
2718	0.00198364
2730	0.00178528
2742	0.00257873
2754	0.00376892
2766	0.0038681
2778	0.00406646
2790	0.00426483
2802	0.00396728
2814	0.00228119
2826	0.00198364
2838	0.00178528
2850	0.00327301
2862	0.00406646
2874	0.00337219
2886	0.00238037
2898	0.00297546
2910	0.00267791
2922	0.00257873
2934	0.00247955
2946	0.00198364
2958	0.00257873
2970	0.00238037
2982	0.002182
2994	0.00178528
3006	0.00168609
3018	0.00138855
3030	0.002182
3042	0.00376892
3054	0.0122986
3066	0.0169601
3078	0.0115051
3090	0.0102157
3102	0.00634765
3114	0.00634765
3126	0.00743865
3138	0.00396728
3150	0.002182
3162	0.00247955
3174	0.00337219
3186	0.00307464
3198	0.00198364
3210	0.00208282
3222	0.00208282
3234	0.00158691
3246	0.00228119
3258	0.00119018
3270	0.00128937
3282	0.00168609
3294	0.00128937
3306	0.00208282
3318	0.00198364
3330	0.00168609
3342	0.0027771
3354	0.00158691
3366	0.0027771
3378	0.00297546
3390	0.00297546
3402	0.00357055
3414	0.00515746
3426	0.00743865
3438	0.00485992
3450	0.00247955
3462	0.00317382
3474	0.00357055
3486	0.00297546
3498	0.00238037
3510	0.00267791
3522	0.002182
3534	0.00238037
3546	0.00297546
3558	0.00228119
3570	0.00287628
3582	0.00228119
3594	0.00138855
3606	0.00138855
3618	0.00128937
3630	0.00099182
3642	0.00148773
3654	0.000793456
3666	0.00247955
3678	0.00228119
3690	0.00188446
3702	0.00188446
3714	0.00327301
3726	0.0027771
3738	0.00317382
3750	0.00247955
3762	0.002182
3774	0.002182
3786	0.00307464
3798	0.001091
3810	0.00307464
3822	0.00049591
3834	0.00228119
3846	0.00456237
3858	0.00485992
3870	0.00485992
3882	0.00168609
3894	0.00476074
3906	0.0060501
3918	0.00327301
3930	0.00307464
3942	0.00456237
3954	0.00257873
3966	0.00287628
