Infrared Spectrum: Cyclohexene, 1-methyl-4-(1-methylethyl)-, (R)-
Formula: C 10 H 18
CAS: 1195-31-9
Origin: Sadtler Research Labs Under US-EPA Contract
1/CM	ABSORBANCE
450	0.00375013
462	0.00362916
474	0.00326624
486	0.00556471
498	0.00241944
510	0.00350819
522	0.00665346
534	0.00532277
546	0.00774221
558	0.00435499
570	0.00375013
582	0.00241944
594	0.00169361
606	0.00133069
618	0.00205652
630	0.00290333
642	0.00290333
654	0.00290333
666	0.00326624
678	0.00254041
690	0.00278236
702	0.00290333
714	0.00326624
726	0.00459694
738	0.00447596
750	0.00725832
762	0.0107665
774	0.0108875
786	0.0362916
798	0.0750026
810	0.0401627
822	0.0116133
834	0.0060486
846	0.00858901
858	0.0107665
870	0.00955679
882	0.0116133
894	0.0197184
906	0.038832
918	0.0434289
930	0.021654
942	0.0175409
954	0.025767
966	0.0209282
978	0.0181458
990	0.0158473
1002	0.0182668
1014	0.030243
1026	0.0273397
1038	0.0208072
1050	0.0168151
1062	0.0175409
1074	0.0247993
1086	0.0243154
1098	0.0221379
1110	0.017299
1122	0.0153634
1134	0.0228637
1146	0.0546793
1158	0.0838336
1170	0.0435499
1182	0.021412
1194	0.0140328
1206	0.0158473
1218	0.0269768
1230	0.0272187
1242	0.0327834
1254	0.0233476
1266	0.0136698
1278	0.0157264
1290	0.0244363
1302	0.0251622
1314	0.0382272
1326	0.038711
1338	0.030243
1350	0.0269768
1362	0.0600021
1374	0.121335
1386	0.158352
1398	0.0829868
1410	0.0243154
1422	0.0315737
1434	0.0872208
1446	0.147707
1458	0.168151
1470	0.160288
1482	0.0920597
1494	0.0284284
1506	0.0124601
1518	0.0120972
1530	0.0090729
1542	0.00532277
1554	0.00592763
1566	0.00616957
1578	0.00641152
1590	0.0102826
1602	0.00919387
1614	0.00725832
1626	0.0060486
1638	0.00556471
1650	0.00786318
1662	0.00629054
1674	0.00870998
1686	0.00737929
1698	0.00762124
1710	0.00834707
1722	0.00556471
1734	0.00350819
1746	0.0038711
1758	0.00314527
1770	0.0021775
1782	0.00229847
1794	0.00157264
1806	0.00181458
1818	0.00157264
1830	0.00157264
1842	0.00133069
1854	0.000846804
1866	0.00145166
1878	0.00169361
1890	0.00157264
1902	0.00133069
1914	0.00157264
1926	0.00120972
1938	0.00120972
1950	0.00157264
1962	0.00108875
1974	0.000483888
1986	0.000362916
1998	0.000362916
2010	0.000483888
2022	0.000725832
2034	0.000120972
2046	0.000483888
2058	0.000241944
2070	0.00060486
2082	0.000362916
2094	0.000120972
2106	0.000241944
2118	0
2130	0
2142	0.000362916
2154	0.000120972
2166	0
2178	0.000362916
2190	0.00060486
2202	0.00060486
2214	0.000725832
2226	0.00157264
2238	0.00181458
2250	0.00133069
2262	0.000725832
2274	0.00060486
2286	0.00145166
2298	0.00169361
2310	0.00157264
2322	0.0021775
2334	0.00254041
2346	0.00205652
2358	0.00290333
2370	0.00193555
2382	0.00290333
2394	0.00314527
2406	0.00290333
2418	0.00266138
2430	0.00278236
2442	0.0030243
2454	0.00375013
2466	0.00447596
2478	0.00435499
2490	0.00375013
2502	0.00350819
2514	0.00399208
2526	0.00495985
2538	0.00495985
2550	0.00495985
2562	0.00580666
2574	0.00641152
2586	0.00834707
2598	0.0108875
2610	0.0125811
2622	0.0131859
2634	0.0120972
2646	0.0119762
2658	0.0127021
2670	0.0145166
2682	0.0154844
2694	0.0150005
2706	0.0151215
2718	0.0194765
2730	0.0315737
2742	0.034477
2754	0.0243154
2766	0.0218959
2778	0.0233476
2790	0.0268558
2802	0.0365335
2814	0.056252
2826	0.104883
2838	0.290333
2850	0.409611
2862	0.470702
2874	0.657967
2886	0.799867
2898	0.754139
2910	0.830836
2922	1.02681
2934	1.00927
2946	0.774826
2958	0.921323
2970	1.20972
2982	0.61236
2994	0.197547
3006	0.137666
3018	0.155086
3030	0.0964147
3042	0.0668975
3054	0.0587924
3066	0.0407676
3078	0.0285494
3090	0.0249202
3102	0.0212911
3114	0.0180248
3126	0.0154844
3138	0.0137908
3150	0.0125811
3162	0.0120972
3174	0.0108875
3186	0.0110085
3198	0.0090729
3210	0.00713735
3222	0.00435499
3234	0.00314527
3246	0.00254041
3258	0.00205652
3270	0.00254041
3282	0.00278236
3294	0.00326624
3306	0.00314527
3318	0.00326624
3330	0.00326624
3342	0.00326624
3354	0.00290333
3366	0.00350819
3378	0.00326624
3390	0.00314527
3402	0.00326624
3414	0.00266138
3426	0.0021775
3438	0.00266138
3450	0.00157264
3462	0.00060486
3474	0.00133069
3486	0.00205652
3498	0.00157264
3510	0.00120972
3522	0.00157264
3534	0.000483888
3546	0.00181458
3558	0.00193555
3570	0.000846804
3582	0.00060486
3594	0.000846804
3606	0.00120972
3618	0.00120972
3630	0.00108875
3642	0.00254041
3654	0.00266138
3666	0.00205652
3678	0.00108875
3690	0.00169361
3702	0.00157264
3714	0.00108875
3726	0.00254041
3738	0.00108875
3750	0.00169361
3762	0.00254041
3774	0.00145166
3786	0.00205652
3798	0.000967776
3810	0.0021775
3822	0.00133069
3834	0.00157264
3846	0.00205652
3858	0.0021775
3870	0.000241944
3882	0.0021775
3894	0.00205652
3906	0.000967776
3918	0.00181458
3930	0.000725832
3942	0.000967776
3954	0.00254041
3966	0.000120972
