Infrared Spectrum: Bicyclo[6.1.0]nonane, 9,9-dibromo-,
Formula: C 9 H 14 Br 2
CAS: 1196-95-8
Origin: Sadtler Research Labs Under US-EPA Contract
1/CM	ABSORBANCE
450	0
462	0.00434678
474	0.00713318
486	0.00334368
498	0.00824774
510	0.012706
522	0.0271953
534	0.00568426
546	0.00668736
558	0.00791338
570	0.00523843
582	0.00546134
594	0.00635299
606	0.00624154
618	0.00523843
630	0.0037895
642	0.00479261
654	0.00390096
666	0.00646445
678	0.0119258
690	0.020285
702	0.0546134
714	0.0965209
726	0.0513812
738	0.0526072
750	0.049375
762	0.123939
774	0.0660934
786	0.0146007
798	0.0131518
810	0.0386752
822	0.0292015
834	0.0158268
846	0.0189475
858	0.0509354
870	0.0174986
882	0.00913939
894	0.0104769
906	0.00913939
918	0.0106998
930	0.0236287
942	0.0161611
954	0.00925085
966	0.00947376
978	0.0144893
990	0.00947376
1002	0.0106998
1014	0.0205079
1026	0.0344399
1038	0.0240745
1050	0.0248547
1062	0.0687684
1074	0.0504896
1086	0.0170528
1098	0.0188361
1110	0.0188361
1122	0.0103654
1134	0.0106998
1146	0.0244089
1158	0.0460313
1170	0.0769046
1182	0.0226256
1194	0.0168299
1206	0.012706
1218	0.0185017
1230	0.0242974
1242	0.0235172
1254	0.0208423
1266	0.0213996
1278	0.0134862
1290	0.0153809
1302	0.0101425
1314	0.00769046
1326	0.00858211
1338	0.01148
1350	0.0224027
1362	0.0543905
1374	0.019059
1386	0.010254
1398	0.015158
1410	0.00858211
1422	0.00813629
1434	0.0153809
1446	0.0883846
1458	0.124273
1470	0.131518
1482	0.0413502
1494	0.00969667
1506	0.00668736
1518	0.00523843
1530	0.00401242
1542	0.00312077
1554	0.00356659
1566	0.00345514
1578	0.0037895
1590	0.00401242
1602	0.00445824
1614	0.00490406
1626	0.0083592
1638	0.0073561
1650	0.00390096
1662	0.0027864
1674	0.00356659
1686	0.0045697
1698	0.00546134
1710	0.00724464
1722	0.00769046
1734	0.00713318
1746	0.00702173
1758	0.00635299
1770	0.00601862
1782	0.00523843
1794	0.00490406
1806	0.0045697
1818	0.0037895
1830	0.00323222
1842	0.00312077
1854	0.0027864
1866	0.00234058
1878	0.00289786
1890	0.0027864
1902	0.0027864
1914	0.00300931
1926	0.00289786
1938	0.00300931
1950	0.00334368
1962	0.00356659
1974	0.00312077
1986	0.00300931
1998	0.00367805
2010	0.00367805
2022	0.00289786
2034	0.00367805
2046	0.00356659
2058	0.00323222
2070	0.00300931
2082	0.00312077
2094	0.00345514
2106	0.00323222
2118	0.00390096
2130	0.00367805
2142	0.00323222
2154	0.00312077
2166	0.00334368
2178	0.00312077
2190	0.00345514
2202	0.00390096
2214	0.0045697
2226	0.00401242
2238	0.00356659
2250	0.00312077
2262	0.00345514
2274	0.00356659
2286	0.00312077
2298	0.0017833
2310	0.00189475
2322	0.00234058
2334	0.00289786
2346	0.00222912
2358	0.0027864
2370	0.0027864
2382	0.00234058
2394	0.00245203
2406	0.00234058
2418	0.00267494
2430	0.00323222
2442	0.00334368
2454	0.00323222
2466	0.00312077
2478	0.00312077
2490	0.0027864
2502	0.0027864
2514	0.00323222
2526	0.00390096
2538	0.00367805
2550	0.00323222
2562	0.00323222
2574	0.00345514
2586	0.0037895
2598	0.00412387
2610	0.00434678
2622	0.00546134
2634	0.00590717
2646	0.00624154
2658	0.00635299
2670	0.00913939
2682	0.0138205
2694	0.0168299
2706	0.0119258
2718	0.0083592
2730	0.00813629
2742	0.0073561
2754	0.0065759
2766	0.00668736
2778	0.00925085
2790	0.0110341
2802	0.013932
2814	0.0160497
2826	0.017833
2838	0.0240745
2850	0.063307
2862	0.266826
2874	0.233054
2886	0.0974125
2898	0.0927314
2910	0.230937
2922	0.500103
2934	1.11456
2946	0.54045
2958	0.146899
2970	0.12093
2982	0.0635299
2994	0.0395669
3006	0.08114
3018	0.0386752
3030	0.0159382
3042	0.0119258
3054	0.0083592
3066	0.00691027
3078	0.00679882
3090	0.0065759
3102	0.00646445
3114	0.00512698
3126	0.00468115
3138	0.00412387
3150	0.00390096
3162	0.0037895
3174	0.00334368
3186	0.00367805
3198	0.00356659
3210	0.00501552
3222	0.00412387
3234	0.00356659
3246	0.00345514
3258	0.00345514
3270	0.00345514
3282	0.00200621
3294	0.00289786
3306	0.0017833
3318	0.00245203
3330	0.00234058
3342	0.00267494
3354	0.00267494
3366	0.00334368
3378	0.00334368
3390	0.00245203
3402	0.0027864
3414	0.00267494
3426	0.00211766
3438	0.00211766
3450	0.00289786
3462	0.00267494
3474	0.00211766
3486	0.0027864
3498	0.00267494
3510	0.00234058
3522	0.00245203
3534	0.00300931
3546	0.00289786
3558	0.00234058
3570	0.00289786
3582	0.00312077
3594	0.00323222
3606	0.00289786
3618	0.00300931
3630	0.00334368
3642	0.00345514
3654	0.00367805
3666	0.0017833
3678	0.00334368
3690	0.00367805
3702	0.00356659
3714	0.00345514
3726	0.0045697
3738	0.00390096
3750	0.00356659
3762	0.00312077
3774	0.0027864
3786	0.00423533
3798	0.00234058
3810	0.00267494
3822	0.00323222
3834	0.00211766
3846	0.00222912
3858	0.00234058
3870	0.00334368
3882	0.00334368
3894	0.00356659
3906	0.00312077
3918	0.00245203
3930	0.00345514
3942	0.00479261
3954	0.00289786
3966	0.00267494
