Infrared Spectrum: Methanesulfanilide
Formula: C 7 H 9 N O 2 S
CAS: 1197-22-4
Origin: Sadtler Research Labs Under US-EPA Contract
1/CM	ABSORBANCE
450	0.0177768
462	0.0005275
474	0.009495
486	0.0202032
498	0.0389295
510	0.0770678
522	0.150654
534	0.119479
546	0.035237
558	0.0093895
570	0.005908
582	0.0049585
594	0.00574975
606	0.00511675
618	0.0129765
630	0.011605
642	0.0041145
654	0.00532775
666	0.0101808
678	0.0292235
690	0.0607152
702	0.0443627
714	0.032072
726	0.0606625
738	0.105764
750	0.0997502
762	0.0612427
774	0.0410395
786	0.0303313
798	0.0313862
810	0.0375053
822	0.0394043
834	0.0219967
846	0.0109193
858	0.017724
870	0.0422
882	0.09917
894	0.130503
906	0.0965852
918	0.062878
930	0.033127
942	0.022999
954	0.0598713
966	0.190005
978	0.0980623
990	0.0225242
1002	0.013504
1014	0.00891475
1026	0.0289597
1038	0.0215748
1050	0.00131875
1062	0.0068575
1074	0.0119215
1086	0.00754325
1098	0.00522225
1110	0.004853
1122	0.00648825
1134	0.0154558
1146	0.0572337
1158	0.29387
1170	0.517372
1182	0.126917
1194	0.0215748
1206	0.0171437
1218	0.037558
1230	0.0320192
1242	0.0176712
1254	0.0186208
1266	0.036503
1278	0.064144
1290	0.0570228
1302	0.0451013
1314	0.0499542
1326	0.0750632
1338	0.0745885
1350	0.0975348
1362	0.124437
1374	0.105606
1386	0.140526
1398	0.345776
1410	0.297826
1422	0.095372
1434	0.0633
1446	0.0235265
1458	0.036081
1470	0.0631945
1482	0.0641967
1494	0.162101
1506	0.098115
1518	0.0225242
1530	0.012449
1542	0.00859825
1554	0.00754325
1566	0.00954775
1578	0.018568
1590	0.055704
1602	0.0963215
1614	0.0381382
1626	0.013504
1638	0.00764875
1650	0.006119
1662	0.003376
1674	0.00374525
1686	0.0043255
1698	0.00501125
1710	0.00427275
1722	0.005908
1734	0.00574975
1746	0.003587
1758	0.00279575
1770	0.00437825
1782	0.00553875
1794	0.00490575
1806	0.0030595
1818	0.00211
1830	0.0026375
1842	0.002954
1854	0.00342875
1866	0.00427275
1878	0.0034815
1890	0.00269025
1902	0.0022155
1914	0.00290125
1926	0.0041145
1938	0.0055915
1950	0.005275
1962	0.00395625
1974	0.00211
1986	0.00205725
1998	0.00205725
2010	0.001899
2022	0.0022155
2034	0.00226825
2046	0.00269025
2058	0.0026375
2070	0.00290125
2082	0.0026375
2094	0.00247925
2106	0.00247925
2118	0.0022155
2130	0.00205725
2142	0.001899
2154	0.00163525
2166	0.00163525
2178	0.00184625
2190	0.001688
2202	0.00174075
2214	0.00152975
2226	0.00152975
2238	0.00163525
2250	0.0013715
2262	0.0015825
2274	0.00237375
2286	0.00290125
2298	0.00279575
2310	0.00321775
2322	0.0045365
2334	0.00437825
2346	0.00353425
2358	0.002954
2370	0.002321
2382	0.0028485
2394	0.00174075
2406	0.00110775
2418	0.00089675
2430	0.00110775
2442	0.00131875
2454	0.00100225
2466	0.00110775
2478	0.001688
2490	0.00226825
2502	0.00279575
2514	0.002532
2526	0.0024265
2538	0.00174075
2550	0.00195175
2562	0.00247925
2574	0.0024265
2586	0.00152975
2598	0.001266
2610	0.001055
2622	0.00089675
2634	0.00089675
2646	0.00058025
2658	0.00058025
2670	0.00047475
2682	0.0007385
2694	0.000422
2706	0.00036925
2718	0.000422
2730	0.000422
2742	0.00058025
2754	0.00110775
2766	0.00047475
2778	5.275e-05
2790	0.000211
2802	0.000211
2814	0.0005275
2826	0.00100225
2838	0.000844
2850	0.00089675
2862	0.0005275
2874	0.001266
2886	0.00142425
2898	0.0009495
2910	0.0013715
2922	0.00174075
2934	0.00279575
2946	0.00342875
2958	0.00279575
2970	0.00216275
2982	0.001477
2994	0.00163525
3006	0.00395625
3018	0.0112358
3030	0.0195703
3042	0.02954
3054	0.031439
3066	0.0279575
3078	0.0359755
3090	0.0321775
3102	0.0165635
3114	0.0089675
3126	0.00406175
3138	0.00216275
3150	0.00152975
3162	0.001055
3174	0.00131875
3186	0.00142425
3198	0.0007385
3210	0.0011605
3222	0.0007385
3234	0.0009495
3246	0.00100225
3258	0.00100225
3270	0.0009495
3282	0.0009495
3294	0.00110775
3306	0.00100225
3318	0.0011605
3330	0.001266
3342	0.00195175
3354	0.00237375
3366	0.00353425
3378	0.00659375
3390	0.0149283
3402	0.0328633
3414	0.0530137
3426	0.041567
3438	0.0149283
3450	0.0060135
3462	0.00458925
3474	0.00311225
3486	0.001477
3498	0.0017935
3510	0.00079125
3522	0.0003165
3534	0
3546	0.00026375
3558	0.0009495
3570	0.000422
3582	0.00089675
3594	0.0011605
3606	5.275e-05
3618	0.000211
3630	0.0005275
3642	0.000211
3654	0.00036925
3666	0.0005275
3678	0.00100225
3690	0.00131875
3702	0.0011605
3714	0.0013715
3726	0.001477
3738	0.0007385
3750	0.00184625
3762	0.00110775
3774	0.00100225
3786	0.000633
3798	0.00121325
3810	0.00047475
3822	0.00100225
3834	0.00142425
3846	0.001477
3858	0.00226825
3870	0.00121325
3882	0.001688
3894	0.0009495
3906	0.00184625
3918	0.00205725
3930	0.00121325
3942	0.001266
3954	0.0020045
3966	0.00036925
