Infrared Spectrum: 2-Benzofurancarboxaldehyde, 3-methyl-,
Formula: C 10 H 8 O 2
CAS: 1199-07-1
Origin: Sadtler Research Labs Under US-EPA Contract
1/CM	ABSORBANCE
450	0
462	0.00336502
474	0.0157034
486	0.0842857
498	0.0863688
510	0.0112167
522	0.0158637
534	0.0501548
546	0.0157034
558	0.00737099
570	0.00961434
582	0.00769147
594	0.00640956
606	0.0057686
618	0.00817219
630	0.0112167
642	0.00384574
654	0.00416621
666	0.00865291
678	0.0277213
690	0.00881314
702	0.0132998
714	0.0217925
726	0.0857279
738	0.441779
750	0.568528
762	0.128191
774	0.0142613
786	0.00993482
798	0.00881314
810	0.00849267
822	0.0464693
834	0.259106
846	0.209272
858	0.142132
870	0.110244
882	0.0738702
894	0.0342911
906	0.0304454
918	0.0265997
930	0.014742
942	0.00897338
954	0.00817219
966	0.0094541
978	0.00769147
990	0.0105758
1002	0.0317273
1014	0.0392586
1026	0.0298045
1038	0.0265997
1050	0.0285225
1062	0.0464693
1074	0.0514367
1086	0.0376562
1098	0.0496741
1110	0.104796
1122	0.253338
1134	0.220809
1146	0.0802797
1158	0.0612113
1170	0.0530391
1182	0.106879
1194	0.100149
1206	0.0382971
1218	0.0209913
1230	0.0378164
1242	0.128512
1254	0.197094
1266	0.079799
1278	0.1205
1290	0.0865291
1302	0.0267599
1314	0.04022
1326	0.104316
1338	0.208311
1350	0.12707
1362	0.0725883
1374	0.0514367
1386	0.137165
1398	0.168571
1410	0.0833243
1422	0.0389381
1434	0.047591
1446	0.0993482
1458	0.104796
1470	0.0421429
1482	0.0325285
1494	0.0336502
1506	0.0386176
1518	0.0429441
1530	0.0551222
1542	0.0716268
1554	0.0980663
1566	0.231225
1578	0.620766
1590	0.783569
1602	0.33506
1614	0.0975856
1626	0.0501548
1638	0.0274009
1650	0.0290033
1662	0.0410212
1674	0.0765942
1686	0.165527
1698	1.08322
1710	1.51105
1722	0.182352
1734	0.109764
1746	0.0626534
1758	0.0365345
1770	0.039579
1782	0.0350923
1794	0.0205106
1806	0.0171456
1818	0.0205106
1830	0.0237154
1842	0.0158637
1854	0.0149022
1866	0.0253178
1878	0.0190684
1890	0.0208311
1902	0.0177865
1914	0.00881314
1926	0.0153829
1938	0.0192287
1950	0.00737099
1962	0.00624932
1974	0.00544813
1986	0.00400598
1998	0.00384574
2010	0.00496741
2022	0.00673004
2034	0.00480717
2046	0.00384574
2058	0.00432645
2070	0.00624932
2082	0.0065698
2094	0.00560837
2106	0.00480717
2118	0.00528789
2130	0.00496741
2142	0.00496741
2154	0.00496741
2166	0.00432645
2178	0.00384574
2190	0.00432645
2202	0.00464693
2214	0.00352526
2226	0.0036855
2238	0.00432645
2250	0.00496741
2262	0.0057686
2274	0.00592884
2286	0.00737099
2298	0.0104155
2310	0.0105758
2322	0.00737099
2334	0.00464693
2346	0.00560837
2358	0.00496741
2370	0.00352526
2382	0.00640956
2394	0.00432645
2406	0.00464693
2418	0.00496741
2430	0.00528789
2442	0.00624932
2454	0.00737099
2466	0.00817219
2478	0.00833243
2490	0.00849267
2502	0.00833243
2514	0.00865291
2526	0.00913362
2538	0.00737099
2550	0.00608908
2562	0.00592884
2574	0.00608908
2586	0.00737099
2598	0.00913362
2610	0.0104155
2622	0.0110565
2634	0.00881314
2646	0.00881314
2658	0.00993482
2670	0.0120179
2682	0.0134601
2694	0.0131396
2706	0.0176263
2718	0.0371754
2730	0.0713064
2742	0.0640956
2754	0.0562439
2766	0.0964639
2778	0.110885
2790	0.0647366
2802	0.0477512
2814	0.0822026
2826	0.163764
2838	0.244845
2850	0.169052
2862	0.0519174
2874	0.0384574
2886	0.0344514
2898	0.0283623
2910	0.0290033
2922	0.0522379
2934	0.083164
2946	0.0666594
2958	0.0432645
2970	0.0285225
2982	0.0240359
2994	0.0256382
3006	0.0256382
3018	0.024837
3030	0.0341309
3042	0.0535198
3054	0.0668197
3066	0.0884519
3078	0.115212
3090	0.0814014
3102	0.0538403
3114	0.0171456
3126	0.00801195
3138	0.00624932
3150	0.00673004
3162	0.00673004
3174	0.00608908
3186	0.00608908
3198	0.00496741
3210	0.00448669
3222	0.00496741
3234	0.00464693
3246	0.00448669
3258	0.00448669
3270	0.00528789
3282	0.00592884
3294	0.0057686
3306	0.0057686
3318	0.00608908
3330	0.00528789
3342	0.00464693
3354	0.00560837
3366	0.00769147
3378	0.0155432
3390	0.0291635
3402	0.0173058
3414	0.00592884
3426	0.00464693
3438	0.00560837
3450	0.00512765
3462	0.00512765
3474	0.00480717
3486	0.00416621
3498	0.00512765
3510	0.00400598
3522	0.00464693
3534	0.00496741
3546	0.00496741
3558	0.00512765
3570	0.0057686
3582	0.00737099
3594	0.00512765
3606	0.00528789
3618	0.00416621
3630	0.00528789
3642	0.00544813
3654	0.00464693
3666	0.00560837
3678	0.00384574
3690	0.00528789
3702	0.00480717
3714	0.00512765
3726	0.00528789
3738	0.00560837
3750	0.00400598
3762	0.00512765
3774	0.00496741
3786	0.00560837
3798	0.00432645
3810	0.00464693
3822	0.00400598
3834	0.00384574
3846	0.00480717
3858	0.00352526
3870	0.00384574
3882	0.00464693
3894	0.00608908
3906	0.00592884
3918	0.00608908
3930	0.00608908
3942	0.00801195
3954	0.00705052
3966	0.00624932
