Infrared Spectrum: Benzothiazole, 2-methyl-
Formula: C 8 H 7 N S
CAS: 120-75-2
Origin: Sadtler Research Labs Under US-EPA Contract
1/CM	ABSORBANCE
450	0.00817685
462	0.0266606
474	0.0327761
486	0.00831427
498	0.0180715
510	0.0214385
522	0.0156666
534	0.0263858
546	0.0202016
558	0.0142236
570	0.0160788
582	0.0149794
594	0.015804
606	0.0193084
618	0.028722
630	0.13186
642	0.226822
654	0.144847
666	0.0254925
678	0.0136739
690	0.0155979
702	0.0661706
714	0.184357
726	0.320821
738	0.271966
750	0.370569
762	0.46182
774	0.159345
786	0.0263171
798	0.015323
810	0.0163537
822	0.017247
834	0.0181402
846	0.0373799
858	0.0795697
870	0.0950988
882	0.0453506
894	0.0235686
906	0.0182777
918	0.0263858
930	0.0276913
942	0.0278975
954	0.0204078
966	0.0285846
978	0.052909
990	0.0736603
1002	0.0887772
1014	0.132685
1026	0.0558637
1038	0.0384106
1050	0.0629411
1062	0.147389
1074	0.140175
1086	0.0340129
1098	0.0264545
1110	0.0268668
1122	0.0913883
1134	0.122447
1146	0.155979
1158	0.315874
1170	0.453575
1182	0.413309
1194	0.157902
1206	0.0318141
1218	0.0199268
1230	0.0654148
1242	0.251215
1254	0.113995
1266	0.0500231
1278	0.122996
1290	0.12602
1302	0.155566
1314	0.130967
1326	0.0391664
1338	0.0285846
1350	0.0318141
1362	0.0452132
1374	0.0669265
1386	0.0731106
1398	0.0399223
1410	0.0434266
1422	0.126569
1434	0.420798
1446	0.352635
1458	0.162025
1470	0.110559
1482	0.0800506
1494	0.097435
1506	0.126432
1518	0.195076
1530	0.386098
1542	0.353803
1554	0.123958
1566	0.0776457
1578	0.0547643
1590	0.0521532
1602	0.0561385
1614	0.0295466
1626	0.0162163
1638	0.0145672
1650	0.0138113
1662	0.0184838
1674	0.0139487
1686	0.029203
1698	0.0350436
1710	0.0151856
1722	0.0127119
1734	0.012918
1746	0.00865784
1758	0.0104444
1770	0.0241183
1782	0.0364866
1794	0.0268668
1806	0.0197893
1818	0.0271416
1830	0.0136052
1842	0.00666516
1854	0.00797071
1866	0.0193771
1878	0.0121622
1890	0.0175218
1902	0.0281036
1914	0.0186212
1926	0.0168347
1938	0.0322951
1950	0.0131929
1962	0.00432892
1974	0.00439763
1986	0.00432892
1998	0.00522219
2010	0.00625288
2022	0.00652774
2034	0.00508476
2046	0.00412278
2058	0.00329822
2070	0.00336694
2082	0.00364179
2094	0.00412278
2106	0.00439763
2118	0.0031608
2130	0.00350436
2142	0.00494734
2154	0.00439763
2166	0.0052909
2178	0.00645902
2190	0.0052909
2202	0.00336694
2214	0.00254238
2226	0.00343565
2238	0.00515348
2250	0.00694001
2262	0.00542833
2274	0.00439763
2286	0.00501605
2298	0.00563447
2310	0.00707744
2322	0.0068713
2334	0.00453506
2346	0.00494734
2358	0.00501605
2370	0.00611546
2382	0.00535961
2394	0.00611546
2406	0.00707744
2418	0.00714615
2430	0.00872655
2442	0.00728358
2454	0.00597803
2466	0.00666516
2478	0.00783328
2490	0.00769586
2502	0.0063216
2514	0.00748972
2526	0.00886398
2538	0.00879526
2550	0.00941368
2562	0.00934497
2574	0.00755843
2586	0.00831427
2598	0.00666516
2610	0.0102382
2622	0.00927626
2634	0.00419149
2646	0.00377922
2658	0.00577189
2670	0.00597803
2682	0.00460377
2694	0.00480991
2706	0.00604674
2718	0.00707744
2730	0.0084517
2742	0.00996338
2754	0.00611546
2766	0.00570318
2778	0.00611546
2790	0.0052909
2802	0.00508476
2814	0.00666516
2826	0.00803942
2838	0.0104444
2850	0.0182089
2862	0.0429456
2874	0.0392351
2886	0.0241183
2898	0.0252864
2910	0.0291343
2922	0.0373112
2934	0.138457
2946	0.147389
2958	0.0448696
2970	0.0438389
2982	0.0386854
2994	0.0370363
3006	0.0465874
3018	0.0528403
3030	0.0587496
3042	0.0948927
3054	0.0935184
3066	0.193358
3078	0.346451
3090	0.176249
3102	0.0513973
3114	0.0292717
3126	0.0327074
3138	0.0176592
3150	0.00721487
3162	0.00535961
3174	0.00432892
3186	0.00453506
3198	0.00432892
3210	0.00377922
3222	0.00281723
3234	0.00377922
3246	0.00384793
3258	0.00467248
3270	0.00453506
3282	0.00487862
3294	0.00391664
3306	0.00309209
3318	0.00384793
3330	0.00446635
3342	0.00357308
3354	0.0031608
3366	0.00377922
3378	0.00412278
3390	0.00357308
3402	0.00405407
3414	0.00329822
3426	0.00364179
3438	0.0037105
3450	0.00336694
3462	0.00446635
3474	0.00439763
3486	0.00247367
3498	0.0031608
3510	0.00384793
3522	0.00398535
3534	0.0031608
3546	0.00412278
3558	0.00494734
3570	0.00611546
3582	0.00563447
3594	0.00508476
3606	0.00460377
3618	0.00343565
3630	0.00350436
3642	0.00432892
3654	0.00391664
3666	0.0037105
3678	0.00329822
3690	0.0037105
3702	0.00453506
3714	0.0068713
3726	0.00494734
3738	0.00625288
3750	0.00391664
3762	0.00343565
3774	0.00721487
3786	0.00584061
3798	0.00494734
3810	0.00508476
3822	0.00508476
3834	0.00419149
3846	0.00432892
3858	0.00570318
3870	0.00577189
3882	0.00384793
3894	0.00556575
3906	0.00639031
3918	0.00769586
3930	0.00961982
3942	0.00961982
3954	0.00618417
3966	0.00577189
