Infrared Spectrum: Benzaldehyde, 3,4-dimethoxy-
Formula: C 9 H 10 O 3
CAS: 120-14-9
Origin: Sadtler Research Labs Under US-EPA Contract
1/CM	ABSORBANCE
450	0.0886375
462	0.0106921
474	0.0171074
486	0.0160382
498	0.00780523
510	0.0225603
522	0.00481145
534	0.017535
546	0.0198873
558	0.0170004
570	0.0248057
582	0.0435168
594	0.0398815
606	0.0313279
618	0.0416992
630	0.0543159
642	0.0464037
654	0.0118682
666	0.00513221
678	0.00128305
690	0.000320763
702	0.00245918
714	0.0238434
726	0.100292
738	0.0861783
750	0.0503598
762	0.0456553
774	0.0777316
786	0.0701402
798	0.0641526
810	0.0875683
822	0.0748447
834	0.0527121
846	0.0363531
858	0.0302586
870	0.0382777
882	0.0300448
894	0.0228811
906	0.0167866
918	0.0258749
930	0.0316486
942	0.0312209
954	0.0290825
966	0.0223465
978	0.0233088
990	0.0327178
1002	0.0628695
1014	0.14413
1026	0.266233
1038	0.281844
1050	0.111091
1062	0.0369947
1074	0.0244849
1086	0.0292964
1098	0.0521774
1110	0.140601
1122	0.277674
1134	0.328675
1146	0.319694
1158	0.307719
1170	0.124135
1182	0.0749516
1194	0.0824361
1206	0.0875683
1218	0.128626
1230	0.230094
1242	0.358827
1254	0.442974
1266	0.803191
1278	1.05103
1290	0.561121
1302	0.25073
1314	0.167224
1326	0.109915
1338	0.0857506
1350	0.0505736
1362	0.0388123
1374	0.07709
1386	0.17364
1398	0.116865
1410	0.0983673
1422	0.203578
1434	0.124884
1446	0.127984
1458	0.17642
1470	0.210207
1482	0.127236
1494	0.185508
1506	0.471522
1518	0.401916
1530	0.10489
1542	0.0469383
1554	0.0445861
1566	0.0759139
1578	0.194275
1590	0.351022
1602	0.409294
1614	0.178451
1626	0.0472591
1638	0.0240572
1650	0.0213842
1662	0.0241641
1674	0.0413784
1686	0.08126
1698	0.180055
1710	0.651363
1722	0.822329
1734	0.172036
1746	0.0384916
1758	0.0192458
1770	0.0137928
1782	0.0110129
1794	0.010799
1806	0.0086606
1818	0.00652218
1830	0.00620142
1842	0.00481145
1854	0.00641526
1866	0.00951597
1878	0.00972981
1890	0.00759139
1902	0.00577373
1914	0.0045976
1926	0.00342147
1938	0.00310071
1950	0.00342147
1962	0.00363531
1974	0.00513221
1986	0.00684294
1998	0.00962289
2010	0.0117613
2022	0.0128305
2034	0.0125098
2046	0.012189
2058	0.012189
2070	0.00983673
2082	0.00694987
2094	0.00449068
2106	0.00352839
2118	0.00192458
2130	0.000855368
2142	0.000748447
2154	0.000962289
2166	0.000641526
2178	0.00117613
2190	0.00149689
2202	0.00171074
2214	0.00171074
2226	0.00224534
2238	0.0025661
2250	0.00245918
2262	0.00299379
2274	0.00438376
2286	0.00384916
2298	0.00299379
2310	0.00160381
2322	0
2334	0
2346	0
2358	0
2370	0
2382	0.000320763
2394	0
2406	0.000427684
2418	0.000748447
2430	0.000748447
2442	0.000962289
2454	0.00117613
2466	0.00128305
2478	0.00213842
2490	0.00288687
2502	0.00331455
2514	0.0045976
2526	0.00598758
2538	0.00791215
2550	0.00951597
2562	0.0103713
2574	0.0113336
2586	0.012189
2598	0.0140067
2610	0.0143274
2622	0.013472
2634	0.0118682
2646	0.0128305
2658	0.0129374
2670	0.0125098
2682	0.0161451
2694	0.0315417
2706	0.0817946
2718	0.137821
2730	0.121676
2742	0.066291
2754	0.0443722
2766	0.0437307
2778	0.0524982
2790	0.071744
2802	0.115795
2814	0.140494
2826	0.106493
2838	0.10799
2850	0.132796
2862	0.0780523
2874	0.0526051
2886	0.0546366
2898	0.0624419
2910	0.0826499
2922	0.104248
2934	0.122318
2946	0.187433
2958	0.183156
2970	0.145306
2982	0.0917382
2994	0.0778385
3006	0.125204
3018	0.133224
3030	0.0513221
3042	0.0393469
3054	0.0358185
3066	0.03785
3078	0.0394538
3090	0.0286548
3102	0.0184973
3114	0.0136859
3126	0.00972981
3138	0.00673602
3150	0.00577373
3162	0.00502529
3174	0.00545297
3186	0.00502529
3198	0.004063
3210	0.00320763
3222	0.0025661
3234	0.00138997
3246	0.0020315
3258	0.00149689
3270	0.000962289
3282	0.00171074
3294	0.00149689
3306	0.00160381
3318	0.00117613
3330	0.00128305
3342	0.00149689
3354	0.00117613
3366	0.00235226
3378	0.00267302
3390	0.00577373
3402	0.010799
3414	0.0127236
3426	0.00759139
3438	0.00449068
3450	0.00277995
3462	0.00235226
3474	0.0020315
3486	0.00138997
3498	0.0025661
3510	0.00192458
3522	0.00213842
3534	0.00224534
3546	0.00245918
3558	0.00149689
3570	0.00213842
3582	0.0025661
3594	0.00181766
3606	0.00277995
3618	0.00213842
3630	0.00235226
3642	0.000748447
3654	0.000641526
3666	0.00106921
3678	0.00235226
3690	0.00224534
3702	0.00374224
3714	0.00395608
3726	0.00288687
3738	0.00352839
3750	0.00416992
3762	0.00395608
3774	0.00449068
3786	0.00438376
3798	0.00438376
3810	0.00577373
3822	0.00384916
3834	0.00545297
3846	0.00491837
3858	0.00534605
3870	0.00491837
3882	0.00577373
3894	0.00502529
3906	0.004063
3918	0.00598758
3930	0.00523913
3942	0.00555989
3954	0.00438376
3966	0.00588066
