Infrared Spectrum: Indole
Formula: C 8 H 7 N
CAS: 120-72-9
Origin: Sadtler Research Labs Under US-EPA Contract
1/CM	ABSORBANCE
450	0
462	0.0205679
474	0.0276133
486	0.0269315
498	0.023977
510	0.0269315
522	0.0172725
534	0.0265906
546	0.0199998
558	0.0253406
570	0.0352269
582	0.0521585
594	0.0888626
606	0.0937489
618	0.0614765
630	0.0386359
642	0.0379541
654	0.0270451
666	0.0199998
678	0.0409086
690	0.0794309
702	0.164089
714	0.43329
726	0.611924
738	1.13635
750	0.754309
762	0.461472
774	0.195907
786	0.189884
798	0.23477
810	0.274769
822	0.26852
834	0.214429
846	0.138067
858	0.0760218
870	0.055113
882	0.062272
894	0.15943
906	0.18318
918	0.129998
930	0.0857944
942	0.056363
954	0.0421586
966	0.0412495
978	0.0432949
990	0.0581811
1002	0.0820445
1014	0.081249
1026	0.0582948
1038	0.0380677
1050	0.0670446
1062	0.11659
1074	0.176134
1086	0.159884
1098	0.110226
1110	0.0689764
1122	0.0596584
1134	0.0570448
1146	0.0539766
1158	0.0519312
1170	0.0518176
1182	0.0522721
1194	0.0649992
1206	0.0569311
1218	0.0495449
1230	0.0770445
1242	0.0906807
1254	0.117271
1266	0.193293
1278	0.201361
1290	0.0680674
1302	0.044204
1314	0.116817
1326	0.207043
1338	0.27761
1350	0.197384
1362	0.0947716
1374	0.0369314
1386	0.0703401
1398	0.189316
1410	0.22102
1422	0.126248
1434	0.0882944
1446	0.207043
1458	0.244429
1470	0.159884
1482	0.103749
1494	0.0767036
1506	0.0760218
1518	0.0739764
1530	0.0651129
1542	0.0682946
1554	0.0944307
1566	0.106249
1578	0.0847717
1590	0.0605675
1602	0.0562493
1614	0.0743173
1626	0.0692037
1638	0.0354541
1650	0.0413631
1662	0.0397723
1674	0.0427268
1686	0.0594311
1698	0.0565902
1710	0.0413631
1722	0.0277269
1734	0.0228406
1746	0.0320451
1758	0.0346587
1770	0.0326132
1782	0.0276133
1794	0.029886
1806	0.0255679
1818	0.0178407
1830	0.0199998
1842	0.0244315
1854	0.0274997
1866	0.0302269
1878	0.0347723
1890	0.0313633
1902	0.028636
1914	0.0356814
1926	0.0299996
1938	0.0162498
1950	0.0160225
1962	0.0164771
1974	0.0154544
1986	0.0151135
1998	0.0156816
2010	0.0159089
2022	0.014318
2034	0.0138635
2046	0.0137498
2058	0.0137498
2070	0.0135226
2082	0.0142044
2094	0.0140907
2106	0.014318
2118	0.0156816
2130	0.0164771
2142	0.0160225
2154	0.0161362
2166	0.0161362
2178	0.0154544
2190	0.014318
2202	0.014318
2214	0.0156816
2226	0.0169316
2238	0.0171589
2250	0.0164771
2262	0.0157953
2274	0.0142044
2286	0.0117044
2298	0.00715901
2310	0.00181816
2322	0.00295451
2334	0.00772718
2346	0.00397723
2358	0.00772718
2370	0.00806809
2382	0.00761355
2394	0.0148862
2406	0.0157953
2418	0.0149998
2430	0.0138635
2442	0.0140907
2454	0.0159089
2466	0.0196589
2478	0.0243179
2490	0.0261361
2502	0.0221588
2514	0.0187498
2526	0.0170453
2538	0.0160225
2550	0.0159089
2562	0.0162498
2574	0.0156816
2586	0.0177271
2598	0.0196589
2610	0.0176134
2622	0.0151135
2634	0.0151135
2646	0.0167043
2658	0.0167043
2670	0.0160225
2682	0.0146589
2694	0.0135226
2706	0.0129544
2718	0.0134089
2730	0.0139771
2742	0.0122726
2754	0.0101135
2766	0.00897717
2778	0.00897717
2790	0.0090908
2802	0.0104544
2814	0.0105681
2826	0.0104544
2838	0.0113635
2850	0.0127271
2862	0.0131817
2874	0.0120453
2886	0.0111362
2898	0.0117044
2910	0.0139771
2922	0.0152271
2934	0.0177271
2946	0.0194316
2958	0.0206816
2970	0.0219316
2982	0.018977
2994	0.0171589
3006	0.029886
3018	0.0629538
3030	0.110112
3042	0.160339
3054	0.232384
3066	0.308519
3078	0.287724
3090	0.144316
3102	0.0802263
3114	0.0421586
3126	0.0485221
3138	0.0537494
3150	0.0365905
3162	0.00602266
3174	0.00295451
3186	0.00340905
3198	0.00306814
3210	0.00306814
3222	0.00352269
3234	0.00374996
3246	0.00386359
3258	0.00249997
3270	0.0022727
3282	0.00238634
3294	0.00329542
3306	0.00329542
3318	0.00386359
3330	0.00363632
3342	0.00272724
3354	0.00386359
3366	0.00465904
3378	0.00374996
3390	0.00431813
3402	0.00499994
3414	0.00534085
3426	0.00818172
3438	0.0113635
3450	0.0182952
3462	0.0343178
3474	0.0554539
3486	0.109999
3498	0.174543
3510	0.362609
3522	0.374541
3534	0.278974
3546	0.0412495
3558	0.00818172
3570	0.00784082
3582	0.0305678
3594	0.0107953
3606	0.00920444
3618	0.00818172
3630	0.00886353
3642	0.0106817
3654	0.00977261
3666	0.0139771
3678	0.00829536
3690	0.011818
3702	0.00920444
3714	0.0064772
3726	0.0064772
3738	0.00840899
3750	0.018068
3762	0.00613629
3774	0.00738628
3786	0.00931807
3798	0.0170453
3810	0.0122726
3822	0.0151135
3834	0.0176134
3846	0.00943171
3858	0.0120453
3870	0.0195452
3882	0.0186361
3894	0.0201134
3906	0.0145453
3918	0.0209088
3930	0.0220452
3942	0.0221588
3954	0.0188634
3966	0.0197725
