Infrared Spectrum: 1,4-Benzenedicarboxylic acid, dimethyl ester
Formula: C 10 H 10 O 4
CAS: 120-61-6
Origin: Sadtler Research Labs Under US-EPA Contract
1/CM	ABSORBANCE
450	0
462	0.0074646
474	0.0147378
486	0.0275616
498	0.0308154
510	0.0302412
522	0.0336864
534	0.0281358
546	0.0262218
558	0.0227766
570	0.022011
582	0.0237336
594	0.0223938
606	0.022011
618	0.0222024
630	0.0225852
642	0.0218196
654	0.0206712
666	0.0199056
678	0.0227766
690	0.0223938
702	0.0243078
714	0.041151
726	0.146421
738	0.213985
750	0.079431
762	0.0321552
774	0.0275616
786	0.0273702
798	0.0434478
810	0.100294
822	0.0451704
834	0.0438306
846	0.0356004
858	0.042108
870	0.0562716
882	0.0400026
894	0.0223938
906	0.0206712
918	0.0225852
930	0.0216282
942	0.0222024
954	0.0290928
966	0.0514866
978	0.048807
990	0.0271788
1002	0.023925
1014	0.087087
1026	0.209774
1038	0.0327294
1050	0.0327294
1062	0.0505296
1074	0.0926376
1086	0.169198
1098	0.507976
1110	0.829719
1122	0.466633
1134	0.197716
1146	0.128429
1158	0.0838332
1170	0.0778998
1182	0.101251
1194	0.145464
1206	0.0958914
1218	0.08613
1230	0.234274
1242	0.528264
1254	0.522713
1266	1.51838
1278	1.57809
1290	0.476203
1302	0.224895
1314	0.146421
1326	0.0993366
1338	0.065076
1350	0.0514866
1362	0.0524436
1374	0.0472758
1386	0.0365574
1398	0.052635
1410	0.110821
1422	0.0599082
1434	0.146995
1446	0.192931
1458	0.049764
1470	0.046893
1482	0.0378972
1494	0.0298584
1506	0.042108
1518	0.0300498
1530	0.0367488
1542	0.0244992
1554	0.0244992
1566	0.0311982
1578	0.0413424
1590	0.0244992
1602	0.0243078
1614	0.0227766
1626	0.018183
1638	0.0195228
1650	0.0160776
1662	0.0212454
1674	0.0233508
1686	0.0271788
1698	0.0438306
1710	0.090915
1722	0.12307
1734	0.380695
1746	1.32525
1758	0.62205
1770	0.122305
1782	0.0654588
1794	0.046893
1806	0.035409
1818	0.0317724
1830	0.0189486
1842	0.0149292
1854	0.0147378
1866	0.0103356
1878	0.0097614
1890	0.00957
1902	0.0128238
1914	0.015312
1926	0.0204798
1938	0.0250734
1950	0.0195228
1962	0.0137808
1974	0.0097614
1986	0.0091872
1998	0.0097614
2010	0.00957
2022	0.0088044
2034	0.0103356
2046	0.010527
2058	0.0139722
2070	0.0195228
2082	0.0199056
2094	0.0156948
2106	0.0132066
2118	0.0097614
2130	0.0078474
2142	0.0068904
2154	0.0061248
2166	0.0063162
2178	0.0061248
2190	0.0055506
2202	0.0065076
2214	0.0068904
2226	0.0065076
2238	0.0074646
2250	0.0078474
2262	0.0065076
2274	0.006699
2286	0.006699
2298	0.0070818
2310	0.0070818
2322	0.0070818
2334	0.0068904
2346	0.007656
2358	0.0072732
2370	0.0074646
2382	0.0078474
2394	0.0055506
2406	0.005742
2418	0.0044022
2430	0.003828
2442	0.003828
2454	0.0036366
2466	0.0036366
2478	0.0040194
2490	0.0034452
2502	0.0036366
2514	0.0045936
2526	0.004785
2538	0.005742
2550	0.0065076
2562	0.0053592
2574	0.0055506
2586	0.0059334
2598	0.0049764
2610	0.0051678
2622	0.0045936
2634	0.0044022
2646	0.0042108
2658	0.0042108
2670	0.0036366
2682	0.003828
2694	0.0036366
2706	0.0040194
2718	0.0045936
2730	0.003828
2742	0.003828
2754	0.0040194
2766	0.0040194
2778	0.004785
2790	0.0053592
2802	0.0055506
2814	0.0059334
2826	0.0080388
2838	0.014355
2850	0.0424908
2862	0.0290928
2874	0.0149292
2886	0.0178002
2898	0.0266046
2910	0.0336864
2922	0.03828
2934	0.0290928
2946	0.0436392
2958	0.184127
2970	0.153503
2982	0.036366
2994	0.0422994
3006	0.0543576
3018	0.0453618
3030	0.0436392
3042	0.0329208
3054	0.022011
3066	0.0204798
3078	0.0179916
3090	0.017226
3102	0.01914
3114	0.0149292
3126	0.0107184
3138	0.008613
3150	0.0072732
3162	0.0061248
3174	0.0059334
3186	0.0055506
3198	0.004785
3210	0.0042108
3222	0.003828
3234	0.0040194
3246	0.003828
3258	0.003828
3270	0.0040194
3282	0.0042108
3294	0.003828
3306	0.0042108
3318	0.003828
3330	0.0040194
3342	0.0042108
3354	0.0042108
3366	0.004785
3378	0.0036366
3390	0.0034452
3402	0.0034452
3414	0.0036366
3426	0.0034452
3438	0.0042108
3450	0.0045936
3462	0.007656
3474	0.0132066
3486	0.0103356
3498	0.0049764
3510	0.0040194
3522	0.0040194
3534	0.0042108
3546	0.0051678
3558	0.0044022
3570	0.0051678
3582	0.004785
3594	0.0040194
3606	0.0042108
3618	0.004785
3630	0.0040194
3642	0.0042108
3654	0.0042108
3666	0.0040194
3678	0.0040194
3690	0.0045936
3702	0.0045936
3714	0.0044022
3726	0.0049764
3738	0.0042108
3750	0.0034452
3762	0.0036366
3774	0.0036366
3786	0.0042108
3798	0.0034452
3810	0.0034452
3822	0.0044022
3834	0.0040194
3846	0.0044022
3858	0.0034452
3870	0.0034452
3882	0.0044022
3894	0.0034452
3906	0.0049764
3918	0.0045936
3930	0.0049764
3942	0.0055506
3954	0.0059334
3966	0.0051678
