Infrared Spectrum: Benzene, 1,2,4-trichloro-
Formula: C 6 H 3 Cl 3
CAS: 120-82-1
Origin: Sadtler Research Labs Under US-EPA Contract
1/CM	ABSORBANCE
450	0
462	0.0580566
474	0.0420606
486	0.049206
498	0.0462829
510	0.0430349
522	0.0439281
534	0.0459581
546	0.0665012
558	0.0792492
570	0.196986
582	0.168405
594	0.0583814
606	0.0455521
618	0.041817
630	0.0417358
642	0.0435221
654	0.0453085
666	0.0476632
678	0.0892366
690	0.0519667
702	0.0468512
714	0.0427913
726	0.0453085
738	0.0438469
750	0.0431973
762	0.0480692
774	0.0660952
786	0.0675567
798	0.109211
810	0.332668
822	0.355566
834	0.0692619
846	0.0502616
858	0.0751081
870	0.152327
882	0.0855827
894	0.0418982
906	0.0421418
918	0.0431973
930	0.041005
942	0.0417358
954	0.041411
966	0.0413298
978	0.0429537
990	0.0440905
1002	0.0436845
1014	0.0466889
1026	0.102066
1038	0.25415
1050	0.0976
1062	0.0531035
1074	0.0513171
1086	0.132515
1098	0.395191
1110	0.154682
1122	0.212333
1134	0.15184
1146	0.104177
1158	0.0841211
1170	0.0667448
1182	0.0473384
1194	0.047176
1206	0.0428725
1218	0.0423854
1230	0.0512359
1242	0.0889118
1254	0.0698303
1266	0.0496932
1278	0.040599
1290	0.0398682
1302	0.0407614
1314	0.0410862
1326	0.0421418
1338	0.0423854
1350	0.0614669
1362	0.0997111
1374	0.123827
1386	0.10304
1398	0.0583814
1410	0.0733218
1422	0.143152
1434	0.0830656
1446	0.12878
1458	0.730538
1470	0.356216
1482	0.063984
1494	0.0747834
1506	0.056189
1518	0.0401118
1530	0.0371887
1542	0.0490436
1554	0.0918349
1566	0.163939
1578	0.145263
1590	0.0701551
1602	0.0516419
1614	0.0470948
1626	0.0470948
1638	0.041817
1650	0.0392998
1662	0.0418982
1674	0.0414922
1686	0.0364579
1698	0.0371075
1710	0.0403554
1722	0.041817
1734	0.050018
1746	0.0512359
1758	0.0416546
1770	0.0395434
1782	0.0396246
1794	0.0380819
1806	0.0400306
1818	0.0409238
1830	0.0387314
1842	0.0383255
1854	0.0392998
1866	0.0398682
1878	0.048394
1890	0.0484752
1902	0.0406802
1914	0.0401118
1926	0.0395434
1938	0.0392998
1950	0.0392998
1962	0.0399494
1974	0.039381
1986	0.0388126
1998	0.0382443
2010	0.0384067
2022	0.0380007
2034	0.0385691
2046	0.0380819
2058	0.0381631
2070	0.0379195
2082	0.0378383
2094	0.0376759
2106	0.0378383
2118	0.0379195
2130	0.0386502
2142	0.0390562
2154	0.0384067
2166	0.0379195
2178	0.0380007
2190	0.0380819
2202	0.0378383
2214	0.0380819
2226	0.0376759
2238	0.0379195
2250	0.0381631
2262	0.0384067
2274	0.0391374
2286	0.040193
2298	0.0390562
2310	0.0388126
2322	0.0392998
2334	0.0396246
2346	0.0397058
2358	0.040599
2370	0.0391374
2382	0.038975
2394	0.0384067
2406	0.0381631
2418	0.0381631
2430	0.0375947
2442	0.0374323
2454	0.0371075
2466	0.0371075
2478	0.0373511
2490	0.0377571
2502	0.0384067
2514	0.0383255
2526	0.0379195
2538	0.0372699
2550	0.0369451
2562	0.0372699
2574	0.0371887
2586	0.0374323
2598	0.0378383
2610	0.0378383
2622	0.0376759
2634	0.0375947
2646	0.0375135
2658	0.0379195
2670	0.0376759
2682	0.0371887
2694	0.0375947
2706	0.0378383
2718	0.0367827
2730	0.0358895
2742	0.0357271
2754	0.0355647
2766	0.0360519
2778	0.0370263
2790	0.0392998
2802	0.0400306
2814	0.0394622
2826	0.0371075
2838	0.0367827
2850	0.0362143
2862	0.0366203
2874	0.0363767
2886	0.0360519
2898	0.0356459
2910	0.0362143
2922	0.0358083
2934	0.0360519
2946	0.0371887
2958	0.0368639
2970	0.0368639
2982	0.0367015
2994	0.0367015
3006	0.0369451
3018	0.0371887
3030	0.0366203
3042	0.0369451
3054	0.0368639
3066	0.0392998
3078	0.0453897
3090	0.042223
3102	0.0374323
3114	0.0373511
3126	0.0365391
3138	0.0372699
3150	0.0371887
3162	0.0369451
3174	0.0369451
3186	0.0368639
3198	0.0369451
3210	0.0369451
3222	0.0369451
3234	0.0369451
3246	0.0366203
3258	0.0367015
3270	0.0367827
3282	0.0369451
3294	0.0372699
3306	0.0371075
3318	0.0371887
3330	0.0367015
3342	0.0369451
3354	0.0369451
3366	0.0369451
3378	0.0367827
3390	0.0370263
3402	0.0371075
3414	0.0370263
3426	0.0368639
3438	0.0371887
3450	0.0365391
3462	0.0367015
3474	0.0367827
3486	0.0369451
3498	0.0366203
3510	0.0368639
3522	0.0365391
3534	0.0373511
3546	0.0367827
3558	0.0374323
3570	0.0364579
3582	0.0367015
3594	0.0365391
3606	0.0367827
3618	0.0367015
3630	0.0358895
3642	0.0368639
3654	0.0380819
3666	0.0367015
3678	0.0371887
3690	0.0367827
3702	0.0363767
3714	0.0365391
3726	0.0355647
3738	0.0373511
3750	0.0352399
3762	0.0370263
3774	0.0383255
3786	0.0370263
3798	0.0375947
3810	0.0349963
3822	0.0364579
3834	0.0370263
3846	0.0362955
3858	0.0367015
3870	0.0362955
3882	0.0371075
3894	0.0384067
3906	0.0367827
3918	0.0376759
3930	0.0376759
3942	0.0380819
3954	0.0378383
3966	0.0367015
