Infrared Spectrum: Phenol, 2,4-bis(1,1-dimethylpropyl)-
Formula: C 16 H 26 O
CAS: 120-95-6
Origin: Sadtler Research Labs Under US-EPA Contract
1/CM	ABSORBANCE
450	0.0413317
462	0.0230722
474	0.0140132
486	0.0396332
498	0.0740291
510	0.0639792
522	0.070632
534	0.0550618
546	0.040624
558	0.0508154
570	0.0505323
582	0.0629884
594	0.0418979
606	0.0358114
618	0.0351037
630	0.0372269
642	0.0622807
654	0.0581758
666	0.0550618
678	0.0358114
690	0.034679
702	0.0560526
714	0.0658194
726	0.0363776
738	0.037793
750	0.0351037
762	0.0392085
774	0.0995075
786	0.120456
798	0.134045
810	0.188965
822	0.104745
834	0.0520893
846	0.0360945
858	0.0335466
870	0.0423226
882	0.0586005
894	0.058742
906	0.0407655
918	0.0420395
930	0.0438796
942	0.0392085
954	0.0319896
966	0.0329805
978	0.034679
990	0.0435965
1002	0.0673764
1014	0.0864852
1026	0.0520893
1038	0.0569019
1050	0.0690749
1062	0.072189
1074	0.105736
1086	0.212037
1098	0.0743122
1110	0.069358
1122	0.0842205
1134	0.10248
1146	0.2269
1158	0.225343
1170	0.333343
1182	0.35047
1194	0.234826
1206	0.185851
1218	0.175377
1230	0.16193
1242	0.287057
1254	0.291162
1266	0.128949
1278	0.150464
1290	0.148907
1302	0.182596
1314	0.130931
1326	0.196609
1338	0.164195
1350	0.0767185
1362	0.144803
1374	0.188258
1386	0.247
1398	0.229448
1410	0.210905
1422	0.073746
1434	0.0686503
1446	0.105453
1458	0.199157
1470	0.2763
1482	0.298098
1494	0.30107
1506	0.367031
1518	0.12258
1530	0.0645454
1542	0.0503907
1554	0.0353868
1566	0.031565
1578	0.034679
1590	0.0414733
1602	0.055628
1614	0.0503907
1626	0.0288756
1638	0.0253369
1650	0.0251954
1662	0.0254785
1674	0.0281679
1686	0.0220813
1698	0.0205243
1710	0.0178349
1722	0.0193919
1734	0.0219398
1746	0.0186842
1758	0.0192504
1770	0.0199581
1782	0.0176934
1794	0.0169856
1806	0.0167025
1818	0.0169856
1830	0.0168441
1842	0.0175518
1854	0.0205243
1866	0.0167025
1878	0.0154286
1890	0.0157117
1902	0.0128808
1914	0.0123146
1926	0.0113238
1938	0.0113238
1950	0.0113238
1962	0.0108991
1974	0.0096252
1986	0.00905901
1998	0.00849282
2010	0.00863437
2022	0.00905901
2034	0.0093421
2046	0.0100498
2058	0.0096252
2070	0.00835127
2082	0.00764354
2094	0.00707735
2106	0.00679426
2118	0.00679426
2130	0.0069358
2142	0.00622807
2154	0.00622807
2166	0.00636962
2178	0.00608652
2190	0.00566188
2202	0.00566188
2214	0.00566188
2226	0.00523724
2238	0.00537879
2250	0.00608652
2262	0.00651116
2274	0.00679426
2286	0.00792663
2298	0.00764354
2310	0.00679426
2322	0.00679426
2334	0.00580343
2346	0.00665271
2358	0.00665271
2370	0.00792663
2382	0.0118899
2394	0.0117484
2406	0.0110407
2418	0.0110407
2430	0.010616
2442	0.00990829
2454	0.00990829
2466	0.00905901
2478	0.0101914
2490	0.0111822
2502	0.0107576
2514	0.0101914
2526	0.0104745
2538	0.010616
2550	0.00990829
2562	0.00976674
2574	0.0100498
2586	0.00948365
2598	0.0101914
2610	0.0111822
2622	0.0128808
2634	0.0145793
2646	0.0159948
2658	0.0168441
2670	0.0148624
2682	0.0131639
2694	0.0133054
2706	0.0144378
2718	0.0176934
2730	0.0205243
2742	0.0234968
2754	0.0208074
2766	0.0222229
2778	0.0244876
2790	0.0249123
2802	0.0276017
2814	0.0322727
2826	0.040624
2838	0.0560526
2850	0.0840789
2862	0.183162
2874	0.369013
2886	0.474607
2898	0.392085
2910	0.438796
2922	0.585438
2934	0.565339
2946	0.61672
2958	0.828333
2970	1.41547
2982	0.865135
2994	0.264127
3006	0.1574
3018	0.120032
3030	0.0956858
3042	0.0716228
3054	0.0680841
3066	0.0760107
3078	0.0661024
3090	0.0485506
3102	0.0372269
3114	0.0324143
3126	0.0325558
3138	0.0266108
3150	0.0227891
3162	0.0213736
3174	0.0205243
3186	0.020949
3198	0.0188258
3210	0.0179765
3222	0.0167025
3234	0.015004
3246	0.0138716
3258	0.0140132
3270	0.0130223
3282	0.0127392
3294	0.0125977
3306	0.0125977
3318	0.0128808
3330	0.0124561
3342	0.0135885
3354	0.0131639
3366	0.0123146
3378	0.0100498
3390	0.0107576
3402	0.0118899
3414	0.0103329
3426	0.0111822
3438	0.0108991
3450	0.00990829
3462	0.00920056
3474	0.00905901
3486	0.0096252
3498	0.010616
3510	0.00976674
3522	0.00863437
3534	0.0110407
3546	0.0178349
3558	0.0128808
3570	0.0101914
3582	0.012173
3594	0.0100498
3606	0.0138716
3618	0.0171272
3630	0.0431718
3642	0.286774
3654	0.134753
3666	0.0969597
3678	0.0687918
3690	0.0397747
3702	0.0191088
3714	0.0133054
3726	0.010616
3738	0.0113238
3750	0.0111822
3762	0.012173
3774	0.0100498
3786	0.0131639
3798	0.0131639
3810	0.0100498
3822	0.00905901
3834	0.00877591
3846	0.012173
3858	0.0144378
3870	0.013447
3882	0.0118899
3894	0.0140132
3906	0.0123146
3918	0.0158533
3930	0.0130223
3942	0.0182596
3954	0.0152871
3966	0.0140132
