Infrared Spectrum: Ethanol, 2-(2,4-dichlorophenoxy)-
Formula: C 8 H 8 Cl 2 O 2
CAS: 120-67-2
Origin: Sadtler Research Labs Under US-EPA Contract
1/CM	ABSORBANCE
450	0.0137835
462	0.0162896
474	0.0110496
486	0.00899913
498	0.0140113
510	0.0200487
522	0.0160617
534	0.0119609
546	0.011847
558	0.0287061
570	0.0338322
582	0.0126443
594	0.00307565
606	0.000683478
618	0.00284783
630	0.00740435
642	0.0414643
654	0.0868017
666	0.0150365
678	0.00729043
690	0.0194791
702	0.0498939
714	0.0658417
726	0.0953452
738	0.14615
750	0.0928391
762	0.0252887
774	0.0168591
786	0.0312122
798	0.103775
810	0.163351
822	0.189665
834	0.154238
846	0.0649304
858	0.0653861
870	0.153555
882	0.095573
894	0.0828148
906	0.0857765
918	0.0658417
930	0.0364522
942	0.0233522
954	0.0193652
966	0.0210739
978	0.0290478
990	0.0478435
1002	0.0952313
1014	0.196614
1026	0.36156
1038	0.36623
1050	0.286491
1062	0.396417
1074	0.320209
1086	0.281137
1098	0.36361
1110	0.347776
1122	0.10799
1134	0.06288
1146	0.0492104
1158	0.0358826
1170	0.0396417
1182	0.0430591
1194	0.0639052
1206	0.100927
1218	0.146036
1230	0.257557
1242	0.411454
1254	0.581184
1266	0.559427
1278	0.450982
1290	0.449501
1302	0.177476
1314	0.0764356
1326	0.0516026
1338	0.0520582
1350	0.0618548
1362	0.1048
1374	0.15401
1386	0.131228
1398	0.101952
1410	0.0636774
1422	0.0715374
1434	0.131228
1446	0.137379
1458	0.395962
1470	0.541201
1482	1.13913
1494	0.51876
1506	0.169616
1518	0.0626522
1530	0.0315539
1542	0.022213
1554	0.0279087
1566	0.0487548
1578	0.0708539
1590	0.0731321
1602	0.0312122
1614	0.00888521
1626	0.00683478
1638	0.00524
1650	0.00444261
1662	0.000455652
1674	0.00125304
1686	0.00216435
1698	0.00307565
1710	0.00432869
1722	0.0103661
1734	0.0210739
1746	0.0150365
1758	0.00729043
1770	0.00535391
1782	0.00262
1794	0.00364522
1806	0.00216435
1818	0.000341739
1830	0.00205043
1842	0.00478435
1854	0.00763217
1866	0.00740435
1878	0.00535391
1890	0.00296174
1902	0.00125304
1914	0.00182261
1926	0.00262
1938	0.00375913
1950	0.00410087
1962	0.00410087
1974	0.00398696
1986	0.00410087
1998	0.00341739
2010	0.00296174
2022	0.00273391
2034	0.00250609
2046	0.00239217
2058	0.00273391
2070	0.00330348
2082	0.00364522
2094	0.00421478
2106	0.00421478
2118	0.00330348
2130	0.00216435
2142	0.00113913
2154	0.000797391
2166	0.00102522
2178	0.000797391
2190	0.000455652
2202	0.000569565
2214	0.000569565
2226	0.000569565
2238	0.000341739
2250	0.000341739
2262	0.000683478
2274	0.00182261
2286	0.00284783
2298	0.0035313
2310	0.00387304
2322	0.00330348
2334	0.0017087
2346	0.00706261
2358	0.000455652
2370	0.00455652
2382	0.00421478
2394	0.0017087
2406	0.00136696
2418	0.00148087
2430	0.00193652
2442	0.00205043
2454	0.00262
2466	0.00284783
2478	0.0035313
2490	0.00467043
2502	0.00546782
2514	0.00729043
2526	0.00956869
2538	0.00945478
2550	0.00660695
2562	0.00387304
2574	0.00262
2586	0.00193652
2598	0.0017087
2610	0.00182261
2622	0.00216435
2634	0.00227826
2646	0.00227826
2658	0.00364522
2670	0.00501217
2682	0.00569565
2694	0.00683478
2706	0.00786
2718	0.0101383
2730	0.0127583
2742	0.0116191
2754	0.0107078
2766	0.0110496
2778	0.0129861
2790	0.0152643
2802	0.0177704
2814	0.0207322
2826	0.0220991
2838	0.0238078
2850	0.0307565
2862	0.0472739
2874	0.0897634
2886	0.130544
2898	0.101724
2910	0.08646
2922	0.110723
2934	0.166313
2946	0.207094
2958	0.191602
2970	0.150365
2982	0.0942061
2994	0.0472739
3006	0.0233522
3018	0.0165174
3030	0.0156061
3042	0.0152643
3054	0.0127583
3066	0.0152643
3078	0.0249469
3090	0.0165174
3102	0.00934087
3114	0.00546782
3126	0.00375913
3138	0.00375913
3150	0.00330348
3162	0.00284783
3174	0.00239217
3186	0.00216435
3198	0.00216435
3210	0.00227826
3222	0.00216435
3234	0.00193652
3246	0.00136696
3258	0.00125304
3270	0.00148087
3282	0.000911304
3294	0.00125304
3306	0.000797391
3318	0.00136696
3330	0.00102522
3342	0.00102522
3354	0.000683478
3366	0.000797391
3378	0.000113913
3390	0.00102522
3402	0.000341739
3414	0.000797391
3426	0.000911304
3438	0.00239217
3450	0.00193652
3462	0.0017087
3474	0.00250609
3486	0.00148087
3498	0.00227826
3510	0.00193652
3522	0.00262
3534	0.00341739
3546	0.00410087
3558	0.00432869
3570	0.00626522
3582	0.00592348
3594	0.0119609
3606	0.0159478
3618	0.0277948
3630	0.0697148
3642	0.0763217
3654	0.0477295
3666	0.0439704
3678	0.0432869
3690	0.0228965
3702	0.0105939
3714	0.00763217
3726	0.00626522
3738	0.00751826
3750	0.00410087
3762	0.00535391
3774	0.00250609
3786	0.00307565
3798	0.00432869
3810	0.00136696
3822	0.00398696
3834	0.00250609
3846	0.00284783
3858	0.00330348
3870	0.00273391
3882	0.00182261
3894	0.00216435
3906	0.00330348
3918	0.00307565
3930	0.00330348
3942	0.00398696
3954	0.00375913
3966	0.00148087
