Infrared Spectrum: Dichlorprop
Formula: C 9 H 8 Cl 2 O 3
CAS: 120-36-5
Origin: Sadtler Research Labs Under US-EPA Contract
1/CM	ABSORBANCE
450	0.0142978
462	0.00705842
474	0.0151665
486	0.014153
498	0.0180985
510	0.0192568
522	0.021682
534	0.0243244
546	0.0308036
558	0.0457168
570	0.0483954
582	0.0463684
594	0.0428211
606	0.0402511
618	0.0335908
630	0.0222974
642	0.0178451
654	0.0312742
666	0.0186415
678	0.00629828
690	0.00868728
702	0.0106419
714	0.0137549
726	0.0219716
738	0.0445223
750	0.0565397
762	0.0328669
774	0.0211752
786	0.0148408
798	0.0259171
810	0.0322153
822	0.0254103
834	0.0270392
846	0.0281613
858	0.0139358
870	0.0321067
882	0.0112573
894	0.00036197
906	0.000832531
918	0.00322153
930	0.00763757
942	0.00789095
954	0.00307675
966	0.000434364
978	0.00104971
990	0.00376449
1002	0.0084339
1014	0.022044
1026	0.0450291
1038	0.0535354
1050	0.0570103
1062	0.093533
1074	0.115541
1086	0.199554
1098	0.252474
1110	0.171646
1122	0.0879225
1134	0.0668197
1146	0.0594355
1158	0.072756
1170	0.0727922
1182	0.0701498
1194	0.053282
1206	0.0309846
1218	0.0394185
1230	0.0941122
1242	0.143232
1254	0.159918
1266	0.133495
1278	0.106347
1290	0.0681228
1302	0.0374277
1314	0.034351
1326	0.0453548
1338	0.0482144
1350	0.0445223
1362	0.0478162
1374	0.0511102
1386	0.0633809
1398	0.0325049
1410	0.0109315
1422	0.0101352
1434	0.019293
1446	0.0294644
1458	0.0583496
1470	0.196007
1482	0.303838
1494	0.102438
1506	0.0392375
1518	0.0154561
1530	0.00412646
1542	0.00220802
1554	0.00423505
1566	0.00973699
1578	0.0179537
1590	0.0168678
1602	0.00937502
1614	0.0114021
1626	0.00901305
1638	0.00832531
1650	0.00626208
1662	0.0036197
1674	0.00282337
1686	0.00437984
1698	0.00503138
1710	0.00731179
1722	0.0131033
1734	0.0217906
1746	0.0423505
1758	0.0732989
1770	0.117459
1782	0.158543
1794	0.159846
1806	0.176171
1818	0.0671454
1830	0.0249035
1842	0.0148408
1854	0.00923023
1866	0.00532096
1878	0.00380068
1890	0.002389
1902	0.0011583
1914	0.00108591
1926	0.000579152
1938	0.00101352
1950	0.0011945
1962	0.000687743
1974	0.00101352
1986	0.00133929
1998	0.000868728
2010	0.000941122
2022	0.000651546
2034	0.000253379
2046	0.000253379
2058	0.000253379
2070	0.000108591
2082	0.000542955
2094	0.000687743
2106	0.00101352
2118	0.00104971
2130	0.000868728
2142	0.000434364
2154	0.000434364
2166	0.000253379
2178	0.000977319
2190	0.000796334
2202	0.000796334
2214	0.000941122
2226	0.000941122
2238	0.00072394
2250	0.000904925
2262	0.000398167
2274	0.000868728
2286	0.00191844
2298	0.00369209
2310	0.00488659
2322	0.00401787
2334	0.0024614
2346	0.00293196
2358	0.00282337
2370	0.00159267
2382	0.00314914
2394	0.000904925
2406	0.000796334
2418	0.00126689
2430	0.00101352
2442	0.000651546
2454	0.000760137
2466	0.00104971
2478	0.0012307
2490	0.00191844
2502	0.00180985
2514	0.00224421
2526	0.0024252
2538	0.00162886
2550	0.00072394
2562	0.000651546
2574	0.000687743
2586	0.000579152
2598	0.000832531
2610	0.000615349
2622	0.00108591
2634	0.0011583
2646	0.000506758
2658	0.000904925
2670	0.0012307
2682	0.000832531
2694	0.000760137
2706	0.00072394
2718	0.000832531
2730	0.000868728
2742	0.0011945
2754	0.00104971
2766	0.0011945
2778	0.0011945
2790	0.00152027
2802	0.00202703
2814	0.0023528
2826	0.00256999
2838	0.00282337
2850	0.00249759
2862	0.00314914
2874	0.00434364
2886	0.00575532
2898	0.00579152
2910	0.00666025
2922	0.0084339
2934	0.0128499
2946	0.0182795
2958	0.0131395
2970	0.0072756
2982	0.00901305
2994	0.0189672
3006	0.0275459
3018	0.0085063
3030	0.00513997
3042	0.00434364
3054	0.00275097
3066	0.00351111
3078	0.0060811
3090	0.00437984
3102	0.00325773
3114	0.00213562
3126	0.00217182
3138	0.00170126
3150	0.00152027
3162	0.0012307
3174	0.00180985
3186	0.00130309
3198	0.00108591
3210	0.0012307
3222	0.00112211
3234	0.00137549
3246	0.00112211
3258	0.000904925
3270	0.0011583
3282	0.00104971
3294	0.00108591
3306	0.00104971
3318	0.000868728
3330	0.000832531
3342	0.000904925
3354	0.00036197
3366	0.0011945
3378	0.0011583
3390	0.00101352
3402	0.00141168
3414	0.0012307
3426	0.00159267
3438	0.00199083
3450	0.00267858
3462	0.00296815
3474	0.00419885
3486	0.00767376
3498	0.0165058
3510	0.0285956
3522	0.0281613
3534	0.0182795
3546	0.0138996
3558	0.0178813
3570	0.0879949
3582	0.0635619
3594	0.0146236
3606	0.00452463
3618	0.00180985
3630	0.00340252
3642	0.00564673
3654	0.00579152
3666	0.00213562
3678	0.00307675
3690	0.0024252
3702	0.00202703
3714	0.00191844
3726	0.00249759
3738	0.00267858
3750	0.00401787
3762	0.00184605
3774	0.00180985
3786	0.00314914
3798	0.00256999
3810	0.00188224
3822	0.0036197
3834	0.0024252
3846	0.00231661
3858	0.00318534
3870	0.00325773
3882	0.00217182
3894	0.00256999
3906	0.00199083
3918	0.0024614
3930	0.00278717
3942	0.00191844
3954	0.00112211
3966	0.00177365
