Infrared Spectrum: Anthracene
Formula: C 14 H 10
CAS: 120-12-7
Origin: Sadtler Research Labs Under US-EPA Contract
1/CM	ABSORBANCE
450	0.106146
462	0.191473
474	0.0960687
486	0.00780731
498	0.0324474
510	0.0125692
522	0.0192137
534	0.00559247
546	0.00658915
558	0.0141196
570	0.0251938
582	0.0197674
594	0.0452381
606	0.0533776
618	0.0176633
630	0.0106312
642	0.0200443
654	0.0212625
666	0.00885936
678	0.0106866
690	0.0232004
702	0.0409745
714	0.226523
726	0.55371
738	0.145072
750	0.0191584
762	0.0173865
774	0.0129568
786	0.0119601
798	0.00891473
810	0.0141196
822	0.014175
834	0.0157254
846	0.019103
858	0.0614618
870	0.262016
882	0.228018
894	0.0525471
906	0.0212071
918	0.0166113
930	0.0123477
942	0.027021
954	0.0442414
966	0.0213732
978	0.0173865
990	0.048062
1002	0.0350498
1014	0.0218162
1026	0.0167774
1038	0.0122924
1050	0.00963455
1062	0.0153378
1074	0.0114064
1086	0.0130676
1098	0.0135659
1110	0.0123477
1122	0.0166667
1134	0.0216501
1146	0.038206
1158	0.0331672
1170	0.0180509
1182	0.00952381
1194	0.0138428
1206	0.0116279
1218	0.0135659
1230	0.0124585
1242	0.00985604
1254	0.012237
1266	0.0288483
1278	0.0243632
1290	0.00980067
1302	0.0156146
1314	0.0312846
1326	0.0239756
1338	0.022536
1350	0.0150055
1362	0.00985604
1374	0.00730897
1386	0.013732
1398	0.0207641
1410	0.00957918
1422	0.00797342
1434	0.00963455
1446	0.0210964
1458	0.017165
1470	0.0155593
1482	0.0120155
1494	0.00858251
1506	0.0103544
1518	0.0123477
1530	0.0338317
1542	0.039701
1554	0.0151717
1566	0.00985604
1578	0.00863788
1590	0.0119601
1602	0.0124031
1614	0.019546
1626	0.0296235
1638	0.0178848
1650	0.0104097
1662	0.0187708
1674	0.0271318
1686	0.0137874
1698	0.0277409
1710	0.0218162
1722	0.0116833
1734	0.0153931
1746	0.0125692
1758	0.0212071
1770	0.0214839
1782	0.0285714
1794	0.0272425
1806	0.0217608
1818	0.0187708
1830	0.0125138
1842	0.0129568
1854	0.0114618
1866	0.00736434
1878	0.00697675
1890	0.0114064
1902	0.0227021
1914	0.0196567
1926	0.0253599
1938	0.030897
1950	0.00487265
1962	0.00409745
1974	0.00431894
1986	0.00387597
1998	0.00365449
2010	0.00586933
2022	0.00564784
2034	0.00465116
2046	0.00426357
2058	0.00337763
2070	0.0042082
2082	0.00442968
2094	0.00431894
2106	0.00337763
2118	0.00315615
2130	0.00260244
2142	0.00299003
2154	0.00304541
2166	0.00337763
2178	0.00365449
2190	0.00282392
2202	0.00232558
2214	0.00304541
2226	0.00299003
2238	0.00276855
2250	0.00321152
2262	0.00359911
2274	0.00498339
2286	0.00813954
2298	0.00930233
2310	0.0116833
2322	0.00980067
2334	0.00797342
2346	0.00697675
2358	0.00664452
2370	0.00215947
2382	0.003433
2394	0.00221484
2406	0.00193799
2418	0.00249169
2430	0.00310078
2442	0.00282392
2454	0.00204873
2466	0.00138428
2478	0.00160576
2490	0.00149502
2502	0.00138428
2514	0.00166113
2526	0.00293466
2538	0.00426357
2550	0.00215947
2562	0.00116279
2574	0.000332226
2586	0.000166113
2598	0.000719823
2610	0.000830565
2622	0.000775194
2634	0.000221484
2646	0.000719823
2658	0.00149502
2670	0.00166113
2682	0.00188261
2694	0.00127353
2706	0.00105205
2718	0.00116279
2730	0.00155039
2742	0.00149502
2754	0.000996678
2766	0.000719823
2778	0.000941307
2790	0.0013289
2802	0.00188261
2814	0.00166113
2826	0.00321152
2838	0.003433
2850	0.00199336
2862	0.0021041
2874	0.00199336
2886	0.00276855
2898	0.00387597
2910	0.00603544
2922	0.0102436
2934	0.0110742
2946	0.0104097
2958	0.0140089
2970	0.0185493
2982	0.0200443
2994	0.0307863
3006	0.0513843
3018	0.0761351
3030	0.0990033
3042	0.150388
3054	0.286379
3066	0.395903
3078	0.168162
3090	0.0716501
3102	0.0517719
3114	0.0215393
3126	0.0131229
3138	0.00537099
3150	0.00287929
3162	0.00265781
3174	0.00337763
3186	0.00470654
3198	0.00409745
3210	0.00326689
3222	0.00193799
3234	0.00177187
3246	0.00238095
3258	0.00359911
3270	0.00177187
3282	0.00116279
3294	0.000996678
3306	0.00127353
3318	0.00182724
3330	0.0013289
3342	0
3354	0.000387597
3366	0.00105205
3378	0.00182724
3390	0.00105205
3402	0.0021041
3414	0.000719823
3426	0.00177187
3438	0.00105205
3450	0.00188261
3462	0.00149502
3474	0.00121816
3486	0.00193799
3498	0.0021041
3510	0.00332226
3522	0.00232558
3534	0.00188261
3546	0.00221484
3558	0.003433
3570	0.00249169
3582	0.00310078
3594	0.00127353
3606	0.00215947
3618	0.00232558
3630	0.00310078
3642	0.00376523
3654	0.00265781
3666	0.00398671
3678	0.00177187
3690	0.00387597
3702	0.00337763
3714	0.0038206
3726	0.0021041
3738	0.00177187
3750	0.000276855
3762	0.003433
3774	0.00166113
3786	0.00238095
3798	0.00221484
3810	0.00249169
3822	0.00182724
3834	0.0013289
3846	0.00138428
3858	0.000830565
3870	5.5371e-05
3882	0.00348837
3894	0.00459579
3906	0.00348837
3918	0.0021041
3930	0.00337763
3942	0.00398671
3954	0.00570321
3966	0.00354374
