Infrared Spectrum: Benzyl Benzoate
Formula: C 14 H 12 O 2
CAS: 120-51-4
Origin: Sadtler Research Labs Under US-EPA Contract
1/CM	ABSORBANCE
450	0.0035106
462	0.00144554
474	0.0103253
486	0.0152814
498	0.0109448
510	0.017966
522	0.0361385
534	0.0220961
546	0.0115643
558	0.00805373
570	0.0132164
582	0.0278783
594	0.0340735
606	0.0231287
618	0.018792
630	0.0101188
642	0.0111513
654	0.0185855
666	0.0379971
678	0.121219
690	0.207126
702	0.370265
714	0.442129
726	0.217038
738	0.14125
750	0.151988
762	0.0602998
774	0.0258132
786	0.0243677
798	0.0313889
810	0.0307694
822	0.0266393
834	0.0237482
846	0.0185855
858	0.018379
870	0.0243677
882	0.0297369
894	0.0301499
906	0.0485289
918	0.0435728
930	0.035932
942	0.050181
954	0.068147
966	0.0658754
978	0.053072
990	0.0402687
1002	0.050181
1014	0.0658754
1026	0.306042
1038	0.0627778
1050	0.0629843
1062	0.202376
1074	0.21869
1086	0.3936
1098	0.806199
1110	0.815079
1122	0.276305
1134	0.108416
1146	0.0687665
1158	0.0512135
1170	0.108209
1182	0.233765
1194	0.0536916
1206	0.0807438
1218	0.0966448
1230	0.21456
1242	0.463812
1254	0.778734
1266	2.06506
1278	0.785136
1290	0.199072
1302	0.127001
1314	0.15901
1326	0.0759942
1338	0.0561696
1350	0.0479094
1362	0.0536916
1374	0.110068
1386	0.0644299
1398	0.0287043
1410	0.0227157
1422	0.0254002
1434	0.035932
1446	0.0966448
1458	0.13237
1470	0.0625713
1482	0.0375841
1494	0.0588542
1506	0.0538981
1518	0.0218896
1530	0.0150749
1542	0.0177595
1554	0.0196181
1566	0.0212701
1578	0.0315954
1590	0.0441923
1602	0.0584412
1614	0.0394426
1626	0.0196181
1638	0.0200311
1650	0.0196181
1662	0.0154879
1674	0.017966
1686	0.0297369
1698	0.0419207
1710	0.0584412
1722	0.164585
1734	0.619105
1746	0.989164
1758	0.279403
1770	0.0879716
1782	0.0578217
1794	0.0466704
1806	0.0390296
1818	0.0249872
1830	0.0119773
1842	0.0103253
1854	0.0111513
1866	0.0128034
1878	0.015901
1890	0.0161075
1902	0.0177595
1914	0.0189986
1926	0.0152814
1938	0.0138359
1950	0.0192051
1962	0.0210636
1974	0.0128034
1986	0.00598867
1998	0.00413012
2010	0.0035106
2022	0.0035106
2034	0.00433663
2046	0.00557566
2058	0.00784723
2070	0.00867325
2082	0.00743422
2094	0.00536916
2106	0.00371711
2118	0.0033041
2130	0.00289108
2142	0.00309759
2154	0.00268458
2166	0.00247807
2178	0.00309759
2190	0.00289108
2202	0.00247807
2214	0.00289108
2226	0.00247807
2238	0.00247807
2250	0.00268458
2262	0.00247807
2274	0.00227157
2286	0.00247807
2298	0.00206506
2310	0.0035106
2322	0.00598867
2334	0.00495614
2346	0.00474964
2358	0.00495614
2370	0.00516265
2382	0.0035106
2394	0.00144554
2406	0.00103253
2418	0.00123904
2430	0.00103253
2442	0.000826024
2454	0.000826024
2466	0.000413012
2478	0.000619518
2490	0.000619518
2502	0.000619518
2514	0.00144554
2526	0.00165205
2538	0.00144554
2550	0.00123904
2562	0.00103253
2574	0.00103253
2586	0.00123904
2598	0.00185855
2610	0.00185855
2622	0.00123904
2634	0.00103253
2646	0.000619518
2658	0.000413012
2670	0.000206506
2682	0
2694	0.000619518
2706	0.000619518
2718	0.000619518
2730	0.00144554
2742	0.00144554
2754	0.00165205
2766	0.00185855
2778	0.00185855
2790	0.00206506
2802	0.00268458
2814	0.00413012
2826	0.00640169
2838	0.00743422
2850	0.00805373
2862	0.00991229
2874	0.0136294
2886	0.0214766
2898	0.0291173
2910	0.0245742
2922	0.0192051
2934	0.0251937
2946	0.0452248
2958	0.0772332
2970	0.0640169
2982	0.0379971
2994	0.0258132
3006	0.0243677
3018	0.0382036
3030	0.0792983
3042	0.136707
3054	0.111307
3066	0.142076
3078	0.217244
3090	0.0970578
3102	0.0755812
3114	0.0419207
3126	0.0148684
3138	0.00516265
3150	0.00371711
3162	0.00433663
3174	0.00516265
3186	0.00165205
3198	0.00103253
3210	0.00123904
3222	0.00123904
3234	0.00123904
3246	0.00103253
3258	0.000826024
3270	0.000826024
3282	0.000619518
3294	0.00103253
3306	0.00144554
3318	0.00103253
3330	0.00144554
3342	0.00206506
3354	0.00206506
3366	0.00144554
3378	0.00123904
3390	0.00144554
3402	0.00123904
3414	0.00123904
3426	0.00103253
3438	0.00185855
3450	0.00392361
3462	0.00743422
3474	0.00474964
3486	0.00185855
3498	0.000826024
3510	0.000826024
3522	0.00123904
3534	0.00123904
3546	0.00165205
3558	0.00123904
3570	0.00103253
3582	0.00206506
3594	0.00268458
3606	0.000826024
3618	0.00103253
3630	0.00165205
3642	0.00268458
3654	0.00371711
3666	0.00144554
3678	0.00495614
3690	0.00268458
3702	0.00206506
3714	0.00247807
3726	0.00227157
3738	0.00413012
3750	0.00144554
3762	0.00123904
3774	0.00247807
3786	0.00185855
3798	0.00165205
3810	0.000619518
3822	0.0033041
3834	0.00268458
3846	0.00268458
3858	0.00289108
3870	0.00413012
3882	0.00165205
3894	0.0033041
3906	0.0033041
3918	0.00247807
3930	0.00454313
3942	0.0033041
3954	0.00206506
3966	0.00247807
