Infrared Spectrum: Phenol, 2,4-dichloro-
Formula: C 6 H 4 Cl 2 O
CAS: 120-83-2
Origin: Sadtler Research Labs Under US-EPA Contract
1/CM	ABSORBANCE
450	0.0209168
462	0.00152307
474	0.0114738
486	0.0251814
498	0.029446
510	0.092298
522	0.0359445
534	0.0195968
546	0.0453875
558	0.064172
570	0.0376706
582	0.0204091
594	0.0272122
606	0.0211199
618	0.0246737
630	0.0323906
642	0.0741227
654	0.103569
666	0.0285322
678	0.0362491
690	0.0341168
702	0.0578767
714	0.186931
726	0.333248
738	0.108138
750	0.0512767
762	0.0571659
774	0.0479259
786	0.0395998
798	0.0650859
810	0.138904
822	0.151698
834	0.077372
846	0.10824
858	0.161344
870	0.125603
882	0.0595013
894	0.0361475
906	0.0343198
918	0.0325937
930	0.0303599
942	0.0368583
954	0.0278214
966	0.0285322
978	0.0277199
990	0.0296491
1002	0.0265014
1014	0.0363506
1026	0.0446767
1038	0.064172
1050	0.121744
1062	0.108036
1074	0.0967657
1086	0.113418
1098	0.119104
1110	0.0901657
1122	0.0700612
1134	0.0817381
1146	0.0670151
1158	0.0617351
1170	0.133522
1182	0.387063
1194	0.615828
1206	0.270091
1218	0.104076
1230	0.0971719
1242	0.120018
1254	0.148347
1266	0.288571
1278	0.499567
1290	0.130578
1302	0.0546274
1314	0.0634612
1326	0.133116
1338	0.117784
1350	0.060009
1362	0.040006
1374	0.0381783
1386	0.0409198
1398	0.0731074
1410	0.0793012
1422	0.066812
1434	0.0631566
1446	0.0809258
1458	0.145504
1470	0.496724
1482	1.01538
1494	0.403715
1506	0.156673
1518	0.0592982
1530	0.0333045
1542	0.0232522
1554	0.0288368
1566	0.0519875
1578	0.092298
1590	0.0817381
1602	0.0530028
1614	0.0349291
1626	0.0259937
1638	0.022643
1650	0.0166522
1662	0.0152307
1674	0.0163476
1686	0.0178707
1698	0.024166
1710	0.0275168
1722	0.0329999
1734	0.0338122
1746	0.0303599
1758	0.0284306
1770	0.0238614
1782	0.0224399
1794	0.0185815
1806	0.0168553
1818	0.0131999
1830	0.00913842
1842	0.00923996
1854	0.00893534
1866	0.0142153
1878	0.0164492
1890	0.00944303
1902	0.00477229
1914	0.00477229
1926	0.0042646
1938	0.00335075
1950	0.00355383
1962	0.00375691
1974	0.00355383
1986	0.00385844
1998	0.00609228
2010	0.00477229
2022	0.00304614
2034	0.00263999
2046	0.00284306
2058	0.00203076
2070	0.00111692
2082	0.00172615
2094	0.00182768
2106	0.00172615
2118	0.00192922
2130	0.00263999
2142	0.00121846
2154	0.00050769
2166	0.000304614
2178	0
2190	0.00050769
2202	0.00131999
2214	0.000609228
2226	0.000913842
2238	0.00121846
2250	0.00142153
2262	0.00182768
2274	0.00203076
2286	0.00203076
2298	0.00172615
2310	0.00203076
2322	0.0029446
2334	0.00599074
2346	0.00324922
2358	0.00335075
2370	0.00487382
2382	0.00446767
2394	0.00233537
2406	0.00152307
2418	0.00172615
2430	0.00253845
2442	0.00324922
2454	0.00406152
2466	0.00659997
2478	0.00538151
2490	0.00284306
2502	0.00375691
2514	0.00538151
2526	0.00395998
2538	0.00436613
2550	0.0050769
2562	0.00274153
2574	0.00203076
2586	0.00233537
2598	0.00355383
2610	0.00263999
2622	0.00121846
2634	0.00142153
2646	0.00263999
2658	0.00274153
2670	0.00274153
2682	0.0021323
2694	0.00121846
2706	0.00192922
2718	0.00142153
2730	0.0021323
2742	0.00284306
2754	0.00284306
2766	0.0029446
2778	0.00284306
2790	0.00152307
2802	0.00314768
2814	0.00314768
2826	0.0029446
2838	0.00243691
2850	0.00314768
2862	0.00335075
2874	0.00375691
2886	0.0029446
2898	0.00375691
2910	0.00385844
2922	0.00324922
2934	0.00619382
2946	0.00365537
2958	0.00436613
2970	0.00385844
2982	0.00395998
2994	0.00324922
3006	0.00253845
3018	0.00324922
3030	0.00446767
3042	0.00619382
3054	0.00761535
3066	0.00852919
3078	0.0137076
3090	0.0135046
3102	0.00619382
3114	0.00395998
3126	0.0021323
3138	0.00284306
3150	0.00192922
3162	0.00345229
3174	0.0050769
3186	0.00487382
3198	0.00335075
3210	0.0029446
3222	0.00243691
3234	0.00284306
3246	0.00182768
3258	0.00172615
3270	0.00253845
3282	0.00182768
3294	0.00395998
3306	0.00538151
3318	0.00355383
3330	0.00172615
3342	0.00263999
3354	0.00131999
3366	0.0021323
3378	0.0029446
3390	0.00355383
3402	0.00263999
3414	0.00233537
3426	0.00152307
3438	0.00182768
3450	0.00203076
3462	0.00233537
3474	0.00203076
3486	0.00101538
3498	0.00152307
3510	0.00284306
3522	0.00385844
3534	0.00649843
3546	0.012083
3558	0.0277199
3570	0.157993
3582	0.447275
3594	0.128039
3606	0.0142153
3618	0.00751381
3630	0.00984919
3642	0.0121846
3654	0.0221353
3666	0.00710766
3678	0.00416306
3690	0.00599074
3702	0.00477229
3714	0.00609228
3726	0.0050769
3738	0.00680305
3750	0.00731074
3762	0.00558459
3774	0
3786	0.00152307
3798	0.00487382
3810	0.00538151
3822	0.00375691
3834	0.00538151
3846	0.00335075
3858	0.0080215
3870	0.00832612
3882	0.0021323
3894	0.00487382
3906	0.00446767
3918	0.00527998
3930	0.0042646
3942	0.00456921
3954	0.00893534
3966	0.00751381
