Infrared Spectrum: Benzoic acid, 2-methylpropyl ester
Formula: C 11 H 14 O 2
CAS: 120-50-3
Origin: Sadtler Research Labs Under US-EPA Contract
1/CM	ABSORBANCE
450	0.00301832
462	0.0028674
474	0.00218828
486	0.00105641
498	0.00203737
510	0.0014337
522	0.0028674
534	0.0037729
546	0.00407473
558	0.00339561
570	0.00158462
582	0.00188645
594	0.00294286
606	0.00279195
618	0.00430111
630	0.00211282
642	0.0023392
654	0.00301832
666	0.00928133
678	0.0316169
690	0.0373517
702	0.112131
714	0.123902
726	0.0284477
738	0.00769672
750	0.00513114
762	0.00399927
774	0.00249011
786	0.00339561
798	0.00686668
810	0.00709305
822	0.00626301
834	0.00679122
846	0.00618756
858	0.00588572
870	0.00505569
882	0.00384836
894	0.00332015
906	0.00550843
918	0.00980954
930	0.0145634
942	0.0145634
954	0.0134315
966	0.0164498
978	0.0312396
990	0.0455012
1002	0.0104132
1014	0.0126015
1026	0.0824001
1038	0.0174308
1050	0.0126769
1062	0.0498023
1074	0.0577254
1086	0.0659503
1098	0.21913
1110	0.32779
1122	0.125109
1134	0.0432374
1146	0.0338806
1158	0.024222
1170	0.0443693
1182	0.082702
1194	0.0150161
1206	0.012526
1218	0.0176572
1230	0.0491986
1242	0.125034
1254	0.168196
1266	0.614153
1278	0.474631
1290	0.132202
1302	0.0748543
1314	0.0895686
1326	0.0289759
1338	0.0201473
1350	0.0217319
1362	0.0188645
1374	0.0514624
1386	0.0469349
1398	0.0219583
1410	0.0114696
1422	0.00852675
1434	0.010715
1446	0.0275422
1458	0.0480667
1470	0.0390872
1482	0.0280704
1494	0.0130542
1506	0.00807401
1518	0.00535752
1530	0.00535752
1542	0.00565935
1554	0.00679122
1566	0.00581027
1578	0.00920588
1590	0.0128279
1602	0.0191663
1614	0.0121487
1626	0.00490477
1638	0.00535752
1650	0.00535752
1662	0.00505569
1674	0.00528206
1686	0.00905496
1698	0.0129788
1710	0.0156953
1722	0.0476895
1734	0.254671
1746	0.375781
1758	0.0758353
1770	0.017129
1782	0.0138843
1794	0.0123751
1806	0.009885
1818	0.0089795
1830	0.00339561
1842	0.0023392
1854	0.00188645
1866	0.00196191
1878	0.00166008
1890	0.0023392
1902	0.0052066
1914	0.00558389
1926	0.00460294
1938	0.0023392
1950	0.00316924
1962	0.00482931
1974	0.00422565
1986	0.00188645
1998	0.00113187
2010	0.00135824
2022	0.00128279
2034	0.0014337
2046	0.0014337
2058	0.00196191
2070	0.00226374
2082	0.0023392
2094	0.00181099
2106	0.00196191
2118	0.00188645
2130	0.0014337
2142	0.0014337
2154	0.000528206
2166	0.000905496
2178	0.000905496
2190	0.000905496
2202	0.000905496
2214	0.000830038
2226	0.000980954
2238	0.000980954
2250	0.000980954
2262	0.000905496
2274	0.000980954
2286	0.000905496
2298	0.000830038
2310	0.00128279
2322	0.00173553
2334	0.00211282
2346	0.00173553
2358	0.00203737
2370	0.000679122
2382	0.00128279
2394	0.0014337
2406	0.00037729
2418	0.00037729
2430	0.00037729
2442	0.00037729
2454	0
2466	0
2478	0.000528206
2490	0.000301832
2502	0
2514	0.000528206
2526	0.000603664
2538	0.000226374
2550	0.000226374
2562	7.5458e-05
2574	0.000603664
2586	0.00120733
2598	0.00113187
2610	0.00113187
2622	0.00120733
2634	0.00113187
2646	0.00128279
2658	0.00113187
2670	0.000679122
2682	0.000301832
2694	0.000301832
2706	0.000830038
2718	0.00128279
2730	0.0023392
2742	0.00332015
2754	0.0028674
2766	0.00294286
2778	0.0023392
2790	0.00249011
2802	0.00279195
2814	0.00294286
2826	0.00437656
2838	0.00603664
2850	0.00701759
2862	0.0105641
2874	0.0230147
2886	0.0544807
2898	0.0507832
2910	0.0456521
2922	0.0427847
2934	0.0509341
2946	0.0791554
2958	0.0986236
2970	0.157707
2982	0.141333
2994	0.0304096
3006	0.0114696
3018	0.00913042
3030	0.0101114
3042	0.0170535
3054	0.0194682
3066	0.0238447
3078	0.0430111
3090	0.0190909
3102	0.0167517
3114	0.00867767
3126	0.00392382
3138	0.00264103
3150	0.00301832
3162	0.00301832
3174	0.00354653
3186	0.00264103
3198	0.00173553
3210	0.00173553
3222	0.00173553
3234	0.00120733
3246	0.00113187
3258	0.00128279
3270	0.00135824
3282	0.000830038
3294	0.000830038
3306	0.000905496
3318	0.000905496
3330	0.000905496
3342	0.000980954
3354	0.00196191
3366	0.000980954
3378	0.0014337
3390	0.000603664
3402	0.00105641
3414	0.00105641
3426	0.00113187
3438	0.00105641
3450	0.00188645
3462	0.00392382
3474	0.00264103
3486	0.00128279
3498	0.00075458
3510	0.000980954
3522	0.000905496
3534	0.00135824
3546	0.00075458
3558	0.00135824
3570	0.00135824
3582	0.000905496
3594	0.000452748
3606	0.0014337
3618	0.0014337
3630	0.00135824
3642	0.00150916
3654	0.000905496
3666	0.00150916
3678	0.00128279
3690	0.0014337
3702	0.00158462
3714	0.00158462
3726	0.00173553
3738	0.00188645
3750	0.00188645
3762	0.00120733
3774	0.00113187
3786	0.00203737
3798	0.00203737
3810	0.0014337
3822	0.00203737
3834	0.00211282
3846	0.00226374
3858	0.00241466
3870	0.00158462
3882	0.00264103
3894	0.0023392
3906	0.00241466
3918	0.00264103
3930	0.00271649
3942	0.00241466
3954	0.00309378
3966	0.00271649
