Infrared Spectrum: Ethanone, 1-(2,5-dimethoxyphenyl)-
Formula: C 10 H 12 O 3
CAS: 1201-38-3
Origin: Sadtler Research Labs Under US-EPA Contract
1/CM	ABSORBANCE
450	0.00517494
462	0.0149211
474	0.00689992
486	0.00784866
498	0.000517494
510	0.0117299
522	0.0184573
534	0.0301871
546	0.0274272
558	0.0296697
570	0.0418308
582	0.102981
594	0.0420033
606	0.0288934
618	0.023891
630	0.0175085
642	0.0133686
654	0.00698617
666	0.0038812
678	0.0206135
690	0.0699479
702	0.0488169
714	0.0164736
726	0.0308771
738	0.0884052
750	0.062013
762	0.0269959
774	0.0208723
786	0.0216485
798	0.0435557
810	0.083489
822	0.0688267
834	0.0315671
846	0.023546
858	0.0294109
870	0.0554581
882	0.0789178
894	0.0427795
906	0.0224247
918	0.018026
930	0.0178535
942	0.018026
954	0.022856
966	0.0341546
978	0.0525256
990	0.0572693
1002	0.0669292
1014	0.105569
1026	0.166461
1038	0.271771
1050	0.383549
1062	0.218469
1074	0.0887502
1086	0.041572
1098	0.0292384
1110	0.0276859
1122	0.0406233
1134	0.0570106
1146	0.0545094
1158	0.0671017
1170	0.145847
1182	0.210534
1194	0.164822
1206	0.355863
1218	0.669723
1230	0.672397
1242	0.276773
1254	0.208205
1266	0.327401
1278	0.474801
1290	0.369663
1302	0.239255
1314	0.19475
1326	0.0795216
1338	0.0558031
1350	0.0881465
1362	0.154213
1374	0.0759854
1386	0.0725354
1398	0.172067
1410	0.389242
1422	0.248225
1434	0.144898
1446	0.17819
1458	0.170514
1470	0.273064
1482	0.415979
1494	0.86249
1506	0.391829
1518	0.0991863
1530	0.0507144
1542	0.0445045
1554	0.0420033
1566	0.0586493
1578	0.0719317
1590	0.0688267
1602	0.0565793
1614	0.0583043
1626	0.0413995
1638	0.0364833
1650	0.0409683
1662	0.0515769
1674	0.0774516
1686	0.172326
1698	0.392778
1710	0.302303
1722	0.151022
1734	0.086939
1746	0.0482132
1758	0.0316534
1770	0.0237185
1782	0.0188885
1794	0.0188023
1806	0.0172498
1818	0.0145761
1830	0.0147486
1842	0.0144036
1854	0.0144898
1866	0.0152661
1878	0.0119024
1890	0.0104361
1902	0.0102636
1914	0.0117299
1926	0.0125061
1938	0.0118161
1950	0.0110399
1962	0.0112986
1974	0.0121611
1986	0.0158698
1998	0.020441
2010	0.0192335
2022	0.0181985
2034	0.0163873
2046	0.0181985
2058	0.018371
2070	0.018026
2082	0.0181985
2094	0.0174223
2106	0.0136273
2118	0.0087974
2130	0.00724492
2142	0.00836615
2154	0.00871115
2166	0.00948739
2178	0.0084524
2190	0.00888365
2202	0.00784866
2214	0.00853865
2226	0.0103499
2238	0.00983239
2250	0.00965989
2262	0.0084524
2274	0.0086249
2286	0.00681367
2298	0.00620993
2310	0.00301871
2322	0.00319121
2334	0.00741741
2346	0.00482994
2358	0.000517494
2370	0.0105224
2382	0.0111261
2394	0.00922864
2406	0.00931489
2418	0.00888365
2430	0.00888365
2442	0.0089699
2454	0.0110399
2466	0.0128511
2478	0.0135411
2490	0.0124199
2502	0.0115574
2514	0.0118161
2526	0.0113849
2538	0.00931489
2550	0.0112986
2562	0.0117299
2574	0.0124199
2586	0.0110399
2598	0.00991863
2610	0.00931489
2622	0.0087974
2634	0.00853865
2646	0.00957364
2658	0.00629618
2670	0.00767616
2682	0.0105224
2694	0.0100049
2706	0.0110399
2718	0.0129373
2730	0.0122474
2742	0.0119886
2754	0.0117299
2766	0.0111261
2778	0.0146623
2790	0.0169911
2802	0.021131
2814	0.0266509
2826	0.0431245
2838	0.107639
2850	0.118937
2862	0.0670155
2874	0.0502832
2886	0.0466607
2898	0.0596843
2910	0.0943564
2922	0.114797
2934	0.120749
2946	0.18647
2958	0.187505
2970	0.108932
2982	0.0698617
2994	0.0897852
3006	0.180002
3018	0.101946
3030	0.039502
3042	0.0334646
3054	0.0303596
3066	0.0281172
3078	0.0303596
3090	0.0238047
3102	0.0131098
3114	0.0123336
3126	0.00819365
3138	0.00448495
3150	0.00707242
3162	0.00698617
3174	0.00784866
3186	0.00905614
3198	0.00922864
3210	0.00629618
3222	0.00810741
3234	0.00620993
3246	0.00793491
3258	0.0108674
3270	0.0111261
3282	0.00836615
3294	0.00448495
3306	0.00543369
3318	0.00793491
3330	0.00810741
3342	0.00810741
3354	0.00758991
3366	0.00707242
3378	0.0086249
3390	0.00802116
3402	0.00836615
3414	0.00914239
3426	0.00793491
3438	0.00577868
3450	0.00508869
3462	0.00681367
3474	0.00707242
3486	0.00922864
3498	0.00802116
3510	0.0087974
3522	0.00741741
3534	0.00664117
3546	0.00577868
3558	0.00681367
3570	0.00793491
3582	0.00758991
3594	0.0089699
3606	0.00629618
3618	0.000689992
3630	0.00741741
3642	0.0087974
3654	0.00819365
3666	0.00750366
3678	0.00465745
3690	0.00543369
3702	0.00086249
3714	0.0103499
3726	0.00646867
3738	0.00965989
3750	0.00715867
3762	0.00413995
3774	0.00319121
3786	0.00638243
3798	0.00767616
3810	0.0125061
3822	0.00871115
3834	0.00241497
3846	0.00206998
3858	0.00724492
3870	0.00853865
3882	0.00750366
3894	0.00750366
3906	0.00448495
3918	0.00310496
3930	0.000517494
3942	0.00448495
3954	0.0122474
3966	0.0142311
