Infrared Spectrum: N-(2-Chlorophenyl)-maleimide
Formula: C 10 H 6 Cl N O 2
CAS: 1203-24-3
Origin: Sadtler Research Labs Under US-EPA Contract
1/CM	ABSORBANCE
450	0.00800069
462	0.0140012
474	0.0220019
486	0.015668
498	0.00333362
510	0.00166681
522	0.00100009
534	0.000333362
546	0.00283358
558	0.00383366
570	0.00833405
582	0.0316694
594	0.0161681
606	0.00733396
618	0.0281691
630	0.0491709
642	0.0100009
654	0.0070006
666	0.0281691
678	0.0660057
690	0.150013
702	0.0490042
714	0.0933414
726	0.126678
738	0.0705061
750	0.135845
762	0.0371699
774	0.00800069
786	0.00666724
798	0.00783401
810	0.0196684
822	0.186349
834	0.15118
846	0.0185016
858	0.0171681
870	0.00533379
882	0.00466707
894	0.00566715
906	0.00416703
918	0.00216685
930	0.00150013
942	0.0160014
954	0.0398368
966	0.00566715
978	0.00466707
990	0.0035003
1002	0.00483375
1014	0.0105009
1026	0.0375032
1038	0.0336696
1050	0.0698393
1062	0.0495043
1074	0.0720062
1086	0.0406702
1098	0.0283358
1110	0.0421703
1122	0.0610052
1134	0.15918
1146	0.284691
1158	0.168348
1170	0.03917
1182	0.00983418
1194	0.0150013
1206	0.073173
1218	0.0651723
1230	0.0143346
1242	0.0103342
1254	0.0258356
1266	0.0565049
1278	0.0163347
1290	0.00733396
1302	0.012001
1314	0.00950082
1326	0.0111676
1338	0.0185016
1350	0.0396701
1362	0.122177
1374	0.321694
1386	0.612553
1398	0.249355
1410	0.0746731
1422	0.0493376
1434	0.0421703
1446	0.0941748
1458	0.0600052
1470	0.0720062
1482	0.30886
1494	0.332695
1506	0.105842
1518	0.0166681
1530	0.00933414
1542	0.00500043
1554	0.00533379
1566	0.0101675
1578	0.0275024
1590	0.0438371
1602	0.0241687
1614	0.0125011
1626	0.0106676
1638	0.0111676
1650	0.0118344
1662	0.0138345
1674	0.0116677
1686	0.0143346
1698	0.0245021
1710	0.0738397
1722	0.19835
1734	0.751898
1746	1.66681
1758	0.456206
1770	0.186516
1782	0.0831738
1794	0.0328362
1806	0.0170015
1818	0.0168348
1830	0.0123344
1842	0.00633388
1854	0.00500043
1866	0.00650056
1878	0.0110009
1890	0.0165014
1902	0.0195017
1914	0.0138345
1926	0.00683392
1938	0.00766733
1950	0.00816737
1962	0.00516711
1974	0.00633388
1986	0.00466707
1998	0.00216685
2010	0.00166681
2022	0.00150013
2034	0.00200017
2046	0.00300026
2058	0.00433371
2070	0.00450039
2082	0.00333362
2094	0.00283358
2106	0.00383366
2118	0.0035003
2130	0.0035003
2142	0.00200017
2154	0.00283358
2166	0.00300026
2178	0.00250022
2190	0.00166681
2202	0.00100009
2214	0.00100009
2226	0.00116677
2238	0.00133345
2250	0.00233353
2262	0.00283358
2274	0.00333362
2286	0.0035003
2298	0.00383366
2310	0.00400034
2322	0.00633388
2334	0.00650056
2346	0.00533379
2358	0.00516711
2370	0.00316694
2382	0.00250022
2394	0.00150013
2406	0.00183349
2418	0.00250022
2430	0.00183349
2442	0.00150013
2454	0.000833405
2466	0.00100009
2478	0.00166681
2490	0.00150013
2502	0.00233353
2514	0.00333362
2526	0.00433371
2538	0.0035003
2550	0.00216685
2562	0.00166681
2574	0.00116677
2586	0.00150013
2598	0.00150013
2610	0.000666724
2622	0.000666724
2634	0.000500043
2646	0.000833405
2658	0.000333362
2670	0.000166681
2682	0.000166681
2694	0.000333362
2706	0
2718	0.000166681
2730	0.000333362
2742	0.000666724
2754	0
2766	0.000166681
2778	0.000833405
2790	0.000666724
2802	0.000833405
2814	0.000500043
2826	0.000333362
2838	0.000666724
2850	0.00100009
2862	0.000833405
2874	0.00100009
2886	0.000833405
2898	0.000833405
2910	0.000500043
2922	0.00100009
2934	0.00133345
2946	0.00100009
2958	0.00100009
2970	0.00100009
2982	0.00100009
2994	0.00166681
3006	0.0026669
3018	0.00333362
3030	0.00500043
3042	0.00833405
3054	0.0106676
3066	0.0210018
3078	0.0430037
3090	0.0305026
3102	0.0110009
3114	0.00366698
3126	0.00150013
3138	0.00166681
3150	0.00233353
3162	0.0026669
3174	0.00116677
3186	0.00116677
3198	0.000666724
3210	0.000666724
3222	0.000333362
3234	0.000833405
3246	0.000333362
3258	0.000500043
3270	0.000500043
3282	0.000666724
3294	0.000666724
3306	0.000333362
3318	0.00116677
3330	0.000500043
3342	0.000500043
3354	0.00100009
3366	0.00100009
3378	0.000666724
3390	0.000833405
3402	0.00116677
3414	0.00100009
3426	0.000833405
3438	0.000500043
3450	0
3462	0.000500043
3474	0.00166681
3486	0.00233353
3498	0.00683392
3510	0.0183349
3522	0.0206684
3534	0.00750065
3546	0.00400034
3558	0.0026669
3570	0.00333362
3582	0.00166681
3594	0.00233353
3606	0.00100009
3618	0.00100009
3630	0.00166681
3642	0.000666724
3654	0.000500043
3666	0.000833405
3678	0.00150013
3690	0.000666724
3702	0.00100009
3714	0.00133345
3726	0.00183349
3738	0.00233353
3750	0
3762	0.000333362
3774	0.000833405
3786	0.00116677
3798	0.00216685
3810	0.00283358
3822	0.000666724
3834	0.00150013
3846	0
3858	0.000833405
3870	0
3882	0
3894	0.00133345
3906	0.00200017
3918	0.00183349
3930	0
3942	0.000166681
3954	0.000166681
3966	0.000166681
