Infrared Spectrum: Glycine, N-benzoyl-, methyl ester
Formula: C 10 H 11 N O 3
CAS: 1205-08-9
Origin: Sadtler Research Labs Under US-EPA Contract
1/CM	ABSORBANCE
450	0.017281
462	0.0160323
474	0.019978
486	0.0177804
498	0.0185795
510	0.0152332
522	0.0142843
534	0.0219758
546	0.0182299
558	0.0114873
570	0.00938966
582	0.00389571
594	0.00259714
606	0.00234741
618	0.00324642
630	0.00189791
642	0.00234741
654	0.0107382
666	0.0195784
678	0.0279193
690	0.0630805
702	0.111977
714	0.124962
726	0.0618819
738	0.0215762
750	0.00709219
762	0.00149835
774	0.00119868
786	0.00234741
798	0.00369593
810	0.00279692
822	0.00734191
834	0.0178304
846	0.0237738
858	0.0106882
870	0.00519428
882	0.00524422
894	0.00039956
906	0.00119868
918	0.0059934
930	0.0103886
942	0.0113375
954	0.0129857
966	0.0177305
978	0.0348616
990	0.0479971
1002	0.0458995
1014	0.0446508
1026	0.056338
1038	0.0322645
1050	0.0208271
1062	0.0203776
1074	0.0229747
1086	0.0248227
1098	0.0270702
1110	0.0225252
1122	0.0235241
1134	0.0384077
1146	0.0836079
1158	0.139496
1170	0.126611
1182	0.266057
1194	0.300369
1206	0.459894
1218	0.43617
1230	0.244281
1242	0.196584
1254	0.176006
1266	0.151433
1278	0.143442
1290	0.113175
1302	0.0756167
1314	0.0522425
1326	0.0499949
1338	0.0558385
1350	0.0954948
1362	0.289581
1374	0.233243
1386	0.0575366
1398	0.0360603
1410	0.0414044
1422	0.0525921
1434	0.0933971
1446	0.158775
1458	0.097143
1470	0.150085
1482	0.356657
1494	0.249275
1506	0.324643
1518	0.239087
1530	0.116172
1542	0.0593347
1554	0.0377584
1566	0.0307162
1578	0.0350114
1590	0.031765
1602	0.0308161
1614	0.0248227
1626	0.0183298
1638	0.0179802
1650	0.0267206
1662	0.0406552
1674	0.060833
1686	0.165468
1698	0.403506
1710	0.365647
1722	0.15448
1734	0.100939
1746	0.120018
1758	0.252172
1770	0.383028
1782	0.119369
1794	0.052642
1806	0.0506442
1818	0.0244231
1830	0.0117371
1842	0.0180801
1854	0.0225751
1866	0.00724202
1878	0.00539406
1890	0.00624312
1902	0.00794125
1914	0.00584356
1926	0.00434521
1938	0.00509439
1950	0.00709219
1962	0.00764158
1974	0.00684246
1986	0.00429527
1998	0.00369593
2010	0.0034462
2022	0.00354609
2034	0.00379582
2046	0.00379582
2058	0.00419538
2070	0.00459494
2082	0.00374587
2094	0.00324642
2106	0.00319648
2118	0.00304664
2130	0.00289681
2142	0.00204774
2154	0.00154829
2166	0.00169813
2178	0.00124862
2190	0.00109879
2202	0.00109879
2214	0.000948955
2226	0.00129857
2238	0.00119868
2250	0.00109879
2262	0.00139846
2274	0.00124862
2286	0.0014484
2298	0.00209769
2310	0.00269703
2322	0.00474477
2334	0.00359604
2346	0.00524422
2358	0.0029967
2370	0.00249725
2382	0.00274698
2394	0.000649285
2406	0.00039956
2418	0.00059934
2430	0.000948955
2442	0.00114873
2454	0.00079912
2466	0.000948955
2478	0.000749175
2490	0.00029967
2502	0.000449505
2514	0.00029967
2526	0.00059934
2538	0.00059934
2550	0.00069923
2562	0.000849065
2574	0.00124862
2586	0.00159824
2598	0.00194785
2610	0.00179802
2622	0.00134852
2634	0.0009989
2646	0.00079912
2658	0.000849065
2670	0.00119868
2682	0.00059934
2694	0.00059934
2706	0.000349615
2718	0.00079912
2730	0.00049945
2742	0.000749175
2754	0.00149835
2766	0.0019978
2778	0.00194785
2790	0.00219758
2802	0.00274698
2814	0.00289681
2826	0.00364598
2838	0.0064429
2850	0.0139347
2862	0.0204774
2874	0.0161322
2886	0.0151333
2898	0.0166816
2910	0.021776
2922	0.0302667
2934	0.0450004
2946	0.0579861
2958	0.0712216
2970	0.0795124
2982	0.0264708
2994	0.0219758
3006	0.0249226
3018	0.0250724
3030	0.0367595
3042	0.0472979
3054	0.0273199
3066	0.0456997
3078	0.0641793
3090	0.0361102
3102	0.0213265
3114	0.0132854
3126	0.0064429
3138	0.00384576
3150	0.00279692
3162	0.00279692
3174	0.00164818
3186	0.00154829
3198	0.00079912
3210	0.000849065
3222	0.000549395
3234	0.000149835
3246	0.00019978
3258	0.00069923
3270	0.000449505
3282	0.000849065
3294	0.000649285
3306	0.000948955
3318	0.00104884
3330	0.00049945
3342	0.00079912
3354	0.00134852
3366	0.00204774
3378	0.0039956
3390	0.00474477
3402	0.00514433
3414	0.00524422
3426	0.00809109
3438	0.016332
3450	0.0342123
3462	0.0484466
3474	0.0332134
3486	0.0203776
3498	0.0123364
3510	0.00814103
3522	0.00479472
3534	0.00204774
3546	0.00174807
3558	0.00209769
3570	0.00274698
3582	0.00214763
3594	0.00284686
3606	0.0014484
3618	0.00169813
3630	0.00229747
3642	0.00189791
3654	0.00264708
3666	0.00159824
3678	0.00274698
3690	0.00214763
3702	0.0029967
3714	0.00284686
3726	0.00269703
3738	0.00374587
3750	0.000948955
3762	0.00169813
3774	0.00194785
3786	0.0014484
3798	0.00239736
3810	0.00194785
3822	0.00149835
3834	0.00184796
3846	0.00169813
3858	0.00294675
3870	0.00264708
3882	0.00234741
3894	0.00214763
3906	0.00309659
3918	0.00259714
3930	0.00284686
3942	0.00384576
3954	0.00324642
3966	0.00274698
