Infrared Spectrum: Cyclohexanecarbonitrile, 1-(4-methylphenyl)-
Formula: C 14 H 17 N
CAS: 1206-13-9
Origin: Sadtler Research Labs Under US-EPA Contract
1/CM	ABSORBANCE
450	0
462	0.0215538
474	0.018513
486	0.019944
498	0.0230742
510	0.0389042
522	0.0613524
534	0.057149
546	0.0438231
558	0.0262045
570	0.0235214
582	0.0236108
594	0.019318
606	0.0182447
618	0.0183342
630	0.0182447
642	0.0215538
654	0.0203912
666	0.019318
678	0.0189602
690	0.0202123
702	0.0248629
714	0.0289769
726	0.0276354
738	0.0228059
750	0.0228954
762	0.023432
774	0.0289769
786	0.0452541
798	0.0766458
810	0.152934
822	0.0686861
834	0.0451647
846	0.0342536
858	0.0210172
870	0.0218221
882	0.0215538
894	0.0292452
906	0.0349691
918	0.0242369
930	0.0257573
942	0.0308551
954	0.0270094
966	0.0220904
978	0.0210172
990	0.0208384
1002	0.035148
1014	0.0723529
1026	0.0405141
1038	0.0283509
1050	0.0279932
1062	0.0253995
1074	0.0238791
1086	0.023432
1098	0.025489
1110	0.0319283
1122	0.0370261
1134	0.0373838
1146	0.0352374
1158	0.032286
1170	0.0271882
1182	0.030229
1194	0.0555391
1206	0.0371155
1218	0.0269199
1230	0.027546
1242	0.0262045
1254	0.0256678
1266	0.0345219
1278	0.0330015
1290	0.0277248
1302	0.0253101
1314	0.0253101
1326	0.0267411
1338	0.0290664
1350	0.0427499
1362	0.0478477
1374	0.0304079
1386	0.0298713
1398	0.0289769
1410	0.0363106
1422	0.0414084
1434	0.0440915
1446	0.0815647
1458	0.130038
1470	0.0738733
1482	0.0405141
1494	0.0405141
1506	0.0826379
1518	0.173504
1530	0.0585799
1542	0.0268305
1554	0.0226271
1566	0.0210172
1578	0.0209278
1590	0.0209278
1602	0.0222693
1614	0.0223588
1626	0.022001
1638	0.0228954
1650	0.0184236
1662	0.0171715
1674	0.0162772
1686	0.0169927
1698	0.0182447
1710	0.0211961
1722	0.0229848
1734	0.0232531
1746	0.0243263
1758	0.0249524
1770	0.0236108
1782	0.0257573
1794	0.0238791
1806	0.0177081
1818	0.0160983
1830	0.0152934
1842	0.01583
1854	0.0170821
1866	0.017261
1878	0.0187813
1890	0.0217327
1902	0.0232531
1914	0.0188708
1926	0.0168138
1938	0.0160089
1950	0.0155617
1962	0.0155617
1974	0.0157406
1986	0.0156511
1998	0.0155617
2010	0.0151145
2022	0.0148462
2034	0.0146673
2046	0.0146673
2058	0.0146673
2070	0.0144885
2082	0.0146673
2094	0.0150251
2106	0.0148462
2118	0.0148462
2130	0.0148462
2142	0.0146673
2154	0.0145779
2166	0.0151145
2178	0.0154723
2190	0.0152934
2202	0.0153828
2214	0.0168138
2226	0.0190497
2238	0.022001
2250	0.0191391
2262	0.0162772
2274	0.0159194
2286	0.0155617
2298	0.0146673
2310	0.01583
2322	0.0166349
2334	0.0168138
2346	0.0170821
2358	0.0169927
2370	0.0159194
2382	0.0159194
2394	0.0154723
2406	0.0152934
2418	0.0155617
2430	0.0156511
2442	0.0154723
2454	0.0151145
2466	0.015204
2478	0.0159194
2490	0.0165455
2502	0.0163666
2514	0.0161877
2526	0.0157406
2538	0.0155617
2550	0.0152934
2562	0.0151145
2574	0.0156511
2586	0.0162772
2598	0.0173504
2610	0.017887
2622	0.018513
2634	0.0181553
2646	0.018513
2658	0.0194074
2670	0.0207489
2682	0.0211067
2694	0.0194968
2706	0.0181553
2718	0.0182447
2730	0.0183342
2742	0.0210172
2754	0.0201229
2766	0.0189602
2778	0.0200334
2790	0.022001
2802	0.0247735
2814	0.0263833
2826	0.0288875
2838	0.0319283
2850	0.0521406
2862	0.177976
2874	0.231905
2886	0.148552
2898	0.102761
2910	0.117518
2922	0.146584
2934	0.371692
2946	0.869129
2958	0.47329
2970	0.10455
2982	0.0604581
2994	0.0603686
3006	0.0678812
3018	0.0768247
3030	0.125656
3042	0.0989151
3054	0.0637672
3066	0.0638566
3078	0.0508885
3090	0.0432865
3102	0.0382782
3114	0.028172
3126	0.023432
3138	0.0224482
3150	0.0192285
3162	0.0167243
3174	0.017261
3186	0.0177976
3198	0.0176187
3210	0.0171715
3222	0.0162772
3234	0.0156511
3246	0.0156511
3258	0.01583
3270	0.0156511
3282	0.0151145
3294	0.0157406
3306	0.0153828
3318	0.0155617
3330	0.0156511
3342	0.0153828
3354	0.0153828
3366	0.0153828
3378	0.0156511
3390	0.01583
3402	0.015204
3414	0.0150251
3426	0.0146673
3438	0.0156511
3450	0.0156511
3462	0.0161877
3474	0.0159194
3486	0.0155617
3498	0.0147568
3510	0.0159194
3522	0.0162772
3534	0.0163666
3546	0.0155617
3558	0.0153828
3570	0.0156511
3582	0.0168138
3594	0.0169927
3606	0.0162772
3618	0.016456
3630	0.0159194
3642	0.0161877
3654	0.0165455
3666	0.0151145
3678	0.0169032
3690	0.0166349
3702	0.0166349
3714	0.0165455
3726	0.0176187
3738	0.0162772
3750	0.0160089
3762	0.0156511
3774	0.015204
3786	0.0163666
3798	0.0154723
3810	0.015204
3822	0.0160089
3834	0.0156511
3846	0.016456
3858	0.01583
3870	0.0160983
3882	0.0175293
3894	0.0167243
3906	0.0159194
3918	0.015204
3930	0.0160983
3942	0.0165455
3954	0.0169032
3966	0.0169032
