Infrared Spectrum: Cyclopentanecarbonitrile, 1-(4-methoxyphenyl)-
Formula: C 13 H 15 N O
CAS: 1206-15-1
Origin: Sadtler Research Labs Under US-EPA Contract
1/CM	ABSORBANCE
450	0.00296434
462	0.00543462
474	0.00555813
486	0.0151922
498	0.0229736
510	0.0297669
522	0.0470588
534	0.0579281
546	0.0594102
558	0.0573105
570	0.0410066
582	0.0431064
594	0.0800371
606	0.0650919
618	0.0217385
630	0.0142041
642	0.0161803
654	0.00988112
666	0.00691678
678	0.0070403
690	0.00679327
702	0.00691678
714	0.00605219
726	0.00666976
738	0.00864598
750	0.00926355
762	0.0121044
774	0.0202563
786	0.0605219
798	0.0854717
810	0.103752
822	0.201575
834	0.234059
846	0.108198
858	0.035572
870	0.0193917
882	0.0165509
894	0.0240852
906	0.0200093
918	0.0104987
930	0.0118573
942	0.0227266
954	0.0337193
966	0.026432
978	0.0243323
990	0.0329782
1002	0.0447121
1014	0.0804076
1026	0.161927
1038	0.33954
1050	0.276424
1062	0.0959704
1074	0.0479234
1086	0.0333488
1098	0.0314961
1110	0.0423653
1122	0.0523699
1134	0.0402656
1146	0.0352015
1158	0.0505172
1170	0.160198
1182	0.61757
1194	0.191817
1206	0.0805311
1218	0.113386
1230	0.269013
1242	0.637579
1254	1.19796
1266	0.632515
1278	0.366713
1290	0.422788
1302	0.329041
1314	0.188976
1326	0.117709
1338	0.0611394
1350	0.039895
1362	0.0301374
1374	0.0255674
1386	0.026679
1398	0.0243323
1410	0.0342134
1422	0.048294
1434	0.0641038
1446	0.166497
1458	0.189718
1470	0.242829
1482	0.177737
1494	0.202563
1506	0.674016
1518	1.09359
1530	0.204045
1542	0.0679327
1554	0.0527405
1566	0.0559518
1578	0.0915239
1590	0.114374
1602	0.202686
1614	0.29878
1626	0.122526
1638	0.0426123
1650	0.0219855
1662	0.018033
1674	0.00852247
1686	0.00358191
1698	0.00135865
1710	0.00753435
1722	0.0102517
1734	0.00951058
1746	0.0144511
1758	0.0165509
1770	0.00568164
1782	0.0061757
1794	0.00308785
1806	0.00605219
1818	0.00469353
1830	0.00370542
1842	0.00778138
1854	0.0130925
1866	0.0143276
1878	0.0192682
1890	0.0135865
1902	0.0100046
1914	0.00580516
1926	0.00296434
1938	0.00296434
1950	0.00308785
1962	0.00506407
1974	0.00802841
1986	0.00568164
1998	0.0044465
2010	0.00555813
2022	0.00901652
2034	0.0164274
2046	0.022109
2058	0.021615
2070	0.021862
2082	0.0198858
2094	0.0114868
2106	0.00543462
2118	0.00296434
2130	0.00111163
2142	0.000247028
2154	0.000247028
2166	0.000247028
2178	0.000864598
2190	0.00123514
2202	0.00160568
2214	0.00419948
2226	0.013463
2238	0.0219855
2250	0.0104987
2262	0.00481705
2274	0.00419948
2286	0.0061757
2298	0.00901652
2310	0.00864598
2322	0.00629921
2334	0.00518759
2346	0.00654624
2358	0.00592867
2370	0.00395245
2382	0.00432299
2394	0.00457002
2406	0.00555813
2418	0.00506407
2430	0.0053111
2442	0.00469353
2454	0.00333488
2466	0.00395245
2478	0.00481705
2490	0.00580516
2502	0.00679327
2514	0.00728733
2526	0.00852247
2538	0.0112398
2550	0.0124749
2562	0.00914004
2574	0.00605219
2586	0.00543462
2598	0.00555813
2610	0.00543462
2622	0.00407596
2634	0.0044465
2646	0.00469353
2658	0.00333488
2670	0.00247028
2682	0.00271731
2694	0.00333488
2706	0.00481705
2718	0.00629921
2730	0.00765787
2742	0.00778138
2754	0.00914004
2766	0.0118573
2778	0.0135865
2790	0.0165509
2802	0.022356
2814	0.0297669
2826	0.0455767
2838	0.0994288
2850	0.169461
2862	0.0978231
2874	0.126602
2886	0.226525
2898	0.196881
2910	0.183418
2922	0.23727
2934	0.280006
2946	0.409202
2958	0.511842
2970	0.602748
2982	0.619546
2994	0.253574
3006	0.233812
3018	0.174031
3030	0.0844836
3042	0.107951
3054	0.0899182
3066	0.0683032
3078	0.0722557
3090	0.053111
3102	0.044465
3114	0.0347074
3126	0.0242087
3138	0.0179095
3150	0.0121044
3162	0.00938706
3174	0.00802841
3186	0.00629921
3198	0.00555813
3210	0.00494056
3222	0.00481705
3234	0.00457002
3246	0.0044465
3258	0.00321136
3270	0.00370542
3282	0.00308785
3294	0.00271731
3306	0.00247028
3318	0.00222325
3330	0.00209974
3342	0.00284082
3354	0.00234677
3366	0.00234677
3378	0.00259379
3390	0.00222325
3402	0.00259379
3414	0.00135865
3426	0.00209974
3438	0.00222325
3450	0.00197622
3462	0.00271731
3474	0.00234677
3486	0.00321136
3498	0.00222325
3510	0.00259379
3522	0.00296434
3534	0.00271731
3546	0.00296434
3558	0.00284082
3570	0.00259379
3582	0.00296434
3594	0.00234677
3606	0.00284082
3618	0.00271731
3630	0.00321136
3642	0.00259379
3654	0.00234677
3666	0.00271731
3678	0.00333488
3690	0.00419948
3702	0.00308785
3714	0.00419948
3726	0.00333488
3738	0.00308785
3750	0.00358191
3762	0.00234677
3774	0.00234677
3786	0.00382893
3798	0.00321136
3810	0.00296434
3822	0.00469353
3834	0.00370542
3846	0.00457002
3858	0.00296434
3870	0.00345839
3882	0.00506407
3894	0.00370542
3906	0.00284082
3918	0.00370542
3930	0.00284082
3942	0.00296434
3954	0.00395245
3966	0.00481705
