Infrared Spectrum: 2,5-Norbornadiene
Formula: C 7 H 8
CAS: 121-46-0
Origin: Sadtler Research Labs Under US-EPA Contract
1/CM	ABSORBANCE
450	0
462	0.046498
474	0.0533797
486	0.0945769
498	0.093089
510	0.0958789
522	0.0677941
534	0.0493809
546	0.0522638
558	0.0532867
570	0.0396163
582	0.04594
594	0.0447311
606	0.0365474
618	0.047056
630	0.0634233
642	0.221516
654	0.319441
666	0.223934
678	0.116524
690	0.0481719
702	0.108061
714	0.301679
726	0.483858
738	0.30977
750	0.203475
762	0.0521708
774	0.0595174
786	0.0896481
798	0.115222
810	0.0718859
822	0.0520778
834	0.0437081
846	0.0544957
858	0.0726299
870	0.0972738
882	0.112246
894	0.118756
906	0.0781166
918	0.0779306
930	0.0543097
942	0.0561696
954	0.0511478
966	0.0429642
978	0.0404533
990	0.0398023
1002	0.0422202
1014	0.0423132
1026	0.0424992
1038	0.0441731
1050	0.0432431
1062	0.047335
1074	0.0450101
1086	0.0429642
1098	0.0409182
1110	0.0426852
1122	0.0421272
1134	0.046033
1146	0.0492879
1158	0.0490089
1170	0.0434291
1182	0.0409182
1194	0.0479859
1206	0.070212
1218	0.0916011
1230	0.0769077
1242	0.0585875
1254	0.0495669
1266	0.0485439
1278	0.046312
1290	0.070305
1302	0.151397
1314	0.229979
1326	0.169997
1338	0.106759
1350	0.0610984
1362	0.0446381
1374	0.0491949
1386	0.0540307
1398	0.0477069
1410	0.0429642
1422	0.0417552
1434	0.0491949
1446	0.0530077
1458	0.0578435
1470	0.0481719
1482	0.0437081
1494	0.0431501
1506	0.0417552
1518	0.0532867
1530	0.0952279
1542	0.120151
1554	0.102203
1566	0.0864863
1578	0.0505898
1590	0.0487299
1602	0.0500318
1614	0.0487299
1626	0.0543097
1638	0.0578435
1650	0.0512408
1662	0.0513338
1674	0.04687
1686	0.046498
1698	0.0451961
1710	0.045475
1722	0.0446381
1734	0.0440801
1746	0.0451961
1758	0.046684
1770	0.047149
1782	0.046684
1794	0.046219
1806	0.047521
1818	0.0480789
1830	0.045568
1842	0.0446381
1854	0.045475
1866	0.0451031
1878	0.0451961
1890	0.0443591
1902	0.0438011
1914	0.0431501
1926	0.0436151
1938	0.0443591
1950	0.0449171
1962	0.0449171
1974	0.0451031
1986	0.045661
1998	0.046126
2010	0.0451961
2022	0.0436151
2034	0.0434291
2046	0.0441731
2058	0.0411972
2070	0.0403603
2082	0.0446381
2094	0.0477999
2106	0.0488229
2118	0.0491019
2130	0.0504968
2142	0.0503108
2154	0.0495669
2166	0.0483579
2178	0.0487299
2190	0.0489159
2202	0.0485439
2214	0.046777
2226	0.0451031
2238	0.0441731
2250	0.0439871
2262	0.0443591
2274	0.0434291
2286	0.0437081
2298	0.045382
2310	0.046777
2322	0.0477999
2334	0.045475
2346	0.0405463
2358	0.0491019
2370	0.0368264
2382	0.0369194
2394	0.0422202
2406	0.0433361
2418	0.0434291
2430	0.0424992
2442	0.0428712
2454	0.0431501
2466	0.0440801
2478	0.0445451
2490	0.0435221
2502	0.0426852
2514	0.0415692
2526	0.0408252
2538	0.0405463
2550	0.0407322
2562	0.0405463
2574	0.0399883
2586	0.0405463
2598	0.0411042
2610	0.0427782
2622	0.0432431
2634	0.0436151
2646	0.0446381
2658	0.0441731
2670	0.0430571
2682	0.0403603
2694	0.0371054
2706	0.0383144
2718	0.0403603
2730	0.0395233
2742	0.0402673
2754	0.0394303
2766	0.0399883
2778	0.0403603
2790	0.0415692
2802	0.0399883
2814	0.0408252
2826	0.0413832
2838	0.0412902
2850	0.0535657
2862	0.0969948
2874	0.0978318
2886	0.0776517
2898	0.0959719
2910	0.0629583
2922	0.101459
2934	0.191386
2946	0.388444
2958	0.31256
2970	0.394117
2982	0.549978
2994	0.662504
3006	0.369287
3018	0.246346
3030	0.0606334
3042	0.0543097
3054	0.0964369
3066	0.182923
3078	0.244207
3090	0.198174
3102	0.146562
3114	0.116524
3126	0.111874
3138	0.0842544
3150	0.0659342
3162	0.0484509
3174	0.0434291
3186	0.0428712
3198	0.0415692
3210	0.0420342
3222	0.0420342
3234	0.0437081
3246	0.0445451
3258	0.0428712
3270	0.0437081
3282	0.0434291
3294	0.0441731
3306	0.0427782
3318	0.0420342
3330	0.0373844
3342	0.0373844
3354	0.0381284
3366	0.0396163
3378	0.0400813
3390	0.0408252
3402	0.0393373
3414	0.0385003
3426	0.0376634
3438	0.0385003
3450	0.0387793
3462	0.0399883
3474	0.0438011
3486	0.0396163
3498	0.0425922
3510	0.0380354
3522	0.0380354
3534	0.0397093
3546	0.0388723
3558	0.0388723
3570	0.0385003
3582	0.0408252
3594	0.0388723
3606	0.0407322
3618	0.0409182
3630	0.0411042
3642	0.0411042
3654	0.0393373
3666	0.0415692
3678	0.0411042
3690	0.0386863
3702	0.0402673
3714	0.0400813
3726	0.0389653
3738	0.0392443
3750	0.0383144
3762	0.0414762
3774	0.047428
3786	0.047428
3798	0.0426852
3810	0.0384073
3822	0.0370124
3834	0.0385933
3846	0.0368264
3858	0.0368264
3870	0.0368264
3882	0.0381284
3894	0.0368264
3906	0.0368264
3918	0.0368264
3930	0.0376634
3942	0.0368264
3954	0.0372914
3966	0.0368264
