Infrared Spectrum: Benzoic acid, 4-hydroxy-3-methoxy-
Formula: C 8 H 8 O 4
CAS: 121-34-6
Origin: Sadtler Research Labs Under US-EPA Contract
1/CM	ABSORBANCE
450	0.0421689
462	0.0414419
474	0.0441319
486	0.0450771
498	0.0302453
510	0.0466039
522	0.0599089
534	0.0871006
546	0.0498029
558	0.0376612
570	0.0285004
582	0.0264646
594	0.0718325
606	0.151953
618	0.121854
630	0.0282822
642	0.00632534
654	0.000218115
666	0.00734321
678	0.013305
690	0.0157043
702	0.0507481
714	0.0913902
726	0.0547469
738	0.0424597
750	0.0532201
762	0.144683
774	0.126434
786	0.0924081
798	0.066307
810	0.0248651
822	0.0279914
834	0.0389699
846	0.0140321
858	0.0104695
870	0.0259557
882	0.0408602
894	0.0433322
906	0.0372977
918	0.0265373
930	0.0161405
942	0.0181763
954	0.0127961
966	0.0143956
978	0.016504
990	0.0210117
1002	0.0349711
1014	0.0608541
1026	0.124907
1038	0.130796
1050	0.0792484
1062	0.10026
1074	0.179799
1086	0.212299
1098	0.148609
1110	0.161769
1122	0.164895
1134	0.130651
1146	0.267118
1158	0.479199
1170	0.331026
1182	0.286894
1194	0.254976
1206	0.240654
1218	0.219569
1230	0.245089
1242	0.238691
1254	0.178636
1266	0.335752
1278	0.392971
1290	0.341277
1302	0.180672
1314	0.100696
1326	0.0980063
1338	0.16773
1350	0.198703
1362	0.136467
1374	0.164895
1386	0.151154
1398	0.0833199
1410	0.0578005
1422	0.110875
1434	0.18518
1446	0.0866644
1458	0.0900088
1470	0.0998967
1482	0.0636896
1494	0.0907358
1506	0.224804
1518	0.296855
1530	0.0752497
1542	0.0228294
1554	0.0192668
1566	0.0296636
1578	0.0649256
1590	0.130651
1602	0.174347
1614	0.128906
1626	0.0671067
1638	0.0284277
1650	0.0247924
1662	0.0275552
1674	0.0300272
1686	0.0405694
1698	0.0518387
1710	0.063835
1722	0.065798
1734	0.0947346
1746	0.398133
1758	0.72705
1770	0.197539
1782	0.0623809
1794	0.0410056
1806	0.0443501
1818	0.037225
1830	0.0105422
1842	0.00690698
1854	0.00661616
1866	0.00661616
1878	0.00668886
1890	0.00538017
1902	0.00697968
1914	0.0042896
1926	0.00458042
1938	0.00458042
1950	0.00552558
1962	0.00348984
1974	0.00225385
1986	0.00298091
1998	0.00210845
2010	0.00312632
2022	0.0014541
2034	0.0043623
2046	0.00530746
2058	0.00894272
2070	0.00828837
2082	0.00647074
2094	0.00458042
2106	0.00152681
2118	0.00225385
2130	0.00269009
2142	0.00472583
2154	0.00305361
2166	0.00312632
2178	0.00327173
2190	0.00225385
2202	0.00370796
2214	0.0014541
2226	0.00283549
2238	0.00087246
2250	0.00232656
2262	0.0029082
2274	0.00559829
2286	0.00828837
2298	0.0123599
2310	0.0143956
2322	0.00712509
2334	0.00879731
2346	0.012069
2358	0.00821567
2370	0.0127961
2382	0.0109058
2394	0.00508935
2406	0.00523476
2418	0.00734321
2430	0.00538017
2442	0.00552558
2454	0.00392607
2466	0.00676157
2478	0.00821567
2490	0.00974247
2502	0.0111966
2514	0.00945165
2526	0.0106149
2538	0.00690698
2550	0.00814296
2562	0.00748862
2574	0.00807026
2586	0.00734321
2598	0.00676157
2610	0.00734321
2622	0.00639804
2634	0.00807026
2646	0.00741591
2658	0.00799755
2670	0.00763403
2682	0.00814296
2694	0.00814296
2706	0.00879731
2718	0.00945165
2730	0.00792484
2742	0.00828837
2754	0.00799755
2766	0.00996059
2778	0.0107603
2790	0.0111966
2802	0.0115601
2814	0.0127234
2826	0.0160678
2838	0.020939
2850	0.0302453
2862	0.0311177
2874	0.0220296
2886	0.0198485
2898	0.0229021
2910	0.0276279
2922	0.0316994
2934	0.0377339
2946	0.0519114
2958	0.0628171
2970	0.052493
2982	0.0394788
2994	0.0297363
3006	0.0405694
3018	0.0520568
3030	0.0254468
3042	0.0234837
3054	0.0251559
3066	0.0319902
3078	0.0275552
3090	0.025374
3102	0.0193395
3114	0.0162859
3126	0.0167949
3138	0.013814
3150	0.0130142
3162	0.00821567
3174	0.00937894
3186	0.0118509
3198	0.0137412
3210	0.0140321
3222	0.0125053
3234	0.0127961
3246	0.0117055
3258	0.0148318
3270	0.0103241
3282	0.0107603
3294	0.00901542
3306	0.00930624
3318	0.0119963
3330	0.0132323
3342	0.016504
3354	0.0129415
3366	0.0115601
3378	0.00814296
3390	0.010106
3402	0.010833
3414	0.0121417
3426	0.0117782
3438	0.00901542
3450	0.0135231
3462	0.0122871
3474	0.0143229
3486	0.0116328
3498	0.0144683
3510	0.0135958
3522	0.0141775
3534	0.020939
3546	0.022684
3558	0.0479853
3570	0.176019
3582	0.392825
3594	0.222332
3606	0.0231202
3618	0.00610722
3630	0.00559829
3642	0.00836108
3654	0.00857919
3666	0.0057437
3678	0.00530746
3690	0.00523476
3702	0.00239927
3714	0.00232656
3726	0.00276279
3738	0.00269009
3750	0.00254468
3762	0.00407148
3774	0.00676157
3786	0.00414418
3798	0.00298091
3810	0.00203574
3822	0.00319902
3834	0.0042896
3846	0.00414418
3858	0.00799755
3870	0.00668886
3882	0.00908813
3894	0.00625263
3906	0.00617993
3918	0.00559829
3930	0.00683427
3942	0.00647074
3954	0
3966	0.00072705
