Infrared Spectrum: Oxiranecarboxylic acid, 3-phenyl-, ethyl ester
Formula: C 11 H 12 O 3
CAS: 121-39-1
Origin: Sadtler Research Labs Under US-EPA Contract
1/CM	ABSORBANCE
450	0.0126447
462	0.0192473
474	0.00311445
486	0.0170049
498	0.0330132
510	0.0311445
522	0.0343212
534	0.0128315
546	0.0205554
558	0
570	0.0151985
582	0.0147625
594	0.043104
606	0.059922
618	0.0153231
630	0.012707
642	0.0128938
654	0.0104023
666	0.0329509
678	0.0438515
690	0.106016
702	0.123768
714	0.0628496
726	0.0717569
738	0.0815363
750	0.100036
762	0.0881389
774	0.0497689
786	0.0320165
798	0.0261614
810	0.0268466
822	0.0366259
834	0.0361899
846	0.0380586
858	0.0412353
870	0.0387438
882	0.0551881
894	0.0733142
906	0.0535685
918	0.0416713
930	0.0342589
942	0.0381209
954	0.0433531
966	0.0327017
978	0.0249156
990	0.0260368
1002	0.040301
1014	0.0656526
1026	0.157404
1038	0.200695
1050	0.15865
1062	0.114363
1074	0.0823461
1086	0.089883
1098	0.106016
1110	0.108009
1122	0.062289
1134	0.0474019
1146	0.0578042
1158	0.0989149
1170	0.203062
1182	0.430542
1194	0.615914
1206	0.271954
1218	0.149867
1230	0.17198
1242	0.216641
1254	0.241557
1266	0.286529
1278	0.363581
1290	0.265476
1302	0.146192
1314	0.110874
1326	0.0959251
1338	0.105954
1350	0.0606695
1362	0.0485854
1374	0.0868309
1386	0.0568699
1398	0.062725
1410	0.0844639
1422	0.108632
1434	0.110874
1446	0.0771138
1458	0.0857097
1470	0.0707603
1482	0.0529456
1494	0.042668
1506	0.0335115
1518	0.0123332
1530	0.0106514
1542	0.00797299
1554	0.01034
1566	0.0102777
1578	0.0119595
1590	0.0173786
1602	0.0237321
1614	0.0233584
1626	0.0209914
1638	0.0120841
1650	0.0100908
1662	0.0139527
1674	0.0135167
1686	0.0175032
1698	0.0306462
1710	0.0613547
1722	0.0769269
1734	0.155909
1746	0.328699
1758	0.415218
1770	0.366944
1782	0.175842
1794	0.0602958
1806	0.0367505
1818	0.0185621
1830	0.0118972
1842	0.0104646
1854	0.00940564
1866	0.00946793
1878	0.0115858
1890	0.0117103
1902	0.00971708
1914	0.0073501
1926	0.00685179
1938	0.00859588
1950	0.0108383
1962	0.0105268
1974	0.00548143
1986	0.00392421
1998	0.00330132
2010	0.00330132
2022	0.00317674
2034	0.00386192
2046	0.00386192
2058	0.00373734
2070	0.00392421
2082	0.00404879
2094	0.0039865
2106	0.00404879
2118	0.00429794
2130	0.00442252
2142	0.00516999
2154	0.00436023
2166	0.00436023
2178	0.00342589
2190	0.00342589
2202	0.00361276
2214	0.00404879
2226	0.002803
2238	0.00267843
2250	0.00242927
2262	0.00274072
2274	0.00274072
2286	0.00386192
2298	0.00591746
2310	0.00878275
2322	0.00971708
2334	0.00928106
2346	0.00429794
2358	0.00286529
2370	0.0067895
2382	0.00548143
2394	0.00199325
2406	0.00199325
2418	0.002803
2430	0.00255385
2442	0.00205554
2454	0.00130807
2466	0.0011212
2478	0.000809757
2490	0.000934335
2502	0.000498312
2514	0.00118349
2526	0.000436023
2538	0.000436023
2550	0.000498312
2562	0.00130807
2574	0.00143265
2586	0.00105891
2598	0.00118349
2610	0.00130807
2622	0.00124578
2634	0.00124578
2646	0.00105891
2658	0.000685179
2670	0.00118349
2682	0.0011212
2694	0.00205554
2706	0.00236698
2718	0.00261614
2730	0.00323903
2742	0.00298987
2754	0.00286529
2766	0.00323903
2778	0.00442252
2790	0.00404879
2802	0.00448481
2814	0.00523228
2826	0.00616661
2838	0.00685179
2850	0.00747468
2862	0.00977937
2874	0.0142642
2886	0.0238567
2898	0.0247287
2910	0.0317051
2922	0.0348196
2934	0.0384946
2946	0.0619153
2958	0.0515753
2970	0.0630988
2982	0.106826
2994	0.129873
3006	0.0827198
3018	0.062725
3030	0.0668984
3042	0.0746845
3054	0.0483363
3066	0.0573059
3078	0.0850868
3090	0.040737
3102	0.0302725
3114	0.0181261
3126	0.00990395
3138	0.00479625
3150	0.00429794
3162	0.00423565
3174	0.00442252
3186	0.00255385
3198	0.00242927
3210	0.00267843
3222	0.00149494
3234	0.00211783
3246	0.00186867
3258	0.00149494
3270	0.0016818
3282	0.00137036
3294	0.0016818
3306	0.00155722
3318	0.00161951
3330	0.00205554
3342	0.00199325
3354	0.00199325
3366	0.00180638
3378	0.00218011
3390	0.00211783
3402	0.00249156
3414	0.00211783
3426	0.00186867
3438	0.00348818
3450	0.00298987
3462	0.00355047
3474	0.00485854
3486	0.0120841
3498	0.0106514
3510	0.00797299
3522	0.00660263
3534	0.00442252
3546	0.00479625
3558	0.00298987
3570	0.00305216
3582	0.00355047
3594	0.00597974
3606	0.00348818
3618	0.00261614
3630	0.00249156
3642	0.00230469
3654	0.00311445
3666	0.00255385
3678	0.00298987
3690	0.00355047
3702	0.00255385
3714	0.00180638
3726	0.00330132
3738	0.00342589
3750	0.002803
3762	0.00286529
3774	0.00249156
3786	0.00429794
3798	0.00249156
3810	0.00255385
3822	0.00323903
3834	0.00330132
3846	0.00516999
3858	0.00149494
3870	0.00585517
3882	0.00379963
3894	0.00323903
3906	0.00286529
3918	0.00423565
3930	0.00255385
3942	0.00579288
3954	0.00249156
3966	0.00436023
