Infrared Spectrum: Ethanone, 1-(3-nitrophenyl)-
Formula: C 8 H 7 N O 3
CAS: 121-89-1
Origin: Sadtler Research Labs Under US-EPA Contract
1/CM	ABSORBANCE
450	0.0208658
462	0.0109165
474	0.0043528
486	0.00663283
498	0.0051819
510	0.0166512
522	0.0172039
534	0.0147857
546	0.0114693
558	0.0086365
570	0.0272913
582	0.0831868
594	0.148617
606	0.0475353
618	0.0172039
630	0.0102947
642	0.0174803
654	0.0467753
666	0.102118
678	0.112205
690	0.0652919
702	0.0251495
714	0.0236295
726	0.0846377
738	0.11566
750	0.0719248
762	0.101013
774	0.0452553
786	0.0307459
798	0.0641865
810	0.0891978
822	0.0354442
834	0.0168584
846	0.0153384
858	0.0245277
870	0.0521645
882	0.0672265
894	0.0393824
906	0.0422152
918	0.0319205
930	0.0277059
942	0.0409716
954	0.0558954
966	0.0517499
978	0.0324732
990	0.021764
1002	0.0211422
1014	0.019553
1026	0.0233531
1038	0.0201749
1050	0.0223858
1062	0.0391752
1074	0.0541681
1086	0.0496771
1098	0.072823
1110	0.112827
1122	0.0739284
1134	0.0291568
1146	0.0271532
1158	0.0362042
1170	0.0402806
1182	0.024044
1194	0.0250804
1206	0.0355824
1218	0.0616992
1230	0.114624
1242	0.367915
1254	0.582169
1266	0.170657
1278	0.0855359
1290	0.1415
1302	0.0862268
1314	0.0703357
1326	0.0977652
1338	0.188898
1350	0.523717
1362	0.59502
1374	0.197396
1386	0.0565863
1398	0.0438734
1410	0.0498153
1422	0.0636337
1434	0.0997688
1446	0.0592118
1458	0.0348915
1470	0.0528554
1482	0.0644628
1494	0.072063
1506	0.0825649
1518	0.0688156
1530	0.132795
1542	0.495251
1554	0.614642
1566	0.179985
1578	0.103293
1590	0.112482
1602	0.109234
1614	0.144886
1626	0.0921687
1638	0.0353751
1650	0.0286041
1662	0.0358587
1674	0.0509208
1686	0.0504372
1698	0.129478
1710	0.561649
1722	0.372682
1734	0.0672265
1746	0.0492626
1758	0.0429061
1770	0.017273
1782	0.0115384
1794	0.0119529
1806	0.0113311
1818	0.00974197
1830	0.00829104
1842	0.0102947
1854	0.010502
1866	0.00884378
1878	0.00884378
1890	0.00760012
1902	0.00766921
1914	0.00718557
1926	0.00877468
1938	0.00753103
1950	0.0077383
1962	0.0078074
1974	0.00621828
1986	0.00504372
1998	0.0043528
2010	0.00476735
2022	0.00304005
2034	0.00338551
2046	0.00290186
2058	0.00366188
2070	0.00317823
2082	0.00352369
2094	0.00276368
2106	0.00221094
2118	0.00269459
2130	0.00228004
2142	0.00228004
2154	0.00165821
2166	0.00152002
2178	0.00248731
2190	0.00248731
2202	0.00310914
2214	0.00200367
2226	0.00248731
2238	0.00124366
2250	0.00207276
2262	0.00241822
2274	0.00310914
2286	0.00297096
2298	0.00297096
2310	0.00497462
2322	0.00476735
2334	0.00739284
2346	0.00538918
2358	0.00269459
2370	0.000760012
2382	0.00290186
2394	0.0026255
2406	0.00414552
2418	0.00532008
2430	0.00359278
2442	0.00297096
2454	0.00269459
2466	0.00476735
2478	0.00462916
2490	0.0043528
2502	0.00324732
2514	0.00131275
2526	0.00165821
2538	0.00186548
2550	0.00338551
2562	0.00276368
2574	0.00297096
2586	0.00276368
2598	0.00331642
2610	0.00504372
2622	0.00442189
2634	0.00490553
2646	0.00290186
2658	0.00338551
2670	0.00393824
2682	0.00545827
2694	0.00787649
2706	0.00822195
2718	0.00573464
2730	0.00456007
2742	0.00359278
2754	0.0026255
2766	0.00421461
2778	0.00504372
2790	0.00566554
2802	0.00552736
2814	0.00511281
2826	0.00711648
2838	0.00732375
2850	0.00905105
2862	0.00988016
2874	0.0119529
2886	0.0159603
2898	0.0183094
2910	0.0132657
2922	0.0121602
2934	0.0169966
2946	0.0148548
2958	0.0125057
2970	0.0136802
2982	0.0147857
2994	0.0129202
3006	0.0179639
3018	0.0279132
3030	0.0177566
3042	0.0122984
3054	0.0105711
3066	0.0171348
3078	0.0411788
3090	0.0545136
3102	0.0257022
3114	0.00870559
3126	0.00670192
3138	0.00552736
3150	0.00621828
3162	0.00476735
3174	0.0043528
3186	0.00310914
3198	0.00400734
3210	0.00469826
3222	0.00414552
3234	0.00532008
3246	0.00414552
3258	0.00386915
3270	0.00193458
3282	0.0026255
3294	0.00248731
3306	0.00324732
3318	0.00414552
3330	0.00449098
3342	0.00525099
3354	0.00449098
3366	0.00483644
3378	0.00449098
3390	0.00656374
3402	0.0132657
3414	0.0141639
3426	0.00684011
3438	0.00352369
3450	0.00456007
3462	0.00380006
3474	0.00476735
3486	0.00317823
3498	0.0025564
3510	0.00165821
3522	0.0026255
3534	0.00497462
3546	0.00628737
3558	0.00614919
3570	0.00400734
3582	0.00310914
3594	0.00179639
3606	0.00366188
3618	0.00407643
3630	0.00304005
3642	0.0042837
3654	0.00290186
3666	0.00476735
3678	0.00442189
3690	0.0069092
3702	0.00649465
3714	0.00497462
3726	0.00469826
3738	0.00497462
3750	0.00594191
3762	0.00808376
3774	0.00905105
3786	0.00649465
3798	0.00421461
3810	0.00407643
3822	0.00594191
3834	0.00815286
3846	0.00808376
3858	0.00711648
3870	0.00525099
3882	0.00836013
3894	0.00912014
3906	0.0102947
3918	0.00836013
3930	0.00580373
3942	0.0042837
3954	0
3966	0.000552736
