Infrared Spectrum: Benzenamine, N,N,3-trimethyl-
Formula: C 9 H 13 N
CAS: 121-72-2
Origin: Sadtler Research Labs Under US-EPA Contract
1/CM	ABSORBANCE
450	0.010652
462	0.00942052
474	0.00412532
486	0.00424847
498	0.000677292
510	0.00431004
522	0.00892794
534	0.0120065
546	0.00948209
558	0.00781964
570	0.00646506
582	0.00400218
594	0.00554148
606	0.00634192
618	0.00781964
630	0.00517205
642	0.00775807
654	0.00794279
666	0.012376
678	0.0467331
690	0.114462
702	0.0678523
714	0.0228432
726	0.0142847
738	0.0160087
750	0.0515973
762	0.136259
774	0.127085
786	0.0442703
798	0.0133611
810	0.0120065
822	0.0172402
834	0.0368201
846	0.042731
858	0.0324484
870	0.0187179
882	0.012376
894	0.0123144
906	0.0118834
918	0.0120681
930	0.0150236
942	0.0306629
954	0.0765956
966	0.0721008
978	0.035958
990	0.0753641
1002	0.135705
1014	0.0881095
1026	0.0405144
1038	0.0324484
1050	0.0499349
1062	0.0636039
1074	0.0495655
1086	0.0419305
1098	0.0442087
1110	0.0393445
1122	0.0523978
1134	0.0879248
1146	0.139892
1158	0.125176
1170	0.0918654
1182	0.0832453
1194	0.0534445
1206	0.0666825
1218	0.0990078
1230	0.102086
1242	0.0635423
1254	0.0392829
1266	0.032941
1278	0.0318943
1290	0.0365738
1302	0.0495655
1314	0.0802899
1326	0.13552
1338	0.236129
1350	0.288465
1362	0.149189
1374	0.0664362
1386	0.0507353
1398	0.0467947
1410	0.0490113
1422	0.0704384
1434	0.123698
1446	0.133673
1458	0.109721
1470	0.126654
1482	0.173017
1494	0.334521
1506	0.351453
1518	0.192967
1530	0.132996
1542	0.108551
1554	0.0801052
1566	0.0970375
1578	0.177266
1590	0.302811
1602	0.572065
1614	0.472873
1626	0.137613
1638	0.0554148
1650	0.0301703
1662	0.020134
1674	0.0181637
1686	0.0210576
1698	0.0219196
1710	0.019703
1722	0.0149004
1734	0.0141616
1746	0.00898951
1758	0.00843536
1770	0.00862008
1782	0.00646506
1794	0.00849694
1806	0.00886637
1818	0.0092358
1830	0.00732707
1842	0.00634192
1854	0.0076965
1866	0.00818908
1878	0.00751178
1890	0.00788122
1902	0.0113908
1914	0.0120065
1926	0.00584934
1938	0.00258602
1950	0.00258602
1962	0.00252445
1974	0.00147773
1986	0.0015393
1998	0.00166244
2010	0.0019703
2022	0.00233974
2034	0.00332489
2046	0.00424847
2058	0.00455633
2070	0.00227816
2082	0.00116987
2094	0.00116987
2106	0.00116987
2118	0.00104672
2130	0.00104672
2142	0.00104672
2154	0.00160087
2166	0.00147773
2178	0.00190873
2190	0.00246288
2202	0.00289388
2214	0.00203188
2226	0.000800436
2238	0.000246288
2250	0.000246288
2262	0.000554148
2274	0.000800436
2286	0.00123144
2298	0.00283231
2310	0.00381746
2322	0.00431004
2334	0.00486419
2346	0.00498733
2358	0.00584934
2370	0.00597248
2382	0.0019703
2394	0.00061572
2406	0.00172402
2418	0.00233974
2430	0.00240131
2442	0.00240131
2454	0.00332489
2466	0.00344803
2478	0.00400218
2490	0.00375589
2502	0.00406375
2514	0.00363275
2526	0.00424847
2538	0.00394061
2550	0.0041869
2562	0.00529519
2574	0.00634192
2586	0.00634192
2598	0.00609563
2610	0.00547991
2622	0.00597248
2634	0.00560305
2646	0.00554148
2658	0.00646506
2670	0.00714235
2682	0.00868165
2694	0.0092358
2706	0.0096668
2718	0.0113292
2730	0.016255
2742	0.0230279
2754	0.0312786
2766	0.0461174
2778	0.0756104
2790	0.134658
2802	0.197954
2814	0.18016
2826	0.137182
2838	0.141862
2850	0.167476
2862	0.18096
2874	0.194691
2886	0.188164
2898	0.174988
2910	0.176958
2922	0.209714
2934	0.239761
2946	0.222891
2958	0.208668
2970	0.181145
2982	0.163043
2994	0.15042
3006	0.112061
3018	0.0903261
3030	0.108551
3042	0.127762
3054	0.146788
3066	0.10301
3078	0.0725934
3090	0.0653895
3102	0.0447628
3114	0.026907
3126	0.0143463
3138	0.00738864
3150	0.0050489
3162	0.0041869
3174	0.00270917
3186	0.00252445
3198	0.00258602
3210	0.00240131
3222	0.0019703
3234	0.00172402
3246	0.00129301
3258	0.00160087
3270	0.00061572
3282	0.000246288
3294	0.0011083
3306	0.00030786
3318	0.000800436
3330	0.000369432
3342	0
3354	0.000800436
3366	0.00092358
3378	0.00104672
3390	0.00116987
3402	0.000985152
3414	0.000985152
3426	0.000677292
3438	0.00129301
3450	0.00233974
3462	0.00221659
3474	0.00147773
3486	0.00104672
3498	0.0011083
3510	0.000554148
3522	0.000431004
3534	0.000184716
3546	0.00116987
3558	0.00129301
3570	0.00141616
3582	0.00092358
3594	0.00141616
3606	0.00147773
3618	0.00209345
3630	0.0035096
3642	0.00160087
3654	0.00258602
3666	0.00221659
3678	0.00431004
3690	0.00387904
3702	0.00178559
3714	0.00320174
3726	0.00363275
3738	0.00492576
3750	0.00529519
3762	0.00394061
3774	0.0030786
3786	0.00369432
3798	0.0050489
3810	0.00424847
3822	0.0057262
3834	0.00529519
3846	0.0050489
3858	0.00541834
3870	0.00591091
3882	0.00547991
3894	0.00578777
3906	0.00560305
3918	0.0050489
3930	0.00517205
3942	0.00467947
3954	0.00147773
3966	0.00184716
