Infrared Spectrum: Triethylamine
Formula: C 6 H 15 N
CAS: 121-44-8
Origin: Sadtler Research Labs Under US-EPA Contract
1/CM	ABSORBANCE
450	0.0246592
462	0.0055524
474	0.0156774
486	0.0266189
498	0.0115947
510	0.017637
522	0.0192701
534	0.0174737
546	0.0127379
558	0.00571571
570	0.0081653
582	0.00718546
594	0.00587902
606	0.00783869
618	0.00718546
630	0.00783869
642	0.00800199
654	0.00653224
666	0.00751208
678	0.00914514
690	0.00963505
702	0.0129012
714	0.0233528
726	0.0471954
738	0.0772437
750	0.0672821
762	0.0367439
774	0.0324979
786	0.0439293
798	0.0550341
810	0.0483386
822	0.026129
834	0.0120846
846	0.00930844
858	0.00914514
870	0.00979836
882	0.0125746
894	0.0164939
906	0.0230261
918	0.0272721
930	0.0226995
942	0.0146975
954	0.0140443
966	0.0173104
978	0.0289052
990	0.0507882
1002	0.0614031
1014	0.0551974
1026	0.0545442
1038	0.0700583
1050	0.127705
1062	0.259003
1074	0.35666
1086	0.342453
1098	0.267169
1110	0.165266
1122	0.105169
1134	0.0981469
1146	0.085409
1158	0.0532378
1170	0.0388668
1182	0.0581369
1194	0.177187
1206	0.402876
1218	0.338207
1230	0.129175
1242	0.0584635
1254	0.0470321
1266	0.0565039
1278	0.0906348
1290	0.166246
1302	0.196131
1314	0.151385
1326	0.12052
1338	0.151385
1350	0.196457
1362	0.234344
1374	0.354047
1386	0.425739
1398	0.252471
1410	0.0824695
1422	0.049645
1434	0.0604232
1446	0.110395
1458	0.165102
1470	0.17735
1482	0.14175
1494	0.0674454
1506	0.034131
1518	0.024006
1530	0.0207399
1542	0.0184536
1554	0.0150242
1566	0.0119213
1578	0.0104516
1590	0.00930844
1602	0.00898183
1614	0.00881852
1626	0.00979836
1638	0.0112681
1650	0.011758
1662	0.0111048
1674	0.0112681
1686	0.0107782
1698	0.0111048
1710	0.0143709
1722	0.0156774
1734	0.0130645
1746	0.00800199
1758	0.00440926
1770	0.00522579
1782	0.0053891
1794	0.00669555
1806	0.00832861
1818	0.00702216
1830	0.00473587
1842	0.00342943
1854	0.00179637
1866	0.00114314
1878	0.00081653
1890	0.00130645
1902	0.00081653
1914	0.000489918
1926	0.00228628
1938	0.00424596
1950	0.00375604
1962	0.00195967
1974	0.000653224
1986	0.00114314
1998	0.00081653
2010	0.00163306
2022	0.00244959
2034	0.00375604
2046	0.00375604
2058	0.00342943
2070	0.00424596
2082	0.00375604
2094	0.00212298
2106	0.00244959
2118	0.00244959
2130	0.00212298
2142	0.000979836
2154	0
2166	0
2178	0.000163306
2190	0.000653224
2202	0.000489918
2214	0.000979836
2226	0.00114314
2238	0.000653224
2250	0.00179637
2262	0.00293951
2274	0.00424596
2286	0.00522579
2298	0.00669555
2310	0.00636893
2322	0.00440926
2334	0.00342943
2346	0.00800199
2358	0.00489918
2370	0.0132278
2382	0.011758
2394	0.00718546
2406	0.00751208
2418	0.0081653
2430	0.00914514
2442	0.00881852
2454	0.0081653
2466	0.00685885
2478	0.00718546
2490	0.00832861
2502	0.00881852
2514	0.010125
2526	0.0132278
2538	0.0153508
2550	0.017637
2562	0.0215564
2574	0.0264556
2586	0.0289052
2598	0.0272721
2610	0.025639
2622	0.0266189
2634	0.0324979
2646	0.043766
2658	0.053891
2670	0.0631994
2682	0.0725079
2694	0.0829594
2706	0.10174
2718	0.122806
2730	0.137994
2742	0.146159
2754	0.177024
2766	0.225526
2778	0.297217
2790	0.464932
2802	0.700583
2814	0.71675
2826	0.551974
2838	0.357314
2850	0.244142
2862	0.227485
2874	0.351271
2886	0.464606
2898	0.447132
2910	0.437497
2922	0.528622
2934	0.760516
2946	0.842169
2958	0.802486
2970	1.31608
2982	1.58864
2994	0.757413
3006	0.211481
3018	0.102883
3030	0.0754474
3042	0.0638526
3054	0.0543809
3066	0.0470321
3078	0.0382136
3090	0.0338043
3102	0.0284152
3114	0.0248225
3126	0.0210665
3138	0.0220463
3150	0.0223729
3162	0.0205766
3174	0.0191068
3186	0.0150242
3198	0.00996167
3210	0.00783869
3222	0.0055524
3234	0.0053891
3246	0.00440926
3258	0.00342943
3270	0.00359273
3282	0.00326612
3294	0.00359273
3306	0.00359273
3318	0.00440926
3330	0.00375604
3342	0.00359273
3354	0.00293951
3366	0.00293951
3378	0.0027762
3390	0.00163306
3402	0.00310281
3414	0.00359273
3426	0.00326612
3438	0.00375604
3450	0.00359273
3462	0.00440926
3474	0.00375604
3486	0.00342943
3498	0.00310281
3510	0.00228628
3522	0.00326612
3534	0.00440926
3546	0.0027762
3558	0.00440926
3570	0.00408265
3582	0.00195967
3594	0.00375604
3606	0.00440926
3618	0.00473587
3630	0.00653224
3642	0.00783869
3654	0.00751208
3666	0.00587902
3678	0.00571571
3690	0.00408265
3702	0.00424596
3714	0.00424596
3726	0.00620563
3738	0.00522579
3750	0.00489918
3762	0.00440926
3774	0.00310281
3786	0.00359273
3798	0.00359273
3810	0.00293951
3822	0.00146975
3834	0.00489918
3846	0.0055524
3858	0.00783869
3870	0.00440926
3882	0.00832861
3894	0.00244959
3906	0.00653224
3918	0.00440926
3930	0.00359273
3942	0.0026129
3954	0.0081653
3966	0.0053891
