Infrared Spectrum: 1-Propanone, 1-(4-methoxyphenyl)-
Formula: C 10 H 12 O 2
CAS: 121-97-1
Origin: Sadtler Research Labs Under US-EPA Contract
1/CM	ABSORBANCE
450	0.109993
462	0.0207514
474	0.034944
486	0.0195686
498	0.0355891
510	0.0421478
522	0.043008
534	0.0517171
546	0.0638669
558	0.0963379
570	0.11881
582	0.102144
594	0.099456
606	0.0683827
618	0.0416102
630	0.0416102
642	0.0389222
654	0.0278477
666	0.0193536
678	0.0234394
690	0.0246221
702	0.0144077
714	0.0104294
726	0.0138701
738	0.00451584
750	0.0209664
762	0.0284928
774	0.0354816
786	0.0693504
798	0.139668
810	0.129024
822	0.0893491
834	0.144077
846	0.169021
858	0.0801024
870	0.0259123
882	0.0198912
894	0.0199987
906	0.0222566
918	0.0356966
930	0.10795
942	0.262241
954	0.237404
966	0.0611789
978	0.0397824
990	0.0496742
1002	0.10881
1014	0.179236
1026	0.169774
1038	0.277724
1050	0.206546
1062	0.0801024
1074	0.0554803
1086	0.050857
1098	0.0678451
1110	0.078167
1122	0.064297
1134	0.0525773
1146	0.0619315
1158	0.159882
1170	0.96596
1182	0.48341
1194	0.164076
1206	0.286326
1218	0.731459
1230	0.955423
1242	0.591145
1254	1.00865
1266	0.732749
1278	0.299766
1290	0.298476
1302	0.373309
1314	0.319442
1326	0.233426
1338	0.217298
1350	0.287831
1362	0.181171
1374	0.0866611
1386	0.0787046
1398	0.0637594
1410	0.128916
1422	0.144077
1434	0.0895642
1446	0.144184
1458	0.164828
1470	0.248694
1482	0.118272
1494	0.118702
1506	0.39105
1518	0.273423
1530	0.0606413
1542	0.040105
1554	0.0584909
1566	0.117734
1578	0.265574
1590	0.408468
1602	1.01811
1614	0.732641
1626	0.149453
1638	0.0597811
1650	0.0518246
1662	0.0689203
1674	0.0892416
1686	0.310625
1698	0.897254
1710	0.463949
1722	0.0847258
1734	0.04032
1746	0.0340838
1758	0.0262349
1770	0.0202138
1782	0.0140851
1794	0.0111821
1806	0.0116122
1818	0.010537
1830	0.0069888
1842	0.0111821
1854	0.0127949
1866	0.0129024
1878	0.0149453
1890	0.0153754
1902	0.0178483
1914	0.0156979
1926	0.0116122
1938	0.0111821
1950	0.00935424
1962	0.010752
1974	0.0140851
1986	0.0108595
1998	0.00795648
2010	0.00731136
2022	0.0103219
2034	0.0116122
2046	0.0162355
2058	0.0230093
2070	0.0218266
2082	0.015913
2094	0.00989184
2106	0.00677376
2118	0.005376
2130	0.00354816
2142	0.00236544
2154	0.002688
2166	0.00301056
2178	0.00193536
2190	0.00139776
2202	0.0016128
2214	0.00225792
2226	0.00279552
2238	0.00290304
2250	0.00236544
2262	0.00258048
2274	0.0037632
2286	0.00634368
2298	0.00709632
2310	0.00741888
2322	0.00666624
2334	0.00774144
2346	0.00526848
2358	0.00408576
2370	0.00494592
2382	0.00290304
2394	0.00569856
2406	0.00849408
2418	0.00795648
2430	0.00827904
2442	0.00709632
2454	0.00677376
2466	0.0059136
2478	0.00580608
2490	0.00623616
2502	0.00731136
2514	0.00956928
2526	0.010537
2538	0.010967
2550	0.0156979
2562	0.0204288
2574	0.016128
2586	0.0117197
2598	0.0110746
2610	0.0096768
2622	0.00827904
2634	0.00623616
2646	0.00602112
2658	0.00505344
2670	0.00419328
2682	0.00397824
2694	0.0048384
2706	0.00677376
2718	0.0064512
2730	0.00666624
2742	0.00817152
2754	0.0108595
2766	0.0111821
2778	0.0116122
2790	0.0129024
2802	0.0166656
2814	0.0232243
2826	0.0359117
2838	0.0717158
2850	0.141066
2862	0.0731136
2874	0.0592435
2886	0.0937574
2898	0.112358
2910	0.144614
2922	0.20031
2934	0.173537
2946	0.295572
2958	0.277402
2970	0.207729
2982	0.242135
2994	0.211922
3006	0.173215
3018	0.168269
3030	0.059136
3042	0.0565555
3054	0.0638669
3066	0.0578458
3078	0.0664474
3090	0.0549427
3102	0.0447283
3114	0.0323635
3126	0.0207514
3138	0.0135475
3150	0.0119347
3162	0.0103219
3174	0.00763392
3186	0.00569856
3198	0.00634368
3210	0.0048384
3222	0.00354816
3234	0.00354816
3246	0.00344064
3258	0.00311808
3270	0.00419328
3282	0.0037632
3294	0.00311808
3306	0.00365568
3318	0.00419328
3330	0.00408576
3342	0.00451584
3354	0.00709632
3366	0.0122573
3378	0.0166656
3390	0.0154829
3402	0.00881664
3414	0.00634368
3426	0.00494592
3438	0.00666624
3450	0.00784896
3462	0.00666624
3474	0.00548352
3486	0.00720384
3498	0.00731136
3510	0.00688128
3522	0.00731136
3534	0.00688128
3546	0.00688128
3558	0.00870912
3570	0.00677376
3582	0.00795648
3594	0.00720384
3606	0.00774144
3618	0.00720384
3630	0.0043008
3642	0.00870912
3654	0.00333312
3666	0.00903168
3678	0.00784896
3690	0.00677376
3702	0.0108595
3714	0.00817152
3726	0.0130099
3738	0.0119347
3750	0
3762	0.00989184
3774	0.0110746
3786	0.00999936
3798	0.00666624
3810	0.00978432
3822	0.0064512
3834	0.00709632
3846	0.00677376
3858	0.00677376
3870	0.00720384
3882	0.00978432
3894	0.00989184
3906	0.0104294
3918	0.00741888
3930	0.0101069
3942	0.00989184
3954	0.00870912
3966	0.00827904
