Infrared Spectrum: Benzene, 1-chloro-3-nitro-
Formula: C 6 H 4 Cl N O 2
CAS: 121-73-3
Origin: Sadtler Research Labs Under US-EPA Contract
1/CM	ABSORBANCE
450	0.024116
462	0.0177179
474	0.0142728
486	0.00492164
498	0.0275612
510	0.00984328
522	0.00861287
534	0.00713638
546	0.0054138
558	0.00762854
570	0.0068903
582	0.0027069
594	0.00812071
606	0.00467556
618	0.00664421
630	0.00418339
642	0.0361741
654	0.0831757
666	0.138052
678	0.0890817
690	0.0369123
702	0.0447869
714	0.10237
726	0.312278
738	0.441225
750	0.838155
762	0.286932
774	0.0873591
786	0.156754
798	0.218767
810	0.0878513
822	0.0172257
834	0.0169797
846	0.0167336
858	0.0438026
870	0.165613
882	0.223935
894	0.177425
906	0.0713638
918	0.0401114
930	0.0265769
942	0.017964
954	0.0127963
966	0.0125502
978	0.0162414
990	0.0199326
1002	0.0253464
1014	0.0233778
1026	0.020917
1038	0.0258386
1050	0.0521694
1062	0.123287
1074	0.121565
1086	0.068903
1098	0.0610283
1110	0.0701334
1122	0.218029
1134	0.384872
1146	0.110491
1158	0.0620127
1170	0.0575832
1182	0.0265769
1194	0.0201787
1206	0.0233778
1218	0.0231317
1230	0.0253464
1242	0.0312524
1254	0.0504468
1266	0.10237
1278	0.110737
1290	0.0942494
1302	0.0789923
1314	0.0521694
1326	0.100401
1338	0.520463
1350	1.61233
1362	0.826589
1374	0.200557
1386	0.151833
1398	0.0543841
1410	0.0482321
1422	0.0533998
1434	0.0519233
1446	0.0885895
1458	0.15011
1470	0.262569
1482	0.149618
1494	0.123287
1506	0.22172
1518	0.376752
1530	0.491918
1542	1.39381
1554	2.05749
1566	0.742922
1578	0.298005
1590	0.269214
1602	0.200803
1614	0.0915425
1626	0.0408496
1638	0.0403574
1650	0.0317446
1662	0.0354358
1674	0.0142728
1686	0.0108276
1698	0.00787462
1710	0.0342054
1722	0.0275612
1734	0.000984328
1746	0.00812071
1758	0.0162414
1770	0.0182101
1782	0.0268229
1794	0.0204248
1806	0.0265769
1818	0.0260847
1830	0.0125502
1842	0.0115659
1854	0.017964
1866	0.0169797
1878	0.0268229
1890	0.0265769
1902	0.0196866
1914	0.0115659
1926	0.0140267
1938	0.0196866
1950	0.0233778
1962	0.0172257
1974	0.0105815
1986	0.0095972
1998	0.00861287
2010	0.00935112
2022	0.00615205
2034	0.00762854
2046	0.00615205
2058	0.00615205
2070	0.00590597
2082	0.00492164
2094	0.00492164
2106	0.00492164
2118	0.00442948
2130	0.00344515
2142	0.00344515
2154	0.00418339
2166	0.00319907
2178	0.00221474
2190	0.00196866
2202	0.00246082
2214	0.00196866
2226	0.00196866
2238	0.00147649
2250	0.000492164
2262	0
2274	0.000246082
2286	0
2298	0.00147649
2310	0.000492164
2322	0.00344515
2334	0.00590597
2346	0.00516772
2358	0.00319907
2370	0.00147649
2382	0.000738246
2394	0.000492164
2406	0.00221474
2418	0.00516772
2430	0.00590597
2442	0.0027069
2454	0.00246082
2466	0.00344515
2478	0.00492164
2490	0.00418339
2502	0.00221474
2514	0.00196866
2526	0.0027069
2538	0.00319907
2550	0.00246082
2562	0.00393731
2574	0.00442948
2586	0.00442948
2598	0.00393731
2610	0.00319907
2622	0.0027069
2634	0.00246082
2646	0.00196866
2658	0.0027069
2670	0.00442948
2682	0.00836679
2694	0.0135345
2706	0.0123041
2718	0.0095972
2730	0.00738246
2742	0.00590597
2754	0.00467556
2766	0.00393731
2778	0.00442948
2790	0.00467556
2802	0.00492164
2814	0.00590597
2826	0.00664421
2838	0.00836679
2850	0.0142728
2862	0.0182101
2874	0.0196866
2886	0.0305142
2898	0.035928
2910	0.0187022
2922	0.0147649
2934	0.0152571
2946	0.0123041
2958	0.00836679
2970	0.00615205
2982	0.00467556
2994	0.00565989
3006	0.00664421
3018	0.00565989
3030	0.00516772
3042	0.00516772
3054	0.0068903
3066	0.0187022
3078	0.0647196
3090	0.0885895
3102	0.0622587
3114	0.0246082
3126	0.0068903
3138	0.00344515
3150	0.00319907
3162	0.00393731
3174	0.00393731
3186	0.00492164
3198	0.00492164
3210	0.00344515
3222	0.00221474
3234	0.0027069
3246	0.00147649
3258	0.000984328
3270	0.00172257
3282	0.00172257
3294	0.00196866
3306	0.000984328
3318	0.00147649
3330	0.000984328
3342	0.00196866
3354	0.00172257
3366	0.000984328
3378	0.000984328
3390	0.000984328
3402	0.00147649
3414	0.000738246
3426	0.00147649
3438	0.000984328
3450	0.000246082
3462	0.00147649
3474	0.000738246
3486	0.000738246
3498	0.00221474
3510	0
3522	0.00147649
3534	0.000984328
3546	0.00221474
3558	0.00196866
3570	0.00172257
3582	0.00147649
3594	0.0027069
3606	0.00172257
3618	0.00172257
3630	0.00295298
3642	0.00147649
3654	0.00246082
3666	0.000984328
3678	0.00295298
3690	0.00344515
3702	0.00319907
3714	0.00319907
3726	0.00467556
3738	0.00442948
3750	0.00516772
3762	0.00319907
3774	0.00565989
3786	0.00344515
3798	0.00246082
3810	0.00246082
3822	0.00492164
3834	0.00418339
3846	0.00418339
3858	0.00467556
3870	0.00467556
3882	0.00393731
3894	0.000738246
3906	0.0054138
3918	0.00910503
3930	0.00664421
3942	0.00393731
3954	0.00565989
3966	0.00787462
