Infrared Spectrum: Benzene, 1-chloro-2-nitro-4-(trifluoromethyl)-
Formula: C 7 H 3 Cl F 3 N O 2
CAS: 121-17-5
Origin: Sadtler Research Labs Under US-EPA Contract
1/CM	ABSORBANCE
450	0
462	0.0471262
474	0.0408066
486	0.0405357
498	0.0562444
510	0.064821
522	0.0752032
534	0.060307
546	0.0545291
558	0.0596751
570	0.0449594
582	0.054168
594	0.0500151
606	0.0433344
618	0.0427927
630	0.0530846
642	0.0481192
654	0.0529944
666	0.0605779
678	0.0649113
690	0.0482998
702	0.0488415
714	0.0803492
726	0.0614807
738	0.0442372
750	0.0453206
762	0.0462234
774	0.0473067
786	0.0826965
798	0.0789047
810	0.0449594
822	0.0611196
834	0.114475
846	0.0532652
858	0.0421608
870	0.0458622
882	0.0471262
894	0.0640988
906	0.0826062
918	0.051279
930	0.042883
942	0.0425219
954	0.0411677
966	0.0417996
978	0.0407163
990	0.040626
1002	0.0427927
1014	0.0423413
1026	0.045772
1038	0.0566056
1050	0.0845021
1062	0.0778214
1074	0.106079
1086	0.34496
1098	0.110503
1110	0.0641891
1122	0.0640085
1134	0.0749324
1146	0.197172
1158	0.629793
1170	0.327897
1182	0.370961
1194	0.259645
1206	0.0729462
1218	0.0608487
1230	0.0557028
1242	0.0626543
1254	0.152754
1266	0.0957871
1278	0.0864882
1290	0.0885647
1302	0.114746
1314	0.285285
1326	0.9028
1338	0.169275
1350	0.165935
1362	0.191303
1374	0.0888355
1386	0.0598556
1398	0.063828
1410	0.0622932
1422	0.0501054
1434	0.0492026
1446	0.0475776
1458	0.0474873
1470	0.0472164
1482	0.0547097
1494	0.0561542
1506	0.0529041
1518	0.0644599
1530	0.0890161
1542	0.128649
1554	0.242853
1566	0.29991
1578	0.15483
1590	0.12567
1602	0.0808909
1614	0.109419
1626	0.133073
1638	0.0529041
1650	0.048029
1662	0.0484804
1674	0.0458622
1686	0.0447789
1698	0.0441469
1710	0.0420705
1722	0.0421608
1734	0.042883
1746	0.0423413
1758	0.0424316
1770	0.0425219
1782	0.0436955
1794	0.0458622
1806	0.0439664
1818	0.0423413
1830	0.042251
1842	0.0410774
1854	0.0411677
1866	0.0427024
1878	0.0423413
1890	0.0413482
1902	0.0421608
1914	0.0429733
1926	0.0449594
1938	0.0414385
1950	0.0404454
1962	0.0407163
1974	0.0408066
1986	0.0407163
1998	0.040626
2010	0.0395426
2022	0.0398135
2034	0.0394524
2046	0.0407163
2058	0.0388204
2070	0.0398135
2082	0.0409871
2094	0.0399038
2106	0.0400843
2118	0.0403552
2130	0.0403552
2142	0.0401746
2154	0.0401746
2166	0.0401746
2178	0.040626
2190	0.0399038
2202	0.039994
2214	0.040626
2226	0.0401746
2238	0.0403552
2250	0.0404454
2262	0.039994
2274	0.0401746
2286	0.0411677
2298	0.0441469
2310	0.047397
2322	0.0461331
2334	0.0436052
2346	0.0427927
2358	0.0464039
2370	0.0380982
2382	0.0385496
2394	0.0399038
2406	0.0408968
2418	0.0400843
2430	0.0399038
2442	0.0403552
2454	0.0401746
2466	0.039994
2478	0.0400843
2490	0.0395426
2502	0.0391815
2514	0.0391815
2526	0.0390912
2538	0.0385496
2550	0.0395426
2562	0.039994
2574	0.039994
2586	0.0398135
2598	0.0393621
2610	0.0396329
2622	0.0399038
2634	0.0398135
2646	0.0401746
2658	0.039001
2670	0.0402649
2682	0.040626
2694	0.0397232
2706	0.0401746
2718	0.039994
2730	0.0400843
2742	0.0397232
2754	0.039994
2766	0.0393621
2778	0.0384593
2790	0.0386398
2802	0.039001
2814	0.0389107
2826	0.0388204
2838	0.0391815
2850	0.0403552
2862	0.0403552
2874	0.0414385
2886	0.0421608
2898	0.0427927
2910	0.043515
2922	0.0445983
2934	0.0416191
2946	0.0411677
2958	0.0399038
2970	0.039994
2982	0.0395426
2994	0.0394524
3006	0.0395426
3018	0.0407163
3030	0.0394524
3042	0.0392718
3054	0.0386398
3066	0.0404454
3078	0.0407163
3090	0.0466748
3102	0.042251
3114	0.0408066
3126	0.0396329
3138	0.0400843
3150	0.0396329
3162	0.0390912
3174	0.0387301
3186	0.0384593
3198	0.0405357
3210	0.0397232
3222	0.0395426
3234	0.0394524
3246	0.0396329
3258	0.038369
3270	0.040626
3282	0.0393621
3294	0.0398135
3306	0.039994
3318	0.0391815
3330	0.040626
3342	0.0402649
3354	0.0401746
3366	0.041258
3378	0.039994
3390	0.0415288
3402	0.0404454
3414	0.0404454
3426	0.0403552
3438	0.040626
3450	0.040626
3462	0.0395426
3474	0.0400843
3486	0.0395426
3498	0.0409871
3510	0.0417094
3522	0.041258
3534	0.0401746
3546	0.0416191
3558	0.0418899
3570	0.0415288
3582	0.040626
3594	0.0404454
3606	0.0399038
3618	0.0403552
3630	0.0421608
3642	0.0419802
3654	0.0399038
3666	0.0402649
3678	0.0415288
3690	0.0404454
3702	0.0403552
3714	0.0400843
3726	0.040626
3738	0.0421608
3750	0.0411677
3762	0.0401746
3774	0.0402649
3786	0.0427927
3798	0.0404454
3810	0.0417094
3822	0.0411677
3834	0.0430636
3846	0.0395426
3858	0.0427927
3870	0.0444178
3882	0.0410774
3894	0.0423413
3906	0.0403552
3918	0.042883
3930	0.0400843
3942	0.0408066
3954	0.0388204
3966	0.0454108
