Infrared Spectrum: Ethanone, 1-(3-hydroxyphenyl)-
Formula: C 8 H 8 O 2
CAS: 121-71-1
Origin: Sadtler Research Labs Under US-EPA Contract
1/CM	ABSORBANCE
450	0
462	0.00557112
474	0.0215026
486	0.039682
498	0.0519971
510	0.0497492
522	0.04193
534	0.0523881
546	0.0610869
558	0.0581547
570	0.0934385
582	0.133121
594	0.131557
606	0.0982277
618	0.0447645
630	0.0412459
642	0.0430052
654	0.0418323
666	0.0792663
678	0.152766
690	0.191568
702	0.139962
714	0.0636281
726	0.0386069
738	0.0336222
750	0.0402685
762	0.0768229
774	0.174171
786	0.189907
798	0.0970548
810	0.0462305
822	0.0345996
834	0.0409526
846	0.0545384
858	0.0903108
870	0.236137
882	0.262234
894	0.153646
906	0.0982277
918	0.0512152
930	0.0498469
942	0.0627484
954	0.0799505
966	0.0655829
978	0.0514107
990	0.055418
1002	0.0582524
1014	0.0414413
1026	0.0368476
1038	0.0387046
1050	0.0404639
1062	0.059914
1074	0.0900176
1086	0.0874764
1098	0.0688083
1110	0.0622597
1122	0.0586434
1134	0.0714472
1146	0.154721
1158	0.329087
1170	0.577051
1182	0.607448
1194	0.415684
1206	0.416368
1218	0.430443
1230	0.239754
1242	0.121881
1254	0.171239
1266	0.439532
1278	0.886786
1290	0.906041
1302	0.433375
1314	0.198508
1326	0.121881
1338	0.0856194
1350	0.17075
1362	0.294585
1374	0.173682
1386	0.0738907
1398	0.0696879
1410	0.0792663
1422	0.117091
1434	0.246889
1446	0.420473
1458	0.286864
1470	0.145436
1482	0.139865
1494	0.108393
1506	0.0636281
1518	0.0456441
1530	0.0466215
1542	0.051313
1554	0.0676354
1566	0.102919
1578	0.227243
1590	0.38431
1602	0.365544
1614	0.181404
1626	0.0699811
1638	0.0466215
1650	0.0572751
1662	0.0821008
1674	0.101355
1686	0.194989
1698	0.617124
1710	0.788167
1722	0.283248
1734	0.0825895
1746	0.0825895
1758	0.0676354
1770	0.0428097
1782	0.0301036
1794	0.0251189
1806	0.0219913
1818	0.019841
1830	0.0215026
1842	0.0211116
1854	0.0263895
1866	0.0213071
1878	0.0193523
1890	0.0173975
1902	0.015736
1914	0.0171043
1926	0.0185704
1938	0.0186681
1950	0.0159315
1962	0.0133902
1974	0.0123151
1986	0.0147586
1998	0.0125106
2010	0.0120219
2022	0.010849
2034	0.0128038
2046	0.0129015
2058	0.0115332
2070	0.013488
2082	0.0129015
2094	0.0129993
2106	0.0106536
2118	0.00948068
2130	0.00938294
2142	0.00918747
2154	0.00957842
2166	0.0092852
2178	0.010849
2190	0.00840555
2202	0.00791686
2214	0.00733042
2226	0.00860103
2238	0.00948068
2250	0.00889425
2262	0.0092852
2274	0.00840555
2286	0.00948068
2298	0.0115332
2310	0.0160292
2322	0.0170066
2334	0.0173975
2346	0.0163224
2358	0.0138789
2370	0.0138789
2382	0.0147586
2394	0.0117287
2406	0.00869877
2418	0.00703721
2430	0.00742816
2442	0.00811234
2454	0.00967616
2466	0.0109468
2478	0.013097
2490	0.0109468
2502	0.00899199
2514	0.00527791
2526	0.00586434
2538	0.00557112
2550	0.00537565
2562	0.0057666
2574	0.00605982
2586	0.00723269
2598	0.00723269
2610	0.00781912
2622	0.00840555
2634	0.00781912
2646	0.00723269
2658	0.00586434
2670	0.00537565
2682	0.00371408
2694	0.00273669
2706	0.00127061
2718	0.00195478
2730	0.00215026
2742	0.00244347
2754	0.00518017
2766	0.00518017
2778	0.00518017
2790	0.00361634
2802	0.0035186
2814	0.00410504
2826	0.00527791
2838	0.00537565
2850	0.00654851
2862	0.00772138
2874	0.00821008
2886	0.00889425
2898	0.0104581
2910	0.0117287
2922	0.0147586
2934	0.0204275
2946	0.0195478
2958	0.0170066
2970	0.0248257
2982	0.0266827
2994	0.0235551
3006	0.0395843
3018	0.0646055
3030	0.0615756
3042	0.0593276
3054	0.0747703
3066	0.0704698
3078	0.068906
3090	0.0626507
3102	0.0413436
3114	0.0209161
3126	0.0117287
3138	0.00723269
3150	0.00547338
3162	0.00410504
3174	0.00312765
3186	0.00293217
3198	0.00254121
3210	0.000781912
3222	0.002248
3234	0.002248
3246	0.000684173
3258	0.00146609
3270	0.00127061
3282	0.00195478
3294	0.00342086
3306	0.00478921
3318	0.00478921
3330	0.00342086
3342	0.00645077
3354	0.00703721
3366	0.00889425
3378	0.0109468
3390	0.0174953
3402	0.0132925
3414	0.00615756
3426	0.00430052
3438	0.00195478
3450	0.00498469
3462	0.00527791
3474	0.00469147
3486	0.00478921
3498	0.00439825
3510	0.00302991
3522	0.00166156
3534	0.00117287
3546	0.00390956
3558	0.00293217
3570	0.00478921
3582	0.00508243
3594	0.00693947
3606	0.00733042
3618	0.0127061
3630	0.0519971
3642	0.227048
3654	0.345801
3666	0.140646
3678	0.020232
3690	0.00518017
3702	0.00508243
3714	0.00410504
3726	0.00322539
3738	0.00723269
3750	0.0040073
3762	0.00342086
3774	0.00518017
3786	0.00322539
3798	0.00410504
3810	0.00557112
3822	0.00469147
3834	0.00713495
3846	0.00557112
3858	0.00713495
3870	0.00762364
3882	0.00674399
3894	0.00605982
3906	0.00410504
3918	0.00615756
3930	0.00850329
3942	0.00654851
3954	0.00781912
3966	0.00478921
