Infrared Spectrum: Ethanol, 2,2'-[(1-methylethyl)imino]bis-
Formula: C 7 H 17 N O 2
CAS: 121-93-7
Origin: Sadtler Research Labs Under US-EPA Contract
1/CM	ABSORBANCE
450	0.00654594
462	0.0199823
474	0.023083
486	0.0176855
498	0.00677562
510	0.0103357
522	0.0165371
534	0.0137809
546	0.0140106
558	0.0194081
570	0.0238869
582	0.0241166
594	0.0102208
606	0.00333039
618	0
630	0.010106
642	0.00654594
654	0.00562721
666	0.00907244
678	0.0141254
690	0.0171113
702	0.0266431
714	0.0366343
726	0.0261837
738	0.0106802
750	0.0189488
762	0.0166519
774	0.0169965
786	0.0133216
798	0.0107951
810	0.0137809
822	0.0219346
834	0.0414576
846	0.0489223
858	0.0782067
870	0.122995
882	0.105424
894	0.0725795
906	0.0638516
918	0.0692491
930	0.0806184
942	0.0947438
954	0.100027
966	0.10508
978	0.128392
990	0.188799
1002	0.295256
1014	0.41871
1026	0.551926
1038	0.632544
1050	0.533666
1062	0.569611
1074	0.67561
1086	0.496802
1098	0.28894
1110	0.209011
1122	0.196723
1134	0.169735
1146	0.176855
1158	0.247827
1170	0.358763
1182	0.339011
1194	0.246449
1206	0.217279
1218	0.20212
1230	0.174099
1242	0.151705
1254	0.149523
1266	0.162041
1278	0.163763
1290	0.15515
1302	0.153083
1314	0.166519
1326	0.189258
1338	0.196378
1350	0.218542
1362	0.293304
1374	0.341996
1386	0.368295
1398	0.350035
1410	0.222102
1422	0.122995
1434	0.0984187
1446	0.124373
1458	0.179267
1470	0.187076
1482	0.120239
1494	0.0524823
1506	0.0300883
1518	0.0220495
1530	0.0181449
1542	0.0105654
1554	0.0113693
1566	0.00872792
1578	0.00838339
1590	0.00689046
1602	0.00436396
1614	0.00574205
1626	0.00562721
1638	0.00413428
1650	0.00183746
1662	0.00367491
1674	0.00378975
1686	0.00654594
1698	0.0106802
1710	0.0107951
1722	0.00539753
1734	0.00608657
1746	0.00861307
1758	0.00620141
1770	0.00689046
1782	0.00941696
1794	0.00689046
1806	0.00436396
1818	0.00310071
1830	0.00310071
1842	0.00298587
1854	0.00321555
1866	0.00367491
1878	0.00390459
1890	0.00401944
1902	0.0044788
1914	0.00424912
1926	0.00539753
1938	0.00562721
1950	0.00413428
1962	0.00275618
1974	0.00229682
1986	0.00137809
1998	0.00137809
2010	0.00172261
2022	0.00287102
2034	0.00333039
2046	0.00424912
2058	0.00539753
2070	0.00539753
2082	0.0044788
2094	0.00424912
2106	0.00401944
2118	0.00390459
2130	0.00287102
2142	0.00183746
2154	0.00137809
2166	0.000803887
2178	0.00103357
2190	0.00114841
2202	0.00126325
2214	0.00149293
2226	0.00172261
2238	0.00160777
2250	0.00149293
2262	0.0019523
2274	0.00206714
2286	0.00126325
2298	0.00103357
2310	0.000344523
2322	0.000574205
2334	0.0019523
2346	0.00321555
2358	0.00333039
2370	0.00241166
2382	0.0025265
2394	0.00229682
2406	0.0025265
2418	0.00241166
2430	0.00241166
2442	0.0025265
2454	0.00264134
2466	0.00310071
2478	0.00310071
2490	0.00287102
2502	0.00241166
2514	0.00264134
2526	0.00275618
2538	0.00378975
2550	0.00413428
2562	0.00539753
2574	0.00631625
2586	0.00803887
2598	0.0115989
2610	0.01447
2622	0.0175707
2634	0.0183746
2646	0.0196378
2658	0.0221643
2670	0.0261837
2682	0.031811
2694	0.0401943
2706	0.0484629
2718	0.0538604
2730	0.0575353
2742	0.0620141
2754	0.0676413
2766	0.0780919
2778	0.094629
2790	0.122765
2802	0.173984
2814	0.262412
2826	0.372429
2838	0.399991
2850	0.344753
2862	0.359797
2874	0.509664
2886	0.619338
2898	0.548136
2910	0.508975
2922	0.6028
2934	0.740035
2946	0.749682
2958	0.758984
2970	1.10615
2982	0.895186
2994	0.296749
3006	0.110018
3018	0.0574205
3030	0.0381272
3042	0.0272173
3054	0.0200972
3066	0.0149293
3078	0.0115989
3090	0.00976149
3102	0.00803887
3114	0.00746466
3126	0.00585689
3138	0.005053
3150	0.00436396
3162	0.005053
3174	0.00459364
3186	0.00516784
3198	0.00378975
3210	0.00344523
3222	0.00218198
3234	0.000918728
3246	0.000689046
3258	0.000344523
3270	0.00114841
3282	0.00126325
3294	0.00218198
3306	0.00344523
3318	0.00401944
3330	0.00666078
3342	0.00677562
3354	0.00815371
3366	0.0104505
3378	0.0121731
3390	0.0133216
3402	0.0171113
3414	0.0206714
3426	0.0240018
3438	0.0269876
3450	0.0288251
3462	0.0306625
3474	0.0319258
3486	0.0354859
3498	0.0416873
3510	0.0517933
3522	0.0710866
3534	0.0930212
3546	0.103242
3558	0.100716
3570	0.0952032
3582	0.0800442
3594	0.0609806
3606	0.0466254
3618	0.0359452
3630	0.0307774
3642	0.0356007
3654	0.0631625
3666	0.102208
3678	0.0863604
3690	0.0403092
3702	0.0145848
3714	0.00620141
3726	0.0025265
3738	0.000114841
3750	0.000459364
3762	0.000114841
3774	0.000114841
3786	0.000114841
3798	0.000114841
3810	0.000114841
3822	0.000114841
3834	0.000114841
3846	0.000114841
3858	0.000114841
3870	0.000114841
3882	0.000114841
3894	0.000114841
3906	0.000114841
3918	0.000114841
3930	0.000114841
3942	0.000114841
3954	0.000114841
3966	0.000114841
