Infrared Spectrum: Benzene, 1-methyl-2,4-dinitro-
Formula: C 7 H 6 N 2 O 4
CAS: 121-14-2
Origin: Sadtler Research Labs Under US-EPA Contract
1/CM	ABSORBANCE
450	0.000717828
462	0.00957104
474	0.0174671
486	0.0150744
498	0.0186635
510	0.0143566
522	0.0129209
534	0.0186635
546	0.0119638
558	0.0131602
570	0.0145958
582	0.0100496
594	0.0114852
606	0.0189028
618	0.027756
630	0.0634081
642	0.0308666
654	0.018185
666	0.0399591
678	0.0725006
690	0.0808753
702	0.102171
714	0.117485
726	0.187592
738	0.193814
750	0.0854215
762	0.059819
774	0.0543157
786	0.154094
798	0.0949926
810	0.0284738
822	0.113895
834	0.28091
846	0.100257
858	0.0203385
870	0.0196206
882	0.0193814
894	0.043309
906	0.145241
918	0.169647
930	0.0399591
942	0.0191421
954	0.0145958
966	0.0145958
978	0.013878
990	0.0110067
1002	0.0148351
1014	0.018185
1026	0.0179457
1038	0.0282346
1050	0.0375663
1062	0.102889
1074	0.101692
1086	0.0299095
1098	0.0200992
1110	0.0184243
1122	0.025124
1134	0.0646045
1146	0.098821
1158	0.045941
1170	0.0191421
1182	0.0241669
1194	0.0279953
1206	0.0325415
1218	0.0239276
1230	0.0215348
1242	0.0287131
1254	0.0394805
1266	0.0949926
1278	0.0533585
1290	0.0476159
1302	0.0691508
1314	0.105999
1326	0.1852
1338	0.615657
1350	1.57444
1362	0.819042
1374	0.221809
1386	0.155051
1398	0.164383
1410	0.106239
1422	0.0660402
1434	0.0593404
1446	0.0782433
1458	0.0859001
1470	0.0863786
1482	0.126098
1494	0.184243
1506	0.255786
1518	0.348386
1530	0.546267
1542	1.17197
1554	2.34873
1566	0.728356
1578	0.405334
1590	0.36346
1602	0.453907
1614	0.395045
1626	0.113417
1638	0.0588619
1650	0.0490516
1662	0.0344557
1674	0.0212956
1686	0.0179457
1698	0.0217741
1710	0.0224919
1722	0.0232098
1734	0.0205777
1746	0.0133995
1758	0.00789611
1770	0.00981032
1782	0.0126816
1794	0.013878
1806	0.0136387
1818	0.0131602
1830	0.00837466
1842	0.00717828
1854	0.00430697
1866	0.00454624
1878	0.0059819
1890	0.00382842
1902	0.00406769
1914	0.00909249
1926	0.0131602
1938	0.00909249
1950	0.00406769
1962	0.00119638
1974	0.00287131
1986	0.00311059
1998	0.00191421
2010	0.00239276
2022	0.00167493
2034	0.00143566
2046	0.00358914
2058	0.00311059
2070	0.00239276
2082	0.00263204
2094	0.00119638
2106	0.00143566
2118	0.00215348
2130	0.000957104
2142	0.00119638
2154	0.00167493
2166	0.000717828
2178	0.00239276
2190	0.00215348
2202	0.000957104
2214	0.00191421
2226	0.000957104
2238	0
2250	0.00143566
2262	0.00239276
2274	0.00263204
2286	0.00358914
2298	0.00311059
2310	0.00239276
2322	0.00358914
2334	0.00311059
2346	0.00382842
2358	0.00478552
2370	0.00287131
2382	0.0059819
2394	0.00478552
2406	0.00334986
2418	0.00382842
2430	0.00382842
2442	0.00311059
2454	0.00478552
2466	0.00622118
2478	0.0059819
2490	0.00622118
2502	0.00430697
2514	0.00287131
2526	0.00382842
2538	0.00358914
2550	0.00382842
2562	0.00382842
2574	0.00263204
2586	0.00382842
2598	0.00574262
2610	0.00454624
2622	0.00550335
2634	0.00406769
2646	0.00358914
2658	0.00454624
2670	0.00622118
2682	0.00885321
2694	0.0136387
2706	0.0117245
2718	0.00837466
2730	0.00933176
2742	0.011246
2754	0.0119638
2766	0.00981032
2778	0.0050248
2790	0.00550335
2802	0.00717828
2814	0.00789611
2826	0.0107674
2838	0.0148351
2850	0.0184243
2862	0.0248847
2874	0.0358914
2886	0.0476159
2898	0.0476159
2910	0.0332594
2922	0.0270382
2934	0.034695
2946	0.0550335
2958	0.0464195
2970	0.0303881
2982	0.034695
2994	0.0457017
3006	0.0344557
3018	0.0189028
3030	0.0148351
3042	0.0169886
3054	0.0217741
3066	0.023449
3078	0.0437875
3090	0.0696293
3102	0.0576655
3114	0.0409162
3126	0.0196206
3138	0.00885321
3150	0.00574262
3162	0.00358914
3174	0.00334986
3186	0.00263204
3198	0.00334986
3210	0.00406769
3222	0.00287131
3234	0.00311059
3246	0.00263204
3258	0.00191421
3270	0.00215348
3282	0.00239276
3294	0.00167493
3306	0.00239276
3318	0.00167493
3330	0.00119638
3342	0.00215348
3354	0.00191421
3366	0.00143566
3378	0.00215348
3390	0.00287131
3402	0.00239276
3414	0.00287131
3426	0.00191421
3438	0.00239276
3450	0.00311059
3462	0.00215348
3474	0.00263204
3486	0.00263204
3498	0.00143566
3510	0.00119638
3522	0.00167493
3534	0.000957104
3546	0.00263204
3558	0.00191421
3570	0.00239276
3582	0.00215348
3594	0.00334986
3606	0.000957104
3618	0.00311059
3630	0.00263204
3642	0.00167493
3654	0.0050248
3666	0
3678	0.00813538
3690	0.00406769
3702	0.00119638
3714	0.00358914
3726	0.00239276
3738	0.00382842
3750	0.00430697
3762	0.00358914
3774	0.00287131
3786	0.00263204
3798	0.00215348
3810	0.000717828
3822	0.00837466
3834	0.00239276
3846	0.0050248
3858	0.006939
3870	0.00263204
3882	0.0059819
3894	0.00622118
3906	0.00239276
3918	0.00550335
3930	0.00358914
3942	0.00287131
3954	0.00358914
3966	0.00311059
