Infrared Spectrum: Benzoic acid, 3-nitro-
Formula: C 7 H 5 N O 4
CAS: 121-92-6
Origin: Sadtler Research Labs Under US-EPA Contract
1/CM	ABSORBANCE
450	0.0113707
462	0.0100258
474	0.00972015
486	0.00849749
498	0.038147
510	0.0262261
522	0.0360073
534	0.0317892
546	0.0426097
558	0.0530023
570	0.0890096
582	0.0481117
594	0.0407757
606	0.0372911
618	0.0448105
630	0.118476
642	0.0519019
654	0.00941448
666	0.0637006
678	0.117192
690	0.0294661
702	0.0425486
714	0.147331
726	0.125445
738	0.0483562
750	0.0291604
762	0.0412036
774	0.0827741
786	0.0767219
798	0.0254925
810	0.0186456
822	0.0292827
834	0.00947561
846	0.0174229
858	0.0227415
870	0.0170561
882	0.0204796
894	0.0383915
906	0.0125323
918	0.0218856
930	0.0232917
942	0.0180342
954	0.0104537
966	0.0164448
978	0.013327
990	0.0166893
1002	0.0140606
1014	0.0139383
1026	0.0129602
1038	0.0307499
1050	0.0446882
1062	0.102887
1074	0.0999525
1086	0.0873591
1098	0.139628
1110	0.270086
1122	0.197215
1134	0.0808178
1146	0.0508015
1158	0.0605217
1170	0.105454
1182	0.199722
1194	0.184805
1206	0.0725649
1218	0.0556922
1230	0.0538582
1242	0.05288
1254	0.0489064
1266	0.0454218
1278	0.0624168
1290	0.0618666
1302	0.0627836
1314	0.0835688
1326	0.150815
1338	0.218306
1350	0.30756
1362	0.256697
1374	0.109428
1386	0.0544084
1398	0.0375357
1410	0.0279989
1422	0.0223135
1434	0.045483
1446	0.045055
1458	0.0259204
1470	0.0317892
1482	0.0449939
1494	0.0418761
1506	0.0561812
1518	0.0555088
1530	0.08687
1542	0.214088
1554	0.336109
1566	0.126606
1578	0.0626002
1590	0.0585654
1602	0.056059
1614	0.0665127
1626	0.0550808
1638	0.0298329
1650	0.0228026
1662	0.0157112
1674	0.0176674
1686	0.0224969
1698	0.0279989
1710	0.0393697
1722	0.0580763
1734	0.0543472
1746	0.0636395
1758	0.261588
1770	0.61133
1782	0.197765
1794	0.0479894
1806	0.0316669
1818	0.0323394
1830	0.020235
1842	0.00916995
1854	0.00861975
1866	0.00959788
1878	0.00721369
1890	0.00482951
1902	0.00953675
1914	0.00855862
1926	0.0068469
1938	0.00641896
1950	0.00788616
1962	0.00354571
1974	0.00849749
1986	0.00580764
1998	0.00354571
2010	0.00281212
2022	0.00513517
2034	0.00103926
2046	0.00464611
2058	0.00268985
2070	0.00366798
2082	0.00311778
2094	0.00391251
2106	0.00140606
2118	0.00544084
2130	0.00262872
2142	0.00244532
2154	0.00366798
2166	0.00513517
2178	0.00220079
2190	0.00464611
2202	0.00489064
2214	0.00299552
2226	0.00281212
2238	0.00476837
2250	0.00324005
2262	0.00287325
2274	0.00421818
2286	0.00403478
2298	0.00660236
2310	0.00739709
2322	0.00415704
2334	0.00372911
2346	0.0068469
2358	0.000916995
2370	0.00342345
2382	0.00660236
2394	0.00452384
2406	0.00501291
2418	0.00892542
2430	0.00495177
2442	0.00751936
2454	0.00660236
2466	0.00696916
2478	0.00403478
2490	0.00696916
2502	0.00452384
2514	0.00550197
2526	0.00495177
2538	0.00605217
2550	0.00605217
2562	0.00794729
2574	0.00330118
2586	0.00696916
2598	0.00733596
2610	0.0057465
2622	0.0053797
2634	0.00898655
2646	0.00458497
2658	0.00525744
2670	0.00806956
2682	0.00703029
2694	0.00544084
2706	0.00849749
2718	0.00690803
2730	0.00586877
2742	0.00739709
2754	0.00703029
2766	0.00745823
2778	0.00874202
2790	0.00715256
2802	0.00764162
2814	0.0102092
2826	0.00733596
2838	0.00935335
2850	0.0109428
2862	0.0141829
2874	0.00959788
2886	0.017912
2898	0.0147331
2910	0.0125934
2922	0.0130213
2934	0.0190124
2946	0.0117987
2958	0.0136938
2970	0.00849749
2982	0.0113707
2994	0.00855862
3006	0.0102703
3018	0.00849749
3030	0.0130825
3042	0.00929222
3054	0.00972015
3066	0.0150387
3078	0.0219467
3090	0.027571
3102	0.0270819
3114	0.0129602
3126	0.00727483
3138	0.00972015
3150	0.00972015
3162	0.0057465
3174	0.00935335
3186	0.00965901
3198	0.00715256
3210	0.0111262
3222	0.00813069
3234	0.00721369
3246	0.00990355
3258	0.00733596
3270	0.00513517
3282	0.0117987
3294	0.00733596
3306	0.00562424
3318	0.00855862
3330	0.0121043
3342	0.00409591
3354	0.00935335
3366	0.00794729
3378	0.00861975
3390	0.00501291
3402	0.0111262
3414	0.00470724
3426	0.00996468
3438	0.00507404
3450	0.00874202
3462	0.00972015
3474	0.00904768
3486	0.00171172
3498	0.0106983
3510	0.00825295
3522	0.00831409
3534	0.0068469
3546	0.0111262
3558	0.00972015
3570	0.067124
3582	0.22448
3594	0.103804
3606	0.0110039
3618	0.00861975
3630	0.00770276
3642	0.00776389
3654	0.00794729
3666	0.00440158
3678	0.00868089
3690	0.00696916
3702	0.00605217
3714	0.00654123
3726	0.0110651
3738	0.00531857
3750	0.00898655
3762	0.0110039
3774	0.00525744
3786	0.00531857
3798	0.0139383
3810	0.00495177
3822	0.00660236
3834	0.0102703
3846	0.00953675
3858	0.00568537
3870	0.0144274
3882	0.00721369
3894	0.00733596
3906	0.00654123
3918	0.00806956
3930	0.00550197
3942	0.0137549
3954	0
3966	0.000916995
