Infrared Spectrum: Vanillin
Formula: C 8 H 8 O 3
CAS: 121-33-5
Origin: Sadtler Research Labs Under US-EPA Contract
1/CM	ABSORBANCE
450	0.0203297
462	0.0296826
474	0.06625
486	0.051636
498	0.0310466
510	0.0155233
522	0.00850858
534	0.0142243
546	0.01994
558	0.0096777
570	0.00694976
582	0.0144191
594	0.0143542
606	0.014614
618	0.0779412
630	0.0752133
642	0.0166924
654	0.00272794
666	0
678	0.00272794
690	0.00454657
702	0.00941789
714	0.0241618
726	0.0969069
738	0.0889179
750	0.0240968
762	0.0281887
774	0.0567672
786	0.0501422
798	0.0469596
810	0.0835919
822	0.106909
834	0.0558579
846	0.0272145
858	0.0282537
870	0.0393603
882	0.0302672
894	0.0191605
906	0.0178615
918	0.0166275
930	0.0162377
942	0.0156532
954	0.0143542
966	0.0127304
978	0.0142243
990	0.0176017
1002	0.0247463
1014	0.0531949
1026	0.118341
1038	0.143217
1050	0.0862549
1062	0.054299
1074	0.0478039
1086	0.0470895
1098	0.0613137
1110	0.118016
1122	0.142048
1134	0.140684
1146	0.234018
1158	0.180694
1170	0.172705
1182	0.223366
1194	0.205765
1206	0.213494
1218	0.15965
1230	0.126589
1242	0.215897
1254	0.307153
1266	0.554292
1278	0.631389
1290	0.436795
1302	0.121328
1314	0.0459204
1326	0.0255257
1338	0.0194853
1350	0.0276691
1362	0.0555331
1374	0.107299
1386	0.140814
1398	0.118016
1410	0.0474142
1422	0.0620932
1434	0.173744
1446	0.151206
1458	0.0993101
1470	0.117237
1482	0.0798897
1494	0.131591
1506	0.355867
1518	0.285979
1530	0.0613137
1542	0.030527
1554	0.0216936
1566	0.027799
1578	0.0824228
1590	0.23798
1602	0.285979
1614	0.17946
1626	0.0616385
1638	0.0220184
1650	0.014549
1662	0.0192255
1674	0.0373468
1686	0.0617684
1698	0.135033
1710	0.556955
1722	0.498824
1734	0.101713
1746	0.0242267
1758	0.0240319
1770	0.0169522
1782	0.00837868
1794	0.00753432
1806	0.00941789
1818	0.00376716
1830	0.00214338
1842	0.00214338
1854	0.00467647
1866	0.00922304
1878	0.00720956
1890	0.00389706
1902	0.00480637
1914	0.00279289
1926	0.00220833
1938	0.00311765
1950	0.00188358
1962	0.00272794
1974	0.00363726
1986	0.0030527
1998	0.0031826
2010	0.00292279
2022	0.00220833
2034	0.00337745
2046	0.00487132
2058	0.0062353
2070	0.00701471
2082	0.00545588
2094	0.00389706
2106	0.00337745
2118	0.00188358
2130	0.00142892
2142	0.00181863
2154	0.00123407
2166	0.000909314
2178	0.000974265
2190	0.000974265
2202	0.000974265
2214	0.000714461
2226	0.000259804
2238	0.00103922
2250	0.000389706
2262	6.4951e-05
2274	0.00129902
2286	0.0034424
2298	0.00694976
2310	0.00915809
2322	0.00720956
2334	0.00493628
2346	0.00694976
2358	0.00422181
2370	0.00487132
2382	0.00591054
2394	0.00142892
2406	0.00142892
2418	0.00123407
2430	0.00110417
2442	0.00155882
2454	0.00194853
2466	0.00220833
2478	0.0030527
2490	0.00363726
2502	0.00441667
2514	0.0064951
2526	0.00798897
2538	0.00798897
2550	0.00694976
2562	0.00519608
2574	0.00396201
2586	0.00337745
2598	0.00285784
2610	0.00415686
2622	0.00545588
2634	0.00694976
2646	0.0101324
2658	0.0127953
2670	0.0121458
2682	0.0103922
2694	0.0186409
2706	0.0552733
2718	0.111326
2730	0.0908664
2742	0.0352684
2754	0.0227978
2766	0.023837
2778	0.0409841
2790	0.060924
2802	0.0860601
2814	0.0946986
2826	0.0601446
2838	0.0363076
2850	0.0363726
2862	0.0360478
2874	0.0260454
2886	0.0203297
2898	0.0201998
2910	0.0235123
2922	0.0276691
2934	0.0318909
2946	0.0533897
2958	0.0705368
2970	0.0641066
2982	0.0407892
2994	0.0255907
3006	0.035723
3018	0.0505319
3030	0.0276042
3042	0.0202647
3054	0.0204596
3066	0.0248113
3078	0.026565
3090	0.0138995
3102	0.00733946
3114	0.00558579
3126	0.00383211
3138	0.00214338
3150	0.00155882
3162	0.00129902
3174	0.000324755
3186	0.000714461
3198	0.00116912
3210	0.00142892
3222	0.000844363
3234	0.000454657
3246	0.00136397
3258	0.000844363
3270	0.00110417
3282	0.000844363
3294	0.00123407
3306	0.00149387
3318	0.00136397
3330	0.00181863
3342	0.000909314
3354	0.000909314
3366	0.00123407
3378	0.00181863
3390	0.00493628
3402	0.00714461
3414	0.00701471
3426	0.0030527
3438	0.00064951
3450	0.000909314
3462	0.00155882
3474	0.00227328
3486	0.00162377
3498	0.00285784
3510	0.00389706
3522	0.00500123
3534	0.00759927
3546	0.0157831
3558	0.0726152
3570	0.237656
3582	0.253634
3594	0.0726152
3606	0.0138995
3618	0.00733946
3630	0.00818383
3642	0.0095478
3654	0.00889829
3666	0.00279289
3678	0.00435172
3690	0.00487132
3702	0.00435172
3714	0.00350735
3726	0.00272794
3738	0.00454657
3750	0.00253309
3762	0.00279289
3774	0.00272794
3786	0.00285784
3798	0.00370221
3810	0.0030527
3822	0.00376716
3834	0.00389706
3846	0.00285784
3858	0.00389706
3870	0.00428677
3882	0.00311765
3894	0.00422181
3906	0.00259804
3918	0.0031826
3930	0.00350735
3942	0.0035723
3954	0.00266299
3966	0.00396201
