Infrared Spectrum: Benzenamine, N,N-dimethyl-
Formula: C 8 H 11 N
CAS: 121-69-7
Origin: Sadtler Research Labs Under US-EPA Contract
1/CM	ABSORBANCE
450	0.0265228
462	0.0162246
474	0.0273971
486	0.0271057
498	0.0308947
510	0.0443989
522	0.0719904
534	0.0817057
546	0.0454676
558	0.0199164
570	0.0153502
582	0.00748078
594	0.00097153
606	0.00233167
618	0.00835516
630	0.0145729
642	0.0128242
654	0.0200135
666	0.0440103
678	0.159817
690	0.313707
702	0.179344
714	0.0676185
726	0.0663555
738	0.240939
750	0.460019
762	0.234527
774	0.0708245
786	0.0170989
798	0.00854946
810	0.00913238
822	0.00777224
834	0.00738363
846	0.0148644
858	0.0252598
870	0.0373068
882	0.0270085
894	0.0183619
906	0.0173904
918	0.0252598
930	0.0623722
942	0.192363
954	0.161954
966	0.0401242
978	0.0394441
990	0.116292
1002	0.107646
1014	0.0307975
1026	0.0942384
1038	0.116098
1050	0.0928783
1062	0.11328
1074	0.0950156
1086	0.0619836
1098	0.0535313
1110	0.0648982
1122	0.0904494
1134	0.124939
1146	0.17507
1158	0.291459
1170	0.309238
1182	0.187214
1194	0.168755
1206	0.171961
1218	0.220149
1230	0.210822
1242	0.128922
1254	0.076168
1266	0.0606235
1278	0.0536285
1290	0.0580975
1302	0.0787911
1314	0.131837
1326	0.288642
1338	0.612647
1350	0.597199
1362	0.255221
1374	0.108909
1386	0.0718932
1398	0.0592633
1410	0.0563487
1422	0.0637324
1434	0.102399
1446	0.161663
1458	0.179733
1470	0.187894
1482	0.259787
1494	0.537742
1506	0.97153
1518	0.666275
1530	0.200329
1542	0.115806
1554	0.111434
1566	0.132808
1578	0.180025
1590	0.427085
1602	0.93092
1614	0.697073
1626	0.175458
1638	0.0566402
1650	0.0348779
1662	0.0306032
1674	0.0291459
1686	0.0263285
1698	0.0297288
1710	0.0620808
1722	0.0542114
1734	0.0289516
1746	0.0240939
1758	0.0218594
1770	0.0170018
1782	0.0111726
1794	0.00981245
1806	0.0122413
1818	0.0147673
1830	0.0143786
1842	0.0112697
1854	0.00874377
1866	0.0103954
1878	0.0143786
1890	0.0194306
1902	0.0264256
1914	0.0266199
1926	0.0268142
1938	0.0172932
1950	0.0047605
1962	0.00252598
1974	0.00184591
1986	0.00097153
1998	0.00136014
2010	0.0016516
2022	0.00262313
2034	0.00340035
2046	0.0047605
2058	0.0064121
2070	0.0114641
2082	0.0149616
2094	0.008258
2106	0.00262313
2118	0.00184591
2130	0.00184591
2142	0.00204021
2154	0.00213737
2166	0.00155445
2178	0.00116584
2190	0.00116584
2202	0.000485765
2214	0.000485765
2226	0.0016516
2238	0.00582918
2250	0.00631494
2262	0.00408043
2274	0.00272028
2286	0.00378897
2298	0.0049548
2310	0.0080637
2322	0.00932669
2334	0.010784
2346	0.00777224
2358	0.0105897
2370	0
2382	0.00242882
2394	0.00359466
2406	0.00349751
2418	0.0033032
2430	0.00427473
2442	0.00534341
2454	0.00631494
2466	0.00796655
2478	0.00748078
2490	0.00903523
2502	0.0104925
2514	0.0119498
2526	0.0112697
2538	0.0129213
2550	0.0130185
2562	0.0144758
2574	0.0154473
2586	0.015253
2598	0.0162246
2610	0.0153502
2622	0.0141843
2634	0.0140872
2646	0.0154473
2658	0.0171961
2670	0.0180705
2682	0.0198192
2694	0.0188477
2706	0.0186534
2718	0.0200135
2730	0.0262313
2742	0.0371124
2754	0.0566402
2766	0.0885064
2778	0.14845
2790	0.257553
2802	0.375982
2814	0.355871
2826	0.268531
2838	0.263285
2850	0.304866
2862	0.307684
2874	0.300591
2886	0.289516
2898	0.276886
2910	0.257941
2922	0.250752
2934	0.270474
2946	0.310987
2958	0.333429
2970	0.304672
2982	0.264256
2994	0.227241
3006	0.171961
3018	0.139803
3030	0.181482
3042	0.230447
3054	0.199844
3066	0.218983
3078	0.232099
3090	0.161274
3102	0.141358
3114	0.0942384
3126	0.045079
3138	0.0172932
3150	0.0109783
3162	0.0064121
3174	0.00524626
3186	0.00544057
3198	0.00612064
3210	0.0047605
3222	0.0049548
3234	0.00204021
3246	0.00242882
3258	0.00233167
3270	0.00174875
3282	0.0016516
3294	0.00204021
3306	0.00262313
3318	0.00242882
3330	0.00184591
3342	0.00116584
3354	0.0016516
3366	0.00097153
3378	0.00242882
3390	0.00223452
3402	0.00466334
3414	0.00427473
3426	0.00272028
3438	0.00544057
3450	0.00573203
3462	0.00602349
3474	0.00213737
3486	0.00650925
3498	0.00408043
3510	0.00466334
3522	0.00252598
3534	0.00544057
3546	0.00340035
3558	0.00485765
3570	0.00505196
3582	0.00757793
3594	0.0064121
3606	0.00689786
3618	0.00670356
3630	0.00514911
3642	0.0049548
3654	0.0047605
3666	0.00631494
3678	0.00631494
3690	0.00369181
3702	0.00524626
3714	0.00553772
3726	0.00592633
3738	0.00524626
3750	0.00466334
3762	0.00573203
3774	0.00544057
3786	0.00835516
3798	0.0066064
3810	0.00582918
3822	0.00650925
3834	0.00408043
3846	0.00408043
3858	0.00388612
3870	0.00340035
3882	0.00699502
3894	0.0064121
3906	0.00446904
3918	0.00592633
3930	0.00602349
3942	0.00777224
3954	0.00544057
3966	0.00680071
