Infrared Spectrum: Phosphorous acid, trimethyl ester
Formula: C 3 H 9 O 3 P
CAS: 121-45-9
Origin: Sadtler Research Labs Under US-EPA Contract
1/CM	ABSORBANCE
450	0.0798368
462	0.0143527
474	0.0101238
486	0.0121742
498	0.0225542
510	0.021529
522	0.0219135
534	0.0165312
546	0.0108927
558	0.0143527
570	0.0198631
582	0.0138401
594	0.0103801
606	0.00871413
618	0.0160186
630	0.0115334
642	0.0125586
654	0.0144808
666	0.0166594
678	0.0251172
690	0.041264
702	0.0761205
714	0.186969
726	0.386754
738	0.496834
750	0.421738
762	0.347668
774	0.200809
786	0.0959836
798	0.0497218
810	0.0307558
822	0.0225542
834	0.0219135
846	0.026655
858	0.0208883
870	0.0142245
882	0.0125586
894	0.0137119
906	0.0161468
918	0.0185816
930	0.0193505
942	0.0214009
954	0.0265268
966	0.0338313
978	0.054207
990	0.0818872
1002	0.130712
1014	0.352538
1026	0.944971
1038	1.28149
1050	0.851038
1062	0.333059
1074	0.224645
1086	0.144039
1098	0.0971369
1110	0.080862
1122	0.0695849
1134	0.0566419
1146	0.0493374
1158	0.0538226
1170	0.0768894
1182	0.094574
1194	0.0777864
1206	0.0513877
1218	0.0406232
1230	0.0334469
1242	0.0262705
1254	0.0217853
1266	0.0230668
1278	0.0288335
1290	0.0312684
1302	0.0276802
1314	0.0243483
1326	0.0175564
1338	0.0131993
1350	0.0116616
1362	0.0126868
1374	0.0139682
1386	0.0148653
1398	0.0152497
1410	0.0162749
1422	0.0178127
1434	0.0226824
1446	0.0290898
1458	0.0360099
1470	0.0379321
1482	0.0337032
1494	0.0251172
1506	0.0197349
1518	0.0190942
1530	0.0207601
1542	0.0174283
1554	0.0167875
1566	0.0133275
1578	0.0106364
1590	0.00999562
1602	0.00884228
1614	0.00615115
1626	0.00640745
1638	0.00538226
1650	0.00615115
1662	0.00538226
1674	0.00499781
1686	0.00371632
1698	0.00499781
1710	0.00589485
1722	0.00589485
1734	0.0070482
1746	0.00948303
1758	0.0112771
1770	0.0114053
1782	0.0130712
1794	0.0144808
1806	0.0133275
1818	0.0105082
1830	0.00922673
1842	0.00820154
1854	0.00743264
1866	0.0062793
1878	0.00538226
1890	0.00525411
1902	0.00512596
1914	0.00538226
1926	0.00499781
1938	0.00486966
1950	0.00563856
1962	0.0062793
1974	0.00538226
1986	0.00512596
1998	0.00512596
2010	0.00563856
2022	0.00576671
2034	0.00666375
2046	0.00845783
2058	0.0103801
2070	0.0110208
2082	0.0102519
2094	0.00948303
2106	0.00858598
2118	0.00666375
2130	0.00538226
2142	0.00435707
2154	0.00474151
2166	0.00499781
2178	0.00461336
2190	0.00435707
2202	0.00384447
2214	0.00384447
2226	0.00422892
2238	0.00294743
2250	0.00269113
2262	0.00320373
2274	0.00346002
2286	0.00410077
2298	0.00525411
2310	0.0065356
2322	0.00781709
2334	0.0065356
2346	0.00461336
2358	0.00666375
2370	0.00422892
2382	0.00346002
2394	0.00256298
2406	0.00256298
2418	0.00320373
2430	0.00397262
2442	0.00397262
2454	0.00294743
2466	0.00230668
2478	0.00166594
2490	0.00153779
2502	0.000897043
2514	0.000512596
2526	0.00128149
2538	0.00205038
2550	0.00166594
2562	0.00166594
2574	0.00205038
2586	0.00269113
2598	0.00294743
2610	0.00179409
2622	0.00230668
2634	0.00333187
2646	0.00384447
2658	0.00281928
2670	0.00256298
2682	0.00217853
2694	0.00320373
2706	0.00256298
2718	0.00243483
2730	0.00192224
2742	0.00371632
2754	0.00435707
2766	0.00499781
2778	0.00525411
2790	0.00871413
2802	0.0110208
2814	0.0151216
2826	0.0375477
2838	0.104954
2850	0.117
2862	0.0565137
2874	0.0367788
2886	0.0420329
2898	0.0597174
2910	0.0839376
2922	0.0973932
2934	0.134172
2946	0.202475
2958	0.217725
2970	0.148397
2982	0.109567
2994	0.107261
3006	0.0961118
3018	0.0715071
3030	0.0557448
3042	0.045621
3054	0.0381884
3066	0.0333187
3078	0.0247328
3090	0.0179409
3102	0.0143527
3114	0.0107645
3126	0.00692005
3138	0.006023
3150	0.00371632
3162	0.00474151
3174	0.00576671
3186	0.00538226
3198	0.00499781
3210	0.00461336
3222	0.00435707
3234	0.00422892
3246	0.00422892
3258	0.00422892
3270	0.00563856
3282	0.00551041
3294	0.00435707
3306	0.00307558
3318	0.00538226
3330	0.0065356
3342	0.00486966
3354	0.00461336
3366	0.00576671
3378	0.00781709
3390	0.0070482
3402	0.00538226
3414	0.00384447
3426	0.00743264
3438	0.00717634
3450	0.00422892
3462	0.00512596
3474	0.0065356
3486	0.00756079
3498	0.00692005
3510	0.00563856
3522	0.00525411
3534	0.00794524
3546	0.00717634
3558	0.00179409
3570	0.00820154
3582	0.00961118
3594	0.00384447
3606	0.0065356
3618	0.00909858
3630	0.00205038
3642	0.00410077
3654	0.00576671
3666	0.00422892
3678	0.00307558
3690	0.00384447
3702	0.0070482
3714	0.00410077
3726	0.00474151
3738	0.00422892
3750	0.00422892
3762	0.00358817
3774	0.00192224
3786	0.00384447
3798	0.00525411
3810	0.00192224
3822	0.00243483
3834	0.00397262
3846	0.00640745
3858	0.00346002
3870	0.00307558
3882	0.00640745
3894	0.00640745
3906	0.0062793
3918	0.00474151
3930	0.000128149
3942	0.00935488
3954	0.00820154
3966	0.00512596
