Infrared Spectrum: Benzene, 2-chloro-1-methyl-4-nitro-
Formula: C 7 H 6 Cl N O 2
CAS: 121-86-8
Origin: Sadtler Research Labs Under US-EPA Contract
1/CM	ABSORBANCE
450	0.0314773
462	0.0363022
474	0.0206019
486	0.0173852
498	0.00543768
510	0.0017615
522	0.0167726
534	0.0166194
546	0.0165428
558	0.0201424
570	0.00949679
582	0.00727577
594	0.010569
606	0.0139388
618	0.0166194
630	0.0408209
642	0.0320134
654	0.0214444
666	0.0117178
678	0.0268055
690	0.0487093
702	0.122463
714	0.111587
726	0.0896068
738	0.151642
750	0.0646394
762	0.0265757
774	0.02244
786	0.0691581
798	0.219192
810	0.0688517
822	0.0802632
834	0.0549895
846	0.0216741
858	0.0242781
870	0.0314007
882	0.0866965
894	0.139159
906	0.0736767
918	0.0236654
930	0.0150111
942	0.0146281
954	0.0175384
966	0.0178448
978	0.0187638
990	0.0261162
1002	0.0338515
1014	0.0245844
1026	0.026882
1038	0.0523855
1050	0.0935127
1062	0.0711493
1074	0.0297923
1086	0.0228229
1098	0.026882
1110	0.0674731
1122	0.132113
1134	0.146205
1146	0.0618057
1158	0.021138
1170	0.0210614
1182	0.0170789
1194	0.0160067
1206	0.0200658
1218	0.0201424
1230	0.0208317
1242	0.0235122
1254	0.037451
1266	0.0811056
1278	0.0477137
1290	0.0390594
1302	0.0311709
1314	0.0340046
1326	0.0672434
1338	0.298153
1350	0.76587
1362	0.432027
1374	0.162441
1386	0.100482
1398	0.0649458
1410	0.0402848
1422	0.0467181
1434	0.0468712
1446	0.0533811
1458	0.0821779
1470	0.136095
1482	0.148502
1494	0.117638
1506	0.128666
1518	0.231982
1530	0.352224
1542	0.690738
1554	0.642642
1566	0.2051
1578	0.133951
1590	0.140997
1602	0.104235
1614	0.0429653
1626	0.0296392
1638	0.033009
1650	0.0351534
1662	0.0206019
1674	0.0144749
1686	0.0183043
1698	0.0177682
1710	0.0136325
1722	0.0146281
1734	0.0104158
1746	0.00673966
1758	0.00842457
1770	0.0136325
1782	0.0163896
1794	0.0129432
1806	0.00919044
1818	0.00712259
1830	0.00635672
1842	0.00551426
1854	0.00612696
1866	0.00658648
1878	0.00628013
1890	0.00888409
1902	0.0125603
1914	0.0120242
1926	0.007046
1938	0.00559085
1950	0.0058972
1962	0.00459522
1974	0.00451863
1986	0.00474839
1998	0.00497816
2010	0.00551426
2022	0.00497816
2034	0.00390594
2046	0.00390594
2058	0.00405911
2070	0.00428887
2082	0.00451863
2094	0.00405911
2106	0.003523
2118	0.00382935
2130	0.00321665
2142	0.00375276
2154	0.00329324
2166	0.00344641
2178	0.00405911
2190	0.00421229
2202	0.003523
2214	0.00314007
2226	0.00382935
2238	0.00390594
2250	0.00367618
2262	0.00421229
2274	0.00428887
2286	0.00428887
2298	0.00191468
2310	0.000153174
2322	0.000306348
2334	7.6587e-05
2346	0.000153174
2358	7.6587e-05
2370	7.6587e-05
2382	0.00283372
2394	0.00444205
2406	0.00382935
2418	0.00482498
2430	0.00536109
2442	0.00459522
2454	0.00482498
2466	0.00612696
2478	0.00689283
2490	0.0058972
2502	0.00405911
2514	0.00344641
2526	0.00344641
2538	0.00367618
2550	0.00375276
2562	0.00513133
2574	0.00635672
2586	0.00643331
2598	0.00474839
2610	0.00375276
2622	0.00359959
2634	0.003523
2646	0.00344641
2658	0.00390594
2670	0.00405911
2682	0.00612696
2694	0.00758211
2706	0.00758211
2718	0.00719918
2730	0.00727577
2742	0.00666307
2754	0.00643331
2766	0.00513133
2778	0.00436546
2790	0.00467181
2802	0.00605037
2814	0.00673966
2826	0.00796505
2838	0.0113349
2850	0.0179979
2862	0.0244313
2874	0.028184
2886	0.0276479
2898	0.025963
2910	0.0260396
2922	0.0321665
2934	0.0484796
2946	0.0516962
2958	0.0318602
2970	0.0333919
2982	0.0301753
2994	0.0317836
3006	0.0249674
3018	0.0167726
3030	0.0192233
3042	0.0219805
3054	0.0216741
3066	0.028567
3078	0.0373745
3090	0.0278011
3102	0.0213678
3114	0.0163896
3126	0.00750553
3138	0.00490157
3150	0.00451863
3162	0.00405911
3174	0.00428887
3186	0.00543768
3198	0.00451863
3210	0.00459522
3222	0.00398252
3234	0.00390594
3246	0.00405911
3258	0.00428887
3270	0.00359959
3282	0.00405911
3294	0.0041357
3306	0.003523
3318	0.00390594
3330	0.00428887
3342	0.00467181
3354	0.00428887
3366	0.00436546
3378	0.0041357
3390	0.003523
3402	0.00314007
3414	0.00268055
3426	0.00306348
3438	0.00268055
3450	0.00291031
3462	0.003523
3474	0.00245078
3486	0.00336983
3498	0.00252737
3510	0.00160833
3522	0.00222102
3534	0.00229761
3546	0.00321665
3558	0.00214444
3570	0.00375276
3582	0.000536109
3594	0.0041357
3606	0.00191468
3618	0.00229761
3630	0.00543768
3642	0.00199126
3654	0.00689283
3666	0.00199126
3678	0.00382935
3690	0.00727577
3702	0.00130198
3714	0.00314007
3726	0.00114881
3738	0.00268055
3750	0.00773529
3762	7.6587e-05
3774	0.00153174
3786	0.00114881
3798	0.00375276
3810	0.000536109
3822	0.0041357
3834	0.00214444
3846	0.00222102
3858	0.00268055
3870	0.00451863
3882	0.00252737
3894	0.00252737
3906	0.00222102
3918	0.00336983
3930	0.00191468
3942	0.00574403
3954	0.00191468
3966	0.00459522
