Infrared Spectrum: 2-Propanone, 1-(4-methoxyphenyl)-
Formula: C 10 H 12 O 2
CAS: 122-84-9
Origin: Sadtler Research Labs Under US-EPA Contract
1/CM	ABSORBANCE
450	0.00986513
462	0.0095399
474	0.0143099
486	0.0202723
498	0.0355578
510	0.0568058
522	0.0885693
534	0.124019
546	0.0707904
558	0.0388101
570	0.0311131
582	0.0444473
594	0.0579983
606	0.037726
618	0.0187546
630	0.0110576
642	0.00986513
654	0.00780538
666	0.0041195
678	0.00368587
690	0.00509518
702	0.0120333
714	0.0113828
726	0.0112744
738	0.0192966
750	0.0416287
762	0.0383764
774	0.0481332
786	0.0608169
798	0.0532283
810	0.0628766
822	0.11101
834	0.163154
846	0.109926
858	0.0442305
870	0.0235245
882	0.0221152
894	0.0168032
906	0.0127921
918	0.0119249
930	0.0133342
942	0.0123585
954	0.016478
966	0.0266684
978	0.0328476
990	0.0349074
1002	0.045423
1014	0.0688391
1026	0.112636
1038	0.247062
1050	0.251181
1062	0.0911711
1074	0.048892
1086	0.0455314
1098	0.0604917
1110	0.0823901
1122	0.0770781
1134	0.0913879
1146	0.172586
1158	0.223537
1170	0.27037
1182	0.323706
1194	0.134643
1206	0.163696
1218	0.274381
1230	0.34051
1242	0.648822
1254	1.06533
1266	0.389835
1278	0.25129
1290	0.273297
1302	0.256168
1314	0.117948
1326	0.0906291
1338	0.0794631
1350	0.129006
1362	0.193508
1374	0.103421
1386	0.0585403
1398	0.0471575
1410	0.054204
1422	0.0819564
1434	0.0988681
1446	0.123585
1458	0.105481
1470	0.155457
1482	0.0841246
1494	0.108733
1506	0.570334
1518	0.842655
1530	0.124019
1542	0.0400026
1554	0.0299206
1566	0.0339317
1578	0.0665625
1590	0.102229
1602	0.158384
1614	0.238931
1626	0.102012
1638	0.0387017
1650	0.0259095
1662	0.0275356
1674	0.0310047
1686	0.051277
1698	0.0834742
1710	0.186353
1722	0.459108
1734	0.513095
1746	0.257361
1758	0.151446
1770	0.0797883
1782	0.0385932
1794	0.0216816
1806	0.0174537
1818	0.0112744
1830	0.00704652
1842	0.00791378
1854	0.0113828
1866	0.0112744
1878	0.0162612
1890	0.0129006
1902	0.00921468
1914	0.00596244
1926	0.00574562
1938	0.00617926
1950	0.00607085
1962	0.00704652
1974	0.00574562
1986	0.00726334
1998	0.0112744
2010	0.0120333
2022	0.010624
2034	0.0114912
2046	0.0120333
2058	0.0137678
2070	0.0157192
2082	0.0162612
2094	0.0123585
2106	0.0067213
2118	0.00476995
2130	0.00433632
2142	0.00346906
2154	0.0027102
2166	0.00249338
2178	0.00227657
2190	0.00238498
2202	0.00238498
2214	0.00292702
2226	0.00303542
2238	0.00238498
2250	0.00238498
2262	0.00314383
2274	0.0040111
2286	0.00466154
2298	0.00336065
2310	0.000758856
2322	0.000108408
2334	0
2346	0.00151771
2358	0
2370	0
2382	0.00119249
2394	0.00249338
2406	0.00281861
2418	0.00357746
2430	0.00498677
2442	0.00336065
2454	0.00336065
2466	0.00422791
2478	0.00476995
2490	0.00617926
2502	0.00748015
2514	0.00607085
2526	0.00693811
2538	0.00845582
2550	0.0102988
2562	0.00791378
2574	0.00531199
2586	0.00563722
2598	0.00596244
2610	0.00509518
2622	0.00466154
2634	0.00498677
2646	0.00444473
2658	0.00325224
2670	0.00314383
2682	0.00433632
2694	0.00639607
2706	0.0081306
2718	0.0121417
2730	0.014093
2742	0.0110576
2754	0.00867264
2766	0.00910627
2778	0.00986513
2790	0.0138762
2802	0.0201639
2814	0.0282945
2826	0.0420623
2838	0.095399
2850	0.128138
2862	0.0599496
2874	0.0497593
2886	0.0625514
2898	0.0828237
2910	0.12803
2922	0.175729
2934	0.161203
2946	0.191882
2958	0.186353
2970	0.140388
2982	0.0913879
2994	0.102446
3006	0.193508
3018	0.15459
3030	0.0950738
3042	0.10689
3054	0.0581067
3066	0.0506265
3078	0.059516
3090	0.041195
3102	0.0360999
3114	0.0272104
3126	0.0175621
3138	0.0117081
3150	0.00758856
3162	0.00607085
3174	0.00466154
3186	0.00336065
3198	0.0027102
3210	0.00216816
3222	0.00205975
3234	0.00195134
3246	0.00162612
3258	0.00173453
3270	0.00108408
3282	0.00108408
3294	0.00119249
3306	0.00119249
3318	0.000975672
3330	0.00119249
3342	0.00162612
3354	0.00108408
3366	0.00216816
3378	0.00173453
3390	0.00119249
3402	0.00249338
3414	0.0040111
3426	0.00574562
3438	0.00932309
3450	0.00650448
3462	0.00444473
3474	0.00379428
3486	0.00227657
3498	0.00162612
3510	0.00108408
3522	0.0014093
3534	0.0014093
3546	0.000758856
3558	0.00260179
3570	0.00151771
3582	0.00216816
3594	0.00346906
3606	0.00227657
3618	0.00368587
3630	0.00336065
3642	0.00314383
3654	0.00498677
3666	0.00422791
3678	0.00433632
3690	0.00151771
3702	0.00162612
3714	0.000975672
3726	0.000758856
3738	0.00173453
3750	0.000325224
3762	0.000216816
3774	0
3786	0.00108408
3798	0.00151771
3810	0.00151771
3822	0.000325224
3834	0.000433632
3846	0.000216816
3858	0
3870	0
3882	0.00151771
3894	0.00281861
3906	0.00054204
3918	0
3930	0.00249338
3942	0.000650448
3954	0.00184294
3966	0
