Infrared Spectrum: Benzenepropanol
Formula: C 9 H 12 O
CAS: 122-97-4
Origin: Sadtler Research Labs Under US-EPA Contract
1/CM	ABSORBANCE
450	0.0612497
462	0.0526385
474	0.0674006
486	0.0675301
498	0.0475236
510	0.0423439
522	0.0259631
534	0.00705731
546	0.00951766
558	0.0231143
570	0.0358693
582	0.0227258
594	0.0148916
606	0.0112011
618	0.00977665
630	0.00951766
642	0.00977665
654	0.0143089
666	0.0338622
678	0.0995793
690	0.269084
702	0.320687
714	0.186792
726	0.189512
738	0.275818
750	0.179929
762	0.0630626
774	0.0279703
786	0.0185821
798	0.0174814
810	0.0196828
822	0.0187763
834	0.0128197
846	0.0156685
858	0.0207835
870	0.0212367
882	0.0259631
894	0.0424734
906	0.0673358
918	0.0782132
930	0.0787959
942	0.0602785
954	0.0464229
966	0.0513436
978	0.0646813
990	0.0855295
1002	0.140952
1014	0.220784
1026	0.361024
1038	0.458207
1050	0.5034
1062	0.416899
1074	0.257301
1086	0.1337
1098	0.076465
1110	0.0587246
1122	0.0554226
1134	0.0555521
1146	0.0559405
1158	0.0538039
1170	0.0537392
1182	0.0546456
1194	0.0616382
1206	0.0660409
1218	0.0689545
1230	0.0708969
1242	0.0735515
1254	0.0710264
1266	0.0716738
1278	0.0707674
1290	0.0686308
1302	0.0622857
1314	0.0622209
1326	0.0635158
1338	0.0741342
1350	0.0839756
1362	0.0764003
1374	0.088961
1386	0.110586
1398	0.0929105
1410	0.0595016
1422	0.0459697
1434	0.0694077
1446	0.117384
1458	0.119068
1470	0.0842993
1482	0.080285
1494	0.1618
1506	0.115701
1518	0.016834
1530	0.0148268
1542	0.00673358
1554	0.008158
1566	0.012496
1578	0.0200713
1590	0.0451927
1602	0.089479
1614	0.0538039
1626	0.0119133
1638	0.00757528
1650	0.00789901
1662	0.00725155
1674	0.00284882
1686	0
1698	0.00181289
1710	0.00602138
1722	0.00828749
1734	0.00770477
1746	0.00984139
1758	0.00893495
1770	0.00874071
1782	0.0145031
1794	0.0248625
1806	0.0175462
1818	0.0097119
1830	0.00589189
1842	0.00679833
1854	0.0103594
1866	0.0164455
1878	0.0174167
1890	0.0121722
1902	0.0073163
1914	0.00783427
1926	0.016316
1938	0.0235028
1950	0.027776
1962	0.0157333
1974	0.00666884
1986	0.00543866
1998	0.00336679
2010	0.00349628
2022	0.00550341
2034	0.00485595
2046	0.00666884
2058	0.00822274
2070	0.00776952
2082	0.00640985
2094	0.00679833
2106	0.00589189
2118	0.00498544
2130	0.00369052
2142	0.0032373
2154	0.00394951
2166	0.00343154
2178	0.0047912
2190	0.00517968
2202	0.00472646
2214	0.00530917
2226	0.00505019
2238	0.00537392
2250	0.0049207
2262	0.0047912
2274	0.00543866
2286	0.00608612
2298	0.00653935
2310	0.00912919
2322	0.00951766
2334	0.0100356
2346	0.0129492
2358	0.0146326
2370	0.0162512
2382	0.00945292
2394	0.00537392
2406	0.0049207
2418	0.00433798
2430	0.00433798
2442	0.00414374
2454	0.00356103
2466	0.00362578
2478	0.00414374
2490	0.00459697
2502	0.00485595
2514	0.00453222
2526	0.00505019
2538	0.0047912
2550	0.00550341
2562	0.00459697
2574	0.00505019
2586	0.00621562
2598	0.00537392
2610	0.00621562
2622	0.00679833
2634	0.0088702
2646	0.00964715
2658	0.0108773
2670	0.0124312
2682	0.0132729
2694	0.0146326
2706	0.0149563
2718	0.015798
2730	0.0174167
2742	0.0213662
2754	0.0229201
2766	0.0258984
2778	0.0301716
2790	0.0347039
2802	0.0386534
2814	0.0426029
2826	0.0524443
2838	0.0778247
2850	0.134801
2862	0.227906
2874	0.313112
2886	0.324572
2898	0.285789
2910	0.316802
2922	0.437165
2934	0.59275
2946	0.63218
2958	0.446035
2970	0.238848
2982	0.114277
2994	0.0669474
3006	0.0781484
3018	0.137585
3030	0.293623
3042	0.282487
3054	0.144125
3066	0.237942
3078	0.269149
3090	0.153642
3102	0.102493
3114	0.056588
3126	0.0240855
3138	0.0123665
3150	0.00958241
3162	0.00880546
3174	0.00699257
3186	0.00537392
3198	0.00427324
3210	0.00453222
3222	0.00310781
3234	0.0049207
3246	0.00576239
3258	0.00640985
3270	0.00679833
3282	0.00550341
3294	0.00705731
3306	0.00634511
3318	0.00459697
3330	0.00291357
3342	0.00589189
3354	0.00459697
3366	0.00550341
3378	0.00498544
3390	0.00958241
3402	0.00828749
3414	0.00841698
3426	0.00925868
3438	0.0110716
3450	0.00867596
3462	0.00964715
3474	0.00848173
3486	0.00828749
3498	0.00861122
3510	0.00958241
3522	0.0101651
3534	0.0108773
3546	0.00984139
3558	0.012237
3570	0.0113306
3582	0.0144384
3594	0.0129492
3606	0.0150858
3618	0.0217547
3630	0.04079
3642	0.0565233
3654	0.0784074
3666	0.121075
3678	0.111298
3690	0.0523148
3702	0.0272581
3714	0.0167692
3726	0.0152801
3738	0.011978
3750	0.00835223
3762	0.00764003
3774	0.0073163
3786	0.0064746
3798	0.00634511
3810	0.00718681
3822	0.00686308
3834	0.00789901
3846	0.00912919
3858	0.00925868
3870	0.00932342
3882	0.00764003
3894	0.00718681
3906	0.00602138
3918	0.00615087
3930	0.00369052
3942	0.00213662
3954	0.00181289
3966	0.00181289
