Infrared Spectrum: 1,3,5-Triazine-2,4-diamine, 6-chloro-N,N'-diethyl-
Formula: C 7 H 12 Cl N 5
CAS: 122-34-9
Origin: Sadtler Research Labs Under US-EPA Contract
1/CM	ABSORBANCE
450	0
462	0.127122
474	0.103589
486	0.111287
498	0.137569
510	0.144387
522	0.150765
534	0.121404
546	0.0980906
558	0.13383
570	0.110077
582	0.115905
594	0.111726
606	0.117885
618	0.119094
630	0.121733
642	0.114916
654	0.115575
666	0.109307
678	0.120084
690	0.117005
702	0.120304
714	0.122613
726	0.110957
738	0.114806
750	0.120744
762	0.114806
774	0.110517
786	0.109417
798	0.109527
810	0.138119
822	0.125362
834	0.114036
846	0.122503
858	0.126022
870	0.123933
882	0.128881
894	0.13262
906	0.122943
918	0.117665
930	0.126792
942	0.13372
954	0.125142
966	0.135259
978	0.160222
990	0.13482
1002	0.118874
1014	0.108208
1026	0.105128
1038	0.107218
1050	0.107658
1062	0.117225
1074	0.120084
1086	0.112826
1098	0.113486
1110	0.118324
1122	0.125802
1134	0.149335
1146	0.184525
1158	0.145156
1170	0.13405
1182	0.126462
1194	0.125802
1206	0.136139
1218	0.147026
1230	0.141967
1242	0.149555
1254	0.16671
1266	0.16561
1278	0.148785
1290	0.144607
1302	0.172098
1314	0.221693
1326	0.23181
1338	0.292292
1350	0.277007
1362	0.188044
1374	0.202119
1386	0.219934
1398	0.188483
1410	0.187274
1422	0.168359
1434	0.150875
1446	0.16715
1458	0.179686
1470	0.196841
1482	0.216525
1494	0.264361
1506	0.368939
1518	0.373228
1530	0.352004
1542	0.379166
1554	0.472198
1566	0.745576
1578	1.02731
1590	0.745906
1602	0.316705
1614	0.188703
1626	0.150215
1638	0.129321
1650	0.117555
1662	0.116785
1674	0.113156
1686	0.110077
1698	0.110077
1710	0.110187
1722	0.107658
1734	0.108867
1746	0.108977
1758	0.107658
1770	0.106448
1782	0.103479
1794	0.102929
1806	0.103039
1818	0.102599
1830	0.101719
1842	0.102049
1854	0.101719
1866	0.101719
1878	0.102599
1890	0.102269
1902	0.101719
1914	0.10128
1926	0.101719
1938	0.101829
1950	0.101939
1962	0.0997401
1974	0.0989703
1986	0.0990803
1998	0.0979806
2010	0.0979806
2022	0.0994102
2034	0.0990803
2046	0.10029
2058	0.0997401
2070	0.10029
2082	0.0993002
2094	0.0982005
2106	0.0983105
2118	0.0990803
2130	0.0982005
2142	0.0975407
2154	0.0975407
2166	0.096771
2178	0.0969909
2190	0.0971009
2202	0.0984205
2214	0.0982005
2226	0.0993002
2238	0.0994102
2250	0.0988603
2262	0.0989703
2274	0.10018
2286	0.10128
2298	0.103479
2310	0.105678
2322	0.101939
2334	0.1004
2346	0.105018
2358	0.09985
2370	0.102489
2382	0.102599
2394	0.0964411
2406	0.0954514
2418	0.0957813
2430	0.0952314
2442	0.0962211
2454	0.0963311
2466	0.0955613
2478	0.0960012
2490	0.0961112
2502	0.0957813
2514	0.0963311
2526	0.0955613
2538	0.0949015
2550	0.0949015
2562	0.0934719
2574	0.0924822
2586	0.0923723
2598	0.0929221
2610	0.0923723
2622	0.0923723
2634	0.0914925
2646	0.0922623
2658	0.0918224
2670	0.0924822
2682	0.0936919
2694	0.0934719
2706	0.0940218
2718	0.0936919
2730	0.0956713
2742	0.0942417
2754	0.0934719
2766	0.093142
2778	0.0944617
2790	0.0934719
2802	0.0942417
2814	0.0942417
2826	0.0956713
2838	0.0952314
2850	0.096661
2862	0.0993002
2874	0.105678
2886	0.117665
2898	0.116125
2910	0.114036
2922	0.119314
2934	0.131081
2946	0.144167
2958	0.127342
2970	0.129871
2982	0.158352
2994	0.138778
3006	0.111397
3018	0.101719
3030	0.0984205
3042	0.0962211
3054	0.0954514
3066	0.0945716
3078	0.0950115
3090	0.0938019
3102	0.0947916
3114	0.0955613
3126	0.0945716
3138	0.0957813
3150	0.0953414
3162	0.0946816
3174	0.0927022
3186	0.0936919
3198	0.0938019
3210	0.093142
3222	0.0927022
3234	0.0923723
3246	0.0930321
3258	0.0924822
3270	0.0930321
3282	0.0918224
3294	0.093252
3306	0.0923723
3318	0.093252
3330	0.0928121
3342	0.093142
3354	0.0943517
3366	0.0934719
3378	0.0929221
3390	0.0942417
3402	0.0941318
3414	0.0953414
3426	0.0979806
3438	0.103149
3450	0.123603
3462	0.16506
3474	0.142627
3486	0.104469
3498	0.0974308
3510	0.0984205
3522	0.0975407
3534	0.0962211
3546	0.0969909
3558	0.096661
3570	0.0991902
3582	0.0996301
3594	0.0996301
3606	0.0973208
3618	0.096661
3630	0.0969909
3642	0.0990803
3654	0.0969909
3666	0.0972108
3678	0.096551
3690	0.0946816
3702	0.0968809
3714	0.0952314
3726	0.0995201
3738	0.0983105
3750	0.093142
3762	0.0980906
3774	0.0969909
3786	0.0977607
3798	0.096551
3810	0.0972108
3822	0.0945716
3834	0.10139
3846	0.0988603
3858	0.0949015
3870	0.096551
3882	0.096661
3894	0.0947916
3906	0.0946816
3918	0.0954514
3930	0.0976507
3942	0.0929221
3954	0.0935819
3966	0.0942417
