Infrared Spectrum: Acetic acid, phenyl ester
Formula: C 8 H 8 O 2
CAS: 122-79-2
Origin: Sadtler Research Labs Under US-EPA Contract
1/CM	ABSORBANCE
450	0
462	0.0280818
474	0.0227484
486	0.0403811
498	0.0353199
510	0.0349389
522	0.041524
534	0.0387485
546	0.0300409
558	0.0281906
570	0.0250885
582	0.0309117
594	0.0342314
606	0.0272654
618	0.031728
630	0.0309117
642	0.0259593
654	0.0371158
666	0.0373879
678	0.0447893
690	0.0632928
702	0.0430478
714	0.0332518
726	0.0402179
738	0.046041
750	0.0605173
762	0.0422315
774	0.0316736
786	0.0368981
798	0.0389117
810	0.0413063
822	0.0384219
834	0.0328709
846	0.0271022
858	0.0309661
870	0.032109
882	0.0409253
894	0.0437009
906	0.0413063
918	0.0591567
930	0.0482723
942	0.0298777
954	0.027592
966	0.0291158
978	0.0302042
990	0.0363539
1002	0.052354
1014	0.0556737
1026	0.049524
1038	0.0376056
1050	0.0342314
1062	0.0409798
1074	0.042939
1086	0.0389117
1098	0.0340138
1110	0.0302042
1122	0.0296056
1134	0.034558
1146	0.0437553
1158	0.0709119
1170	0.0869119
1182	0.139756
1194	0.351403
1206	0.54422
1218	0.341008
1230	0.0976331
1242	0.0606805
1254	0.0595921
1266	0.0533336
1278	0.0364627
1290	0.0326532
1302	0.0331974
1314	0.0318369
1326	0.0305852
1338	0.0327076
1350	0.0333063
1362	0.0518097
1374	0.0901773
1386	0.0568166
1398	0.0331974
1410	0.0295511
1422	0.0290069
1434	0.031075
1446	0.0321634
1458	0.0350478
1470	0.04049
1482	0.0503948
1494	0.0954018
1506	0.0570343
1518	0.0323811
1530	0.0308029
1542	0.0318913
1554	0.029279
1566	0.0286804
1578	0.0320001
1590	0.0557281
1602	0.0721091
1614	0.0360818
1626	0.026177
1638	0.0246532
1650	0.0249797
1662	0.0234559
1674	0.024762
1686	0.0252518
1698	0.0254695
1710	0.0277008
1722	0.0288981
1734	0.0349389
1746	0.0425036
1758	0.054422
1770	0.0891977
1782	0.142096
1794	0.140572
1806	0.0844629
1818	0.0463131
1830	0.0315648
1842	0.0274831
1854	0.0245443
1866	0.0230205
1878	0.0227484
1890	0.0223674
1902	0.0222586
1914	0.0225851
1926	0.023347
1938	0.0231838
1950	0.023347
1962	0.0217144
1974	0.0210069
1986	0.0218776
1998	0.0224763
2010	0.0238368
2022	0.0238368
2034	0.0231293
2046	0.0237824
2058	0.0227484
2070	0.0222586
2082	0.0223674
2094	0.0214423
2106	0.0203538
2118	0.0205715
2130	0.0205715
2142	0.0194287
2154	0.0194287
2166	0.0189389
2178	0.01883
2190	0.0196463
2202	0.0195375
2214	0.0194831
2226	0.0191565
2238	0.0186123
2250	0.0189933
2262	0.0194287
2274	0.0188844
2286	0.0195375
2298	0.0196463
2310	0.0186123
2322	0.0176872
2334	0.0170341
2346	0.0180137
2358	0.0173062
2370	0.0219321
2382	0.0210069
2394	0.0208436
2406	0.0205715
2418	0.0197008
2430	0.0192654
2442	0.019211
2454	0.0193198
2466	0.0189933
2478	0.0186667
2490	0.0193198
2502	0.0189933
2514	0.0187756
2526	0.0189933
2538	0.0186667
2550	0.0186123
2562	0.0189389
2574	0.0199185
2586	0.0192654
2598	0.0181769
2610	0.0175783
2622	0.0164899
2634	0.0165443
2646	0.0161089
2658	0.0154558
2670	0.0182858
2682	0.0190477
2694	0.0191021
2706	0.0194831
2718	0.0195375
2730	0.0194287
2742	0.0197552
2754	0.0198096
2766	0.0200817
2778	0.020245
2790	0.0204627
2802	0.0199729
2814	0.0202994
2826	0.0194287
2838	0.0195919
2850	0.0198096
2862	0.0201361
2874	0.0203538
2886	0.0199729
2898	0.0192654
2910	0.0198096
2922	0.01883
2934	0.0202994
2946	0.0218776
2958	0.0228572
2970	0.0205715
2982	0.0213334
2994	0.020898
3006	0.0222586
3018	0.0236191
3030	0.0278641
3042	0.0346124
3054	0.039075
3066	0.0349933
3078	0.0381498
3090	0.0377689
3102	0.0303675
3114	0.0265579
3126	0.0201361
3138	0.0191565
3150	0.0198096
3162	0.0185035
3174	0.0177416
3186	0.0186123
3198	0.0167076
3210	0.0187212
3222	0.0191021
3234	0.0187212
3246	0.0187756
3258	0.0169797
3270	0.0195375
3282	0.01883
3294	0.0189933
3306	0.0189933
3318	0.0183946
3330	0.0186123
3342	0.0192654
3354	0.0193742
3366	0.0186123
3378	0.0187212
3390	0.0184491
3402	0.0184491
3414	0.0180137
3426	0.0201906
3438	0.0186667
3450	0.019864
3462	0.019211
3474	0.0191565
3486	0.0174695
3498	0.0176872
3510	0.0188844
3522	0.0186123
3534	0.0193742
3546	0.0198096
3558	0.0186123
3570	0.0214967
3582	0.0199729
3594	0.0207348
3606	0.0180681
3618	0.0173062
3630	0.0196463
3642	0.0235103
3654	0.0236191
3666	0.022313
3678	0.0186667
3690	0.0185035
3702	0.0171974
3714	0.0167076
3726	0.017796
3738	0.0186123
3750	0.0161633
3762	0.0160001
3774	0.0179048
3786	0.0164899
3798	0.0187212
3810	0.0186123
3822	0.0186123
3834	0.0171974
3846	0.0183946
3858	0.0194831
3870	0.0158368
3882	0.0151837
3894	0.0152382
3906	0.0181769
3918	0.0180137
3930	0.0183402
3942	0.0158912
3954	0.0190477
3966	0.019864
