Infrared Spectrum: Propanoic acid, phenylmethyl ester
Formula: C 10 H 12 O 2
CAS: 122-63-4
Origin: Sadtler Research Labs Under US-EPA Contract
1/CM	ABSORBANCE
450	0
462	0.0133826
474	0.0190879
486	0.0194401
498	0.0449375
510	0.0339497
522	0.0106357
534	0.0125374
546	0.0132418
558	0.012467
570	0.0246523
582	0.0359923
594	0.0210601
606	0.0264836
618	0.0226801
630	0.0194401
642	0.0098609
654	0.0133826
666	0.0195809
678	0.0516993
690	0.104596
702	0.121289
714	0.0824794
726	0.080155
738	0.107977
750	0.117063
762	0.0490228
774	0.0223983
786	0.0195105
798	0.0229618
810	0.0302166
822	0.040641
834	0.0376123
846	0.031414
858	0.0219757
870	0.0190174
882	0.0250749
894	0.0324001
906	0.0415567
918	0.0435288
930	0.0271879
942	0.0316958
954	0.0476845
966	0.046628
978	0.0465575
990	0.062828
1002	0.0998064
1014	0.169819
1026	0.162916
1038	0.0826907
1050	0.0869872
1062	0.14404
1074	0.182497
1086	0.18778
1098	0.121993
1110	0.0917064
1122	0.0956507
1134	0.109104
1146	0.148829
1158	0.263568
1170	0.596303
1182	0.655961
1194	0.456912
1206	0.379011
1218	0.303011
1230	0.189118
1242	0.150942
1254	0.145448
1266	0.153478
1278	0.153619
1290	0.0960733
1302	0.0603628
1314	0.0583202
1326	0.100299
1338	0.148266
1350	0.161789
1362	0.0808594
1374	0.0767741
1386	0.0934672
1398	0.0501497
1410	0.0353584
1422	0.0383871
1434	0.0536715
1446	0.0705759
1458	0.0943125
1470	0.107132
1482	0.0509949
1494	0.0495158
1506	0.0494454
1518	0.0214827
1530	0.0181722
1542	0.0185948
1554	0.015214
1566	0.0147913
1578	0.0159183
1590	0.0175383
1602	0.0199331
1614	0.0207079
1626	0.0163409
1638	0.0166931
1650	0.0176087
1662	0.0157774
1674	0.018947
1686	0.022187
1698	0.0291601
1710	0.0403593
1722	0.061208
1734	0.113471
1746	0.307519
1758	0.668006
1770	0.428527
1782	0.141645
1794	0.0689559
1806	0.0449375
1818	0.0289488
1830	0.0221166
1842	0.0183835
1854	0.0164818
1866	0.0173974
1878	0.0176792
1890	0.0167635
1902	0.0142279
1914	0.0138757
1926	0.015214
1938	0.0169044
1950	0.018454
1962	0.0185244
1974	0.0133826
1986	0.01296
1998	0.0133826
2010	0.0132418
2022	0.0126783
2034	0.0116218
2046	0.012467
2058	0.0098609
2070	0.0104244
2082	0.0114105
2094	0.0105652
2106	0.0104244
2118	0.0106357
2130	0.0104244
2142	0.0100722
2154	0.0102835
2166	0.0106357
2178	0.0104948
2190	0.010847
2202	0.0106357
2214	0.0103539
2226	0.0104948
2238	0.0102131
2250	0.0105652
2262	0.0104244
2274	0.0102131
2286	0.0105652
2298	0.00950872
2310	0.00810003
2322	0.00817046
2334	0.00936785
2346	0.0109879
2358	0.00810003
2370	0.0150027
2382	0.0130305
2394	0.01134
2406	0.0111287
2418	0.0111992
2430	0.01134
2442	0.0106357
2454	0.0109174
2466	0.0109879
2478	0.0107766
2490	0.0107061
2502	0.0104948
2514	0.0104948
2526	0.0107061
2538	0.0102131
2550	0.0103539
2562	0.0110583
2574	0.01134
2586	0.0109879
2598	0.0112696
2610	0.0112696
2622	0.0114105
2634	0.0127487
2646	0.0116922
2658	0.0107766
2670	0.011974
2682	0.0114105
2694	0.0098609
2706	0.0109879
2718	0.0116922
2730	0.0120444
2742	0.012467
2754	0.0125374
2766	0.0120444
2778	0.0121853
2790	0.0121853
2802	0.0136644
2814	0.0151435
2826	0.0171861
2838	0.0192288
2850	0.0210601
2862	0.0221166
2874	0.0290897
2886	0.0466984
2898	0.0653637
2910	0.0564184
2922	0.0536715
2934	0.0674063
2946	0.100722
2958	0.144814
2970	0.116288
2982	0.122416
2994	0.137771
3006	0.0787463
3018	0.0584611
3030	0.0717028
3042	0.11009
3054	0.0776194
3066	0.071562
3078	0.101849
3090	0.0600106
3102	0.0457123
3114	0.0323297
3126	0.0223279
3138	0.0142983
3150	0.0123966
3162	0.0130305
3174	0.0128192
3186	0.0133826
3198	0.01296
3210	0.0105652
3222	0.0111992
3234	0.0115513
3246	0.0107061
3258	0.0120444
3270	0.0098609
3282	0.0109174
3294	0.0125374
3306	0.0118331
3318	0.0096496
3330	0.0096496
3342	0.0111992
3354	0.0120444
3366	0.0106357
3378	0.00936785
3390	0.0122557
3402	0.00979046
3414	0.0107061
3426	0.0103539
3438	0.0104948
3450	0.0100722
3462	0.00993133
3474	0.0109879
3486	0.0115513
3498	0.0147209
3510	0.0135235
3522	0.0103539
3534	0.0100018
3546	0.00936785
3558	0.00922699
3570	0.0116922
3582	0.011974
3594	0.0120444
3606	0.0120444
3618	0.00943829
3630	0.0122557
3642	0.0138757
3654	0.0126079
3666	0.0123966
3678	0.0098609
3690	0.0104244
3702	0.012467
3714	0.0119035
3726	0.0112696
3738	0.0104244
3750	0.00972003
3762	0.0109174
3774	0.0117626
3786	0.0104244
3798	0.0116922
3810	0.0115513
3822	0.0134531
3834	0.012467
3846	0.0103539
3858	0.0100722
3870	0.0123261
3882	0.0112696
3894	0.0110583
3906	0.00929742
3918	0.0107061
3930	0.0114105
3942	0.0103539
3954	0.0152844
3966	0.00915655
