Infrared Spectrum: 2-Propenoic acid, 3-phenyl-, 2-methylpropyl ester
Formula: C 13 H 16 O 2
CAS: 122-67-8
Origin: Sadtler Research Labs Under US-EPA Contract
1/CM	ABSORBANCE
450	0.0170193
462	0.0172003
474	0.0159329
486	0.0157519
498	0.0107427
510	0.0100788
522	0.0100788
534	0.0120704
546	0.0135792
558	0.00796646
570	0.0194937
582	0.0229338
594	0.0116479
606	0.00700083
618	0.00356077
630	0.00120704
642	0.0045264
654	0.00549203
666	0.0155105
678	0.0294518
690	0.040979
702	0.0438759
714	0.0285465
726	0.0202179
738	0.0158726
750	0.0326504
762	0.0583
774	0.0350645
786	0.00929421
798	0.00663872
810	0.00446605
822	0.00832858
834	0.010622
846	0.00941491
858	0.0156915
870	0.0158726
882	0.00971667
894	0.00965632
906	0.00953562
918	0.0112255
930	0.0156915
942	0.019373
954	0.0275205
966	0.0457468
978	0.067896
990	0.0456261
1002	0.048342
1014	0.121187
1026	0.116479
1038	0.0829236
1050	0.0294518
1062	0.0252271
1074	0.0231148
1086	0.0178642
1098	0.0226924
1110	0.0222699
1122	0.0286672
1134	0.0462296
1146	0.112315
1158	0.400918
1170	0.477988
1182	0.193247
1194	0.158484
1206	0.128369
1218	0.0569119
1230	0.0798457
1242	0.1577
1254	0.244245
1266	0.200369
1278	0.148225
1290	0.137301
1302	0.171822
1314	0.214551
1326	0.109297
1338	0.0482212
1350	0.0324694
1362	0.0263135
1374	0.062585
1386	0.0579379
1398	0.0330125
1410	0.0176228
1422	0.0105012
1434	0.0152087
1446	0.0327711
1458	0.0414015
1470	0.0418239
1482	0.0276412
1494	0.0351249
1506	0.0146655
1518	0.00669907
1530	0.00525062
1542	0.00199162
1554	0.00392288
1566	0.00730259
1578	0.0166572
1590	0.0119497
1602	0.0126136
1614	0.0137603
1626	0.0298139
1638	0.112919
1650	0.0954165
1662	0.0216664
1674	0.0169589
1686	0.0161743
1698	0.0247443
1710	0.0411601
1722	0.113462
1734	0.390176
1746	0.289629
1758	0.0714568
1770	0.0323487
1782	0.0222699
1794	0.0149069
1806	0.00808717
1818	0.00700083
1830	0.00422464
1842	0.00706118
1854	0.00470746
1866	0.00573344
1878	0.00645766
1890	0.00525062
1902	0.00416429
1914	0.00277619
1926	0.00398323
1938	0.00446605
1950	0.00712154
1962	0.00488851
1974	0.00356077
1986	0.00277619
1998	0.00271584
2010	0.0030176
2022	0.00156915
2034	0.00307795
2046	0.00114669
2058	0.00295725
2070	0.00235373
2082	0.00277619
2094	0.00307795
2106	0.00253478
2118	0.00488851
2130	0.00337971
2142	0.00392288
2154	0.00259514
2166	0.00241408
2178	0.00217267
2190	0.00205197
2202	0.0028969
2214	0.0015088
2226	0.00241408
2238	0.00156915
2250	0.00277619
2262	0.00223302
2274	0.00217267
2286	0.00259514
2298	0.00102598
2310	0.00362112
2322	0.00217267
2334	0.00386253
2346	0.00253478
2358	0.00114669
2370	0.00181056
2382	0.00247443
2394	0.00211232
2406	0.000482816
2418	0.00319866
2430	0.000241408
2442	0.0013881
2454	0.00102598
2466	0.00168986
2478	0.00235373
2490	0.00102598
2502	0.00205197
2514	0.000482816
2526	0.00193126
2538	0.000724224
2550	0.00156915
2562	0.0016295
2574	0.00205197
2586	0.00265549
2598	0.00229338
2610	0.00253478
2622	0.00156915
2634	0.00235373
2646	0.00241408
2658	0.00271584
2670	0.00277619
2682	0.00223302
2694	0.00404358
2706	0.00217267
2718	0.0031383
2730	0.00380218
2742	0.00512992
2754	0.0044057
2766	0.00488851
2778	0.0046471
2790	0.00537133
2802	0.00645766
2814	0.0060352
2826	0.00838893
2838	0.00802682
2850	0.0105616
2862	0.0134585
2874	0.0252875
2886	0.0618608
2898	0.0551014
2910	0.0491869
2922	0.0497904
2934	0.0610159
2946	0.0895624
2958	0.107064
2970	0.159269
2982	0.145328
2994	0.0351852
3006	0.0161743
3018	0.0161743
3030	0.0263135
3042	0.0362112
3054	0.0233562
3066	0.0394702
3078	0.0500922
3090	0.0298742
3102	0.0207611
3114	0.0118893
3126	0.00543168
3138	0.00368147
3150	0.00392288
3162	0.00512992
3174	0.00428499
3186	0.00356077
3198	0.00362112
3210	0.00265549
3222	0.00168986
3234	0.00211232
3246	0.0016295
3258	0.00181056
3270	0.00229338
3282	0.00193126
3294	0.00187091
3306	0.00205197
3318	0.00229338
3330	0.00295725
3342	0.00235373
3354	0.00241408
3366	0.0030176
3378	0.00350042
3390	0.00199162
3402	0.00331936
3414	0.00193126
3426	0.00241408
3438	0.00253478
3450	0.00500922
3462	0.00519027
3474	0.00319866
3486	0.00265549
3498	0.00126739
3510	0.00193126
3522	0.00217267
3534	0.00168986
3546	0.00325901
3558	0.00265549
3570	0.0013881
3582	0.00271584
3594	0.0028969
3606	0.00126739
3618	0.00120704
3630	0.000543168
3642	0.00247443
3654	0.00144845
3666	0.0015088
3678	0.000724224
3690	0.00108634
3702	0.00102598
3714	0.000241408
3726	0.000482816
3738	0.000422464
3750	0
3762	0
3774	0.000181056
3786	0.000543168
3798	0
3810	0
3822	0
3834	0
3846	0
3858	0
3870	0
3882	0
3894	0
3906	0
3918	0
3930	0
3942	0
3954	0
3966	0
