Infrared Spectrum: Ethanol, 2-phenoxy-
Formula: C 8 H 10 O 2
CAS: 122-99-6
Origin: Sadtler Research Labs Under US-EPA Contract
1/CM	ABSORBANCE
450	0.00326804
462	0.00463606
474	0.0074481
486	0.0148962
498	0.0268284
510	0.0277404
522	0.0129202
534	0.00691609
546	0.00471206
558	0.00471206
570	0.00912012
582	0.0102601
594	0.0132242
606	0.0158842
618	0.00448406
630	7.6001e-05
642	0.00190003
654	0.00562407
666	0.0168722
678	0.0613328
690	0.114002
702	0.0548727
714	0.0153522
726	0.0234083
738	0.0867931
750	0.172978
762	0.125934
774	0.0601928
786	0.0448406
798	0.0276644
810	0.0162642
822	0.0110961
834	0.00554807
846	0.00706809
858	0.0156562
870	0.0316924
882	0.0557847
894	0.0860331
906	0.102981
918	0.0716689
930	0.0234843
942	0.0140602
954	0.0118562
966	0.0112481
978	0.0132242
990	0.0206723
1002	0.0346565
1014	0.0573808
1026	0.133154
1038	0.324676
1050	0.344209
1062	0.185062
1074	0.185974
1086	0.182478
1098	0.112025
1110	0.0566967
1122	0.0303244
1134	0.0241683
1146	0.0298684
1158	0.0541887
1170	0.101157
1182	0.0593568
1194	0.077901
1206	0.147518
1218	0.242595
1230	0.370049
1242	0.747166
1254	0.488838
1266	0.16135
1278	0.136574
1290	0.144326
1302	0.126162
1314	0.0532007
1326	0.0445366
1338	0.0537327
1350	0.0464366
1362	0.0666529
1374	0.0946972
1386	0.0554047
1398	0.0499327
1410	0.0412685
1422	0.0253083
1434	0.0207483
1446	0.0315404
1458	0.131862
1470	0.117042
1482	0.122666
1494	0.429938
1506	0.271932
1518	0.0361005
1530	0.0201403
1542	0.0191523
1554	0.0174802
1566	0.0272084
1578	0.0665009
1590	0.206343
1602	0.343601
1614	0.112253
1626	0.0213563
1638	0.0104121
1650	0.00919612
1662	0.00501607
1674	0.00691609
1686	0.0103361
1698	0.0117802
1710	0.00570008
1722	0.00440806
1734	0.00676409
1746	0.00456006
1758	0.0078281
1770	0.00972813
1782	0.00478806
1794	0.00433206
1806	0.00212803
1818	0.00266004
1830	0.00668809
1842	0.00676409
1854	0.00433206
1866	0.00326804
1878	0.00076001
1890	0.00190003
1902	0.00349605
1914	0.00798011
1926	0.00988013
1938	0.0110961
1950	0.0079041
1962	0.00418006
1974	0.00425606
1986	0.00425606
1998	0.00418006
2010	0.00387605
2022	0.00463606
2034	0.00585208
2046	0.00440806
2058	0.00342005
2070	0.00357205
2082	0.00364805
2094	0.00349605
2106	0.00319204
2118	0.00212803
2130	0.00212803
2142	0.00174802
2154	0.00136802
2166	0.000912012
2178	0.000456006
2190	0.000380005
2202	0
2214	0.000304004
2226	0
2238	0.000456006
2250	0.00152002
2262	0.00167202
2274	0.00197603
2286	0.00182402
2298	0.00136802
2310	0.00182402
2322	0.00159602
2334	0.000532007
2346	0.000152002
2358	0.00182402
2370	0.00114002
2382	0.00167202
2394	0.00281204
2406	0.00288804
2418	0.00296404
2430	0.00296404
2442	0.00304004
2454	0.00395205
2466	0.00395205
2478	0.00448406
2490	0.00501607
2502	0.00357205
2514	0.00304004
2526	0.00410405
2538	0.00448406
2550	0.00478806
2562	0.00212803
2574	0.00167202
2586	0.00114002
2598	0.00144402
2610	0.00205203
2622	0.00281204
2634	0.00273604
2646	0.00220403
2658	0.00220403
2670	0.00220403
2682	0.00174802
2694	0.00281204
2706	0.00364805
2718	0.00524407
2730	0.0072961
2742	0.0074481
2754	0.00562407
2766	0.00501607
2778	0.00638408
2790	0.0075241
2802	0.00798011
2814	0.00934812
2826	0.0108681
2838	0.0144402
2850	0.0218883
2862	0.0415725
2874	0.0805611
2886	0.109897
2898	0.0881612
2910	0.075013
2922	0.100321
2934	0.145086
2946	0.14881
2958	0.136118
2970	0.114686
2982	0.0618648
2994	0.0250043
3006	0.0136802
3018	0.0187722
3030	0.0351125
3042	0.0677169
3054	0.075469
3066	0.0604968
3078	0.0839051
3090	0.0653609
3102	0.0441566
3114	0.0288804
3126	0.00881612
3138	0.00159602
3150	0.000912012
3162	0.000456006
3174	0.000912012
3186	0.000684009
3198	0.000836011
3210	0.000912012
3222	0.000912012
3234	0.000380005
3246	0.00114002
3258	0.000380005
3270	0.00106401
3282	0.00076001
3294	0.00159602
3306	0.00114002
3318	0.00114002
3330	0.000608008
3342	0.000988013
3354	0.00106401
3366	0.000988013
3378	0.00152002
3390	0.00106401
3402	0.00182402
3414	0.00144402
3426	0.00106401
3438	0.00159602
3450	0.00152002
3462	0.00197603
3474	0.00258403
3486	0.00212803
3498	0.00212803
3510	0.00296404
3522	0.00372405
3534	0.00372405
3546	0.00319204
3558	0.00311604
3570	0.00281204
3582	0.00425606
3594	0.00547207
3606	0.00798011
3618	0.0130722
3630	0.0338964
3642	0.0639928
3654	0.0454486
3666	0.0319204
3678	0.0246243
3690	0.0155042
3702	0.00820811
3714	0.00577608
3726	0.00425606
3738	0.00364805
3750	0.00380005
3762	0.00410405
3774	0.00326804
3786	0.00273604
3798	0.00311604
3810	0.00220403
3822	0.00319204
3834	0.00205203
3846	0.00197603
3858	0.00235603
3870	0.00250803
3882	0.00266004
3894	0.00250803
3906	0.00258403
3918	0.00266004
3930	0.00220403
3942	0.00228003
3954	0.00250803
3966	0.00311604
