Infrared Spectrum: Oxirane, (phenoxymethyl)-
Formula: C 9 H 10 O 2
CAS: 122-60-1
Origin: Sadtler Research Labs Under US-EPA Contract
1/CM	ABSORBANCE
450	0
462	0.0156393
474	0.0189184
486	0.0264858
498	0.0433022
510	0.0387618
522	0.0344736
534	0.0285879
546	0.0211046
558	0.0213568
570	0.0234589
582	0.0178254
594	0.0187503
606	0.00941718
618	0.00916494
630	0.0169005
642	0.00899677
654	0.0125282
666	0.0285038
678	0.0872771
690	0.168164
702	0.09434
714	0.0398549
726	0.0426296
738	0.124357
750	0.268137
762	0.205749
774	0.117715
786	0.0855955
798	0.0747489
810	0.0892951
822	0.108466
834	0.120574
846	0.137138
858	0.114015
870	0.0667611
882	0.0598664
894	0.0593619
906	0.0726468
918	0.086184
930	0.0646591
942	0.0467496
954	0.0485994
966	0.0622207
978	0.058437
990	0.0665929
1002	0.0816436
1014	0.0946763
1026	0.172368
1038	0.315055
1050	0.305218
1062	0.14378
1074	0.11906
1086	0.0989645
1098	0.0644909
1110	0.0512059
1122	0.0466655
1134	0.0670974
1146	0.0587733
1158	0.0938355
1170	0.159672
1182	0.114267
1194	0.126207
1206	0.252078
1218	0.526858
1230	0.656176
1242	0.84082
1254	0.552671
1266	0.259561
1278	0.201881
1290	0.194398
1302	0.168921
1314	0.087109
1326	0.0627252
1338	0.0730673
1350	0.0763465
1362	0.0778599
1374	0.0618844
1386	0.0549055
1398	0.0446475
1410	0.0392663
1422	0.0409479
1434	0.0412843
1446	0.0559986
1458	0.109138
1470	0.134279
1482	0.204992
1494	0.640705
1506	0.361553
1518	0.0651636
1530	0.0322034
1542	0.0353144
1554	0.0353144
1566	0.0544851
1578	0.122255
1590	0.314635
1602	0.465982
1614	0.151179
1626	0.0425455
1638	0.0238793
1650	0.0190866
1662	0.0132009
1674	0.0172368
1686	0.0221976
1698	0.0284197
1710	0.0269903
1722	0.0293446
1734	0.0505333
1746	0.0466655
1758	0.032792
1770	0.0268222
1782	0.0153029
1794	0.0114352
1806	0.00790371
1818	0.00824004
1830	0.0136213
1842	0.0138735
1854	0.0107625
1866	0.00849228
1878	0.00445635
1890	0.00529717
1902	0.00689472
1914	0.0128645
1926	0.0161437
1938	0.0162278
1950	0.0115192
1962	0.00697881
1974	0.00756738
1986	0.00882861
1998	0.011267
2010	0.0113511
2022	0.012276
2034	0.0134531
2046	0.013285
2058	0.0132009
2070	0.0142099
2082	0.0125282
2094	0.0103421
2106	0.0084082
2118	0.00672656
2130	0.00639023
2142	0.00521308
2154	0.00462451
2166	0.00454043
2178	0.00462451
2190	0.00437226
2202	0.00437226
2214	0.00445635
2226	0.00521308
2238	0.00613799
2250	0.00731513
2262	0.00824004
2274	0.00807187
2286	0.00832412
2298	0.00739922
2310	0.00781963
2322	0.00672656
2334	0.00639023
2346	0.00706289
2358	0.00529717
2370	0.00866045
2382	0.00857636
2394	0.00723105
2406	0.00739922
2418	0.00773554
2430	0.00832412
2442	0.00773554
2454	0.00765146
2466	0.00706289
2478	0.00714697
2490	0.00781963
2502	0.00613799
2514	0.00588574
2526	0.00647431
2538	0.00723105
2550	0.00739922
2562	0.00630615
2574	0.00529717
2586	0.00479267
2598	0.00529717
2610	0.00563349
2622	0.00613799
2634	0.00529717
2646	0.00529717
2658	0.00479267
2670	0.00496084
2682	0.00504492
2694	0.00538125
2706	0.00714697
2718	0.00950127
2730	0.0113511
2742	0.011267
2754	0.0115192
2766	0.0116033
2778	0.0114352
2790	0.0126123
2802	0.013369
2814	0.016396
2826	0.0203478
2838	0.0220295
2850	0.0259813
2862	0.0375847
2874	0.058437
2886	0.0712175
2898	0.0673497
2910	0.0735718
2922	0.0985441
2934	0.1273
2946	0.106196
2958	0.0827367
2970	0.0792893
2982	0.0845024
2994	0.0917335
3006	0.115276
3018	0.109811
3030	0.0980396
3042	0.144453
3054	0.189521
3066	0.156477
3078	0.153281
3090	0.102832
3102	0.0715538
3114	0.0452361
3126	0.0177413
3138	0.0101739
3150	0.00832412
3162	0.00798779
3174	0.00739922
3186	0.00798779
3198	0.00723105
3210	0.00756738
3222	0.00773554
3234	0.00857636
3246	0.00824004
3258	0.00798779
3270	0.0074833
3282	0.00723105
3294	0.00798779
3306	0.00781963
3318	0.0074833
3330	0.00790371
3342	0.00874453
3354	0.00899677
3366	0.00899677
3378	0.00807187
3390	0.00824004
3402	0.00899677
3414	0.00891269
3426	0.00891269
3438	0.00773554
3450	0.00866045
3462	0.00983759
3474	0.00924902
3486	0.00790371
3498	0.00790371
3510	0.00815595
3522	0.00832412
3534	0.00807187
3546	0.00866045
3558	0.00807187
3570	0.00857636
3582	0.010258
3594	0.0120237
3606	0.0145462
3618	0.0160597
3630	0.0168164
3642	0.0156393
3654	0.0178254
3666	0.0144621
3678	0.00824004
3690	0.00487676
3702	0.00546533
3714	0.0042041
3726	0.00487676
3738	0.00487676
3750	0.0042041
3762	0.0042041
3774	0.0042041
3786	0.00521308
3798	0.0042041
3810	0.00454043
3822	0.00639023
3834	0.00521308
3846	0.00588574
3858	0.00496084
3870	0.00487676
3882	0.00437226
3894	0.0042041
3906	0.00487676
3918	0.0042041
3930	0.0042041
3942	0.00454043
3954	0.0042041
3966	0.00445635
