Infrared Spectrum: 2-Butanone, 4-(4-hydroxy-3-methoxyphenyl)-
Formula: C 11 H 14 O 3
CAS: 122-48-5
Origin: Sadtler Research Labs Under US-EPA Contract
1/CM	ABSORBANCE
450	0.041901
462	0.0226085
474	0.0465734
486	0.0203476
498	0.0204983
510	0.00904338
522	0.0163283
534	0.0311997
546	0.0261756
558	0.0389368
570	0.0177351
582	0.0248191
594	0.0224075
606	0.0116559
618	0.0127612
630	0.0215534
642	0.015625
654	0.00718446
666	0.00728495
678	0.00909362
690	0.0151728
702	0.00633037
714	0.0116559
726	0.00758639
738	0.00969651
750	0.01251
762	0.015424
774	0.0369271
786	0.0825962
798	0.0845556
810	0.0888763
822	0.0551646
834	0.0303958
846	0.0283359
858	0.0379822
870	0.0287881
882	0.0291398
894	0.0217544
906	0.0285369
918	0.0291398
930	0.026477
942	0.0301948
954	0.0239147
966	0.0235128
978	0.0222065
990	0.0228094
1002	0.0292905
1014	0.0419512
1026	0.0900319
1038	0.115806
1050	0.0766175
1062	0.0310489
1074	0.0215534
1086	0.0210007
1098	0.0293407
1110	0.061495
1122	0.116157
1134	0.106159
1146	0.176647
1158	0.19589
1170	0.131581
1182	0.127713
1194	0.15645
1206	0.213173
1218	0.19594
1230	0.233168
1242	0.282204
1254	0.254923
1266	0.405093
1278	0.347216
1290	0.129873
1302	0.0605906
1314	0.0488845
1326	0.0579781
1338	0.0851585
1350	0.124045
1362	0.195588
1374	0.146453
1386	0.0638061
1398	0.0388865
1410	0.0481811
1422	0.0759142
1434	0.119071
1446	0.0875701
1458	0.089228
1470	0.0985728
1482	0.0705384
1494	0.0880222
1506	0.28361
1518	0.50241
1530	0.112691
1542	0.0224075
1554	0.0190916
1566	0.0191921
1578	0.0204481
1590	0.0354199
1602	0.0678756
1614	0.0645094
1626	0.0316016
1638	0.0114549
1650	0.00311494
1662	0.0118569
1674	0.014168
1686	0.0210007
1698	0.0407957
1710	0.0798329
1722	0.153989
1734	0.226939
1746	0.11666
1758	0.0526526
1770	0.0261756
1782	0.016479
1794	0.0112037
1806	0.0091941
1818	0.00663181
1830	0.00366759
1842	0.00497386
1854	0.00748591
1866	0.00638061
1878	0.00537579
1890	0.00291398
1902	0.00336615
1914	0.00256229
1926	0.00341639
1938	0.00371783
1950	0.00321542
1962	0.00236133
1974	0.00271301
1986	0.00311494
1998	0.00261253
2010	0.00276326
2022	0.00321542
2034	0.00406952
2046	0.00562699
2058	0.00638061
2070	0.00597868
2082	0.00447145
2094	0.00301446
2106	0.00236133
2118	0.00205988
2130	0.00155747
2142	0.00165795
2154	0.00246181
2166	0.00256229
2178	0.00231109
2190	0.0022106
2202	0.00155747
2214	0.00140675
2226	0.0011053
2238	0.00150723
2250	0.00155747
2262	0.0019594
2274	0.00286374
2286	0.00432073
2298	0.00733519
2310	0.00964627
2322	0.00753615
2334	0.00452169
2346	0.00798832
2358	0.00547627
2370	0.00547627
2382	0.00643085
2394	0.00261253
2406	0.00256229
2418	0.00246181
2430	0.00160771
2442	0.00170819
2454	0.00226085
2466	0.00261253
2478	0.00321542
2490	0.00386856
2502	0.00406952
2514	0.00376808
2526	0.0039188
2538	0.00346663
2550	0.00366759
2562	0.00311494
2574	0.00180868
2586	0.00226085
2598	0.00251205
2610	0.00371783
2622	0.00341639
2634	0.00427049
2646	0.00396904
2658	0.00366759
2670	0.00346663
2682	0.0028135
2694	0.00341639
2706	0.0028135
2718	0.00371783
2730	0.00432073
2742	0.00437097
2754	0.00507434
2766	0.00607916
2778	0.00638061
2790	0.00708398
2802	0.00929459
2814	0.0124598
2826	0.0161776
2838	0.0263765
2850	0.046272
2862	0.0457193
2874	0.0387861
2886	0.0396401
2898	0.0513463
2910	0.064007
2922	0.0829981
2934	0.0991255
2946	0.109425
2958	0.112439
2970	0.0875701
2982	0.0502912
2994	0.0441618
3006	0.0697847
3018	0.0617462
3030	0.0407957
3042	0.0425039
3054	0.0397909
3066	0.0344653
3078	0.023965
3090	0.0146201
3102	0.0106009
3114	0.00964627
3126	0.00798832
3138	0.00718446
3150	0.00638061
3162	0.00557675
3174	0.00522506
3186	0.00507434
3198	0.00467241
3210	0.00417
3222	0.00437097
3234	0.00432073
3246	0.00366759
3258	0.00341639
3270	0.00457193
3282	0.00557675
3294	0.00437097
3306	0.00427049
3318	0.00422024
3330	0.00482314
3342	0.00417
3354	0.00432073
3366	0.00452169
3378	0.00457193
3390	0.00532555
3402	0.00572747
3414	0.00547627
3426	0.00693326
3438	0.00617964
3450	0.00818928
3462	0.00633037
3474	0.00557675
3486	0.00406952
3498	0.00542603
3510	0.00381832
3522	0.0069835
3534	0.00653133
3546	0.00899314
3558	0.0121081
3570	0.0342141
3582	0.127964
3594	0.212017
3606	0.0674737
3618	0.0129119
3630	0.00844049
3642	0.00844049
3654	0.0159766
3666	0.00994772
3678	0
3690	0.00386856
3702	0.00753615
3714	0.00703374
3726	0.00622988
3738	0.00396904
3750	0.00859121
3762	0.00683278
3774	0.00683278
3786	0.00854097
3798	0.0119071
3810	0.0106511
3822	0.00271301
3834	0.00733519
3846	0.0124598
3858	0.00532555
3870	0.00663181
3882	0.0132636
3894	0.00989748
3906	0.00813904
3918	0.0134646
3930	0.00738543
3942	0.00964627
3954	0.00924434
3966	0.0106511
