Infrared Spectrum: Diphenylamine
Formula: C 12 H 11 N
CAS: 122-39-4
Origin: Sadtler Research Labs Under US-EPA Contract
1/CM	ABSORBANCE
450	0.059555
462	0.0639517
474	0.0903317
486	0.0975263
498	0.0795399
510	0.0375716
522	0.0123906
534	0.0147888
546	0.0115912
558	0.0159879
570	0.0447662
582	0.0239819
594	0.0139894
606	0.025181
618	0.0275792
630	0.0295777
642	0.0415686
654	0.0571568
666	0.0919305
678	0.230626
690	0.526802
702	0.399698
714	0.202247
726	0.207843
738	0.501621
750	0.646312
762	0.254608
774	0.0895324
786	0.0455656
798	0.0263801
810	0.0191855
822	0.0135897
834	0.0135897
846	0.0203846
858	0.0467647
870	0.107918
882	0.0563574
894	0.0287783
906	0.0159879
918	0.00799396
930	0.00319758
942	0.00479638
954	0.00559577
966	0.0115912
978	0.0159879
990	0.0123906
1002	0.025181
1014	0.0163876
1026	0.100724
1038	0.0347737
1050	0.0111915
1062	0.0323755
1074	0.0619532
1086	0.0367722
1098	0.0159879
1110	0.0147888
1122	0.00439668
1134	0.00239819
1146	0.0147888
1158	0.0271795
1170	0.0679487
1182	0.0803393
1194	0.0467647
1206	0.0503619
1218	0.0547586
1230	0.0815384
1242	0.209841
1254	0.186259
1266	0.187458
1278	0.34414
1290	0.724253
1302	1.15033
1314	0.629125
1326	0.249012
1338	0.242217
1350	0.139095
1362	0.115113
1374	0.0975263
1386	0.0791402
1398	0.140294
1410	0.288182
1422	0.162677
1434	0.0975263
1446	0.102323
1458	0.244215
1470	0.171071
1482	0.351335
1494	1.68752
1506	1.88058
1518	0.532398
1530	0.257006
1542	0.267398
1554	0.193854
1566	0.243416
1578	0.440867
1590	1.52765
1602	1.35658
1614	0.369721
1626	0.203446
1638	0.153884
1650	0.148288
1662	0.0559577
1674	0.0963272
1686	0.111516
1698	0.128703
1710	0.0539592
1722	0.0563574
1734	0.114713
1746	0.0735444
1758	0.0559577
1770	0.0827375
1782	0.0587556
1794	0.0623529
1806	0.0347737
1818	0.0275792
1830	0.0571568
1842	0.0531598
1854	0.0239819
1866	0.0403695
1878	0.0191855
1890	0.0287783
1902	0.0243816
1914	0.0447662
1926	0.0479638
1938	0.0379713
1950	0.0207843
1962	0.00679487
1974	0.00719456
1986	0.00479638
1998	0.00679487
2010	0.00359728
2022	0.00839366
2034	0.00439668
2046	0.00839366
2058	0.00479638
2070	0.00559577
2082	0.00919305
2094	0.00839366
2106	0.00559577
2118	0.00599547
2130	0.00359728
2142	0.00239819
2154	0.00239819
2166	0.00119909
2178	0.00239819
2190	0.00199849
2202	0.000799396
2214	0.000799396
2226	0.00119909
2238	0.000799396
2250	0.00239819
2262	0.000799396
2274	0.000799396
2286	0.00199849
2298	0.00119909
2310	0.00359728
2322	0.00559577
2334	0.00319758
2346	0.00359728
2358	0.00319758
2370	0.000799396
2382	0.00239819
2394	0.00439668
2406	0.00479638
2418	0.00439668
2430	0.00439668
2442	0.00359728
2454	0.00599547
2466	0.00919305
2478	0.0115912
2490	0.0135897
2502	0.0147888
2514	0.0207843
2526	0.0231825
2538	0.0191855
2550	0.0147888
2562	0.00999245
2574	0.00439668
2586	0.00479638
2598	0.00479638
2610	0.00359728
2622	0.00679487
2634	0.00719456
2646	0.00479638
2658	0.00319758
2670	0.00239819
2682	0.00119909
2694	0.00199849
2706	0.00359728
2718	0.00479638
2730	0.00599547
2742	0.00479638
2754	0.00439668
2766	0.00439668
2778	0.00439668
2790	0.00439668
2802	0.00559577
2814	0.00559577
2826	0.00719456
2838	0.00799396
2850	0.00559577
2862	0.00679487
2874	0.00719456
2886	0.00799396
2898	0.0103921
2910	0.0115912
2922	0.0111915
2934	0.00999245
2946	0.00919305
2958	0.00839366
2970	0.00999245
2982	0.0135897
2994	0.0255807
3006	0.0619532
3018	0.149087
3030	0.230626
3042	0.306169
3054	0.374117
3066	0.350135
3078	0.320558
3090	0.263801
3102	0.166674
3114	0.0823378
3126	0.0307767
3138	0.0127903
3150	0.00559577
3162	0.00199849
3174	0.00319758
3186	0.00199849
3198	0.00199849
3210	0.00319758
3222	0.00199849
3234	0.00119909
3246	0.00319758
3258	0.00119909
3270	0.00199849
3282	0.00199849
3294	0.00119909
3306	0.00239819
3318	0.00239819
3330	0.00119909
3342	0.00359728
3354	0.00319758
3366	0.00439668
3378	0.00599547
3390	0.00919305
3402	0.0175867
3414	0.0331749
3426	0.0507616
3438	0.067549
3450	0.0563574
3462	0.0307767
3474	0.0159879
3486	0.00839366
3498	0.00359728
3510	0.00319758
3522	0.00199849
3534	0.00119909
3546	0.00479638
3558	0.00319758
3570	0.00199849
3582	0.00239819
3594	0.00239819
3606	0.00359728
3618	0.00559577
3630	0.00559577
3642	0.00599547
3654	0.00799396
3666	0.00319758
3678	0.00919305
3690	0.00599547
3702	0.00359728
3714	0.00679487
3726	0.00679487
3738	0.00719456
3750	0.00839366
3762	0.00439668
3774	0.00479638
3786	0.00359728
3798	0.00439668
3810	0.00239819
3822	0.00799396
3834	0.00599547
3846	0.00479638
3858	0.00719456
3870	0.00479638
3882	0.00999245
3894	0.00839366
3906	0.00599547
3918	0.00719456
3930	0.00919305
3942	0.00559577
3954	0.00799396
3966	0.00319758
