Infrared Spectrum: Fenitrothion
Formula: C 9 H 12 N O 5 P S
CAS: 122-14-5
Origin: Sadtler Research Labs Under US-EPA Contract
1/CM	ABSORBANCE
450	0
462	0.0344568
474	0.0346689
486	0.0306401
498	0.030534
510	0.0298979
522	0.0286257
534	0.0315943
546	0.0321244
558	0.0393338
570	0.0521623
582	0.0620223
594	0.0753809
606	0.0798338
618	0.0853469
630	0.0791977
642	0.0878914
654	0.0594778
666	0.0425144
678	0.0408181
690	0.0612801
702	0.0718822
714	0.106869
726	0.102416
738	0.0487697
750	0.0649909
762	0.0643547
774	0.0653089
786	0.096055
798	0.151398
810	0.273216
822	0.837036
834	0.704828
846	0.521835
858	0.271308
870	0.302796
882	0.41539
894	0.356655
906	0.126907
918	0.0776074
930	0.0814241
942	0.113018
954	0.19985
966	0.614604
978	0.605486
990	0.232716
1002	0.226673
1014	0.387719
1026	0.446136
1038	0.611635
1050	1.0107
1062	0.934999
1074	0.730061
1086	0.424826
1098	0.231338
1110	0.180024
1122	0.148429
1134	0.130724
1146	0.168679
1158	0.318593
1170	0.25286
1182	0.188611
1194	0.184901
1206	0.150338
1218	0.164227
1230	0.359411
1242	0.739178
1254	0.28403
1266	0.318169
1278	0.267597
1290	0.224765
1302	0.201758
1314	0.143446
1326	0.127331
1338	0.20144
1350	0.52438
1362	0.414012
1374	0.129346
1386	0.103795
1398	0.0976453
1410	0.0929804
1422	0.0842867
1434	0.0931925
1446	0.120758
1458	0.137191
1470	0.152988
1482	0.343296
1494	0.297707
1506	0.203454
1518	0.26166
1530	0.445394
1542	0.546114
1554	0.348809
1566	0.269717
1578	0.326121
1590	0.388567
1602	0.216389
1614	0.254556
1626	0.161682
1638	0.070928
1650	0.0431505
1662	0.0337147
1674	0.0310642
1686	0.0290498
1698	0.030216
1710	0.0263992
1722	0.0232186
1734	0.0257631
1746	0.0259751
1758	0.0245969
1770	0.0278835
1782	0.0243848
1794	0.0222644
1806	0.0216283
1818	0.02025
1830	0.0208861
1842	0.0227945
1854	0.0239607
1866	0.0279895
1878	0.0311702
1890	0.0326545
1902	0.0289437
1914	0.0240668
1926	0.020144
1938	0.0185537
1950	0.0183416
1962	0.0177055
1974	0.0168573
1986	0.0159031
1998	0.0155851
2010	0.015373
2022	0.015161
2034	0.014949
2046	0.0159031
2058	0.015373
2070	0.0155851
2082	0.015373
2094	0.015161
2106	0.0159031
2118	0.0161152
2130	0.015267
2142	0.015161
2154	0.0146309
2166	0.0144189
2178	0.0147369
2190	0.0144189
2202	0.014949
2214	0.0156911
2226	0.0148429
2238	0.0144189
2250	0.0146309
2262	0.0143128
2274	0.0145249
2286	0.0156911
2298	0.0154791
2310	0.0164333
2322	0.0159031
2334	0.015055
2346	0.0167513
2358	0.0163272
2370	0.0161152
2382	0.0179175
2394	0.0173874
2406	0.0173874
2418	0.0177055
2430	0.0182356
2442	0.0168573
2454	0.0157971
2466	0.015161
2478	0.0154791
2490	0.0160092
2502	0.0160092
2514	0.0157971
2526	0.0155851
2538	0.0159031
2550	0.0171754
2562	0.0172814
2574	0.0167513
2586	0.0163272
2598	0.0164333
2610	0.0162212
2622	0.0165393
2634	0.0164333
2646	0.0162212
2658	0.0163272
2670	0.0165393
2682	0.0162212
2694	0.0171754
2706	0.0167513
2718	0.0167513
2730	0.0166453
2742	0.0169634
2754	0.0179175
2766	0.0173874
2778	0.0168573
2790	0.0178115
2802	0.0190838
2814	0.0209922
2826	0.0258691
2838	0.0329725
2850	0.0543888
2862	0.091072
2874	0.0580995
2886	0.0489817
2898	0.0481335
2910	0.0548129
2922	0.060644
2934	0.0737906
2946	0.116835
2958	0.206105
2970	0.156699
2982	0.0883155
2994	0.0894817
3006	0.0787736
3018	0.0691257
3030	0.0641427
3042	0.0492998
3054	0.0413482
3066	0.0399699
3078	0.0407121
3090	0.0372134
3102	0.0295799
3114	0.0257631
3126	0.0218403
3138	0.020038
3150	0.0180236
3162	0.0166453
3174	0.0161152
3186	0.0154791
3198	0.0160092
3210	0.015267
3222	0.0144189
3234	0.015373
3246	0.015055
3258	0.0148429
3270	0.0156911
3282	0.014949
3294	0.015373
3306	0.015373
3318	0.0147369
3330	0.015373
3342	0.0157971
3354	0.015373
3366	0.0155851
3378	0.0156911
3390	0.015267
3402	0.015267
3414	0.0160092
3426	0.0155851
3438	0.0157971
3450	0.0155851
3462	0.0155851
3474	0.0159031
3486	0.015373
3498	0.0155851
3510	0.015267
3522	0.015161
3534	0.015267
3546	0.014949
3558	0.014949
3570	0.0147369
3582	0.0160092
3594	0.0143128
3606	0.0159031
3618	0.0159031
3630	0.0191898
3642	0.045377
3654	0.0477095
3666	0.0210982
3678	0.0164333
3690	0.015161
3702	0.0154791
3714	0.0156911
3726	0.0155851
3738	0.0160092
3750	0.0171754
3762	0.0166453
3774	0.0166453
3786	0.0165393
3798	0.015373
3810	0.0178115
3822	0.0154791
3834	0.0157971
3846	0.0163272
3858	0.0163272
3870	0.0154791
3882	0.015267
3894	0.0168573
3906	0.0164333
3918	0.0175995
3930	0.0170694
3942	0.0174935
3954	0.0170694
3966	0.0177055
