Infrared Spectrum: Acetic acid, phenoxy-
Formula: C 8 H 8 O 3
CAS: 122-59-8
Origin: Sadtler Research Labs Under US-EPA Contract
1/CM	ABSORBANCE
450	0.00218233
462	0.00575343
474	0.033231
486	0.0616013
498	0.0647756
510	0.0771753
522	0.092154
534	0.10495
546	0.128361
558	0.148498
570	0.137884
582	0.130642
594	0.145125
606	0.184606
618	0.215952
630	0.195716
642	0.159112
654	0.138181
666	0.135999
678	0.177265
690	0.228351
702	0.123302
714	0.053368
726	0.0424563
738	0.125484
750	0.300964
762	0.234403
774	0.10991
786	0.102272
798	0.0733066
810	0.0559471
822	0.0690411
834	0.06547
846	0.0414643
858	0.0421587
870	0.0488049
882	0.0568399
894	0.0384884
906	0.0180539
918	0.00734058
930	0.00376949
942	0.00247993
954	0.00495985
966	0.0102173
978	0.0203354
990	0.0340246
1002	0.0529712
1014	0.0620973
1026	0.092154
1038	0.165857
1050	0.311082
1062	0.454322
1074	0.568696
1086	0.564729
1098	0.309693
1110	0.295409
1122	0.52376
1134	0.503425
1146	0.404823
1158	0.439542
1170	0.465829
1182	0.356712
1194	0.343222
1206	0.538342
1218	0.795064
1230	0.864998
1242	0.680591
1254	0.432797
1266	0.32983
1278	0.314554
1290	0.30642
1302	0.275172
1314	0.24333
1326	0.294218
1338	0.370005
1350	0.328838
1362	0.265749
1374	0.195914
1386	0.13957
1398	0.123103
1410	0.0974115
1422	0.0839207
1434	0.108026
1446	0.15693
1458	0.147109
1470	0.121814
1482	0.268625
1494	0.81778
1506	0.420496
1518	0.0917572
1530	0.0615021
1542	0.0548559
1554	0.0540624
1566	0.079556
1578	0.15931
1590	0.389348
1602	0.51265
1614	0.148795
1626	0.0607086
1638	0.0423571
1650	0.0371989
1662	0.027676
1674	0.0383892
1686	0.0512848
1698	0.0640813
1710	0.058923
1722	0.0653708
1734	0.100983
1746	0.150879
1758	0.240553
1770	0.461564
1782	0.773439
1794	0.698843
1806	0.941975
1818	0.796651
1830	0.289953
1842	0.129154
1854	0.072017
1866	0.0409684
1878	0.0200378
1890	0.011606
1902	0.00813415
1914	0.0123996
1926	0.0142844
1938	0.01359
1950	0.00902693
1962	0.00277752
1974	0.00198394
1986	0.00247993
1998	0.00486065
2010	0.00525744
2022	0.00357109
2034	0.00188474
2046	0.00307511
2058	0.00376949
2070	0.00416627
2082	0.00218233
2094	0.00109117
2106	0.000892773
2118	0.000694379
2130	0.000595182
2142	0.000892773
2154	0.000793576
2166	0.000495985
2178	0.00099197
2190	0.000892773
2202	0.000495985
2214	9.9197e-05
2226	0.000396788
2238	0.000892773
2250	0.00109117
2262	0.00198394
2274	0.00386868
2286	0.00525744
2298	0.00585262
2310	0.00823335
2322	0.00912612
2334	0.00843175
2346	0.0105149
2358	0.00704299
2370	0.00793576
2382	0.00743978
2394	0.00585262
2406	0.00515824
2418	0.00525744
2430	0.00565423
2442	0.00624941
2454	0.0066462
2466	0.00595182
2478	0.00624941
2490	0.00694379
2502	0.00644781
2514	0.006547
2526	0.0066462
2538	0.00684459
2550	0.00634861
2562	0.00585262
2574	0.00515824
2586	0.00396788
2598	0.00406708
2610	0.00376949
2622	0.00367029
2634	0.0032735
2646	0.00287671
2658	0.00277752
2670	0.0031743
2682	0.0031743
2694	0.00386868
2706	0.00436467
2718	0.00416627
2730	0.00396788
2742	0.00416627
2754	0.00476146
2766	0.00585262
2778	0.00684459
2790	0.00783656
2802	0.00743978
2814	0.00743978
2826	0.00952291
2838	0.0123996
2850	0.0174587
2862	0.0267832
2874	0.0324374
2886	0.0294615
2898	0.033231
2910	0.0470194
2922	0.0719178
2934	0.0954275
2946	0.0956259
2958	0.0748937
2970	0.060907
2982	0.0413651
2994	0.027676
3006	0.0255928
3018	0.0384884
3030	0.0622957
3042	0.10753
3054	0.123203
3066	0.107133
3078	0.140661
3090	0.117548
3102	0.0816391
3114	0.0509873
3126	0.0210298
3138	0.0119036
3150	0.00922532
3162	0.00853094
3174	0.00803496
3186	0.00813415
3198	0.00773737
3210	0.00743978
3222	0.00783656
3234	0.00823335
3246	0.00823335
3258	0.00734058
3270	0.00843175
3282	0.00853094
3294	0.00823335
3306	0.00813415
3318	0.00843175
3330	0.00813415
3342	0.00863014
3354	0.00882853
3366	0.0098205
3378	0.0105149
3390	0.0118044
3402	0.0122012
3414	0.0106141
3426	0.00863014
3438	0.0066462
3450	0.00783656
3462	0.00882853
3474	0.0105149
3486	0.0169627
3498	0.0309495
3510	0.0630893
3522	0.147704
3534	0.161493
3546	0.0877893
3558	0.0889797
3570	0.293524
3582	0.38786
3594	0.101776
3606	0.0316438
3618	0.0188474
3630	0.01359
3642	0.00466226
3654	0.00624941
3666	0.00238073
3678	0.00605102
3690	0.00476146
3702	0.0032735
3714	0.00495985
3726	0.00525744
3738	0.00595182
3750	0.00505905
3762	0.00228153
3774	0.00099197
3786	0.00218233
3798	0.0034719
3810	0.00099197
3822	0.00396788
3834	0.0032735
3846	0.0033727
3858	0.00416627
3870	0.00495985
3882	0.00436467
3894	0.00436467
3906	0.00545584
3918	0.00228153
3930	0.00307511
3942	0.0034719
3954	0.00208314
3966	0.00357109
