Infrared Spectrum: 2-Propenoic acid, 3-phenyl-, 3-phenylpropyl ester
Formula: C 18 H 18 O 2
CAS: 122-68-9
Origin: Sadtler Research Labs Under US-EPA Contract
1/CM	ABSORBANCE
450	0.14729
462	0.0470567
474	0.0118775
486	0.0349525
498	0.0315071
510	0.0124669
522	0.00634676
534	0.0153682
546	0.00970148
558	0.0119228
570	0.024571
582	0.0324138
594	0.0159122
606	0.0142349
618	0.0117415
630	0.0162296
642	0.0149602
654	0.0213523
666	0.0131922
678	0.0522248
690	0.0588435
702	0.0801958
714	0.0512274
726	0.0362672
738	0.0587982
750	0.0518621
762	0.0568488
774	0.0409819
786	0.0273817
798	0.0220777
810	0.0148242
822	0.0185869
834	0.0132375
846	0.0197203
858	0.022395
870	0.021307
882	0.0181789
894	0.0196296
906	0.019267
918	0.0189496
930	0.0197656
942	0.020763
954	0.0233923
966	0.0420246
978	0.0599315
990	0.0449713
1002	0.0450167
1014	0.0641023
1026	0.0850466
1038	0.0590249
1050	0.0490061
1062	0.047782
1074	0.0392139
1086	0.0319605
1098	0.0286058
1110	0.0243897
1122	0.0303738
1134	0.0447447
1146	0.0832332
1158	0.292042
1170	0.325725
1182	0.127298
1194	0.125938
1206	0.108938
1218	0.0731237
1230	0.0817372
1242	0.135775
1254	0.180973
1266	0.163701
1278	0.108938
1290	0.0976494
1302	0.127026
1314	0.141578
1326	0.0767958
1338	0.045878
1350	0.0303738
1362	0.0261124
1374	0.024435
1386	0.0340458
1398	0.0271551
1410	0.0189043
1422	0.0184509
1434	0.0232563
1446	0.042206
1458	0.0398939
1470	0.0306458
1482	0.0250244
1494	0.04343
1506	0.0250244
1518	0.0181336
1530	0.0139175
1542	0.0128749
1554	0.0145975
1566	0.0137815
1578	0.024299
1590	0.0204003
1602	0.0292404
1614	0.0265657
1626	0.0359045
1638	0.091484
1650	0.068409
1662	0.0204456
1674	0.0230297
1686	0.0213523
1698	0.0264297
1710	0.0396673
1722	0.0925267
1734	0.270009
1746	0.182333
1758	0.0509101
1770	0.0289231
1782	0.0220323
1794	0.0194936
1806	0.0155949
1818	0.0149149
1830	0.0148242
1842	0.0104268
1854	0.0116508
1866	0.0135095
1878	0.0124215
1890	0.0120588
1902	0.0103362
1914	0.00965614
1926	0.0112428
1938	0.0129202
1950	0.0146882
1962	0.0100641
1974	0.00983748
1986	0.00974681
1998	0.00915747
2010	0.00884013
2022	0.00856813
2034	0.00834146
2046	0.00874946
2058	0.00816012
2070	0.00784278
2082	0.00788812
2094	0.00797878
2106	0.00797878
2118	0.00820545
2130	0.00793345
2142	0.00752544
2154	0.00757078
2166	0.00752544
2178	0.00734411
2190	0.00716277
2202	0.00734411
2214	0.00738944
2226	0.00720811
2238	0.00716277
2250	0.00725344
2262	0.00648276
2274	0.00639209
2286	0.00639209
2298	0.00571208
2310	0.00389872
2322	0.00299204
2334	0.00267471
2346	0.0046694
2358	0.00353605
2370	0.00340005
2382	0.00589342
2394	0.00675477
2406	0.0070721
2418	0.00729877
2430	0.00743478
2442	0.00748011
2454	0.00711744
2466	0.0069361
2478	0.00734411
2490	0.0066641
2502	0.00711744
2514	0.00752544
2526	0.00689077
2538	0.00716277
2550	0.00793345
2562	0.00834146
2574	0.00811479
2586	0.00874946
2598	0.00952014
2610	0.0089308
2622	0.00874946
2634	0.00888546
2646	0.00861346
2658	0.00820545
2670	0.00829612
2682	0.00843212
2694	0.00884013
2706	0.00816012
2718	0.00856813
2730	0.0089308
2742	0.00897613
2754	0.00915747
2766	0.00974681
2778	0.0107442
2790	0.0109708
2802	0.0110615
2814	0.0106082
2826	0.0109708
2838	0.0126482
2850	0.0152322
2862	0.0220323
2874	0.0213976
2886	0.0199016
2898	0.0247524
2910	0.0279711
2922	0.0374459
2934	0.048054
2946	0.0508647
2958	0.0598862
2970	0.0489154
2982	0.0331845
2994	0.024027
3006	0.020763
3018	0.0287418
3030	0.0568035
3042	0.0542195
3054	0.0371285
3066	0.0591609
3078	0.0619716
3090	0.0427046
3102	0.0281071
3114	0.0205816
3126	0.0126935
3138	0.0116055
3150	0.0110615
3162	0.0108802
3174	0.0106988
3186	0.0108802
3198	0.0105175
3210	0.0103815
3222	0.0100188
3234	0.0105175
3246	0.00970148
3258	0.00992815
3270	0.00888546
3282	0.0093388
3294	0.00952014
3306	0.0092028
3318	0.00961081
3330	0.00965614
3342	0.0105628
3354	0.00970148
3366	0.0107895
3378	0.0109708
3390	0.0100641
3402	0.0108802
3414	0.0118322
3426	0.0118322
3438	0.0119682
3450	0.0120135
3462	0.0112882
3474	0.00961081
3486	0.00997348
3498	0.00979214
3510	0.00974681
3522	0.00974681
3534	0.00988281
3546	0.0121042
3558	0.00997348
3570	0.0137362
3582	0.00965614
3594	0.0143709
3606	0.00956547
3618	0.0111522
3630	0.0147789
3642	0.00952014
3654	0.020083
3666	0.00607476
3678	0.0130562
3690	0.0194936
3702	0.0106988
3714	0.0151416
3726	0.0107895
3738	0.0136909
3750	0.022939
3762	0.0112428
3774	0.0141442
3786	0.0152322
3798	0.0193576
3810	0.00516808
3822	0.019403
3834	0.0149149
3846	0.0128295
3858	0.021987
3870	0.0185416
3882	0.0147336
3894	0.0129202
3906	0.0188136
3918	0.0132829
3930	0.0146429
3942	0.0145975
3954	0.0128749
3966	0.0190856
