Infrared Spectrum: Propanoic acid, 2-phenylethyl ester
Formula: C 11 H 14 O 2
CAS: 122-70-3
Origin: Sadtler Research Labs Under US-EPA Contract
1/CM	ABSORBANCE
450	0.0157146
462	0.0102995
474	0.0163517
486	0.0494799
498	0.0590361
510	0.0232534
522	0.00817586
534	0.00488428
546	0.0108304
558	0.0173073
570	0.0355703
582	0.0232534
594	0.0084944
606	0.0141219
618	0.0139096
630	0.0113613
642	0.00913148
654	0.00860058
666	0.0152899
678	0.0538333
690	0.156616
702	0.202167
714	0.106499
726	0.0866429
738	0.131663
750	0.1426
762	0.0525591
774	0.0213422
786	0.0128478
798	0.0219793
810	0.0273944
822	0.0328096
834	0.0334467
846	0.0272883
858	0.0229349
870	0.0229349
882	0.0221916
894	0.0205989
906	0.0158208
918	0.00817586
930	0.00668934
942	0.0104056
954	0.020068
966	0.0431091
978	0.0506479
990	0.0475686
1002	0.0852625
1014	0.183161
1026	0.193566
1038	0.1615
1050	0.166596
1062	0.25462
1074	0.32438
1086	0.334042
1098	0.219262
1110	0.150139
1122	0.134105
1134	0.137928
1146	0.176471
1158	0.33606
1170	0.806331
1182	1.02368
1194	0.729669
1206	0.563603
1218	0.448823
1230	0.339245
1242	0.261309
1254	0.227013
1266	0.215864
1278	0.210767
1290	0.149714
1302	0.100022
1314	0.0885541
1326	0.145573
1338	0.214271
1350	0.244639
1362	0.134742
1374	0.0835637
1386	0.110002
1398	0.0817586
1410	0.0467192
1422	0.0528776
1434	0.0854749
1446	0.109684
1458	0.137185
1470	0.164791
1482	0.0812277
1494	0.100871
1506	0.0906777
1518	0.0247399
1530	0.0172012
1542	0.0190062
1554	0.0121045
1566	0.0101933
1578	0.0150776
1590	0.0243152
1602	0.0427905
1614	0.0333405
1626	0.0140158
1638	0.0127416
1650	0.0181568
1662	0.0134849
1674	0.0155023
1686	0.0229349
1698	0.0332343
1710	0.0556383
1722	0.105012
1734	0.206095
1746	0.55203
1758	1.05086
1770	0.522512
1782	0.18762
1794	0.0951373
1806	0.0556383
1818	0.0271821
1830	0.0160332
1842	0.0134849
1854	0.0126354
1866	0.015927
1878	0.0162455
1890	0.0119983
1902	0.00700788
1914	0.00860058
1926	0.0104056
1938	0.0155023
1950	0.0163517
1962	0.011786
1974	0.00562754
1986	0.00562754
1998	0.00605226
2010	0.00668934
2022	0.00647698
2034	0.00594608
2046	0.00615844
2058	0.00541518
2070	0.00541518
2082	0.00499046
2094	0.00329158
2106	0.00254832
2118	0.00201742
2130	0.00138034
2142	0.00138034
2154	0.00222978
2166	0.00169888
2178	0.00180506
2190	0.00191124
2202	0.00169888
2214	0.00201742
2226	0.00180506
2238	0.00169888
2250	0.00169888
2262	0.0015927
2274	0.00127416
2286	0.00169888
2298	0.0015927
2310	0.00254832
2322	0.00339776
2334	0.00233596
2346	0.00286686
2358	0.00254832
2370	0.00169888
2382	0.00191124
2394	0.00138034
2406	0.00127416
2418	0.00138034
2430	0.00095562
2442	0.00074326
2454	0.00084944
2466	0.00084944
2478	0.00063708
2490	0.00031854
2502	0.00010618
2514	0.00021236
2526	0.00042472
2538	0.00031854
2550	0.00063708
2562	0.00063708
2574	0.00063708
2586	0.00138034
2598	0.00191124
2610	0.00180506
2622	0.00169888
2634	0.00201742
2646	0.00180506
2658	0.00148652
2670	0.00148652
2682	0.0010618
2694	0.00127416
2706	0.0015927
2718	0.00201742
2730	0.0031854
2742	0.00445956
2754	0.00573372
2766	0.00594608
2778	0.0063708
2790	0.00711406
2802	0.00722024
2814	0.00870676
2826	0.0119983
2838	0.018263
2850	0.0296242
2862	0.0381186
2874	0.0488428
2886	0.0697603
2898	0.103526
2910	0.114144
2922	0.136335
2934	0.158633
2946	0.206095
2958	0.27267
2970	0.249098
2982	0.2371
2994	0.232003
3006	0.125611
3018	0.102464
3030	0.163411
3042	0.186452
3054	0.0853687
3066	0.118815
3078	0.15789
3090	0.0866429
3102	0.0586114
3114	0.0353579
3126	0.0158208
3138	0.00700788
3150	0.00488428
3162	0.00488428
3174	0.00445956
3186	0.00307922
3198	0.00254832
3210	0.00201742
3222	0.00138034
3234	0.00116798
3246	0.00074326
3258	0.00074326
3270	0.00042472
3282	0.00084944
3294	0.0010618
3306	0.00095562
3318	0.0015927
3330	0.00063708
3342	0.00095562
3354	0.0010618
3366	0.00063708
3378	0.00095562
3390	0.00084944
3402	0.0010618
3414	0.00074326
3426	0.00116798
3438	0.0015927
3450	0.00148652
3462	0.00138034
3474	0.00339776
3486	0.00700788
3498	0.00881294
3510	0.00456574
3522	0.0021236
3534	0.00074326
3546	0.00084944
3558	0.00063708
3570	0.00095562
3582	0.00138034
3594	0.00074326
3606	0.00010618
3618	0.0015927
3630	0.00169888
3642	0.00222978
3654	0.00382248
3666	0.00233596
3678	0.00350394
3690	0.00191124
3702	0.00201742
3714	0.00222978
3726	0.00180506
3738	0.0021236
3750	0.00138034
3762	0.00244214
3774	0.00180506
3786	0.0015927
3798	0.00169888
3810	0.00244214
3822	0.00180506
3834	0.00127416
3846	0.00127416
3858	0.00222978
3870	0.00169888
3882	0.00201742
3894	0.00201742
3906	0.00116798
3918	0.00148652
3930	0.00180506
3942	0.0010618
3954	0.00191124
3966	0.00169888
