Infrared Spectrum: m-Tolyl phenylacetate
Formula: C 15 H 14 O 2
CAS: 122-27-0
Origin: Sadtler Research Labs Under US-EPA Contract
1/CM	ABSORBANCE
450	0
462	0.0884216
474	0.0873283
486	0.116848
498	0.117326
510	0.120811
522	0.129284
534	0.124091
546	0.116301
558	0.109741
570	0.0996281
582	0.0983981
594	0.0914965
606	0.0885583
618	0.0936832
630	0.0981931
642	0.103796
654	0.0915649
666	0.0979198
678	0.139671
690	0.167482
702	0.189963
714	0.188665
726	0.154977
738	0.171377
750	0.131334
762	0.134136
774	0.123476
786	0.125663
798	0.111381
810	0.0994231
822	0.0901299
834	0.0938198
846	0.0961431
858	0.105641
870	0.109126
882	0.106325
894	0.107623
906	0.114798
918	0.110083
930	0.131266
942	0.175545
954	0.139739
966	0.104206
978	0.0981248
990	0.10776
1002	0.128327
1014	0.0919749
1026	0.101131
1038	0.0964165
1050	0.0944348
1062	0.102566
1074	0.123818
1086	0.14787
1098	0.214289
1110	0.381976
1122	0.533605
1134	0.42236
1146	0.68332
1158	0.298884
1170	0.198163
1182	0.177117
1194	0.188528
1206	0.247977
1218	0.400972
1230	0.555266
1242	0.440195
1254	0.233695
1266	0.166935
1278	0.144864
1290	0.143429
1302	0.136459
1314	0.139056
1326	0.141721
1338	0.141721
1350	0.128327
1362	0.107418
1374	0.0937515
1386	0.0886266
1398	0.0884216
1410	0.0910182
1422	0.104001
1434	0.133862
1446	0.145205
1458	0.118898
1470	0.105095
1482	0.157505
1494	0.203219
1506	0.132632
1518	0.104275
1530	0.0953915
1542	0.0926582
1554	0.0897199
1566	0.0991497
1578	0.131197
1590	0.176297
1602	0.152039
1614	0.162015
1626	0.106598
1638	0.0795384
1650	0.0744819
1662	0.0761218
1674	0.0750969
1686	0.0740719
1698	0.0743452
1710	0.0760535
1722	0.0840484
1734	0.10161
1746	0.127371
1758	0.19543
1770	0.323484
1782	0.346648
1794	0.208891
1806	0.119171
1818	0.0869866
1830	0.0766002
1842	0.0731836
1854	0.0710653
1866	0.0712703
1878	0.0700403
1890	0.066692
1902	0.0645737
1914	0.0657354
1926	0.067922
1938	0.067102
1950	0.0665554
1962	0.0653937
1974	0.0630704
1986	0.0619771
1998	0.0610888
2010	0.0602688
2022	0.0605422
2034	0.0598588
2046	0.0601322
2058	0.0597222
2070	0.0591072
2082	0.0588339
2094	0.0580139
2106	0.0573989
2118	0.0573305
2130	0.0571939
2142	0.0562372
2154	0.0553489
2166	0.0550756
2178	0.0552123
2190	0.0542556
2202	0.0539823
2214	0.0537773
2226	0.053504
2238	0.053299
2250	0.053094
2262	0.0529573
2274	0.053504
2286	0.0550073
2298	0.0550756
2310	0.0553489
2322	0.0537773
2334	0.0511807
2346	0.049609
2358	0.052684
2370	0.0523423
2382	0.053504
2394	0.050839
2406	0.0501557
2418	0.0494724
2430	0.048789
2442	0.0483791
2454	0.0475591
2466	0.0474907
2478	0.0475591
2490	0.0476274
2502	0.0470807
2514	0.0465341
2526	0.0463291
2538	0.0459874
2550	0.0457141
2562	0.0447575
2574	0.0447575
2586	0.0453041
2598	0.0450991
2610	0.0446891
2622	0.0442108
2634	0.0437325
2646	0.0431858
2658	0.0425708
2670	0.0429125
2682	0.0429125
2694	0.0435958
2706	0.0445525
2718	0.0447575
2730	0.0447575
2742	0.0455774
2754	0.0446208
2766	0.0435958
2778	0.0436641
2790	0.0441425
2802	0.0444841
2814	0.0450308
2826	0.0461924
2838	0.0477641
2850	0.049814
2862	0.0540506
2874	0.0620455
2886	0.0605422
2898	0.0598588
2910	0.0667604
2922	0.0809051
2934	0.0977831
2946	0.08521
2958	0.0698353
2970	0.0620455
2982	0.0602688
2994	0.0636854
3006	0.0664187
3018	0.0758485
3030	0.108443
3042	0.138782
3054	0.108238
3066	0.113773
3078	0.129147
3090	0.0901299
3102	0.0716119
3114	0.0606788
3126	0.050224
3138	0.0458508
3150	0.0453724
3162	0.0441425
3174	0.0435958
3186	0.0427758
3198	0.0431175
3210	0.0429808
3222	0.0433908
3234	0.0442791
3246	0.0434592
3258	0.0445525
3270	0.0436641
3282	0.0434592
3294	0.0431175
3306	0.0431175
3318	0.0427758
3330	0.0443475
3342	0.0444158
3354	0.0446891
3366	0.0433908
3378	0.0433225
3390	0.0432542
3402	0.0437325
3414	0.0431175
3426	0.0435958
3438	0.0440058
3450	0.0455774
3462	0.0446208
3474	0.0444841
3486	0.0433908
3498	0.0451675
3510	0.0447575
3522	0.0463974
3534	0.0472174
3546	0.0459874
3558	0.0470807
3570	0.0467391
3582	0.0481741
3594	0.0443475
3606	0.0433908
3618	0.0445525
3630	0.0422292
3642	0.0463291
3654	0.0451675
3666	0.0453724
3678	0.0459874
3690	0.0436641
3702	0.0435958
3714	0.0427758
3726	0.0447575
3738	0.0427758
3750	0.0421608
3762	0.0445525
3774	0.0440741
3786	0.0442108
3798	0.0444158
3810	0.0443475
3822	0.0422292
3834	0.0422292
3846	0.0421608
3858	0.0423658
3870	0.0431858
3882	0.0455774
3894	0.0470807
3906	0.0460558
3918	0.0446891
3930	0.0429808
3942	0.0422292
3954	0.0422292
3966	0.0427075
