Infrared Spectrum: 3-Buten-2-one, 4-phenyl-
Formula: C 10 H 10 O
CAS: 122-57-6
Origin: Sadtler Research Labs Under US-EPA Contract
1/CM	ABSORBANCE
450	0.0356632
462	0.0337536
474	0.0347858
486	0.0295731
498	0.0300376
510	0.0233798
522	0.0228121
534	0.0490821
546	0.130576
558	0.0733392
570	0.0150188
582	0.0223992
594	0.0100641
606	0.0219347
618	0.0197154
630	0.0328246
642	0.0135221
654	0.0213153
666	0.0412372
678	0.0940869
690	0.143479
702	0.0833518
714	0.0436629
726	0.0747843
738	0.147556
750	0.153233
762	0.0611074
774	0.0257539
786	0.0198702
798	0.0221411
810	0.0193025
822	0.0202831
834	0.0201799
846	0.0146059
858	0.0151736
870	0.0214702
882	0.0240507
894	0.0391727
906	0.03556
918	0.0199218
930	0.02627
942	0.042321
954	0.0740618
966	0.163194
978	0.163452
990	0.101261
1002	0.0711716
1014	0.0411856
1026	0.0434049
1038	0.0370051
1050	0.0291086
1062	0.0313795
1074	0.0314311
1086	0.0207992
1098	0.0258055
1110	0.0194057
1122	0.0251862
1134	0.0401017
1146	0.0604881
1158	0.114112
1170	0.244585
1182	0.153749
1194	0.13615
1206	0.110086
1218	0.0608494
1230	0.0989383
1242	0.267655
1254	0.320298
1266	0.0830421
1278	0.0879968
1290	0.113802
1302	0.118912
1314	0.119738
1326	0.111222
1338	0.0777778
1350	0.105596
1362	0.208147
1374	0.140743
1386	0.0626041
1398	0.0378825
1410	0.0387599
1422	0.0416501
1434	0.0540883
1446	0.0785003
1458	0.0671459
1470	0.0270442
1482	0.0301924
1494	0.0847969
1506	0.0541915
1518	0.0275603
1530	0.0261152
1542	0.0218831
1554	0.0286957
1566	0.0402566
1578	0.0861388
1590	0.0629654
1602	0.115093
1614	0.322724
1626	0.347755
1638	0.148227
1650	0.0814422
1662	0.0663717
1674	0.11246
1686	0.360193
1698	0.501607
1710	0.322104
1722	0.199425
1734	0.072978
1746	0.0404114
1758	0.0273538
1770	0.0241539
1782	0.0232249
1794	0.0312247
1806	0.0255474
1818	0.0227605
1830	0.0158962
1842	0.0136253
1854	0.012077
1866	0.0162575
1878	0.0162059
1890	0.0178574
1902	0.012335
1914	0.0117673
1926	0.0133672
1938	0.0191993
1950	0.0198702
1962	0.016722
1974	0.0107867
1986	0.0110448
1998	0.00928998
2010	0.00877387
2022	0.00696748
2034	0.00898031
2046	0.00836098
2058	0.00934159
2070	0.00707071
2082	0.00851581
2094	0.00784487
2106	0.00861904
2118	0.0065546
2130	0.00707071
2142	0.00696748
2154	0.00856743
2166	0.0074836
2178	0.00805132
2190	0.00763843
2202	0.00825776
2214	0.00738037
2226	0.00732876
2238	0.00665782
2250	0.00882548
2262	0.00789648
2274	0.00789648
2286	0.00629654
2298	0.00820615
2310	0.0112512
2322	0.014864
2334	0.0119221
2346	0.0101674
2358	0.0154317
2370	0.0157414
2382	0.00856743
2394	0.00676104
2406	0.00738037
2418	0.00820615
2430	0.00732876
2442	0.00732876
2454	0.00753521
2466	0.00867065
2478	0.00861904
2490	0.00882548
2502	0.00872226
2514	0.00908354
2526	0.010219
2538	0.0084642
2550	0.00758682
2562	0.0074836
2574	0.00965126
2586	0.00898031
2598	0.00913515
2610	0.0084642
2622	0.00913515
2634	0.00882548
2646	0.0084642
2658	0.00810293
2670	0.00887709
2682	0.00861904
2694	0.00903192
2706	0.00830937
2718	0.00805132
2730	0.00836098
2742	0.00872226
2754	0.00820615
2766	0.00867065
2778	0.00877387
2790	0.0108383
2802	0.00928998
2814	0.00923837
2826	0.00867065
2838	0.00898031
2850	0.00242572
2862	0.00252894
2874	0.00634815
2886	0.0108383
2898	0.0074836
2910	0.00614171
2922	0.001858
2934	0.00970287
2946	0.0144511
2958	0.0163091
2970	0.0202315
2982	0.0257023
2994	0.0249281
3006	0.0395856
3018	0.0650815
3030	0.0913515
3042	0.116951
3054	0.0859323
3066	0.102861
3078	0.132847
3090	0.0794809
3102	0.0584753
3114	0.0329794
3126	0.017651
3138	0.013006
3150	0.0158962
3162	0.0133672
3174	0.0116641
3186	0.00872226
3198	0.0115609
3210	0.00949642
3222	0.0103222
3234	0.00934159
3246	0.0113028
3258	0.00903192
3270	0.00980609
3282	0.00861904
3294	0.0106319
3306	0.0106319
3318	0.0117673
3330	0.00872226
3342	0.0119221
3354	0.0127995
3366	0.015793
3378	0.012335
3390	0.013264
3402	0.0134189
3414	0.0166704
3426	0.00949642
3438	0.00970287
3450	0.00856743
3462	0.0104254
3474	0.00882548
3486	0.0102706
3498	0.00650299
3510	0.0116641
3522	0.00882548
3534	0.0105803
3546	0.00815454
3558	0.0102706
3570	0.0103222
3582	0.0111996
3594	0.00774165
3606	0.0103222
3618	0.0089287
3630	0.011148
3642	0.00944481
3654	0.00959965
3666	0.00928998
3678	0.0103738
3690	0.00887709
3702	0.00913515
3714	0.00861904
3726	0.0108899
3738	0.00877387
3750	0.00769004
3762	0.0070191
3774	0.00856743
3786	0.00805132
3798	0.00815454
3810	0.00738037
3822	0.00639976
3834	0.00861904
3846	0.00836098
3858	0.00660621
3870	0.00707071
3882	0.0100125
3894	0.00836098
3906	0.00867065
3918	0.00769004
3930	0.00959965
3942	0.00861904
3954	0.00412888
3966	0.00449016
