Infrared Spectrum: Benzyl isopentyl ether
Formula: C 12 H 18 O
CAS: 122-73-6
Origin: Sadtler Research Labs Under US-EPA Contract
1/CM	ABSORBANCE
450	0.0239607
462	0.0263135
474	0.0139926
486	0.0108969
498	0.00235273
510	0.00854413
522	0.00761542
534	0.00643906
546	0.00538652
558	0.00402441
570	0.00160976
582	0.0104635
594	0.0196887
606	0.0404918
618	0.0231558
630	0.0154785
642	0.010092
654	0.0162215
666	0.0224129
678	0.0543605
690	0.126057
702	0.154847
714	0.103334
726	0.140607
738	0.192119
750	0.110702
762	0.049655
774	0.0273041
786	0.0198125
798	0.0178931
810	0.0232178
822	0.0183885
834	0.0170883
846	0.0134353
858	0.0156642
870	0.0211746
882	0.0225367
894	0.030957
906	0.0383248
918	0.0313904
930	0.030957
942	0.0330621
954	0.040306
966	0.0447019
978	0.051822
990	0.0569609
1002	0.0680435
1014	0.0724394
1026	0.118813
1038	0.0671767
1050	0.0706439
1062	0.121413
1074	0.185742
1086	0.310561
1098	0.561312
1110	0.589979
1122	0.421882
1134	0.235892
1146	0.119866
1158	0.0778259
1170	0.0649478
1182	0.0559703
1194	0.0739253
1206	0.103149
1218	0.059004
1230	0.0455687
1242	0.0527507
1254	0.0557845
1266	0.0515744
1278	0.0492216
1290	0.0494074
1302	0.0531841
1314	0.0499646
1326	0.0499646
1338	0.0541128
1350	0.0985052
1362	0.194224
1374	0.116336
1386	0.0825314
1398	0.0507695
1410	0.0396869
1422	0.0312047
1434	0.0448257
1446	0.0787546
1458	0.112498
1470	0.111693
1482	0.0678577
1494	0.0695913
1506	0.0349195
1518	0.0145498
1530	0.017274
1542	0.0039625
1554	0.0125685
1566	0.01585
1578	0.0152308
1590	0.0273041
1602	0.0321953
1614	0.0260039
1626	0.0167787
1638	0.00934901
1650	0.0105254
1662	0.0117017
1674	0.00941093
1686	0.00315761
1698	0.00495312
1710	0.0120113
1722	0.0118256
1734	0.00656288
1746	0.0124447
1758	0.010773
1770	0.00922519
1782	0.0126305
1794	0.0148594
1806	0.020184
1818	0.0139307
1830	0.00984433
1842	0.0115779
1854	0.0141783
1866	0.0150451
1878	0.0166549
1890	0.012259
1902	0.0100301
1914	0.0105873
1926	0.012259
1938	0.0169644
1950	0.0185742
1962	0.0161596
1974	0.0114541
1986	0.0104635
1998	0.010092
2010	0.0102777
2022	0.00996815
2034	0.0104016
2046	0.0102777
2058	0.0104635
2070	0.0108969
2082	0.0102777
2094	0.0092871
2106	0.00984433
2118	0.00910136
2130	0.00835839
2142	0.0070582
2154	0.00699628
2166	0.00650097
2178	0.00637714
2190	0.00612949
2202	0.00606757
2214	0.00625331
2226	0.00625331
2238	0.0061914
2250	0.00600566
2262	0.00594374
2274	0.00544843
2286	0.00563417
2298	0.00606757
2310	0.00866796
2322	0.0104016
2334	0.012259
2346	0.0109588
2358	0.01294
2370	0.0104016
2382	0.00551035
2394	0.00346718
2406	0.00390058
2418	0.00328144
2430	0.00390058
2442	0.00297187
2454	0.00340527
2466	0.00272422
2478	0.00284804
2490	0.00272422
2502	0.00235273
2514	0.00272422
2526	0.00229082
2538	0.00142402
2550	0.00204316
2562	0.0026623
2574	0.00427207
2586	0.00520078
2598	0.00693437
2610	0.00687245
2622	0.00749159
2634	0.00718202
2646	0.00829648
2658	0.00804882
2670	0.00978241
2682	0.0114541
2694	0.0146117
2706	0.0172121
2718	0.0199982
2730	0.0225986
2742	0.0255705
2754	0.0264373
2766	0.0291615
2778	0.0365293
2790	0.0473023
2802	0.0514505
2814	0.0560941
2826	0.0768972
2838	0.132372
2850	0.255952
2862	0.403308
2874	0.408447
2886	0.353157
2898	0.262577
2910	0.27787
2922	0.348266
2934	0.455811
2946	0.486149
2958	0.392411
2970	0.461569
2982	0.240288
2994	0.0946665
3006	0.0589421
3018	0.0658146
3030	0.117389
3042	0.135468
3054	0.088537
3066	0.115841
3078	0.136892
3090	0.0783212
3102	0.0547939
3114	0.0343004
3126	0.018698
3138	0.010092
3150	0.00916327
3162	0.0101539
3174	0.0100301
3186	0.00903944
3198	0.00687245
3210	0.0070582
3222	0.00513886
3234	0.00551035
3246	0.00501503
3258	0.00470546
3270	0.00445781
3282	0.00569609
3294	0.00421015
3306	0.00513886
3318	0.00569609
3330	0.00482929
3342	0.00482929
3354	0.00458164
3366	0.00464355
3378	0.00470546
3390	0.00433398
3402	0.00445781
3414	0.00501503
3426	0.00501503
3438	0.00408632
3450	0.00513886
3462	0.00433398
3474	0.00445781
3486	0.00439589
3498	0.00451972
3510	0.00439589
3522	0.00421015
3534	0.00427207
3546	0.00334336
3558	0.00544843
3570	0.0026623
3582	0.00464355
3594	0.00520078
3606	0.00569609
3618	0.00451972
3630	0.00105254
3642	0.00755351
3654	0.0066248
3666	0.00866796
3678	0.00328144
3690	0.00482929
3702	0.00742968
3714	0.0070582
3726	0.00724394
3738	0.00414824
3750	0.00346718
3762	0.00780116
3774	0.00978241
3786	0.0101539
3798	0.0084203
3810	0.00903944
3822	0.00767734
3834	0.0088537
3846	0.00947284
3858	0.00959667
3870	0.00910136
3882	0.0118875
3894	0.0110207
3906	0.0120113
3918	0.0118875
3930	0.01294
3942	0.0139926
3954	0
3966	0.00105254
