Infrared Spectrum: Phosphorous acid, triethyl ester
Formula: C 6 H 15 O 3 P
CAS: 122-52-1
Origin: Sadtler Research Labs Under US-EPA Contract
1/CM	ABSORBANCE
450	0.00672658
462	0.00230626
474	0.00288282
486	0.0063422
498	0.0120117
510	0.00730314
522	0.0171047
534	0.0172008
546	0.0105703
558	0.00413204
570	0.00893674
582	0.0096094
594	0.0147024
606	0.0109547
618	0.00893674
630	0.0118196
642	0.0128766
654	0.015375
666	0.0190266
678	0.0221977
690	0.0384376
702	0.0700525
714	0.147889
726	0.271369
738	0.328065
750	0.270024
762	0.201605
774	0.134339
786	0.0811033
798	0.0569837
810	0.0466056
822	0.0365157
834	0.0313266
846	0.0283477
858	0.029693
870	0.0360353
882	0.0550619
894	0.118964
906	0.315861
918	0.490079
930	0.40321
942	0.275694
954	0.157114
966	0.0839862
978	0.0638064
990	0.0689955
1002	0.0959018
1014	0.203911
1026	0.536973
1038	0.920484
1050	0.698507
1062	0.346611
1074	0.211503
1086	0.173738
1098	0.199107
1110	0.129246
1122	0.0724549
1134	0.0618845
1146	0.0615963
1158	0.0641908
1170	0.0597705
1182	0.044972
1194	0.0289243
1206	0.0200836
1218	0.0177774
1230	0.0160477
1242	0.0159516
1254	0.0165282
1266	0.0190266
1278	0.0217172
1290	0.0237352
1302	0.0240235
1314	0.0198915
1326	0.0161438
1338	0.0160477
1350	0.0197954
1362	0.0294048
1374	0.0404556
1386	0.104742
1398	0.105511
1410	0.0382454
1422	0.027579
1434	0.0281555
1446	0.0345938
1458	0.028636
1470	0.026618
1482	0.0267141
1494	0.0195071
1506	0.0114352
1518	0.0108586
1530	0.0105703
1542	0.00576564
1554	0.00826408
1566	0.00884065
1578	0.00682267
1590	0.00874455
1602	0.00874455
1614	0.00932112
1626	0.0096094
1638	0.00999378
1650	0.0102821
1662	0.0118196
1674	0.0114352
1686	0.010186
1698	0.00980159
1710	0.0122039
1722	0.0111469
1734	0.00874455
1746	0.0108586
1758	0.0117235
1770	0.0113391
1782	0.0120117
1794	0.00999378
1806	0.0107625
1818	0.00989768
1830	0.0080719
1842	0.00787971
1854	0.00816799
1866	0.00682267
1878	0.0063422
1890	0.00470861
1902	0.00518908
1914	0.00413204
1926	0.00451642
1938	0.00490079
1950	0.00528517
1962	0.00528517
1974	0.00518908
1986	0.00413204
1998	0.00278673
2010	0.00249844
2022	0.00278673
2034	0.00259454
2046	0.00211407
2058	0.00230626
2070	0.00221016
2082	0.00221016
2094	0.00249844
2106	0.00269063
2118	0.00201797
2130	0.00240235
2142	0.00230626
2154	0.00240235
2166	0.0015375
2178	0.00115313
2190	0.000864846
2202	0.00124922
2214	0.00096094
2226	0.000576564
2238	0.00048047
2250	0.000768752
2262	0.00115313
2274	0.00105703
2286	0.00048047
2298	9.6094e-05
2310	0.00048047
2322	0.00124922
2334	0.00307501
2346	0.00259454
2358	0.00249844
2370	0.00499689
2382	0.00278673
2394	0.0016336
2406	0.00172969
2418	0.00259454
2430	0.0031711
2442	0.00278673
2454	0.00269063
2466	0.00288282
2478	0.00221016
2490	0.00249844
2502	0.00240235
2514	0.00201797
2526	0.00192188
2538	0.00192188
2550	0.00249844
2562	0.00259454
2574	0.00249844
2586	0.00240235
2598	0.00269063
2610	0.00307501
2622	0.0031711
2634	0.00259454
2646	0.0031711
2658	0.0032672
2670	0.0031711
2682	0.00297891
2694	0.00221016
2706	0.00365157
2718	0.0063422
2730	0.00874455
2742	0.00768752
2754	0.00730314
2766	0.00816799
2778	0.00749533
2790	0.00653439
2802	0.00778361
2814	0.00989768
2826	0.0138375
2838	0.0168165
2850	0.0233508
2862	0.0365157
2874	0.070533
2886	0.12079
2898	0.107433
2910	0.100226
2922	0.10455
2934	0.158363
2946	0.166531
2958	0.121751
2970	0.157882
2982	0.268391
2994	0.195071
3006	0.0894635
3018	0.0499689
3030	0.0270985
3042	0.0154711
3054	0.0104742
3066	0.00845627
3078	0.0064383
3090	0.00509298
3102	0.00461251
3114	0.00461251
3126	0.00566955
3138	0.00509298
3150	0.00490079
3162	0.0048047
3174	0.00538126
3186	0.00615002
3198	0.00615002
3210	0.00557345
3222	0.00586173
3234	0.00605392
3246	0.00557345
3258	0.00470861
3270	0.00403595
3282	0.00490079
3294	0.00595783
3306	0.00547736
3318	0.00490079
3330	0.00518908
3342	0.00528517
3354	0.00518908
3366	0.00518908
3378	0.00624611
3390	0.00384376
3402	0.00557345
3414	0.00538126
3426	0.0048047
3438	0.00442032
3450	0.00490079
3462	0.00451642
3474	0.00442032
3486	0.00393985
3498	0.00413204
3510	0.00403595
3522	0.00413204
3534	0.00403595
3546	0.00269063
3558	0.00269063
3570	0.00269063
3582	0.00297891
3594	0.0032672
3606	0.0032672
3618	0.00172969
3630	0.00096094
3642	0.00230626
3654	0.00249844
3666	0.00288282
3678	0.000864846
3690	0.000288282
3702	0.00144141
3714	0.00134532
3726	0.00048047
3738	0
3750	9.6094e-05
3762	0.00172969
3774	0.00096094
3786	9.6094e-05
3798	9.6094e-05
3810	9.6094e-05
3822	9.6094e-05
3834	9.6094e-05
3846	9.6094e-05
3858	9.6094e-05
3870	9.6094e-05
3882	9.6094e-05
3894	9.6094e-05
3906	9.6094e-05
3918	9.6094e-05
3930	9.6094e-05
3942	9.6094e-05
3954	9.6094e-05
3966	9.6094e-05
