Infrared Spectrum: Benzene, 1,4-diethoxy-
Formula: C 10 H 14 O 2
CAS: 122-95-2
Origin: Sadtler Research Labs Under US-EPA Contract
1/CM	ABSORBANCE
450	0.00396604
462	0.0015254
474	0.0045762
486	0.0022881
498	0.00983883
510	0.0141862
522	0.014415
534	0.0146438
546	0.00442366
558	0.00831343
570	0.00755073
582	0.00480501
594	0.00320334
606	0.00190675
618	0.00648295
630	0.00327961
642	0.00335588
654	0.00160167
666	0.00434739
678	0.00556771
690	0.0111354
702	0.0142625
714	0.024864
726	0.0337876
738	0.0302792
750	0.0307368
762	0.0151015
774	0.0106015
786	0.012432
798	0.0198302
810	0.0331774
822	0.0589567
834	0.0644481
846	0.0430926
858	0.0197539
870	0.0162455
882	0.0163981
894	0.0311182
906	0.0412621
918	0.0468298
930	0.0365333
942	0.0178472
954	0.0103727
966	0.00884732
978	0.0083897
990	0.00892359
1002	0.0210505
1014	0.0332537
1026	0.0661261
1038	0.149337
1050	0.220115
1062	0.130269
1074	0.0583465
1086	0.0703209
1098	0.0928969
1110	0.0805411
1122	0.0684905
1134	0.0306605
1146	0.021737
1158	0.0266945
1170	0.0318809
1182	0.0445417
1194	0.125464
1206	0.316597
1218	0.582245
1230	0.677278
1242	0.316215
1254	0.116617
1266	0.071465
1278	0.0661261
1290	0.0586516
1302	0.0554483
1314	0.0340927
1326	0.0173896
1338	0.0111354
1350	0.00777954
1362	0.0146438
1374	0.022042
1386	0.0655159
1398	0.100066
1410	0.0347029
1422	0.0234912
1434	0.0244827
1446	0.0282962
1458	0.03333
1470	0.05255
1482	0.158108
1494	0.171684
1506	0.668888
1518	0.251615
1530	0.0507958
1542	0.0238725
1554	0.0122032
1566	0.00800835
1578	0.0110592
1590	0.00999137
1602	0.00289826
1614	0.00205929
1626	0.00511009
1638	0.007627
1650	0.00701684
1662	0.00572025
1674	0.00518636
1686	0.00671176
1698	0.0061016
1710	0.0045762
1722	0.00564398
1734	0.00785581
1746	0.00495755
1758	0.00449993
1770	0.00396604
1782	0.00320334
1794	0.0045762
1806	0.00396604
1818	0.00404231
1830	0.00511009
1842	0.00671176
1854	0.00694057
1866	0.00640668
1878	0.00579652
1890	0.00495755
1902	0.00358469
1914	0.00396604
1926	0.00480501
1938	0.00587279
1950	0.00640668
1962	0.00671176
1974	0.00678803
1986	0.00579652
1998	0.00549144
2010	0.00526263
2022	0.0053389
2034	0.00633041
2046	0.00694057
2058	0.00594906
2070	0.00472874
2082	0.00373723
2094	0.00266945
2106	0.00175421
2118	0.00167794
2130	0.00183048
2142	0.00183048
2154	0.00129659
2166	0.00122032
2178	0.00122032
2190	0.00122032
2202	0.00091524
2214	0.00129659
2226	0.00114405
2238	0.00129659
2250	0.00122032
2262	0.00122032
2274	0.00175421
2286	0.00259318
2298	0.00419485
2310	0.00526263
2322	0.00556771
2334	0.00602533
2346	0.00549144
2358	0.00617787
2370	0.00541517
2382	0.00335588
2394	0.00198302
2406	0.00167794
2418	0.00205929
2430	0.00312707
2442	0.00350842
2454	0.00449993
2466	0.00449993
2478	0.0038135
2490	0.00251691
2502	0.00205929
2514	0.00198302
2526	0.00259318
2538	0.00198302
2550	0.00144913
2562	0.00106778
2574	0.00106778
2586	0.00091524
2598	0.00091524
2610	0.00091524
2622	0.00091524
2634	0.00091524
2646	0.00091524
2658	0.00099151
2670	0.00091524
2682	0.00099151
2694	0.00099151
2706	0.00190675
2718	0.00350842
2730	0.00449993
2742	0.00503382
2754	0.00594906
2766	0.00587279
2778	0.0061016
2790	0.00625414
2802	0.00678803
2814	0.00854224
2826	0.0125083
2838	0.0151015
2850	0.0199065
2862	0.0314232
2874	0.0532365
2886	0.0761937
2898	0.0816852
2910	0.0851173
2922	0.0719989
2934	0.0768802
2946	0.102659
2958	0.072609
2970	0.0848885
2982	0.134235
2994	0.129201
3006	0.0634566
3018	0.0317283
3030	0.0206692
3042	0.0274572
3054	0.0416434
3066	0.0222708
3078	0.0170082
3090	0.0140337
3102	0.013271
3114	0.0109066
3126	0.0068643
3138	0.00419485
3150	0.00274572
3162	0.00221183
3174	0.0022881
3186	0.00190675
3198	0.00183048
3210	0.00198302
3222	0.00144913
3234	0.00137286
3246	0.0015254
3258	0.00099151
3270	0.00061016
3282	0.00106778
3294	0.00114405
3306	0.00091524
3318	0.00068643
3330	0.0007627
3342	0.00122032
3354	0.00038135
3366	0.00045762
3378	0.00083897
3390	0.00083897
3402	0.0007627
3414	0.00068643
3426	0.00106778
3438	0.00106778
3450	0.00061016
3462	0.00106778
3474	0.00038135
3486	0.00061016
3498	0.00068643
3510	0.00068643
3522	0.00083897
3534	0.00114405
3546	0.00091524
3558	0.00053389
3570	0.00198302
3582	0.00106778
3594	0.00190675
3606	0.00091524
3618	0.00198302
3630	0.00327961
3642	0.0015254
3654	0.00251691
3666	0.00167794
3678	0.00350842
3690	0.00358469
3702	0.00213556
3714	0.00366096
3726	0.0030508
3738	0.00343215
3750	0.00419485
3762	0.00327961
3774	0.00327961
3786	0.00282199
3798	0.00404231
3810	0.00388977
3822	0.00396604
3834	0.00396604
3846	0.00419485
3858	0.00449993
3870	0.00404231
3882	0.00419485
3894	0.00480501
3906	0.00434739
3918	0.0038135
3930	0.00327961
3942	0.00434739
3954	0.00114405
3966	0.00144913
