Infrared Spectrum: Ethanone, 1-(4-methylphenyl)-
Formula: C 9 H 10 O
CAS: 122-00-9
Origin: Sadtler Research Labs Under US-EPA Contract
1/CM	ABSORBANCE
450	0.111935
462	0.0536916
474	0.0316563
486	0.013035
498	0.0186214
510	0.0202766
522	0.00827616
534	0.0163454
546	0.0268975
558	0.0657955
570	0.161592
582	0.0806926
594	0.102728
606	0.0494501
618	0.0197593
630	0.0282424
642	0.0140695
654	0.02038
666	0.0701405
678	0.0513122
690	0.0156213
702	0.0212077
714	0.0276217
726	0.0182076
738	0.0138626
750	0.0173799
762	0.0161385
774	0.019449
786	0.0323805
798	0.1019
810	0.237733
822	0.158488
834	0.0573124
846	0.0300011
858	0.0175868
870	0.0124142
882	0.00931068
894	0.0100348
906	0.013966
918	0.0165523
930	0.0282424
942	0.109349
954	0.166661
966	0.0674507
978	0.0404497
990	0.0304149
1002	0.0271044
1014	0.0718991
1026	0.0682783
1038	0.031346
1050	0.0326908
1062	0.0378634
1074	0.054933
1086	0.0339323
1098	0.0220353
1110	0.0326908
1122	0.0378634
1134	0.0234836
1146	0.0182076
1158	0.0207939
1170	0.0438636
1182	0.199145
1194	0.0994174
1206	0.0776925
1218	0.0878307
1230	0.148764
1242	0.216628
1254	0.536502
1266	0.981759
1278	0.309632
1290	0.124867
1302	0.0705543
1314	0.0594849
1326	0.0319667
1338	0.0483121
1350	0.159937
1362	0.339943
1374	0.149488
1386	0.0709681
1398	0.102831
1410	0.136246
1422	0.113383
1434	0.0982794
1446	0.0766579
1458	0.057209
1470	0.047381
1482	0.0383807
1494	0.0373462
1506	0.0378634
1518	0.0316563
1530	0.027932
1542	0.0321736
1554	0.0312425
1566	0.0472776
1578	0.0716922
1590	0.079658
1602	0.187455
1614	0.281079
1626	0.141833
1638	0.0583469
1650	0.0466569
1662	0.0526571
1674	0.0634161
1686	0.202352
1698	0.892067
1710	0.953103
1722	0.234112
1734	0.0623816
1746	0.0396221
1758	0.0390014
1770	0.0206904
1782	0.00879342
1794	0.0121039
1806	0.016242
1818	0.00879342
1830	0.00475879
1842	0.00424153
1854	0.00413808
1866	0.0049657
1878	0.00703474
1890	0.0116901
1902	0.0138626
1914	0.0124142
1926	0.0132419
1938	0.0120004
1950	0.00786235
1962	0.0049657
1974	0.00310356
1986	0.0025863
1998	0.00331046
2010	0.00413808
2022	0.00568986
2034	0.00713819
2046	0.0053795
2058	0.00455189
2070	0.00331046
2082	0.00175868
2094	0.000620712
2106	0.00124142
2118	0
2130	0.000310356
2142	0.00134488
2154	0.000931068
2166	0.00175868
2178	0.00320701
2190	0.00227594
2202	0.00248285
2214	0.00248285
2226	0.00186214
2238	0.0023794
2250	0.0027932
2262	0.0023794
2274	0.00300011
2286	0.00320701
2298	0.00331046
2310	0.00320701
2322	0
2334	0.00175868
2346	0.00424153
2358	0
2370	0.00837961
2382	0.0079658
2394	0.00465534
2406	0.00465534
2418	0.00558641
2430	0.00527605
2442	0.00506915
2454	0.00506915
2466	0.00424153
2478	0.00455189
2490	0.00527605
2502	0.0053795
2514	0.00610367
2526	0.00858652
2538	0.00713819
2550	0.00734509
2562	0.00724164
2574	0.00889687
2586	0.0103452
2598	0.00900032
2610	0.00631057
2622	0.00713819
2634	0.0051726
2646	0.00403463
2658	0.0049657
2670	0.0027932
2682	0.00382772
2694	0.00682783
2706	0.00713819
2718	0.00827616
2730	0.00910378
2742	0.0124142
2754	0.0117935
2766	0.0102417
2778	0.00931068
2790	0.00993139
2802	0.00962104
2814	0.00993139
2826	0.0129315
2838	0.0163454
2850	0.022656
2862	0.0374496
2874	0.0620712
2886	0.0671403
2898	0.0559675
2910	0.0557606
2922	0.0834858
2934	0.145454
2946	0.119694
2958	0.0698301
2970	0.0685887
2982	0.0730371
2994	0.0790373
3006	0.108521
3018	0.129108
3030	0.145971
3042	0.164592
3054	0.103762
3066	0.0875204
3078	0.0786235
3090	0.0692094
3102	0.0554503
3114	0.0303114
3126	0.0221387
3138	0.0157247
3150	0.00993139
3162	0.00672438
3174	0.00631057
3186	0.00372427
3198	0.00372427
3210	0.00289666
3222	0.00227594
3234	0.00289666
3246	0.00144833
3258	0.00144833
3270	0.00289666
3282	0.00331046
3294	0.00248285
3306	0.00268975
3318	0.00206904
3330	0.00186214
3342	0.00362082
3354	0.00331046
3366	0.00620712
3378	0.0131384
3390	0.0211042
3402	0.0143798
3414	0.00455189
3426	0.00424153
3438	0.00506915
3450	0.00310356
3462	0.00351737
3474	0.0049657
3486	0.00506915
3498	0.0049657
3510	0.0049657
3522	0.00300011
3534	0.00248285
3546	0.00113797
3558	0.00351737
3570	0.00372427
3582	0.00155178
3594	0.00382772
3606	0.00362082
3618	0.00289666
3630	0.00475879
3642	0.00227594
3654	0.00527605
3666	0.000827616
3678	0.00837961
3690	0.0051726
3702	0.0053795
3714	0.0051726
3726	0.00362082
3738	0.0051726
3750	0.00900032
3762	0.00506915
3774	0.00434498
3786	0.00434498
3798	0.00693128
3810	0.00351737
3822	0.00568986
3834	0.00579331
3846	0.00703474
3858	0.00962104
3870	0.0103452
3882	0.0051726
3894	0.0079658
3906	0.00589676
3918	0.00568986
3930	0.00362082
3942	0.00548296
3954	0.0051726
3966	0.00631057
