Infrared Spectrum: Benzeneacetic acid, octyl ester
Formula: C 16 H 24 O 2
CAS: 122-45-2
Origin: Sadtler Research Labs Under US-EPA Contract
1/CM	ABSORBANCE
450	0.0103396
462	0.0121696
474	0.0154637
486	0.00530706
498	0.00192152
510	0.00631357
522	0.0107971
534	0.0177512
546	0.0148232
558	0.00713708
570	0.00256203
582	0.00228752
594	0.0100651
606	0.00539856
618	0.0117121
630	0.0233328
642	0.0238818
654	0.0139997
666	0.0160127
678	0.0376069
690	0.105958
702	0.167355
714	0.189133
726	0.125905
738	0.0594757
750	0.0433715
762	0.0350449
774	0.0156467
786	0.00713708
798	0.0100651
810	0.0107971
822	0.0092416
834	0.0095161
846	0.0133591
858	0.0143657
870	0.0166532
882	0.0177512
894	0.0166532
906	0.0201302
918	0.0181172
930	0.0193982
942	0.0242478
954	0.0359599
966	0.0578286
978	0.0699983
990	0.089122
1002	0.10422
1014	0.123343
1026	0.120049
1038	0.10422
1050	0.0687173
1062	0.0689003
1074	0.0761288
1086	0.0585606
1098	0.0621292
1110	0.0952525
1122	0.193891
1134	0.431336
1146	0.570875
1158	0.438839
1170	0.239275
1182	0.159578
1194	0.134415
1206	0.156101
1218	0.226099
1230	0.347338
1242	0.510942
1254	0.496393
1266	0.329861
1278	0.217589
1290	0.195172
1302	0.167538
1314	0.150977
1326	0.1475
1338	0.138258
1350	0.0934225
1362	0.0630442
1374	0.0515151
1386	0.0707303
1398	0.0382474
1410	0.0266268
1422	0.0383389
1434	0.0697238
1446	0.086926
1458	0.123435
1470	0.113187
1482	0.0577371
1494	0.0837234
1506	0.0541686
1518	0.0123526
1530	0.0096076
1542	0.00860109
1554	0.00750308
1566	0.00695408
1578	0.0089671
1590	0.0182087
1602	0.0360514
1614	0.0251628
1626	0.00768608
1638	0.00585606
1650	0.00640507
1662	0.00796059
1674	0.0104311
1686	0.0137252
1698	0.0238818
1710	0.047306
1722	0.0813444
1734	0.184832
1746	0.547816
1758	0.830921
1770	0.285483
1782	0.108063
1794	0.0556326
1806	0.0287313
1818	0.0157382
1830	0.0102481
1842	0.00823509
1854	0.00805209
1866	0.0089671
1878	0.00805209
1890	0.00677107
1902	0.00549006
1914	0.00475805
1926	0.00649657
1938	0.0108886
1950	0.0109801
1962	0.00832659
1974	0.00384304
1986	0.00366004
1998	0.00320254
2010	0.00301953
2022	0.00329404
2034	0.00301953
2046	0.00301953
2058	0.00292803
2070	0.00173852
2082	0.00128101
2094	0.00183002
2106	0.00164702
2118	0.00137252
2130	0.000549006
2142	0.00091501
2154	0.00091501
2166	0.000732008
2178	0.000457505
2190	0.000457505
2202	0.000640507
2214	0.000732008
2226	0
2238	0.000366004
2250	0.00091501
2262	0.00118951
2274	0.00146402
2286	0.00173852
2298	0.00164702
2310	0.00183002
2322	0.00192152
2334	0.00237903
2346	0.00091501
2358	0
2370	0.00247053
2382	0.00210452
2394	0.00173852
2406	0.00183002
2418	0.00155552
2430	0.00164702
2442	0.00100651
2454	0.00118951
2466	0.00137252
2478	0.00091501
2490	0.00201302
2502	0.00173852
2514	0.00256203
2526	0.00247053
2538	0.00201302
2550	0.00164702
2562	0.000366004
2574	0.000640507
2586	0.00265353
2598	0.00347704
2610	0.00356854
2622	0.00338554
2634	0.00375154
2646	0.00549006
2658	0.00649657
2670	0.00576456
2682	0.00777759
2694	0.0090586
2706	0.00768608
2718	0.00686258
2730	0.00814359
2742	0.0096076
2754	0.0105226
2766	0.00997361
2778	0.0102481
2790	0.0147317
2802	0.0178427
2814	0.0243393
2826	0.0346789
2838	0.0547176
2850	0.1152
2862	0.289967
2874	0.278163
2886	0.219602
2898	0.203956
2910	0.303143
2922	0.50536
2934	0.820947
2946	0.656703
2958	0.461074
2970	0.499595
2982	0.22555
2994	0.111631
3006	0.0637762
3018	0.0578286
3030	0.0917755
3042	0.125631
3054	0.0677107
3066	0.0859194
3078	0.108612
3090	0.0637762
3102	0.042914
3114	0.0275418
3126	0.0147317
3138	0.00777759
3150	0.0087841
3162	0.0102481
3174	0.00786909
3186	0.00658807
3198	0.00704558
3210	0.00658807
3222	0.00539856
3234	0.00832659
3246	0.00667957
3258	0.00594757
3270	0.00640507
3282	0.00585606
3294	0.00292803
3306	0.00228752
3318	0.00164702
3330	0.00274503
3342	0.00274503
3354	0.00256203
3366	0.00237903
3378	0.00311103
3390	0.00192152
3402	0.00256203
3414	0.00247053
3426	0.00201302
3438	0.00164702
3450	0
3462	0.00201302
3474	0.00384304
3486	0.0090586
3498	0.00667957
3510	0.00228752
3522	0.000274503
3534	0.00183002
3546	0.00183002
3558	0.00201302
3570	0.00137252
3582	0.00210452
3594	0.00347704
3606	0.00366004
3618	0.00402604
3630	0.00311103
3642	0.00457505
3654	0.00439205
3666	0.00411755
3678	0.00448355
3690	0.00375154
3702	0.00375154
3714	0.00347704
3726	0.00484955
3738	0.00375154
3750	0.00402604
3762	0.00338554
3774	0.00594757
3786	0.00146402
3798	0.00475805
3810	0.00457505
3822	0.00356854
3834	0.00274503
3846	0.00366004
3858	0.00393454
3870	0.00402604
3882	0.00366004
3894	0.00356854
3906	0.00411755
3918	0.00466655
3930	0.00164702
3942	0.00210452
3954	0.00173852
3966	0.00484955
