Infrared Spectrum: Benzeneacetic acid, butyl ester
Formula: C 12 H 16 O 2
CAS: 122-43-0
Origin: Sadtler Research Labs Under US-EPA Contract
1/CM	ABSORBANCE
450	0
462	0.01743
474	0.0397189
486	0.037945
498	0.0190496
510	0.02923
522	0.0235228
534	0.0333176
546	0.0293071
558	0.0209006
570	0.0236771
582	0.037945
594	0.0252195
606	0.0346287
618	0.0362483
630	0.0389476
642	0.042264
654	0.0340117
666	0.0359398
678	0.0633959
690	0.124864
702	0.175534
714	0.189725
726	0.130108
738	0.074656
750	0.0608508
762	0.0468143
774	0.0318522
786	0.0350143
798	0.026145
810	0.0306182
822	0.029847
834	0.0299241
846	0.0314666
858	0.0313895
870	0.0306182
882	0.0310038
894	0.0330091
906	0.0374051
918	0.0382535
930	0.037945
942	0.0467371
954	0.0623162
966	0.0863789
978	0.0880756
990	0.0825998
1002	0.101649
1014	0.150546
1026	0.145224
1038	0.0836795
1050	0.0638587
1062	0.106894
1074	0.112832
1086	0.083988
1098	0.0952481
1110	0.136972
1122	0.228133
1134	0.423951
1146	0.552054
1158	0.435905
1170	0.270088
1182	0.189956
1194	0.1652
1206	0.171215
1218	0.228827
1230	0.336261
1242	0.468374
1254	0.459505
1266	0.314897
1278	0.219881
1290	0.188645
1302	0.169904
1314	0.156253
1326	0.152474
1338	0.142834
1350	0.104657
1362	0.0731907
1374	0.0619306
1386	0.0758129
1398	0.0575345
1410	0.042264
1422	0.0529842
1434	0.0756586
1446	0.084605
1458	0.104349
1470	0.0919318
1482	0.0651698
1494	0.0967135
1506	0.0724194
1518	0.0272248
1530	0.0252195
1542	0.0248339
1554	0.0226745
1566	0.0231372
1578	0.0249111
1590	0.0330091
1602	0.0516731
1614	0.0414156
1626	0.0242941
1638	0.022366
1650	0.0219032
1662	0.0229058
1674	0.0260679
1686	0.0299241
1698	0.0440378
1710	0.0701828
1722	0.0966364
1734	0.185406
1746	0.537014
1758	0.743398
1770	0.340657
1782	0.147924
1794	0.0902351
1806	0.0551437
1818	0.0344744
1830	0.0260679
1842	0.0234457
1854	0.0226745
1866	0.0229058
1878	0.0222888
1890	0.0209777
1902	0.0195124
1914	0.0194352
1926	0.0215176
1938	0.0250653
1950	0.0257594
1962	0.0229058
1974	0.0188954
1986	0.0185098
1998	0.0175071
2010	0.0176614
2022	0.0185098
2034	0.0187411
2046	0.0190496
2058	0.018047
2070	0.0172758
2082	0.016196
2094	0.0152706
2106	0.0155019
2118	0.0151934
2130	0.0151163
2142	0.0145764
2154	0.0145764
2166	0.0147307
2178	0.0149621
2190	0.0151934
2202	0.0144993
2214	0.0144222
2226	0.0151934
2238	0.0148849
2250	0.0150392
2262	0.0151934
2274	0.0151163
2286	0.0158104
2298	0.0159647
2310	0.0166588
2322	0.0167359
2334	0.0147307
2346	0.0162732
2358	0.0164274
2370	0.0149621
2382	0.0168902
2394	0.0170444
2406	0.0166588
2418	0.0158104
2430	0.0157333
2442	0.0151163
2454	0.0156562
2466	0.0153477
2478	0.0150392
2490	0.0151163
2502	0.0161189
2514	0.0158875
2526	0.0159647
2538	0.0157333
2550	0.0155019
2562	0.0153477
2574	0.0166588
2586	0.0168902
2598	0.0168902
2610	0.0173529
2622	0.0168902
2634	0.0167359
2646	0.0165817
2658	0.016196
2670	0.016196
2682	0.018047
2694	0.0188954
2706	0.0198209
2718	0.0195124
2730	0.0198209
2742	0.0218261
2754	0.0228287
2766	0.0220575
2778	0.0215947
2790	0.0231372
2802	0.0246797
2814	0.0270705
2826	0.0300784
2838	0.0367881
2850	0.0520587
2862	0.0722652
2874	0.108436
2886	0.147847
2898	0.128566
2910	0.142062
2922	0.18209
2934	0.229675
2946	0.290835
2958	0.299164
2970	0.411225
2982	0.249882
2994	0.120468
3006	0.0718796
3018	0.0660953
3030	0.0979475
3042	0.132422
3054	0.0797462
3066	0.095788
3078	0.118925
3090	0.0761214
3102	0.0558378
3114	0.0384849
3126	0.0270705
3138	0.0215947
3150	0.0202836
3162	0.0194352
3174	0.0202065
3186	0.019281
3198	0.0178928
3210	0.0165817
3222	0.0169673
3234	0.0171987
3246	0.0182784
3258	0.019281
3270	0.0190496
3282	0.0171215
3294	0.0197437
3306	0.0173529
3318	0.0158104
3330	0.0182013
3342	0.0175071
3354	0.0160418
3366	0.0179699
3378	0.0165045
3390	0.0172758
3402	0.0166588
3414	0.0170444
3426	0.0169673
3438	0.0171987
3450	0.01743
3462	0.0173529
3474	0.0182013
3486	0.0209006
3498	0.0209006
3510	0.0159647
3522	0.01743
3534	0.0166588
3546	0.0182013
3558	0.019281
3570	0.0252195
3582	0.026762
3594	0.0188954
3606	0.0157333
3618	0.0162732
3630	0.0165817
3642	0.0185098
3654	0.0166588
3666	0.0188183
3678	0.0178156
3690	0.0164274
3702	0.0181241
3714	0.0166588
3726	0.01743
3738	0.0160418
3750	0.0167359
3762	0.0161189
3774	0.0160418
3786	0.0168902
3798	0.0162732
3810	0.0190496
3822	0.0177385
3834	0.0145764
3846	0.0178156
3858	0.0191268
3870	0.0172758
3882	0.016813
3894	0.0196666
3906	0.0155019
3918	0.0182013
3930	0.0142679
3942	0.0171987
3954	0.0144993
3966	0.0164274
