Infrared Spectrum: Hexanoic acid, 2-propenyl ester
Formula: C 9 H 16 O 2
CAS: 123-68-2
Origin: Sadtler Research Labs Under US-EPA Contract
1/CM	ABSORBANCE
450	0.00737947
462	0.0179349
474	0.0125171
486	0.0285838
498	0.00887405
510	0.0106489
522	0.0164403
534	0.0109291
546	0.0245671
558	0.020457
570	0.0144787
582	0.0159733
594	0.0239132
606	0.0218582
618	0.0255012
630	0.0123303
642	0.0124237
654	0.0160667
666	0.0110225
678	0.00616513
690	0.0155996
702	0.00915428
714	0.0119566
726	0.0176547
738	0.022045
750	0.0154128
762	0.0119566
774	0.00999498
786	0.0132644
798	0.010462
810	0.00915428
822	0.0113027
834	0.0154128
846	0.0201768
858	0.0258748
870	0.0283035
882	0.0329741
894	0.0416613
906	0.0605303
918	0.113868
930	0.19224
942	0.115923
954	0.0682834
966	0.0821083
978	0.138061
990	0.251836
1002	0.256226
1014	0.195789
1026	0.13666
1038	0.103686
1050	0.0779048
1062	0.0824819
1074	0.105461
1086	0.15637
1098	0.250341
1110	0.280046
1122	0.223813
1134	0.206999
1146	0.313581
1158	0.639865
1170	0.860409
1182	0.543372
1194	0.312553
1206	0.294431
1218	0.340763
1230	0.387282
1242	0.388963
1254	0.278271
1266	0.198779
1278	0.199619
1290	0.17664
1302	0.15693
1314	0.140117
1326	0.109011
1338	0.12377
1350	0.129654
1362	0.130589
1374	0.163002
1386	0.133858
1398	0.0715528
1410	0.0595028
1422	0.0783718
1434	0.0956529
1446	0.109104
1458	0.137688
1470	0.112467
1482	0.052964
1494	0.0237264
1506	0.0158799
1518	0.0121434
1530	0.00952792
1542	0.00999498
1554	0.00756629
1566	0.00625854
1578	0.00709924
1590	0.00579148
1602	0.006819
1614	0.00831358
1626	0.00980816
1638	0.0183086
1650	0.0330675
1662	0.0218582
1674	0.015226
1686	0.0184954
1698	0.0277431
1710	0.0495078
1722	0.082949
1734	0.177855
1746	0.554207
1758	0.93411
1770	0.530574
1782	0.189811
1794	0.0916362
1806	0.0466121
1818	0.0262485
1830	0.0173744
1842	0.0144787
1854	0.0145721
1866	0.0157865
1878	0.010462
1890	0.00719265
1902	0.00607172
1914	0.00560466
1926	0.00569807
1938	0.00448373
1950	0.00373644
1962	0.00411008
1974	0.00457714
1986	0.00448373
1998	0.00457714
2010	0.00476396
2022	0.00485737
2034	0.00429691
2046	0.00373644
2058	0.00345621
2070	0.00373644
2082	0.00317597
2094	0.00289574
2106	0.00289574
2118	0.00270892
2130	0.00242869
2142	0.00158799
2154	0.00214845
2166	0.00140117
2178	0.00121434
2190	0.00186822
2202	0.00112093
2214	0.0016814
2226	0.00186822
2238	0.00112093
2250	0.000747288
2262	0.0016814
2274	0.00149458
2286	0.00140117
2298	0.00177481
2310	0.00149458
2322	9.3411e-05
2334	9.3411e-05
2346	0.00224186
2358	9.3411e-05
2370	0.00523102
2382	0.00495078
2394	0.0025221
2406	0.00242869
2418	0.00261551
2430	0.00289574
2442	0.0025221
2454	0.00298915
2466	0.00242869
2478	0.00196163
2490	0.00130775
2502	0.00158799
2514	0.00102752
2526	0.00140117
2538	0.00280233
2550	0.00205504
2562	0.00224186
2574	0.00392326
2586	0.00392326
2598	0.00411008
2610	0.00495078
2622	0.00532443
2634	0.00411008
2646	0.00653877
2658	0.00560466
2670	0.00728606
2682	0.00952792
2694	0.0101818
2706	0.00924769
2718	0.00915428
2730	0.0100884
2742	0.0127973
2754	0.0122368
2766	0.0112093
2778	0.0121434
2790	0.0145721
2802	0.0182151
2814	0.0226989
2826	0.0292376
2838	0.042035
2850	0.0718331
2862	0.15198
2874	0.234181
2886	0.240814
2898	0.181217
2910	0.201581
2922	0.312273
2934	0.480693
2946	0.55757
2958	0.495452
2970	0.541037
2982	0.303679
2994	0.143012
3006	0.0861249
3018	0.0607172
3030	0.0579148
3042	0.035683
3054	0.0264353
3066	0.0247539
3078	0.0344687
3090	0.0534311
3102	0.0606237
3114	0.0285838
3126	0.0123303
3138	0.00924769
3150	0.00756629
3162	0.00625854
3174	0.006819
3186	0.00663218
3198	0.00607172
3210	0.00495078
3222	0.00382985
3234	0.00177481
3246	0.0033628
3258	0.00205504
3270	0.00289574
3282	0.00345621
3294	0.00308256
3306	0.00224186
3318	0.00158799
3330	0.00140117
3342	0.00149458
3354	0.0016814
3366	0.000560466
3378	0.000280233
3390	0.00140117
3402	0.00298915
3414	0.000467055
3426	0.00308256
3438	0.0025221
3450	0.00298915
3462	0.00308256
3474	0.00345621
3486	0.0093411
3498	0.0103686
3510	0.00588489
3522	0.00130775
3534	0.00121434
3546	0.00289574
3558	0.00467055
3570	0.0151326
3582	0.0202702
3594	0.00541784
3606	0.00495078
3618	0.00224186
3630	0.00495078
3642	0.00354962
3654	0.00495078
3666	0.00635195
3678	0.00579148
3690	0.00504419
3702	0.00373644
3714	0.00523102
3726	0.0059783
3738	0.00429691
3750	0.00653877
3762	0.00420349
3774	0.00317597
3786	0.00364303
3798	0.00448373
3810	0.00392326
3822	0.00569807
3834	0.00532443
3846	0.00672559
3858	0.00532443
3870	0.00476396
3882	0.00728606
3894	0.00709924
3906	0.00382985
3918	0.00270892
3930	0.00242869
3942	0.00102752
3954	0.0059783
3966	0.00532443
