Infrared Spectrum: 1-Butanol, 3-methyl-, acetate
Formula: C 7 H 14 O 2
CAS: 123-92-2
Origin: Sadtler Research Labs Under US-EPA Contract
1/CM	ABSORBANCE
450	0
462	0.0717795
474	0.0643675
486	0.0548099
498	0.0600763
510	0.0651477
522	0.0788014
534	0.0596862
546	0.0665131
558	0.051494
570	0.0567604
582	0.0577357
594	0.0608565
606	0.0766558
618	0.0723647
630	0.0823124
642	0.0895293
654	0.066123
666	0.0524693
678	0.0499336
690	0.0653428
702	0.0606615
714	0.0559802
726	0.0507138
738	0.0799717
750	0.0653428
762	0.0674883
774	0.0628071
786	0.0688537
798	0.0670982
810	0.0797767
822	0.0838728
834	0.0754855
846	0.0821173
858	0.0803618
870	0.0827025
882	0.0858233
894	0.09187
906	0.0979166
918	0.107084
930	0.108059
942	0.107084
954	0.126784
966	0.146875
978	0.139073
990	0.133806
1002	0.170866
1014	0.247912
1026	0.301357
1038	0.327494
1050	0.386205
1062	0.386205
1074	0.262151
1086	0.181399
1098	0.136927
1110	0.120933
1122	0.115666
1134	0.117422
1146	0.116642
1158	0.116252
1170	0.151361
1182	0.145705
1194	0.163259
1206	0.281071
1218	0.679955
1230	1.67648
1242	1.72836
1254	0.81142
1266	0.415268
1278	0.304868
1290	0.196808
1302	0.131856
1314	0.107864
1326	0.0936254
1338	0.0959661
1350	0.118787
1362	0.295895
1374	0.465592
1386	0.290044
1398	0.23738
1410	0.126784
1422	0.101233
1434	0.115861
1446	0.127565
1458	0.170866
1470	0.206366
1482	0.161114
1494	0.104939
1506	0.0864085
1518	0.0805569
1530	0.0743152
1542	0.0727548
1554	0.0680735
1566	0.0645625
1578	0.0633922
1590	0.062612
1602	0.0649526
1614	0.0653428
1626	0.0637823
1638	0.0643675
1650	0.0678784
1662	0.0645625
1674	0.0688537
1686	0.0743152
1698	0.0828975
1710	0.0996721
1722	0.141218
1734	0.221385
1746	0.485682
1758	1.15744
1770	1.07006
1782	0.399469
1794	0.177498
1806	0.116447
1818	0.0827025
1830	0.070024
1842	0.062417
1854	0.0581258
1866	0.0567604
1878	0.0553951
1890	0.0538346
1902	0.051494
1914	0.0512989
1926	0.0507138
1938	0.0505187
1950	0.0497385
1962	0.0495435
1974	0.0491534
1986	0.0497385
1998	0.0509088
2010	0.051689
2022	0.0518841
2034	0.0520792
2046	0.0524693
2058	0.0528594
2070	0.0528594
2082	0.0522742
2094	0.0518841
2106	0.0507138
2118	0.0509088
2130	0.051494
2142	0.051494
2154	0.0511039
2166	0.0503237
2178	0.0497385
2190	0.0491534
2202	0.0491534
2214	0.0487633
2226	0.0489583
2238	0.0487633
2250	0.0489583
2262	0.0489583
2274	0.0493484
2286	0.0487633
2298	0.047788
2310	0.0468127
2322	0.0460325
2334	0.0481781
2346	0.0473979
2358	0.047788
2370	0.051494
2382	0.0499336
2394	0.0503237
2406	0.0495435
2418	0.0501286
2430	0.0499336
2442	0.0503237
2454	0.051494
2466	0.0524693
2478	0.0522742
2490	0.0511039
2502	0.0509088
2514	0.0501286
2526	0.0501286
2538	0.0497385
2550	0.0503237
2562	0.0505187
2574	0.0520792
2586	0.0532495
2598	0.0544198
2610	0.0550049
2622	0.0552
2634	0.0557852
2646	0.0561753
2658	0.0563703
2670	0.0563703
2682	0.0559802
2694	0.0563703
2706	0.0575406
2718	0.0598813
2730	0.0643675
2742	0.0659279
2754	0.0641724
2766	0.0630021
2778	0.0630021
2790	0.0643675
2802	0.0655378
2814	0.070024
2826	0.0754855
2838	0.0867986
2850	0.107474
2862	0.137122
2874	0.224701
2886	0.305648
2898	0.283217
2910	0.31111
2922	0.36943
2934	0.426581
2946	0.480416
2958	0.614027
2970	0.88242
2982	0.516695
2994	0.220605
3006	0.127955
3018	0.099282
3030	0.0924551
3042	0.0875788
3054	0.0836777
3066	0.0801668
3078	0.0754855
3090	0.0692438
3102	0.0657329
3114	0.0622219
3126	0.0602714
3138	0.058711
3150	0.0571505
3162	0.058711
3174	0.0571505
3186	0.0567604
3198	0.0557852
3210	0.0538346
3222	0.0520792
3234	0.0509088
3246	0.0501286
3258	0.0493484
3270	0.0481781
3282	0.0489583
3294	0.0485682
3306	0.047983
3318	0.047983
3330	0.0473979
3342	0.0487633
3354	0.0485682
3366	0.0487633
3378	0.047983
3390	0.0470078
3402	0.0475929
3414	0.047788
3426	0.0475929
3438	0.0464226
3450	0.0466177
3462	0.0483731
3474	0.0491534
3486	0.0509088
3498	0.0575406
3510	0.0577357
3522	0.0518841
3534	0.0487633
3546	0.0472028
3558	0.0485682
3570	0.0493484
3582	0.0522742
3594	0.0511039
3606	0.0495435
3618	0.047983
3630	0.0495435
3642	0.0473979
3654	0.0499336
3666	0.0497385
3678	0.0483731
3690	0.0495435
3702	0.0472028
3714	0.047983
3726	0.0460325
3738	0.0473979
3750	0.0509088
3762	0.047788
3774	0.0483731
3786	0.0462276
3798	0.0497385
3810	0.0491534
3822	0.0509088
3834	0.051494
3846	0.0483731
3858	0.0511039
3870	0.0522742
3882	0.0522742
3894	0.0512989
3906	0.0499336
3918	0.0518841
3930	0.0522742
3942	0.0497385
3954	0.0520792
3966	0.0524693
