Infrared Spectrum: Benzaldehyde, 4-methoxy-
Formula: C 8 H 8 O 2
CAS: 123-11-5
Origin: Sadtler Research Labs Under US-EPA Contract
1/CM	ABSORBANCE
450	0.000686724
462	0.000515043
474	0.00497875
486	0.00829791
498	0.0250082
510	0.0291858
522	0.0159091
534	0.00560825
546	0.00560825
558	0.00789733
570	0.0120177
582	0.0246648
594	0.0663833
606	0.0513326
618	0.022433
630	0.0147073
642	0.0245504
654	0.00818346
666	0.00852682
678	0.00669556
690	0.009328
702	0.00949968
714	0.00927077
726	0.00789733
738	0.00864128
750	0.0223758
762	0.024207
774	0.0135056
786	0.0158519
798	0.0246076
810	0.056483
822	0.107873
834	0.134884
846	0.140378
858	0.0758258
870	0.0176831
882	0.0101292
894	0.0104725
906	0.00686724
918	0.00612329
930	0.00698169
942	0.00589438
954	0.00761119
966	0.00967136
978	0.0112737
990	0.01362
1002	0.0185415
1014	0.0293575
1026	0.0697025
1038	0.122523
1050	0.0827502
1062	0.0264961
1074	0.02043
1086	0.0205445
1098	0.0263816
1110	0.0276406
1122	0.0206589
1134	0.0207162
1146	0.0483568
1158	0.357497
1170	0.236061
1182	0.0648954
1194	0.0784582
1206	0.125899
1218	0.102207
1230	0.109704
1242	0.217463
1254	0.508061
1266	0.41358
1278	0.0870423
1290	0.0826358
1302	0.180036
1314	0.132309
1326	0.0486429
1338	0.0298153
1350	0.0227191
1362	0.0200295
1374	0.0184843
1386	0.0386855
1398	0.0361675
1410	0.0207734
1422	0.0374265
1434	0.0368542
1446	0.0365681
1458	0.0461822
1470	0.0583143
1482	0.0402878
1494	0.0429203
1506	0.177175
1518	0.158233
1530	0.0247793
1542	0.0161952
1554	0.0181982
1566	0.0405167
1578	0.131107
1590	0.243501
1602	0.389601
1614	0.312974
1626	0.0919066
1638	0.0258094
1650	0.0194
1662	0.0214601
1674	0.0363391
1686	0.0527061
1698	0.0931083
1710	0.299869
1722	0.547949
1734	0.119776
1746	0.0237492
1758	0.0234631
1770	0.0165386
1782	0.00984304
1794	0.00904187
1806	0.00749674
1818	0.00543656
1830	0.00492152
1842	0.0048643
1854	0.00577993
1866	0.00526488
1878	0.00577993
1890	0.00898464
1902	0.00864128
1914	0.00560825
1926	0.00446371
1938	0.00377698
1950	0.00400589
1962	0.0048643
1974	0.0048643
1986	0.00429202
1998	0.00577993
2010	0.010072
2022	0.00915632
2034	0.00606606
2046	0.00618052
2058	0.00801178
2070	0.0084696
2082	0.00640942
2094	0.00389144
2106	0.00280412
2118	0.00228908
2130	0.000801178
2142	0.00125899
2154	0.00125899
2166	0.000629497
2178	0.00057227
2190	0.00057227
2202	0.000515043
2214	0.000457816
2226	0.000457816
2238	0.000400589
2250	0.000972859
2262	0.00246076
2274	0.00394866
2286	0.00240353
2298	0.00188849
2310	0.00200294
2322	0.00326194
2334	0.00320471
2346	0.00194572
2358	0.00343362
2370	0.00280412
2382	0.00057227
2394	0.000915632
2406	0.00200294
2418	0.00337639
2430	0.00268967
2442	0.00251799
2454	0.00246076
2466	0.00246076
2478	0.00171681
2490	0.00194572
2502	0.00291858
2514	0.00497875
2526	0.00406312
2538	0.00331917
2550	0.00583715
2562	0.00904187
2574	0.00743951
2586	0.00543656
2598	0.00526488
2610	0.00543656
2622	0.0050932
2634	0.00457816
2646	0.00406312
2658	0.00412034
2670	0.00698169
2682	0.0141923
2694	0.0236348
2706	0.041089
2718	0.0738801
2730	0.086985
2742	0.052935
2754	0.0263244
2766	0.0199722
2778	0.0257522
2790	0.0449804
2802	0.0592872
2814	0.0642087
2826	0.0556246
2838	0.0426341
2850	0.0517332
2862	0.029243
2874	0.0139062
2886	0.0145357
2898	0.018656
2910	0.0291858
2922	0.0375981
2934	0.038056
2946	0.0545946
2958	0.0588866
2970	0.0501881
2982	0.0303303
2994	0.0226047
3006	0.0384565
3018	0.0561397
3030	0.0284418
3042	0.0215174
3054	0.0133339
3066	0.0120177
3078	0.0196289
3090	0.018656
3102	0.0139062
3114	0.0108159
3126	0.00629497
3138	0.00349085
3150	0.00303303
3162	0.00303303
3174	0.00194572
3186	0.0021174
3198	0.00188849
3210	0.0014879
3222	0.00057227
3234	0.000114454
3246	0.000743951
3258	0.000228908
3270	0.000171681
3282	0.000171681
3294	0.000400589
3306	0.000686724
3318	0.00120177
3330	0.000171681
3342	0.00120177
3354	0.000801178
3366	0.000686724
3378	0.000686724
3390	0.00280412
3402	0.0048643
3414	0.00761119
3426	0.00669556
3438	0.00268967
3450	0.00108731
3462	0.00103009
3474	0.000972859
3486	0.000801178
3498	0.000343362
3510	0.000515043
3522	0.00114454
3534	0.000400589
3546	0.00131622
3558	0.000915632
3570	0.00160236
3582	0.0042348
3594	0.00440648
3606	0.00194572
3618	0.00143067
3630	0.00251799
3642	0.00183126
3654	0.00286135
3666	0.00234631
3678	0.00200294
3690	0.00246076
3702	0.00143067
3714	0.00143067
3726	0.00143067
3738	0.00228908
3750	0.00194572
3762	0.00103009
3774	0.00154513
3786	0.00103009
3798	0.0014879
3810	0.00200294
3822	0.00251799
3834	0.00160236
3846	0.00125899
3858	0.00165958
3870	0.00206017
3882	0.00263244
3894	0.00228908
3906	0.00223185
3918	0.00165958
3930	0.00165958
3942	0.00160236
3954	0
3966	0.000114454
