Infrared Spectrum: Hexanal, 2-ethyl-
Formula: C 8 H 16 O
CAS: 123-05-7
Origin: Sadtler Research Labs Under US-EPA Contract
1/CM	ABSORBANCE
450	0
462	0.079246
474	0.0805654
486	0.102418
498	0.0836989
510	0.105716
522	0.100191
534	0.087987
546	0.074958
558	0.0868325
570	0.0913679
582	0.0865026
594	0.089059
606	0.0845236
618	0.0836989
630	0.0804004
642	0.0804829
654	0.0841937
666	0.0843586
678	0.0866676
690	0.0820497
702	0.0832042
714	0.0821322
726	0.0961507
738	0.105469
750	0.0963156
762	0.110911
774	0.126332
786	0.116354
798	0.11289
810	0.100356
822	0.0907082
834	0.0846885
846	0.0885642
858	0.0888116
870	0.0881519
882	0.0963156
894	0.100933
906	0.107695
918	0.104892
930	0.0987895
942	0.0969753
954	0.103078
966	0.104974
978	0.103902
990	0.101346
1002	0.101263
1014	0.101098
1026	0.0892239
1038	0.0909556
1050	0.0898836
1062	0.0940067
1074	0.0968929
1086	0.0955735
1098	0.100439
1110	0.10415
1122	0.105964
1134	0.109097
1146	0.116684
1158	0.110417
1170	0.0999439
1182	0.0921925
1194	0.0892239
1206	0.087987
1218	0.0872448
1230	0.0883993
1242	0.0888116
1254	0.0875746
1266	0.0874097
1278	0.0898836
1290	0.089966
1302	0.0917802
1314	0.0907082
1326	0.0930996
1338	0.10283
1350	0.105634
1362	0.10217
1374	0.110169
1386	0.143814
1398	0.125919
1410	0.0958208
1422	0.094419
1434	0.0978824
1446	0.127074
1458	0.186859
1470	0.198816
1482	0.132022
1494	0.0920276
1506	0.0821322
1518	0.0811426
1530	0.0763598
1542	0.0796583
1554	0.0789161
1566	0.0755352
1578	0.076937
1590	0.07603
1602	0.0765247
1614	0.0768546
1626	0.0744632
1638	0.0789986
1650	0.0832866
1662	0.0822971
1674	0.0925224
1686	0.105881
1698	0.122539
1710	0.149421
1722	0.254065
1734	0.586222
1746	0.675694
1758	0.29843
1770	0.181911
1782	0.133671
1794	0.104067
1806	0.0920276
1818	0.0826269
1830	0.077102
1842	0.0730613
1854	0.0729789
1866	0.0711647
1878	0.0696804
1890	0.0700102
1902	0.0697629
1914	0.0692681
1926	0.0684435
1938	0.0682785
1950	0.0681961
1962	0.0679487
1974	0.0679487
1986	0.0672065
1998	0.0673715
2010	0.0674539
2022	0.0672065
2034	0.0672065
2046	0.0669591
2058	0.0673715
2070	0.0669591
2082	0.0668767
2094	0.0663819
2106	0.0660521
2118	0.066217
2130	0.0660521
2142	0.0660521
2154	0.0658047
2166	0.0653924
2178	0.0652274
2190	0.065145
2202	0.0647327
2214	0.0647327
2226	0.0647327
2238	0.0644028
2250	0.0647327
2262	0.0646502
2274	0.0644028
2286	0.0641554
2298	0.0634133
2310	0.063908
2322	0.0634133
2334	0.0646502
2346	0.0634133
2358	0.0649801
2370	0.0652274
2382	0.0653924
2394	0.0668767
2406	0.0675364
2418	0.0666293
2430	0.0652274
2442	0.0644853
2454	0.0634957
2466	0.0641554
2478	0.0641554
2490	0.0648151
2502	0.065145
2514	0.0658871
2526	0.0661345
2538	0.0666293
2550	0.0670416
2562	0.0675364
2574	0.068361
2586	0.0702576
2598	0.0725666
2610	0.0756177
2622	0.0797408
2634	0.0837814
2646	0.0893888
2658	0.100274
2670	0.132434
2682	0.198733
2694	0.245324
2706	0.228832
2718	0.183313
2730	0.150905
2742	0.138619
2754	0.132187
2766	0.124518
2778	0.130125
2790	0.158245
2802	0.183973
2814	0.167975
2826	0.143566
2838	0.149091
2850	0.196672
2862	0.323334
2874	0.435152
2886	0.430699
2898	0.334961
2910	0.33562
2922	0.505245
2934	0.766072
2946	0.769206
2958	0.575667
2970	0.808128
2982	0.579955
2994	0.211762
3006	0.133011
3018	0.11322
3030	0.102583
3042	0.0957384
3054	0.091038
3066	0.0883168
3078	0.0864202
3090	0.0846885
3102	0.0827918
3114	0.0817198
3126	0.0808128
3138	0.079246
3150	0.0778441
3162	0.0777617
3174	0.0774318
3186	0.0763598
3198	0.0745456
3210	0.0725666
3222	0.0719893
3234	0.0711647
3246	0.0702576
3258	0.0692681
3270	0.0693505
3282	0.0682785
3294	0.0680311
3306	0.0680311
3318	0.0674539
3330	0.0680311
3342	0.0672065
3354	0.0665468
3366	0.0673715
3378	0.0676188
3390	0.0681136
3402	0.0681961
3414	0.068361
3426	0.068361
3438	0.070505
3450	0.0744632
3462	0.0772669
3474	0.0731438
3486	0.068361
3498	0.0665468
3510	0.0654748
3522	0.0649801
3534	0.0648151
3546	0.0658871
3558	0.0675364
3570	0.0755352
3582	0.0714121
3594	0.0667942
3606	0.0646502
3618	0.0655573
3630	0.068361
3642	0.0641554
3654	0.0704225
3666	0.0641554
3678	0.0669591
3690	0.0681136
3702	0.0653924
3714	0.0667118
3726	0.0637431
3738	0.0650625
3750	0.0708349
3762	0.0633308
3774	0.0648151
3786	0.0648151
3798	0.0664644
3810	0.0631659
3822	0.0691032
3834	0.0654748
3846	0.063908
3858	0.0691032
3870	0.0701752
3882	0.0662994
3894	0.0672065
3906	0.0660521
3918	0.0649801
3930	0.0677013
3942	0.0659696
3954	0.0666293
3966	0.0668767
