Infrared Spectrum: Acetic acid, mercapto-, 1,2-ethanediyl ester
Formula: C 6 H 10 O 4 S 2
CAS: 123-81-9
Origin: Sadtler Research Labs Under US-EPA Contract
1/CM	ABSORBANCE
450	0
462	0.0101957
474	0.028826
486	0.0287333
498	0.0553347
510	0.0287333
522	0.051998
534	0.0208548
546	0.0474563
558	0.0185376
570	0.0446756
582	0.0586715
594	0.0609887
606	0.0597838
618	0.0618229
630	0.0428219
642	0.0481978
654	0.0281772
666	0.0600618
678	0.0507003
690	0.0566324
702	0.0591349
714	0.0443976
726	0.0582081
738	0.0451391
750	0.0470855
762	0.0442122
774	0.0479197
786	0.0431926
798	0.0373533
810	0.0356849
822	0.0390216
834	0.0423584
846	0.0553347
858	0.0600618
870	0.0646962
882	0.0666427
894	0.0614521
906	0.065067
918	0.0728528
930	0.0817508
942	0.089722
954	0.119104
966	0.127817
978	0.112894
990	0.100288
1002	0.105664
1014	0.124665
1026	0.151638
1038	0.186118
1050	0.190474
1062	0.164243
1074	0.148486
1086	0.158775
1098	0.207992
1110	0.302534
1122	0.49032
1134	0.767642
1146	0.755036
1158	0.559557
1170	0.421545
1182	0.313285
1194	0.258136
1206	0.258692
1218	0.309856
1230	0.367971
1242	0.373255
1254	0.441844
1266	0.536015
1278	0.532771
1290	0.489763
1302	0.331823
1314	0.179073
1326	0.112338
1338	0.11586
1350	0.0924099
1362	0.0851803
1374	0.092688
1386	0.0782287
1398	0.084068
1410	0.102884
1422	0.136529
1434	0.0992688
1446	0.101586
1458	0.101123
1470	0.0637693
1482	0.0379094
1494	0.0278991
1506	0.0295675
1518	0.0286406
1530	0.0260453
1542	0.0245623
1554	0.0241916
1566	0.0271576
1578	0.0280845
1590	0.0277137
1602	0.0316993
1614	0.037724
1626	0.0380948
1638	0.0383728
1650	0.0442122
1662	0.0510711
1674	0.0683111
1686	0.109279
1698	0.168785
1710	0.189825
1722	0.218095
1734	0.33516
1746	0.570124
1758	0.870433
1770	0.806478
1782	0.377889
1794	0.185932
1806	0.100381
1818	0.0545005
1830	0.0337384
1842	0.0240989
1854	0.0189084
1866	0.0174253
1878	0.0166838
1890	0.0164985
1902	0.0164985
1914	0.015757
1926	0.015757
1938	0.015757
1950	0.016035
1962	0.0165912
1974	0.0161277
1986	0.0166838
1998	0.0165912
2010	0.0165912
2022	0.0164058
2034	0.0159423
2046	0.0150155
2058	0.0148301
2070	0.0143666
2082	0.0140886
2094	0.0136251
2106	0.0137178
2118	0.0133471
2130	0.013069
2142	0.0128836
2154	0.0127909
2166	0.0127909
2178	0.0125129
2190	0.0121421
2202	0.0118641
2214	0.0119568
2226	0.0114006
2238	0.0112152
2250	0.0116787
2262	0.0114006
2274	0.0118641
2286	0.0114933
2298	0.0123275
2310	0.0128836
2322	0.0150155
2334	0.0163131
2346	0.0169619
2358	0.0163131
2370	0.0155716
2382	0.013069
2394	0.0121421
2406	0.0117714
2418	0.011586
2430	0.0124202
2442	0.0120494
2454	0.0124202
2466	0.0119568
2478	0.0119568
2490	0.0124202
2502	0.0123275
2514	0.0129763
2526	0.0125129
2538	0.0127909
2550	0.0131617
2562	0.0138105
2574	0.0146447
2586	0.0152935
2598	0.0190937
2610	0.0136251
2622	0.0131617
2634	0.0125129
2646	0.0127909
2658	0.013069
2670	0.0128836
2682	0.0127909
2694	0.0125129
2706	0.0128836
2718	0.0124202
2730	0.014274
2742	0.0134398
2754	0.0139959
2766	0.0132544
2778	0.0147374
2790	0.0137178
2802	0.016035
2814	0.0168692
2826	0.0225232
2838	0.0293821
2850	0.0508857
2862	0.0644182
2874	0.0533883
2886	0.0555201
2898	0.0682184
2910	0.087034
2922	0.118177
2934	0.139681
2946	0.134676
2958	0.141257
2970	0.12828
2982	0.0807312
2994	0.0575592
3006	0.0452317
3018	0.0330896
3030	0.0234501
3042	0.019001
3054	0.0161277
3066	0.0152008
3078	0.0150155
3090	0.0143666
3102	0.0139032
3114	0.0140886
3126	0.0136251
3138	0.013069
3150	0.0131617
3162	0.0135324
3174	0.013069
3186	0.0128836
3198	0.013069
3210	0.0132544
3222	0.0129763
3234	0.013069
3246	0.0129763
3258	0.0131617
3270	0.0125129
3282	0.0127909
3294	0.0134398
3306	0.0127909
3318	0.0132544
3330	0.0127909
3342	0.0128836
3354	0.0131617
3366	0.0132544
3378	0.0135324
3390	0.0128836
3402	0.0136251
3414	0.0144593
3426	0.0129763
3438	0.0143666
3450	0.0139959
3462	0.0139032
3474	0.0147374
3486	0.0159423
3498	0.0174253
3510	0.0179815
3522	0.0156643
3534	0.0144593
3546	0.0134398
3558	0.0173327
3570	0.0324408
3582	0.0360556
3594	0.0229866
3606	0.0150155
3618	0.0133471
3630	0.0126983
3642	0.0136251
3654	0.0119568
3666	0.0148301
3678	0.0143666
3690	0.0112152
3702	0.0136251
3714	0.0128836
3726	0.014274
3738	0.0144593
3750	0.0105664
3762	0.0136251
3774	0.0133471
3786	0.0136251
3798	0.0144593
3810	0.0166838
3822	0.0138105
3834	0.0164058
3846	0.0135324
3858	0.0139032
3870	0.0152008
3882	0.014552
3894	0.0136251
3906	0.0152008
3918	0.0135324
3930	0.0149228
3942	0.0126056
3954	0.0133471
3966	0.0162204
