Infrared Spectrum: Pentanoic acid, 4-oxo-
Formula: C 5 H 8 O 3
CAS: 123-76-2
Origin: Sadtler Research Labs Under US-EPA Contract
1/CM	ABSORBANCE
450	0
462	0.05632
474	0.0647004
486	0.0653312
498	0.0711885
510	0.0540672
522	0.0544276
534	0.0516342
546	0.0510935
558	0.075604
570	0.0735314
582	0.107684
594	0.0983122
606	0.0752435
618	0.0843448
630	0.109126
642	0.101646
654	0.0654213
666	0.0488407
678	0.0403702
690	0.0337019
702	0.0264929
714	0.0212664
726	0.0238797
738	0.020095
750	0.0416317
762	0.0431636
774	0.0402801
786	0.0355041
798	0.0299172
810	0.0231588
822	0.0180224
834	0.0191939
846	0.0210862
858	0.0212664
870	0.0242401
882	0.0275743
894	0.0275743
906	0.0337019
918	0.0328909
930	0.0341524
942	0.0393789
954	0.0347832
966	0.043434
978	0.0562299
990	0.0524452
1002	0.0472187
1014	0.0588431
1026	0.0691159
1038	0.0848855
1050	0.115524
1062	0.140665
1074	0.140394
1086	0.132735
1098	0.179864
1110	0.357114
1122	0.775053
1134	0.880665
1146	0.483721
1158	0.328909
1170	0.270336
1182	0.202932
1194	0.189686
1206	0.181486
1218	0.151388
1230	0.125886
1242	0.111378
1254	0.107594
1266	0.12084
1278	0.127779
1290	0.106512
1302	0.0888504
1314	0.0895713
1326	0.116875
1338	0.163734
1350	0.220054
1362	0.314941
1374	0.299352
1386	0.231678
1398	0.193741
1410	0.157696
1422	0.161841
1434	0.143819
1446	0.102638
1458	0.0715489
1470	0.0510034
1482	0.0356844
1494	0.0336118
1506	0.0330711
1518	0.03217
1530	0.028926
1542	0.0291963
1554	0.0270336
1566	0.0247808
1578	0.0238797
1590	0.0215368
1602	0.022528
1614	0.0244204
1626	0.0279347
1638	0.0275743
1650	0.0306381
1662	0.0306381
1674	0.0419922
1686	0.061186
1698	0.0937165
1710	0.156885
1722	0.31386
1734	0.526524
1746	0.590324
1758	0.5468
1770	0.759013
1782	0.878051
1794	0.59546
1806	0.262046
1818	0.13688
1830	0.081281
1842	0.0481198
1854	0.0318095
1866	0.0251412
1878	0.0220774
1890	0.022528
1902	0.0218071
1914	0.0205455
1926	0.0191939
1938	0.0175718
1950	0.0172114
1962	0.0172114
1974	0.0162202
1986	0.0159498
1998	0.0162202
2010	0.01613
2022	0.0162202
2034	0.0154092
2046	0.0146883
2058	0.0147784
2070	0.0150487
2082	0.0154092
2094	0.0159498
2106	0.0156795
2118	0.0157696
2130	0.0156795
2142	0.0155894
2154	0.0158597
2166	0.01613
2178	0.0163103
2190	0.0166707
2202	0.0159498
2214	0.0155894
2226	0.0155894
2238	0.0162202
2250	0.0166707
2262	0.0166707
2274	0.01613
2286	0.0159498
2298	0.0158597
2310	0.0164004
2322	0.0169411
2334	0.0163103
2346	0.0168509
2358	0.0172114
2370	0.0164905
2382	0.0164004
2394	0.0155894
2406	0.0155894
2418	0.0154993
2430	0.0155894
2442	0.015319
2454	0.0155894
2466	0.0151388
2478	0.0151388
2490	0.0155894
2502	0.0156795
2514	0.0160399
2526	0.0157696
2538	0.0147784
2550	0.0141476
2562	0.0145981
2574	0.0147784
2586	0.0147784
2598	0.0146883
2610	0.0146883
2622	0.0146883
2634	0.0150487
2646	0.0155894
2658	0.0150487
2670	0.0162202
2682	0.0158597
2694	0.0160399
2706	0.0163103
2718	0.01613
2730	0.0165806
2742	0.0169411
2754	0.0173015
2766	0.0172114
2778	0.0177521
2790	0.0181125
2802	0.0191037
2814	0.0218071
2826	0.0252314
2838	0.0282051
2850	0.035414
2862	0.0473088
2874	0.0516342
2886	0.0521748
2898	0.057131
2910	0.0879493
2922	0.134177
2934	0.15319
2946	0.130122
2958	0.108225
2970	0.0985825
2982	0.0710083
2994	0.0550584
3006	0.0542474
3018	0.0521748
3030	0.0398295
3042	0.0310886
3054	0.0285655
3066	0.0287457
3078	0.0273039
3090	0.0242401
3102	0.0227082
3114	0.0209961
3126	0.0194642
3138	0.0187433
3150	0.0178422
3162	0.0171213
3174	0.0170312
3186	0.0165806
3198	0.0169411
3210	0.0172114
3222	0.0166707
3234	0.0164905
3246	0.0164905
3258	0.0164004
3270	0.0164905
3282	0.0164905
3294	0.0168509
3306	0.0166707
3318	0.0173015
3330	0.0164905
3342	0.0171213
3354	0.0173015
3366	0.0168509
3378	0.0173015
3390	0.0182927
3402	0.0188334
3414	0.018473
3426	0.0199148
3438	0.0212664
3450	0.0237896
3462	0.0250511
3474	0.0215368
3486	0.0182927
3498	0.018473
3510	0.0193741
3522	0.0229786
3534	0.0263127
3546	0.0306381
3558	0.0503726
3570	0.237986
3582	0.3217
3594	0.113541
3606	0.0339722
3618	0.02415
3630	0.0205455
3642	0.0181125
3654	0.0183828
3666	0.0160399
3678	0.0181125
3690	0.0155894
3702	0.015319
3714	0.0173015
3726	0.0166707
3738	0.0167608
3750	0.0178422
3762	0.0150487
3774	0.014508
3786	0.0150487
3798	0.0165806
3810	0.0149586
3822	0.0169411
3834	0.0163103
3846	0.0144179
3858	0.0170312
3870	0.0173916
3882	0.0164905
3894	0.0155894
3906	0.0180224
3918	0.0178422
3930	0.0173916
3942	0.0154993
3954	0.0173015
3966	0.0173015
