Infrared Spectrum: Phenol, 4-ethyl-
Formula: C 8 H 10 O
CAS: 123-07-9
Origin: Sadtler Research Labs Under US-EPA Contract
1/CM	ABSORBANCE
450	0.0407312
462	0.0329608
474	0.0564751
486	0.0421024
498	0.0362619
510	0.0488063
522	0.0520567
534	0.0628743
546	0.0560688
558	0.032199
570	0.0223463
582	0.0023362
594	0.00543421
606	0.00416453
618	0.0011681
630	0.00177754
642	0.00284407
654	0.0027425
666	0.00218384
678	0.00457083
690	0.0066531
702	0.0145251
714	0.0237175
726	0.0259014
738	0.0163534
750	0.00924323
762	0.00827828
774	0.0121889
786	0.0220416
798	0.0453528
810	0.0795324
822	0.115083
834	0.123108
846	0.0692735
858	0.0181817
870	0.00792277
882	0.00604365
894	0.00309801
906	0.00370745
918	0.00441847
930	0.00558657
942	0.00731333
954	0.00578972
966	0.00614523
978	0.00584051
990	0.00568814
1002	0.00777041
1014	0.0132554
1026	0.0125444
1038	0.0136109
1050	0.0191975
1062	0.0228542
1074	0.0197054
1086	0.020975
1098	0.0347891
1110	0.0427119
1122	0.0433213
1134	0.0337734
1146	0.0385981
1158	0.138852
1170	0.460029
1182	0.421634
1194	0.155916
1206	0.0730825
1218	0.0542913
1230	0.0623664
1242	0.128288
1254	0.286489
1266	0.20264
1278	0.0302691
1290	0.0256474
1302	0.0315387
1314	0.0463685
1326	0.0758758
1338	0.064855
1350	0.0324529
1362	0.0168613
1374	0.0143219
1386	0.0171152
1398	0.0114271
1410	0.0167089
1422	0.0351954
1434	0.0533264
1446	0.0489587
1458	0.0296088
1470	0.0322497
1482	0.0392584
1494	0.0557641
1506	0.231538
1518	0.324427
1530	0.0918229
1542	0.0192483
1554	0.00843064
1566	0.0141188
1578	0.021686
1590	0.0565767
1602	0.0908072
1614	0.0878615
1626	0.0556118
1638	0.0236667
1650	0.0097511
1662	0.0110208
1674	0.00553578
1686	0.000203148
1698	0.00126968
1710	0.00771962
1722	0.00675467
1734	0.00365666
1746	0.00736412
1758	0.00777041
1770	0.0043169
1782	0.00411375
1794	0.00243778
1806	0.00497713
1818	0.00558657
1830	0.00421532
1842	0.00634837
1854	0.01097
1866	0.0115286
1878	0.0128999
1890	0.008583
1902	0.00690703
1914	0.00441847
1926	0.00385981
1938	0.00401217
1950	0.00396139
1962	0.0043169
1974	0.00487555
1986	0.00492634
1998	0.0039106
2010	0.00416453
2022	0.00309801
2034	0.00319958
2046	0.00253935
2058	0.00314879
2070	0.00304722
2082	0.0039106
2094	0.00380903
2106	0.00238699
2118	0.00121889
2130	0.000711018
2142	0.000711018
2154	0.000914166
2166	0.000304722
2178	0.000558657
2190	0.000355509
2202	0
2214	0.000355509
2226	0.000711018
2238	0.000660231
2250	0.000863379
2262	0.00101574
2274	0.00167597
2286	0.00238699
2298	0.00309801
2310	0.00330116
2322	0.00355509
2334	0.00330116
2346	0.0043169
2358	0.00416453
2370	0.000914166
2382	0.0023362
2394	0.00162518
2406	0.00264092
2418	0.00553578
2430	0.00802435
2442	0.00492634
2454	0.00289486
2466	0.00208227
2478	0.00259014
2490	0.00340273
2502	0.00401217
2514	0.00401217
2526	0.00269171
2538	0.00213305
2550	0.00218384
2562	0.00228541
2574	0.00208227
2586	0.00299643
2598	0.00345352
2610	0.00335194
2622	0.00360588
2634	0.0035043
2646	0.00319958
2658	0.0027425
2670	0.00259014
2682	0.00284407
2694	0.00304722
2706	0.00228541
2718	0.00238699
2730	0.00304722
2742	0.00380903
2754	0.00421532
2766	0.00563736
2778	0.00604365
2790	0.00543421
2802	0.005485
2814	0.00609444
2826	0.00878615
2838	0.0136109
2850	0.0209242
2862	0.0369729
2874	0.0596747
2886	0.0724223
2898	0.0663278
2910	0.062468
2922	0.0688672
2934	0.099898
2946	0.118384
2958	0.108329
2970	0.189994
2982	0.158049
2994	0.0594716
3006	0.0626712
3018	0.0835446
3030	0.0822749
3042	0.0734888
3054	0.0507362
3066	0.0393599
3078	0.0297612
3090	0.0212798
3102	0.0166073
3114	0.0143727
3126	0.0119349
3138	0.00919245
3150	0.00746569
3162	0.00578972
3174	0.00634837
3186	0.00568814
3198	0.0046724
3210	0.0039106
3222	0.00340273
3234	0.00370745
3246	0.00365666
3258	0.00365666
3270	0.00319958
3282	0.00309801
3294	0.00304722
3306	0.00365666
3318	0.00345352
3330	0.00355509
3342	0.00457083
3354	0.00518027
3366	0.00578972
3378	0.00609444
3390	0.0050787
3402	0.00512949
3414	0.00416453
3426	0.00375824
3438	0.00462162
3450	0.00370745
3462	0.00319958
3474	0.00360588
3486	0.00253935
3498	0.0023362
3510	0.00248856
3522	0.00203148
3534	0.00187912
3546	0.00142204
3558	0.00142204
3570	0.000609444
3582	0.00345352
3594	0.00198069
3606	0.00360588
3618	0.00563736
3630	0.0156424
3642	0.0921276
3654	0.174149
3666	0.107922
3678	0.0097511
3690	0.00401217
3702	0.00416453
3714	0.00182833
3726	0.00411375
3738	0.000203148
3750	0.00177754
3762	0.0027425
3774	0.00335194
3786	0.00253935
3798	0.00198069
3810	0.00457083
3822	0.0043169
3834	0.00370745
3846	0.00340273
3858	0.00436768
3870	0.00401217
3882	0.00436768
3894	0.0027425
3906	0.00477398
3918	0.00406296
3930	0.00487555
3942	0.00553578
3954	0.00472319
3966	0.00401217
