Infrared Spectrum: Acetic acid, butyl ester
Formula: C 6 H 12 O 2
CAS: 123-86-4
Origin: Sadtler Research Labs Under US-EPA Contract
1/CM	ABSORBANCE
450	0.00126699
462	0.00197968
474	0.0042761
486	0.00324667
498	0.00372179
510	0.00403854
522	0.00324667
534	0.00332585
546	0.00269236
558	0.00277154
570	0.00356341
582	0.00459285
594	0.00974
606	0.0155207
618	0.0151247
630	0.0186089
642	0.014808
654	0.00498878
666	0.000554309
678	0.00110862
690	0.0011878
702	0.000950244
714	0.00150455
726	0.00340504
738	0.00657252
750	0.00593902
762	0.00340504
774	0.00292992
786	0.00459285
798	0.00617659
810	0.00783951
822	0.00799789
834	0.011878
846	0.0132242
858	0.0119572
870	0.0102943
882	0.00989837
894	0.0108486
906	0.013145
918	0.014412
930	0.0128283
942	0.016946
954	0.0235185
966	0.0201927
978	0.0191633
990	0.018213
1002	0.0291408
1014	0.0576481
1026	0.107694
1038	0.130183
1050	0.106031
1062	0.0995381
1074	0.108724
1086	0.0730896
1098	0.0413356
1110	0.0265276
1122	0.020747
1134	0.0159166
1146	0.0134618
1158	0.013541
1170	0.0141745
1182	0.0213013
1194	0.0400686
1206	0.0968457
1218	0.281035
1230	0.707377
1242	0.69257
1254	0.320232
1266	0.159641
1278	0.0917777
1290	0.0470371
1302	0.0335753
1314	0.025815
1326	0.0187673
1338	0.017342
1350	0.0282698
1362	0.0985878
1374	0.13834
1386	0.0835423
1398	0.0626369
1410	0.0287449
1422	0.0194008
1434	0.024548
1446	0.0329418
1458	0.0437904
1470	0.0456909
1482	0.0322291
1494	0.0191633
1506	0.0133826
1518	0.0112446
1530	0.00902732
1542	0.00744358
1554	0.00720602
1566	0.00585984
1578	0.00483041
1590	0.00467203
1602	0.00467203
1614	0.00514715
1626	0.00490959
1638	0.00514715
1650	0.00625577
1662	0.00712683
1674	0.00768114
1686	0.0091065
1698	0.0130659
1710	0.0214597
1722	0.0376138
1734	0.075386
1746	0.191633
1758	0.43347
1770	0.422146
1782	0.160433
1794	0.0498086
1806	0.0215389
1818	0.0124324
1830	0.00894813
1842	0.00696846
1854	0.00522634
1866	0.00483041
1878	0.00372179
1890	0.0036426
1902	0.00372179
1914	0.00324667
1926	0.00221724
1938	0.00221724
1950	0.00229642
1962	0.00229642
1974	0.00277154
1986	0.00237561
1998	0.00285073
2010	0.00277154
2022	0.00269236
2034	0.00277154
2046	0.00308829
2058	0.00324667
2070	0.00277154
2082	0.00388016
2094	0.00372179
2106	0.00308829
2118	0.00237561
2130	0.0018213
2142	0.0018213
2154	0.0018213
2166	0.0018213
2178	0.00190049
2190	0.0018213
2202	0.00134618
2214	0.00134618
2226	0.00134618
2238	0.00134618
2250	0.00142537
2262	0.00079187
2274	0.000871057
2286	0.00079187
2298	0.00158374
2310	0.00213805
2322	0.00292992
2334	0.00229642
2346	0.000871057
2358	0.00205886
2370	0
2382	0
2394	0.000871057
2406	0.000950244
2418	0.000871057
2430	0.000475122
2442	0.000871057
2454	0.000871057
2466	0.00142537
2478	0.000871057
2490	0.000633496
2502	0.000395935
2514	0.000395935
2526	0.000316748
2538	0.000395935
2550	0.000475122
2562	0.000395935
2574	0.000475122
2586	0.000475122
2598	0.000475122
2610	0.000475122
2622	0.000554309
2634	0.000554309
2646	0.000237561
2658	0.000871057
2670	0.00110862
2682	0.00102943
2694	0.000554309
2706	0.00110862
2718	0.00158374
2730	0.00197968
2742	0.00269236
2754	0.00332585
2766	0.00277154
2778	0.00253398
2790	0.00308829
2802	0.00419691
2814	0.00506797
2826	0.00704764
2838	0.0104527
2850	0.0194008
2862	0.0322291
2874	0.0551933
2886	0.0801372
2898	0.0714267
2910	0.0679424
2922	0.0859971
2934	0.11783
2946	0.16067
2958	0.184902
2970	0.234156
2982	0.173974
2994	0.0701597
3006	0.0309621
3018	0.0187673
3030	0.0155207
3042	0.0147288
3054	0.0125907
3066	0.0100567
3078	0.00815626
3090	0.00681008
3102	0.00530553
3114	0.00530553
3126	0.00395935
3138	0.00300911
3150	0.00277154
3162	0.00324667
3174	0.00285073
3186	0.00277154
3198	0.00229642
3210	0.00237561
3222	0.00237561
3234	0.00237561
3246	0.00237561
3258	0.0018213
3270	0.00190049
3282	0.00205886
3294	0.00126699
3306	0.00237561
3318	0.00134618
3330	0.00190049
3342	0.0018213
3354	0.00158374
3366	0.00142537
3378	0.00253398
3390	0.00150455
3402	0.00221724
3414	0.00142537
3426	0.00197968
3438	0.0024548
3450	0.00213805
3462	0.00150455
3474	0.0024548
3486	0.00340504
3498	0.00498878
3510	0.00522634
3522	0.00395935
3534	0.00158374
3546	0.00197968
3558	0.00134618
3570	0.000871057
3582	0.0011878
3594	0.00150455
3606	0.00166293
3618	0.00174211
3630	0.000475122
3642	0.00110862
3654	0.00102943
3666	0.000554309
3678	0.000475122
3690	0
3702	0.000633496
3714	0.000395935
3726	0.000316748
3738	0
3750	0
3762	0
3774	0
3786	0
3798	0.000316748
3810	0
3822	0.000633496
3834	0.000237561
3846	0.000237561
3858	0.000237561
3870	0
3882	0
3894	7.9187e-05
3906	7.9187e-05
3918	0.000554309
3930	0.000475122
3942	0.000950244
3954	0.000475122
3966	0.00134618
