Infrared Spectrum: 2-Pentanone, 4-hydroxy-4-methyl-
Formula: C 6 H 12 O 2
CAS: 123-42-2
Origin: Sadtler Research Labs Under US-EPA Contract
1/CM	ABSORBANCE
450	0.148547
462	0.0985172
474	0.122645
486	0.128581
498	0.171904
510	0.205206
522	0.190097
534	0.132513
546	0.0676053
558	0.0370018
570	0.029216
582	0.0238199
594	0.0326078
606	0.0769328
618	0.0796309
630	0.0377726
642	0.0124881
654	0.00470231
666	0.00362309
678	0.00346891
690	0.00154174
702	0.00308348
714	0.00215844
726	0.000462522
738	0.00408561
750	0.00809414
762	0.0133361
774	0.0148007
786	0.0149549
798	0.0139527
810	0.0259783
822	0.0304494
834	0.0198114
846	0.0167279
858	0.0186551
870	0.026595
882	0.0387748
894	0.0570444
906	0.087725
918	0.104684
930	0.100676
942	0.117481
954	0.149934
966	0.137754
978	0.0950483
990	0.0651385
1002	0.056736
1014	0.057584
1026	0.0541151
1038	0.0387748
1050	0.0282909
1062	0.0276742
1074	0.0303723
1086	0.0393915
1098	0.0659865
1110	0.126808
1122	0.210987
1134	0.28368
1146	0.312896
1158	0.324536
1170	0.424749
1182	0.456972
1194	0.340031
1206	0.300177
1218	0.29347
1230	0.212991
1242	0.134054
1254	0.116016
1266	0.105224
1278	0.0898064
1290	0.106611
1302	0.16697
1314	0.249454
1326	0.292237
1338	0.272194
1350	0.342343
1362	0.579232
1374	0.688849
1386	0.598658
1398	0.401238
1410	0.200195
1422	0.152941
1434	0.141455
1446	0.140684
1458	0.136907
1470	0.124033
1482	0.0871854
1494	0.0495669
1506	0.0385435
1518	0.0342266
1530	0.0284451
1542	0.0320682
1554	0.0260554
1566	0.0242824
1578	0.0260554
1590	0.0245908
1602	0.0319911
1614	0.06113
1626	0.0990568
1638	0.106303
1650	0.0862604
1662	0.0465605
1674	0.0622863
1686	0.120487
1698	0.234884
1710	0.52504
1722	0.764549
1734	0.607754
1746	0.28422
1758	0.132281
1770	0.074389
1782	0.0362309
1794	0.0250533
1806	0.0175758
1818	0.00886501
1830	0.00955879
1842	0.007092
1854	0.00508774
1866	0.00655239
1878	0.00485648
1890	0.00447105
1902	0.00462522
1914	0.00223552
1926	0.00138757
1938	0.00277513
1950	0.00138757
1962	0.00231261
1974	0.00323765
1986	0.00138757
1998	0.00131048
2010	0.00123339
2022	0.000231261
2034	0.00154174
2046	0.00200426
2058	0.000925044
2070	0.00254387
2082	0.00246678
2094	0.00246678
2106	0.00331474
2118	0.00277513
2130	0.00339183
2142	0.00454813
2154	0.00408561
2166	0.00377726
2178	0.00400852
2190	0.00292931
2202	0.00262096
2214	0.00262096
2226	0.00169591
2238	0.00208135
2250	0.00208135
2262	0.00161883
2274	0.00185009
2286	0.00192718
2298	0.00100213
2310	0.000847957
2322	0.000385435
2334	0.000616696
2346	0.00262096
2358	0.000154174
2370	0.00316057
2382	0.00316057
2394	0.00131048
2406	0.00100213
2418	0.00138757
2430	0.00146465
2442	0.001773
2454	0.00169591
2466	0.000847957
2478	0.00138757
2490	0.00161883
2502	0.00161883
2514	0.00246678
2526	0.00285222
2538	0.0023897
2550	0.00269805
2562	0.00208135
2574	0.00154174
2586	0.00208135
2598	0.000925044
2610	0.00138757
2622	0.001773
2634	0.00161883
2646	0.00192718
2658	0.00192718
2670	0.00146465
2682	0.00161883
2694	0.00215844
2706	0.00277513
2718	0.00477939
2730	0.00585861
2742	0.00624405
2754	0.00786287
2766	0.0083254
2778	0.00894209
2790	0.0100984
2802	0.0110234
2814	0.0146465
2826	0.0195801
2838	0.0262867
2850	0.0362309
2862	0.0529588
2874	0.0830998
2886	0.126114
2898	0.168975
2910	0.194182
2922	0.232109
2934	0.270421
2946	0.262096
2958	0.243132
2970	0.374103
2982	0.606829
2994	0.434848
3006	0.143921
3018	0.085952
3030	0.0544234
3042	0.0360767
3054	0.0304494
3066	0.0284451
3078	0.0267492
3090	0.0240511
3102	0.0186551
3114	0.0134902
3126	0.010638
3138	0.00793996
3150	0.00701492
3162	0.00716909
3174	0.007092
3186	0.00724618
3198	0.00840248
3210	0.00716909
3222	0.00732326
3234	0.00693783
3246	0.00454813
3258	0.00277513
3270	0.00200426
3282	0.00146465
3294	0.00223552
3306	0.00231261
3318	0.00185009
3330	0.003546
3342	0.00362309
3354	0.00323765
3366	0.00439396
3378	0.00585861
3390	0.00994422
3402	0.0115631
3414	0.0137986
3426	0.0191176
3438	0.0248991
3450	0.0235886
3462	0.0171133
3474	0.0110234
3486	0.00824831
3498	0.0128735
3510	0.0309119
3522	0.0546547
3534	0.0556568
3546	0.0773183
3558	0.223398
3570	0.252922
3582	0.129737
3594	0.0716909
3606	0.0396227
3618	0.0245908
3630	0.0276742
3642	0.0336099
3654	0.0227407
3666	0.00624405
3678	0.00786287
3690	0.00192718
3702	0.00200426
3714	0.00300639
3726	0.00223552
3738	0.00370018
3750	0.003546
3762	0.00316057
3774	0.00161883
3786	7.7087e-05
3798	0.000539609
3810	0.000693783
3822	0.00308348
3834	0.00115631
3846	0.00339183
3858	0.00323765
3870	0.00362309
3882	0.00223552
3894	0.00316057
3906	0.00570444
3918	0.00431687
3930	0.0023897
3942	0.00292931
3954	0.00254387
3966	0.000154174
