Infrared Spectrum: Hexanoic acid, ethyl ester
Formula: C 8 H 16 O 2
CAS: 123-66-0
Origin: Sadtler Research Labs Under US-EPA Contract
1/CM	ABSORBANCE
450	0.0393544
462	0.0230839
474	0.0106776
486	0.0153553
498	0.012508
510	0.0110843
522	0.0121012
534	0.00538962
546	0.00610146
558	0.00599977
570	0.00772852
582	0.00783021
594	0.0105759
606	0.0113894
618	0.0106776
630	0.015457
642	0.00732175
654	0.00783021
666	0.00416933
678	0.00732175
690	0.00132198
702	0.00538962
714	0.00864373
726	0.0161689
738	0.0237957
750	0.0178976
762	0.0144401
774	0.0146435
786	0.0136266
798	0.0143384
810	0.00986403
822	0.00884712
834	0.00701668
846	0.016779
858	0.0286769
870	0.0256261
882	0.0178976
894	0.0174909
906	0.0137283
918	0.0177959
930	0.0220669
942	0.0227788
954	0.0217619
966	0.01383
978	0.0101691
990	0.0117962
1002	0.0177959
1014	0.0509472
1026	0.121317
1038	0.216907
1050	0.189857
1062	0.107996
1074	0.104233
1086	0.145215
1098	0.256566
1110	0.308022
1122	0.239787
1134	0.164943
1146	0.227381
1158	0.503676
1170	0.842307
1182	0.715701
1194	0.433305
1206	0.353071
1218	0.37524
1230	0.401985
1242	0.440424
1254	0.370054
1266	0.235821
1278	0.183654
1290	0.171044
1302	0.179891
1314	0.177247
1326	0.137283
1338	0.135351
1350	0.155689
1362	0.125995
1374	0.20928
1386	0.139622
1398	0.0742344
1410	0.0526759
1422	0.0617264
1434	0.0842001
1446	0.101996
1458	0.132503
1470	0.142672
1482	0.077997
1494	0.0325411
1506	0.0128131
1518	0.0068133
1530	0.00416933
1542	0.00254228
1554	0.00233889
1566	0.00132198
1578	0.00132198
1590	0.00142367
1602	0.00183044
1614	0.00142367
1626	0.000813528
1638	0.00142367
1650	0.00162706
1662	0.00518624
1674	0.0079319
1686	0.0143384
1698	0.0275583
1710	0.0539979
1722	0.100471
1734	0.259515
1746	0.736141
1758	1.01691
1770	0.473168
1782	0.128334
1794	0.0496252
1806	0.0272532
1818	0.0163723
1830	0.00894881
1842	0.00518624
1854	0.00345749
1866	0.00274566
1878	0.00294904
1890	0.00345749
1902	0.00305073
1914	0.00244058
1926	0.00264397
1938	0.00294904
1950	0.00305073
1962	0.00315242
1974	0.00254228
1986	0.00172875
1998	0.00203382
2010	0.00233889
2022	0.0033558
2034	0.0044744
2046	0.00396595
2058	0.00294904
2070	0.00254228
2082	0.00284735
2094	0.00244058
2106	0.00162706
2118	0.000915219
2130	0.000610146
2142	0.000711837
2154	0.000305073
2166	0.000610146
2178	0.000305073
2190	0.000305073
2202	0.000406764
2214	0.000305073
2226	0.000711837
2238	0.000711837
2250	0.00101691
2262	0.00132198
2274	0.00142367
2286	0.00162706
2298	0.00122029
2310	0.00183044
2322	0.00315242
2334	0.00294904
2346	0.00132198
2358	0.00233889
2370	0.000610146
2382	0.00172875
2394	0.00152536
2406	0.00213551
2418	0.00203382
2430	0.00172875
2442	0.00142367
2454	0.000813528
2466	0.00152536
2478	0.00152536
2490	0.000711837
2502	0.000305073
2514	0.000915219
2526	0.000813528
2538	0.00132198
2550	0.00142367
2562	0.00162706
2574	0.00213551
2586	0.00213551
2598	0.0022372
2610	0.00294904
2622	0.00284735
2634	0.0033558
2646	0.00427102
2658	0.00518624
2670	0.00599977
2682	0.00660992
2694	0.0068133
2706	0.00630484
2718	0.0068133
2730	0.00925388
2742	0.0112877
2754	0.011186
2766	0.0109826
2778	0.0128131
2790	0.015152
2802	0.0185078
2814	0.0239991
2826	0.0339648
2838	0.0494218
2850	0.0874543
2862	0.188027
2874	0.273956
2886	0.282904
2898	0.220466
2910	0.267854
2922	0.407476
2934	0.603638
2946	0.677059
2958	0.565097
2970	0.663635
2982	0.5172
2994	0.335479
3006	0.174095
3018	0.0916236
3030	0.0507438
3042	0.0324394
3054	0.0229822
3066	0.0177959
3078	0.0153553
3090	0.0133215
3102	0.0109826
3114	0.0104742
3126	0.00996572
3138	0.00884712
3150	0.00813528
3162	0.00752513
3174	0.0068133
3186	0.00691499
3198	0.00630484
3210	0.00498286
3222	0.00325411
3234	0.00284735
3246	0.00244058
3258	0.00142367
3270	0.00132198
3282	0.00101691
3294	0.000813528
3306	0.000813528
3318	0.00101691
3330	0.00183044
3342	0.00142367
3354	0.000915219
3366	0.00142367
3378	0.00142367
3390	0.00193213
3402	0.00132198
3414	0.00152536
3426	0.00132198
3438	0.00122029
3450	0.00203382
3462	0.00254228
3474	0.00518624
3486	0.00925388
3498	0.00966065
3510	0.00406764
3522	0.00244058
3534	0.00152536
3546	0.00193213
3558	0.000203382
3570	0.00203382
3582	0.00152536
3594	0.0022372
3606	0.00172875
3618	0.000305073
3630	0.00183044
3642	0.00162706
3654	0.00244058
3666	0.000915219
3678	0.00152536
3690	0.000406764
3702	0.00193213
3714	0.00233889
3726	0.00233889
3738	0.00162706
3750	0.0011186
3762	0.00101691
3774	0.00132198
3786	0.0011186
3798	0.00142367
3810	0.00132198
3822	0.000915219
3834	0.00122029
3846	0.000305073
3858	0.00203382
3870	0.000406764
3882	0.000610146
3894	0.00274566
3906	0.00101691
3918	0.00274566
3930	0.00366088
3942	0.0044744
3954	0.000508455
3966	0.00274566
