Infrared Spectrum: 1-Pentanol, 2,2,4-trimethyl-
Formula: C 8 H 18 O
CAS: 123-44-4
Origin: Sadtler Research Labs Under US-EPA Contract
1/CM	ABSORBANCE
450	0.00234477
462	0.0130428
474	0.00747395
486	0.0076205
498	0.0156806
510	0.0206633
522	0.0331198
534	0.0128962
546	0.0150944
558	0.0206633
570	0.0233011
582	0.0120169
594	0.0174392
606	0.0124566
618	0.00879288
630	0.0127497
642	0.0112842
654	0.0112842
666	0.0149479
678	0.0146548
690	0.0150944
702	0.0133359
714	0.0111376
726	0.0133359
738	0.0191978
750	0.0227149
762	0.00981872
774	0.0155341
786	0.0143617
798	0.0142152
810	0
822	0.0211029
834	0.0215426
846	0.0233011
858	0.0282838
870	0.0281372
882	0.0344388
894	0.0455764
906	0.0452833
918	0.0389818
930	0.0394214
942	0.0470419
954	0.0696103
966	0.0835324
978	0.0766446
990	0.0895408
1002	0.090127
1014	0.11167
1026	0.232718
1038	0.570218
1050	0.611252
1062	0.230227
1074	0.0836789
1086	0.0662397
1098	0.0531969
1110	0.0458695
1122	0.0442575
1134	0.0540762
1146	0.0721016
1158	0.0986268
1170	0.117385
1182	0.0904201
1194	0.0737136
1206	0.0644811
1218	0.0581796
1230	0.0573003
1242	0.0592054
1254	0.0618433
1266	0.0634553
1278	0.0643346
1290	0.064188
1302	0.0602312
1314	0.0537831
1326	0.0539297
1338	0.062576
1350	0.0933511
1362	0.173073
1374	0.21777
1386	0.179521
1398	0.14772
1410	0.0760584
1422	0.0461626
1434	0.0498263
1446	0.085584
1458	0.158272
1470	0.243856
1482	0.227149
1494	0.0954027
1506	0.0334129
1518	0.018465
1530	0.0121635
1542	0.0158272
1554	0.0117238
1566	0.0114307
1578	0.0114307
1590	0.0102584
1602	0.00893943
1614	0.0115773
1626	0.00937907
1638	0.0121635
1650	0.00879288
1662	0.00835324
1674	0.00908598
1686	0.0109911
1698	0.00849978
1710	0.00835324
1722	0.00791359
1734	0.00718085
1746	0.00644811
1758	0.00498263
1770	0.00571537
1782	0.00586192
1794	0.00571537
1806	0.00674121
1818	0.00586192
1830	0.00512918
1842	0.00483608
1854	0.00483608
1866	0.00439644
1878	0.00512918
1890	0.00527573
1902	0.00454299
1914	0.00439644
1926	0.00381025
1938	0.00483608
1950	0.00468954
1962	0.00483608
1974	0.00498263
1986	0.00498263
1998	0.00454299
2010	0.00542228
2022	0.00483608
2034	0.00556882
2046	0.00586192
2058	0.00688776
2070	0.00791359
2082	0.00820669
2094	0.00674121
2106	0.00527573
2118	0.00454299
2130	0.00454299
2142	0.00483608
2154	0.00454299
2166	0.00483608
2178	0.00439644
2190	0.00439644
2202	0.00454299
2214	0.00468954
2226	0.00498263
2238	0.00498263
2250	0.00483608
2262	0.00483608
2274	0.00424989
2286	0.00454299
2298	0.00600847
2310	0.0070343
2322	0.0070343
2334	0.00586192
2346	0.00454299
2358	0.00600847
2370	0.00512918
2382	0.00586192
2394	0.00556882
2406	0.00615502
2418	0.00527573
2430	0.00424989
2442	0.00322406
2454	0.00307751
2466	0.00351715
2478	0.00351715
2490	0.00278441
2502	0.00322406
2514	0.00249132
2526	0.00234477
2538	0.00219822
2550	0.00307751
2562	0.00527573
2574	0.0070343
2586	0.00806014
2598	0.00864633
2610	0.00908598
2622	0.00893943
2634	0.0105515
2646	0.0111376
2658	0.0124566
2670	0.0139221
2682	0.0153875
2694	0.0183185
2706	0.0222753
2718	0.0290165
2730	0.0372232
2742	0.0369301
2754	0.0354646
2766	0.0373697
2778	0.0379559
2790	0.0420593
2802	0.0495332
2814	0.0608174
2826	0.0781101
2838	0.112989
2850	0.189047
2862	0.315664
2874	0.572416
2886	0.666647
2898	0.61726
2910	0.746222
2922	0.752817
2934	0.746222
2946	0.848073
2958	1.25196
2970	1.38268
2982	0.702111
2994	0.242537
3006	0.100092
3018	0.0479212
3030	0.0300423
3042	0.0225684
3054	0.0190512
3066	0.0178789
3078	0.0177323
3090	0.0165599
3102	0.0162668
3114	0.0145083
3126	0.0145083
3138	0.0145083
3150	0.0153875
3162	0.0161203
3174	0.0177323
3186	0.0180254
3198	0.0167065
3210	0.0137755
3222	0.0112842
3234	0.00820669
3246	0.00659466
3258	0.00644811
3270	0.00674121
3282	0.00586192
3294	0.00586192
3306	0.00512918
3318	0.00644811
3330	0.00791359
3342	0.00776704
3354	0.00747395
3366	0.00688776
3378	0.00688776
3390	0.0073274
3402	0.00747395
3414	0.00615502
3426	0.00586192
3438	0.00439644
3450	0.00556882
3462	0.0039568
3474	0.00381025
3486	0.00439644
3498	0.00556882
3510	0.00556882
3522	0.00556882
3534	0.00439644
3546	0.0039568
3558	0.00278441
3570	0.00175858
3582	0.00542228
3594	0.00600847
3606	0.00512918
3618	0.00718085
3630	0.0108446
3642	0.015241
3654	0.0408869
3666	0.104049
3678	0.115773
3690	0.0539297
3702	0.016853
3714	0.00879288
3726	0.00205167
3738	0.00293096
3750	0.00908598
3762	0.0073274
3774	0.00776704
3786	0.00688776
3798	0.00835324
3810	0.00630156
3822	0.00893943
3834	0.0121635
3846	0.0108446
3858	0.00893943
3870	0.00879288
3882	0.00776704
3894	0.0111376
3906	0.0112842
3918	0.00996526
3930	0.00454299
3942	0.00556882
3954	0.00864633
3966	0.00600847
