Infrared Spectrum: Hydroquinone
Formula: C 6 H 6 O 2
CAS: 123-31-9
Origin: Sadtler Research Labs Under US-EPA Contract
1/CM	ABSORBANCE
450	0.0584264
462	0.0213393
474	0.0424504
486	0.0767987
498	0.132258
510	0.178132
522	0.097111
534	0.0259039
546	0.0114114
558	0.00399399
570	0.00833032
582	0.0116396
594	0.000684684
606	0.0111832
618	0.011982
630	0.00924323
642	0.00764564
654	0.0132372
666	0.00114114
678	0.00935735
690	0.0215675
702	0.0143784
714	0.0139219
726	0.0160901
738	0.0833032
750	0.315753
762	0.324768
774	0.0558017
786	0.0495255
798	0.0829609
810	0.165808
822	0.30206
834	0.191483
846	0.093117
858	0.0416516
870	0.0317237
882	0.0285285
894	0.0192853
906	0.0139219
918	0.0143784
930	0.0146066
942	0.0133513
954	0.0142642
966	0.00912912
978	0.00924323
990	0.00810209
1002	0.0126667
1014	0.013009
1026	0.0115255
1038	0.01997
1050	0.0324084
1062	0.0387988
1074	0.0758858
1086	0.125525
1098	0.117994
1110	0.0668708
1122	0.0529489
1134	0.0716636
1146	0.251735
1158	0.728618
1170	1.12573
1182	1.0074
1194	0.683429
1206	0.28597
1218	0.191826
1230	0.292588
1242	0.636642
1254	0.600696
1266	0.112516
1278	0.065045
1290	0.0753152
1302	0.0964263
1314	0.169003
1326	0.269994
1338	0.191712
1350	0.0433633
1362	0.0196276
1374	0.0114114
1386	0.0117537
1398	0.019057
1410	0.041994
1422	0.0611651
1434	0.0992792
1446	0.164667
1458	0.124042
1470	0.0596816
1482	0.0613933
1494	0.212937
1506	0.937675
1518	1.12859
1530	0.369273
1542	0.0342342
1554	0.0201982
1566	0.0240781
1578	0.0284144
1590	0.0348048
1602	0.0538618
1614	0.0573993
1626	0.0312672
1638	0.024991
1650	0.0204264
1662	0.0318378
1674	0.0578558
1686	0.0567147
1698	0.0157477
1710	0.0184865
1722	0.0139219
1734	0.000342342
1746	0.00502102
1758	0.00787387
1770	0.00604804
1782	0.00810209
1794	0.00684684
1806	0.0107267
1818	0.0143784
1830	0.0156336
1842	0.0176877
1854	0.0217958
1866	0.0157477
1878	0.0135796
1890	0.00867266
1902	0.0103844
1914	0.00992792
1926	0.011982
1938	0.0114114
1950	0.00958558
1962	0.00867266
1974	0.00855855
1986	0.00992792
1998	0.0143784
2010	0.0203123
2022	0.0164324
2034	0.00947146
2046	0.00775975
2058	0.00810209
2070	0.00890089
2082	0.00969969
2094	0.0111832
2106	0.0102703
2118	0.00696095
2130	0.00604804
2142	0.00536336
2154	0.00604804
2166	0.00593393
2178	0.00593393
2190	0.00513513
2202	0.00559159
2214	0.00559159
2226	0.00559159
2238	0.0065045
2250	0.00753152
2262	0.00787387
2274	0.00696095
2286	0.00661861
2298	0.00821621
2310	0.00992792
2322	0.0115255
2334	0.0141501
2346	0.0142642
2358	0.0146066
2370	0.0124384
2382	0.00969969
2394	0.00798798
2406	0.0123243
2418	0.0174594
2430	0.0175736
2442	0.0128949
2454	0.00890089
2466	0.00753152
2478	0.00878678
2490	0.0117537
2502	0.0128949
2514	0.00878678
2526	0.00342342
2538	0.00273874
2550	0.00216817
2562	0.00262462
2574	0.00319519
2586	0.00433633
2598	0.00445045
2610	0.00445045
2622	0.00353753
2634	0.00319519
2646	0.00182582
2658	0.00251051
2670	0.00296696
2682	0.00285285
2694	0.00308108
2706	0.00273874
2718	0.0015976
2730	0.00136937
2742	0.000798798
2754	0.00216817
2766	0.00308108
2778	0.00353753
2790	0.00193994
2802	0.00148348
2814	0.00102703
2826	0.0015976
2838	0.00273874
2850	0.00627627
2862	0.00547747
2874	0.00296696
2886	0.00456456
2898	0.00593393
2910	0.00935735
2922	0.0138078
2934	0.0115255
2946	0.00616216
2958	0.00365165
2970	0.00273874
2982	0.00182582
2994	0.00422222
3006	0.0173453
3018	0.0701801
3030	0.118907
3042	0.0966546
3054	0.052036
3066	0.0394834
3078	0.030012
3090	0.0196276
3102	0.013009
3114	0.0109549
3126	0.00947146
3138	0.00707507
3150	0.00445045
3162	0.00353753
3174	0.00251051
3186	0.00296696
3198	0.00285285
3210	0.00296696
3222	0.00285285
3234	0.00216817
3246	0.00239639
3258	0.00308108
3270	0.00205405
3282	0.00330931
3294	0.00228228
3306	0.00205405
3318	0.00239639
3330	0.00205405
3342	0.00422222
3354	0.00285285
3366	0.00273874
3378	0.00422222
3390	0.00387988
3402	0.00513513
3414	0.00536336
3426	0.00502102
3438	0.00513513
3450	0.00365165
3462	0.00365165
3474	0.00422222
3486	0.00205405
3498	0.00296696
3510	0.00273874
3522	0.00422222
3534	0.00433633
3546	0.000798798
3558	0.00136937
3570	0.00239639
3582	0.00376576
3594	0.00479279
3606	0.00855855
3618	0.011982
3630	0.0457597
3642	0.197645
3654	0.516138
3666	0.454402
3678	0.0930029
3690	0.0124384
3702	0.0015976
3714	0.000342342
3726	0.000342342
3738	0.000342342
3750	0
3762	0.000342342
3774	0.000342342
3786	0.000342342
3798	0.00296696
3810	0.00422222
3822	0.000342342
3834	0.000342342
3846	0.00205405
3858	0.00296696
3870	0.00251051
3882	0.00581981
3894	0.00536336
3906	0.00057057
3918	0.00696095
3930	0.00696095
3942	0.000228228
3954	0.00057057
3966	0.000798798
