Infrared Spectrum: 2,4-Pentanedione
Formula: C 5 H 8 O 2
CAS: 123-54-6
Origin: Sadtler Research Labs Under US-EPA Contract
1/CM	ABSORBANCE
450	0.00813946
462	0.0236044
474	0.023023
486	0.0312788
498	0.0484879
510	0.0640692
522	0.0688366
534	0.0695342
546	0.0494182
558	0.0302323
570	0.0216277
582	0.0234882
594	0.0225579
606	0.023837
618	0.0262788
630	0.0212789
642	0.0253486
654	0.0239533
666	0.00651157
678	0.0047674
690	0.00337206
702	0.00058139
714	0.00232556
726	0.00546507
738	0.0169766
750	0.060232
762	0.111394
774	0.114418
786	0.067325
798	0.0256974
810	0.0079069
822	0.00697668
834	0.00651157
846	0.00941852
858	0.0177905
870	0.0288369
882	0.0480228
894	0.0863946
906	0.146394
918	0.156161
930	0.108952
942	0.115115
954	0.113022
966	0.0949991
978	0.0796504
990	0.0772086
1002	0.0763946
1014	0.0619762
1026	0.0481391
1038	0.0397671
1050	0.0331392
1062	0.0284881
1074	0.0248835
1086	0.0227905
1098	0.0219765
1110	0.0231393
1122	0.0316276
1134	0.0541855
1146	0.105348
1158	0.179998
1170	0.221742
1182	0.183952
1194	0.125929
1206	0.126627
1218	0.169184
1230	0.260695
1242	0.334299
1254	0.327206
1266	0.259067
1278	0.214184
1290	0.202324
1302	0.203603
1314	0.194533
1326	0.178836
1338	0.183719
1350	0.237323
1362	0.32116
1374	0.318253
1386	0.229649
1398	0.230463
1410	0.263253
1422	0.296625
1434	0.305811
1446	0.294648
1458	0.277672
1470	0.244881
1482	0.204533
1494	0.184766
1506	0.185115
1518	0.196626
1530	0.207905
1542	0.223137
1554	0.239184
1566	0.281276
1578	0.361508
1590	0.510809
1602	0.777551
1614	1.07394
1626	1.15173
1638	0.926503
1650	0.642203
1662	0.414531
1674	0.275579
1686	0.213138
1698	0.210812
1710	0.291044
1722	0.368718
1734	0.337439
1746	0.21651
1758	0.140929
1770	0.110929
1782	0.0890689
1794	0.0741854
1806	0.0662785
1818	0.0380229
1830	0.023023
1842	0.0181394
1854	0.0156975
1866	0.0127906
1878	0.0095348
1890	0.00906968
1902	0.0095348
1914	0.00976735
1926	0.00872085
1938	0.00744179
1950	0.00616273
1962	0.00674412
1974	0.00720924
1986	0.0068604
1998	0.00604646
2010	0.0047674
2022	0.00255812
2034	0.000465112
2046	0.000232556
2058	0.00139534
2070	0.000813946
2082	0.00186045
2094	0.00255812
2106	0.00151161
2118	0.00116278
2130	0.00116278
2142	0.0010465
2154	0.002093
2166	0.00139534
2178	0.00058139
2190	0.000697668
2202	0.000465112
2214	0.000348834
2226	0.00162789
2238	0.002093
2250	0.00244184
2262	0.00290695
2274	0.00453484
2286	0.00488368
2298	0.0047674
2310	0.0047674
2322	0.00593018
2334	0.00546507
2346	0.00593018
2358	0.00872085
2370	0.00406973
2382	0.00453484
2394	0.00720924
2406	0.00651157
2418	0.00569762
2430	0.00593018
2442	0.00546507
2454	0.00546507
2466	0.00662785
2478	0.00604646
2490	0.00651157
2502	0.00662785
2514	0.00755807
2526	0.00906968
2538	0.0103487
2550	0.0102325
2562	0.00872085
2574	0.00813946
2586	0.00860457
2598	0.00976735
2610	0.0106976
2622	0.0120929
2634	0.0136045
2646	0.0151161
2658	0.0155813
2670	0.0170929
2682	0.0165115
2694	0.0165115
2706	0.0176743
2718	0.0176743
2730	0.017558
2742	0.0181394
2754	0.0179068
2766	0.0186045
2778	0.018837
2790	0.0189533
2802	0.021744
2814	0.0229068
2826	0.0244184
2838	0.0273253
2850	0.0282556
2862	0.0286044
2874	0.0270928
2886	0.0270928
2898	0.0299997
2910	0.0358136
2922	0.0496507
2934	0.0708133
2946	0.0719761
2958	0.0574413
2970	0.0570925
2982	0.053953
2994	0.0525577
3006	0.0567437
3018	0.0615111
3030	0.0558134
3042	0.0456973
3054	0.0399996
3066	0.0375578
3078	0.0362787
3090	0.0325578
3102	0.0254649
3114	0.0184882
3126	0.0151161
3138	0.0111627
3150	0.00895341
3162	0.0079069
3174	0.0068604
3186	0.0058139
3198	0.00488368
3210	0.00627901
3222	0.00662785
3234	0.00558134
3246	0.0068604
3258	0.00662785
3270	0.0058139
3282	0.0047674
3294	0.0058139
3306	0.00360462
3318	0.00325578
3330	0.00418601
3342	0.00430229
3354	0.000813946
3366	0.00337206
3378	0.00360462
3390	0.00720924
3402	0.00430229
3414	0.00639529
3426	0.00802318
3438	0.0110464
3450	0.00976735
3462	0.0102325
3474	0.00720924
3486	0.00674412
3498	0.00662785
3510	0.00627901
3522	0.00674412
3534	0.00872085
3546	0.00802318
3558	0.0110464
3570	0.0140696
3582	0.017558
3594	0.0141859
3606	0.0120929
3618	0.00976735
3630	0.00930224
3642	0.00697668
3654	0.00837202
3666	0.00918596
3678	0.00918596
3690	0.00860457
3702	0.00976735
3714	0.00988363
3726	0.00999991
3738	0.00918596
3750	0.00965107
3762	0.00988363
3774	0.00860457
3786	0.00988363
3798	0.00895341
3810	0.00837202
3822	0.00732551
3834	0.00999991
3846	0.00988363
3858	0.00895341
3870	0.0109301
3882	0.0101162
3894	0.00976735
3906	0.00965107
3918	0.0106976
3930	0.00999991
3942	0.0110464
3954	0.00720924
3966	0.00848829
