Infrared Spectrum: Benzaldehyde, 4-hydroxy-
Formula: C 7 H 6 O 2
CAS: 123-08-0
Origin: Sadtler Research Labs Under US-EPA Contract
1/CM	ABSORBANCE
450	0
462	0.00183425
474	0.00842394
486	0.0269702
498	0.0460599
510	0.0464675
522	0.0238452
534	0.00822013
546	0.00373643
558	0.0065897
570	0.0193615
582	0.0423235
594	0.0802312
606	0.0682747
618	0.0231658
630	0.0174593
642	0.0211957
654	0.0109375
666	0.00360056
678	0.00414404
690	0.00312501
702	0.00366849
714	0.00230979
726	0.00230979
738	0.00278534
750	0.00339675
762	0.0126359
774	0.0338996
786	0.0406931
798	0.0483697
810	0.0900139
822	0.124049
834	0.126699
846	0.161481
858	0.153261
870	0.0337637
882	0.00563861
894	0.00326088
906	0.00373643
918	0.00550274
930	0.00427991
942	0.00190218
954	0.00305708
966	0.00203805
978	0.00380436
990	0.0054348
1002	0.00937503
1014	0.00910329
1026	0.00652176
1038	0.00692937
1050	0.00957884
1062	0.0110734
1074	0.0140625
1086	0.0347148
1098	0.0520382
1110	0.0434105
1122	0.037636
1134	0.07106
1146	0.229416
1158	0.507067
1170	0.384104
1182	0.413724
1194	0.342324
1206	0.147147
1218	0.127242
1230	0.0683426
1242	0.0572692
1254	0.195177
1266	0.381319
1278	0.178397
1290	0.0426632
1302	0.0635192
1314	0.0672557
1326	0.0754079
1338	0.0610056
1350	0.0364132
1362	0.0242528
1374	0.0173914
1386	0.0366849
1398	0.0379757
1410	0.0228262
1422	0.0302311
1434	0.0732339
1446	0.0597149
1458	0.0120924
1470	0.00760872
1482	0.0079484
1494	0.0328126
1506	0.111142
1518	0.112093
1530	0.0419159
1542	0.0235734
1554	0.016712
1566	0.0247963
1578	0.102106
1590	0.31943
1602	0.56882
1614	0.388316
1626	0.102106
1638	0.0383833
1650	0.0243207
1662	0.0158289
1674	0.032405
1686	0.0569975
1698	0.1589
1710	0.453874
1722	0.660056
1734	0.288452
1746	0.0310463
1758	0.0139267
1770	0.0131794
1782	0.00835601
1794	0.00828807
1806	0.00781253
1818	0.00665763
1830	0.005231
1842	0.00380436
1854	0.00414404
1866	0.005231
1878	0.00570654
1890	0.00883155
1902	0.0093071
1914	0.00855981
1926	0.00489132
1938	0.00292121
1950	0.00237773
1962	0.00339675
1974	0.00495926
1986	0.00584241
1998	0.00448371
2010	0.00645383
2022	0.00713318
2034	0.00448371
2046	0.00516306
2058	0.00373643
2070	0.00312501
2082	0.00217392
2094	0.00224186
2106	0.00292121
2118	0.00339675
2130	0.00230979
2142	0.00163044
2154	0.00142664
2166	0.00040761
2178	0.00040761
2190	0.00040761
2202	0.00040761
2214	0.00040761
2226	0.00156251
2238	0.00142664
2250	0.00197012
2262	0.00244566
2274	0.00326088
2286	0.00434784
2298	0.00489132
2310	0.0054348
2322	0.0065897
2334	0.00421197
2346	0.00509513
2358	0.00502719
2370	0.00448371
2382	0.00427991
2394	0.00353262
2406	0.00509513
2418	0.00618209
2430	0.00686144
2442	0.00835601
2454	0.00964677
2466	0.00652176
2478	0.00441578
2490	0.00421197
2502	0.00461958
2514	0.00570654
2526	0.00686144
2538	0.00611415
2550	0.00414404
2562	0.00373643
2574	0.00373643
2586	0.00448371
2598	0.00577448
2610	0.00625002
2622	0.00686144
2634	0.00733698
2646	0.00726905
2658	0.00862775
2670	0.0141305
2682	0.0217392
2694	0.0305708
2706	0.0516306
2718	0.109375
2730	0.128465
2742	0.0747285
2754	0.0319974
2766	0.026155
2778	0.0357338
2790	0.061685
2802	0.0947014
2814	0.0939541
2826	0.0645383
2838	0.0389947
2850	0.0161006
2862	0.00713318
2874	0.00475545
2886	0.00557067
2898	0.00604622
2910	0.00604622
2922	0.00604622
2934	0.00563861
2946	0.00414404
2958	0.00264947
2970	0.00360056
2982	0.00455164
2994	0.0065897
3006	0.0126359
3018	0.0266985
3030	0.0368208
3042	0.0343072
3054	0.0263588
3066	0.0224865
3078	0.0215354
3090	0.0153533
3102	0.0106658
3114	0.00910329
3126	0.00611415
3138	0.00298914
3150	0.00183425
3162	0.000747285
3174	0.00122283
3186	0.00176631
3198	0.00149457
3210	0.00183425
3222	0.00176631
3234	0.00081522
3246	0.000611415
3258	0.00081522
3270	0.00081522
3282	0.00129077
3294	0.0013587
3306	0.00339675
3318	0.00326088
3330	0.00326088
3342	0.00380436
3354	0.00224186
3366	0.00258153
3378	0.00278534
3390	0.00339675
3402	0.00699731
3414	0.0114131
3426	0.0107337
3438	0.00427991
3450	0.00149457
3462	0.00149457
3474	0.00108696
3486	0.00095109
3498	0.00108696
3510	0.00142664
3522	0.00095109
3534	0.00149457
3546	0.00163044
3558	0.00210599
3570	0.00142664
3582	0.00373643
3594	0.00400817
3606	0.00305708
3618	0.010462
3630	0.054348
3642	0.22337
3654	0.221944
3666	0.0483018
3678	0.00801633
3690	0.00230979
3702	0.0011549
3714	0.00129077
3726	0.0013587
3738	0.00197012
3750	0.00122283
3762	0.000611415
3774	0.000611415
3786	0.000475545
3798	0.00108696
3810	0.00054348
3822	0.00108696
3834	0.00122283
3846	0.00108696
3858	0.00108696
3870	0.00122283
3882	0.00129077
3894	0.00101903
3906	0.0013587
3918	0.00108696
3930	0.00149457
3942	0.00101903
3954	0.0013587
3966	0.00197012
