Infrared Spectrum: Paraldehyde
Formula: C 6 H 12 O 3
CAS: 123-63-7
Origin: Sadtler Research Labs Under US-EPA Contract
1/CM	ABSORBANCE
450	0.00628983
462	0.0166495
474	0.0312642
486	0.0218294
498	0.00184995
510	0.00425488
522	0.0123947
534	0.0109147
546	0.00573484
558	0.00425488
570	0.00869477
582	0.00924975
594	0.00573484
606	0.00573484
618	0.00462487
630	0.00536485
642	0.00665982
654	0.00702981
666	0.00684481
678	0.00480987
690	0.00351491
702	0.00443988
714	0.00351491
726	0.00610484
738	0.0105447
750	0.0218294
762	0.0281192
774	0.0173895
786	0.00776979
798	0.00850977
810	0.00536485
822	0.0136896
834	0.0419939
846	0.0902776
858	0.127092
870	0.0801028
882	0.0233094
894	0.0162796
906	0.0220144
918	0.0410689
930	0.119137
942	0.273978
954	0.332066
966	0.144296
978	0.0431038
990	0.0231244
1002	0.0184995
1014	0.0177595
1026	0.0184995
1038	0.0201645
1050	0.0288592
1062	0.0399589
1074	0.0575334
1086	0.153176
1098	0.493937
1110	0.792889
1122	0.646188
1134	0.317636
1146	0.18518
1158	0.285077
1170	0.806393
1182	1.63906
1194	1.19044
1206	0.19184
1218	0.0486537
1230	0.0225694
1242	0.0135046
1254	0.0105447
1266	0.0120247
1278	0.0138746
1290	0.0151696
1302	0.0168345
1314	0.0290442
1326	0.0852827
1338	0.333176
1350	0.627688
1362	0.1948
1374	0.224954
1386	0.346496
1398	0.445283
1410	0.268428
1422	0.0577184
1434	0.0440288
1446	0.0913875
1458	0.138931
1470	0.0553135
1482	0.0160946
1494	0.0075848
1506	0.00443988
1518	0.00332991
1530	0.00332991
1542	0.00166496
1554	0.00480987
1566	0.00443988
1578	0.00499487
1590	0.00536485
1602	0.00591984
1614	0.00517986
1626	0.00480987
1638	0.00406989
1650	0.00573484
1662	0.00480987
1674	0.00240493
1686	0.00258993
1698	0.0036999
1710	0.00721481
1722	0.00721481
1734	0.00647483
1746	0.0123947
1758	0.0212744
1770	0.0247893
1782	0.0188695
1794	0.0123947
1806	0.00961974
1818	0.00628983
1830	0.00351491
1842	0.00295992
1854	0.00332991
1866	0.00295992
1878	0.00351491
1890	0.00425488
1902	0.00462487
1914	0.00406989
1926	0.00425488
1938	0.00517986
1950	0.00665982
1962	0.00832477
1974	0.0101747
1986	0.0120247
1998	0.00813978
2010	0.00943474
2022	0.0129497
2034	0.0133196
2046	0.0101747
2058	0.00665982
2070	0.00425488
2082	0.00258993
2094	0.00184995
2106	0.00147996
2118	0.00147996
2130	0.00147996
2142	0.00166496
2154	0.00129496
2166	0.000924975
2178	0.00129496
2190	0.00221994
2202	0.00277493
2214	0.00351491
2226	0.0036999
2238	0.00314491
2250	0.0036999
2262	0.0036999
2274	0.00295992
2286	0.00425488
2298	0.00443988
2310	0.00351491
2322	0.00221994
2334	0.00036999
2346	0.00036999
2358	0.00036999
2370	0.00036999
2382	0.00203494
2394	0.00147996
2406	0.000924975
2418	0.00036999
2430	0.000924975
2442	0.00129496
2454	0.00166496
2466	0.00221994
2478	0.00351491
2490	0.00573484
2502	0.00443988
2514	0.00295992
2526	0.00277493
2538	0.00240493
2550	0.00406989
2562	0.00591984
2574	0.00536485
2586	0.00591984
2598	0.0107297
2610	0.0221994
2622	0.0247893
2634	0.0153546
2646	0.0146146
2658	0.0257143
2670	0.0479137
2682	0.037554
2694	0.0201645
2706	0.0201645
2718	0.0295992
2730	0.0495787
2742	0.0412539
2754	0.038294
2766	0.0471737
2778	0.0588284
2790	0.072333
2802	0.0597534
2814	0.0847277
2826	0.142261
2838	0.242158
2850	0.275643
2862	0.184995
2874	0.123022
2886	0.101562
2898	0.0973074
2910	0.0764029
2922	0.038664
2934	0.0342241
2946	0.126167
2958	0.130421
2970	0.0294142
2982	0.0205344
2994	0.130421
3006	0.333731
3018	0.191285
3030	0.0223844
3042	0.00776979
3054	0.0075848
3066	0.00406989
3078	0.00443988
3090	0.00647483
3102	0.00591984
3114	0.00684481
3126	0.00665982
3138	0.00499487
3150	0.00665982
3162	0.00813978
3174	0.00610484
3186	0.00591984
3198	0.00591984
3210	0.00536485
3222	0.00443988
3234	0.00221994
3246	0.00129496
3258	0.00203494
3270	0.00277493
3282	0.00295992
3294	0.00203494
3306	0.000924975
3318	0.00147996
3330	0.00129496
3342	0.000924975
3354	0.00184995
3366	0.00073998
3378	0.00147996
3390	0.00166496
3402	0.00147996
3414	0.00147996
3426	0.00240493
3438	0.00184995
3450	0.00129496
3462	0.00166496
3474	0.00203494
3486	0.00240493
3498	0.00184995
3510	0.00147996
3522	0.00166496
3534	0.00203494
3546	0.00240493
3558	0.00240493
3570	0.00295992
3582	0.0036999
3594	0.00332991
3606	0.00240493
3618	0.00240493
3630	0.00277493
3642	0.00147996
3654	0.00110997
3666	0.00277493
3678	0.00166496
3690	0.00184995
3702	0.00258993
3714	0.00166496
3726	0.00314491
3738	0.0036999
3750	0.00425488
3762	0.00351491
3774	0.00295992
3786	0.00295992
3798	0.00258993
3810	0.00480987
3822	0.00351491
3834	0.00277493
3846	0.00517986
3858	0.00314491
3870	0.00406989
3882	0.00425488
3894	0.00240493
3906	0.00554985
3918	0.0036999
3930	0.00517986
3942	0.00462487
3954	0.00406989
3966	0.00517986
