Infrared Spectrum: Octadecanoic acid, butyl ester
Formula: C 22 H 44 O 2
CAS: 123-95-5
Origin: Sadtler Research Labs Under US-EPA Contract
1/CM	ABSORBANCE
450	0
462	0.0665153
474	0.0710163
486	0.085734
498	0.0760889
510	0.0768748
522	0.0833049
534	0.0743028
546	0.0764462
558	0.0818045
570	0.0750173
582	0.0791611
594	0.0933072
606	0.0802327
618	0.0804471
630	0.0781608
642	0.0788753
654	0.0775178
666	0.077232
678	0.0776607
690	0.0800898
702	0.0817331
714	0.0866628
726	0.0859483
738	0.0843765
750	0.0828048
762	0.081233
774	0.0800898
786	0.0789467
798	0.0788038
810	0.0789467
822	0.079304
834	0.0788753
846	0.0800184
858	0.0800898
870	0.08059
882	0.0807329
894	0.0801613
906	0.0803756
918	0.0806614
930	0.0805185
942	0.0833763
954	0.0873058
966	0.088949
978	0.0878059
990	0.086377
1002	0.0901636
1014	0.0973795
1026	0.100094
1038	0.0945932
1050	0.094236
1062	0.104595
1074	0.109525
1086	0.108811
1098	0.113598
1110	0.122743
1122	0.126672
1134	0.13203
1146	0.164109
1158	0.194402
1170	0.20619
1182	0.1869
1194	0.163252
1206	0.151821
1218	0.150463
1230	0.156465
1242	0.159965
1254	0.149177
1266	0.137746
1278	0.123957
1290	0.114026
1302	0.112312
1314	0.109382
1326	0.105024
1338	0.108811
1350	0.117741
1362	0.112526
1374	0.0998087
1386	0.0983083
1398	0.0896635
1410	0.0825904
1422	0.0855911
1434	0.0950933
1446	0.106239
1458	0.12853
1470	0.123171
1482	0.0918068
1494	0.0788038
1506	0.0743028
1518	0.0723738
1530	0.0717308
1542	0.0704448
1554	0.0709449
1566	0.0697303
1578	0.0704448
1590	0.069516
1602	0.069516
1614	0.0691588
1626	0.0699447
1638	0.0690873
1650	0.0694445
1662	0.0693017
1674	0.0693731
1686	0.0722309
1698	0.0743028
1710	0.0815902
1722	0.0943788
1734	0.124314
1746	0.231553
1758	0.257845
1770	0.12953
1782	0.0922355
1794	0.0779465
1806	0.0725881
1818	0.0697303
1830	0.067587
1842	0.067587
1854	0.0675155
1866	0.0663724
1878	0.0666582
1890	0.0661581
1902	0.0661581
1914	0.0659437
1926	0.0659437
1938	0.0653722
1950	0.0659437
1962	0.0654436
1974	0.0653007
1986	0.0654436
1998	0.0653007
2010	0.0653722
2022	0.0654436
2034	0.0653722
2046	0.0653722
2058	0.0652293
2070	0.0647292
2082	0.0646577
2094	0.0641576
2106	0.0639433
2118	0.0640147
2130	0.0638718
2142	0.0633717
2154	0.0637289
2166	0.0634432
2178	0.0633003
2190	0.0631574
2202	0.062943
2214	0.0630145
2226	0.0630859
2238	0.0628716
2250	0.062943
2262	0.0626573
2274	0.0623715
2286	0.0625858
2298	0.0623
2310	0.0615141
2322	0.0612998
2334	0.0612284
2346	0.0617999
2358	0.0611569
2370	0.0620857
2382	0.0628002
2394	0.0626573
2406	0.0622286
2418	0.0620857
2430	0.0620857
2442	0.0620857
2454	0.0620857
2466	0.0621572
2478	0.0620143
2490	0.0624429
2502	0.0626573
2514	0.0630145
2526	0.0631574
2538	0.0630859
2550	0.0630145
2562	0.0635146
2574	0.0635861
2586	0.0638718
2598	0.0642291
2610	0.0645148
2622	0.0646577
2634	0.0653007
2646	0.065658
2658	0.0661581
2670	0.0670869
2682	0.0674441
2694	0.0676584
2706	0.0670154
2718	0.0670154
2730	0.067587
2742	0.0683729
2754	0.068873
2766	0.0692302
2778	0.0705162
2790	0.072731
2802	0.0762318
2814	0.0804471
2826	0.0875916
2838	0.100595
2850	0.147391
2862	0.297926
2874	0.245271
2886	0.199546
2898	0.195545
2910	0.268062
2922	0.434171
2934	0.71445
2946	0.485683
2958	0.308357
2970	0.301998
2982	0.188043
2994	0.119742
3006	0.0937358
3018	0.0828762
3030	0.0774464
3042	0.0738027
3054	0.0711592
3066	0.0690873
3078	0.0684443
3090	0.0676584
3102	0.066944
3114	0.0664438
3126	0.0658723
3138	0.0655865
3150	0.0653722
3162	0.0654436
3174	0.0652293
3186	0.0648006
3198	0.0645148
3210	0.0645148
3222	0.0640862
3234	0.0638004
3246	0.0632288
3258	0.0630145
3270	0.0632288
3282	0.0630859
3294	0.0632288
3306	0.0630859
3318	0.062943
3330	0.0631574
3342	0.0630859
3354	0.0625144
3366	0.0625144
3378	0.0628716
3390	0.0630145
3402	0.0633717
3414	0.0636575
3426	0.0634432
3438	0.0634432
3450	0.0630859
3462	0.0635861
3474	0.0633003
3486	0.0633003
3498	0.0633717
3510	0.0625144
3522	0.0625144
3534	0.0628002
3546	0.0619428
3558	0.0620143
3570	0.0631574
3582	0.0635861
3594	0.0619428
3606	0.0633717
3618	0.0628716
3630	0.0630859
3642	0.0635146
3654	0.0630859
3666	0.0654436
3678	0.062943
3690	0.0637289
3702	0.0635861
3714	0.0633003
3726	0.0635146
3738	0.0639433
3750	0.0653007
3762	0.0643005
3774	0.0639433
3786	0.0646577
3798	0.0636575
3810	0.0650864
3822	0.0633717
3834	0.0640147
3846	0.0639433
3858	0.0643719
3870	0.0634432
3882	0.0630859
3894	0.0639433
3906	0.0643719
3918	0.062943
3930	0.0634432
3942	0.0637289
3954	0.0633003
3966	0.0638718
