Infrared Spectrum: 3-Heptene, 2,2,4,6,6-pentamethyl-
Formula: C 12 H 24
CAS: 123-48-8
Origin: Sadtler Research Labs Under US-EPA Contract
1/CM	ABSORBANCE
450	0
462	0.0318336
474	0.0176518
486	0.025497
498	0.0211218
510	0.0206692
522	0.025497
534	0.025497
546	0.0190096
558	0.0153887
570	0.0134274
582	0.0144835
594	0.0156905
606	0.0141818
618	0.0175009
630	0.0191605
642	0.0158414
654	0.015087
666	0.0134274
678	0.015087
690	0.0155396
702	0.0146344
714	0.0158414
726	0.0205183
738	0.0230831
750	0.0184061
762	0.0165957
774	0.0155396
786	0.0203674
798	0.0187079
810	0.0215744
822	0.0221779
834	0.0209709
846	0.033644
858	0.0488819
870	0.0396788
882	0.0350018
894	0.0330405
906	0.0360579
918	0.0310792
930	0.0276092
942	0.0223288
954	0.0217253
966	0.0223288
978	0.0233848
990	0.0312301
1002	0.0470714
1014	0.0363597
1026	0.0368123
1038	0.0360579
1050	0.0443558
1062	0.0343984
1074	0.0250444
1086	0.0211218
1098	0.0199148
1110	0.0217253
1122	0.0226305
1134	0.0253462
1146	0.0448084
1158	0.0461662
1170	0.0330405
1182	0.0381701
1194	0.0716632
1206	0.0841855
1218	0.0778489
1230	0.1127
1242	0.0840346
1254	0.0547658
1266	0.0425453
1278	0.0271566
1290	0.025497
1302	0.0224796
1314	0.0250444
1326	0.0294196
1338	0.0318336
1350	0.0509941
1362	0.161884
1374	0.22721
1386	0.120394
1398	0.122808
1410	0.0540115
1422	0.0426962
1434	0.0525028
1446	0.0721159
1458	0.109079
1470	0.181346
1482	0.207748
1494	0.0772454
1506	0.033644
1518	0.0229322
1530	0.0199148
1542	0.0182553
1554	0.0179535
1566	0.0168974
1578	0.016294
1590	0.0161431
1602	0.0159922
1614	0.0159922
1626	0.0176518
1638	0.0209709
1650	0.0250444
1662	0.0194622
1674	0.0155396
1686	0.0176518
1698	0.0206692
1710	0.0242901
1722	0.023234
1734	0.0202166
1746	0.0208201
1758	0.0191605
1770	0.0188588
1782	0.01735
1794	0.0149361
1806	0.0143326
1818	0.0135783
1830	0.0123713
1842	0.0123713
1854	0.0126731
1866	0.0125222
1878	0.0131257
1890	0.0125222
1902	0.0123713
1914	0.0120696
1926	0.0122205
1938	0.0120696
1950	0.0119187
1962	0.011617
1974	0.0113152
1986	0.011617
1998	0.0114661
2010	0.011617
2022	0.0119187
2034	0.0117679
2046	0.0117679
2058	0.0113152
2070	0.0110135
2082	0.01041
2094	0.0107118
2106	0.0110135
2118	0.011617
2130	0.011617
2142	0.0114661
2154	0.0110135
2166	0.011617
2178	0.0114661
2190	0.0111644
2202	0.0110135
2214	0.0111644
2226	0.0108626
2238	0.0105609
2250	0.0108626
2262	0.0110135
2274	0.0111644
2286	0.0119187
2298	0.0119187
2310	0.0110135
2322	0.0108626
2334	0.01041
2346	0.0107118
2358	0.0111644
2370	0.0113152
2382	0.0120696
2394	0.0119187
2406	0.011617
2418	0.0113152
2430	0.01041
2442	0.0101083
2454	0.0101083
2466	0.0101083
2478	0.01041
2490	0.0107118
2502	0.0105609
2514	0.0108626
2526	0.0108626
2538	0.0111644
2550	0.0114661
2562	0.0125222
2574	0.0123713
2586	0.0125222
2598	0.0131257
2610	0.0132766
2622	0.0143326
2634	0.0146344
2646	0.0134274
2658	0.0134274
2670	0.0143326
2682	0.0153887
2694	0.0164448
2706	0.0179535
2718	0.0250444
2730	0.0248936
2742	0.0226305
2754	0.0256479
2766	0.023234
2778	0.0226305
2790	0.0259496
2802	0.030174
2814	0.0389245
2826	0.048731
2838	0.0758876
2850	0.132162
2862	0.200808
2874	0.385322
2886	0.382154
2898	0.377175
2910	0.510695
2922	0.509337
2934	0.469809
2946	0.673785
2958	1.32268
2970	1.24573
2982	0.536946
2994	0.223288
3006	0.120243
3018	0.0813189
3030	0.0594428
3042	0.0478258
3054	0.0408858
3066	0.0333423
3078	0.0298723
3090	0.0256479
3102	0.0215744
3114	0.0200657
3126	0.0187079
3138	0.0184061
3150	0.0182553
3162	0.0188588
3174	0.0196131
3186	0.0199148
3198	0.0196131
3210	0.0187079
3222	0.0178027
3234	0.0178027
3246	0.0164448
3258	0.0147853
3270	0.0132766
3282	0.012824
3294	0.0119187
3306	0.0122205
3318	0.012824
3330	0.0122205
3342	0.0132766
3354	0.0135783
3366	0.0141818
3378	0.0144835
3390	0.0131257
3402	0.0120696
3414	0.0123713
3426	0.0117679
3438	0.011617
3450	0.011617
3462	0.0120696
3474	0.0108626
3486	0.0111644
3498	0.0113152
3510	0.0108626
3522	0.0113152
3534	0.0111644
3546	0.0114661
3558	0.0119187
3570	0.0132766
3582	0.012824
3594	0.0123713
3606	0.0111644
3618	0.011617
3630	0.0126731
3642	0.0122205
3654	0.0122205
3666	0.0119187
3678	0.0117679
3690	0.0113152
3702	0.0111644
3714	0.0126731
3726	0.0122205
3738	0.0110135
3750	0.0108626
3762	0.0110135
3774	0.0107118
3786	0.0119187
3798	0.0108626
3810	0.0119187
3822	0.0125222
3834	0.0117679
3846	0.012824
3858	0.0123713
3870	0.0125222
3882	0.0131257
3894	0.0132766
3906	0.0134274
3918	0.0122205
3930	0.0123713
3942	0.0111644
3954	0.0107118
3966	0.0125222
