Infrared Spectrum: Phenol, 4-amino-
Formula: C 6 H 7 N O
CAS: 123-30-8
Origin: Sadtler Research Labs Under US-EPA Contract
1/CM	ABSORBANCE
450	0.0498936
462	0.0989626
474	0.131263
486	0.16645
498	0.180332
510	0.147894
522	0.102536
534	0.0644631
546	0.0571784
558	0.0632261
570	0.0592401
582	0.0640508
594	0.0724351
606	0.0815067
618	0.089891
630	0.101437
642	0.167549
654	0.213732
666	0.181981
678	0.136486
690	0.13841
702	0.118755
714	0.0964885
726	0.0952515
738	0.112432
750	0.161639
762	0.128926
774	0.0442583
786	0.0523677
798	0.139785
810	0.243558
822	0.310907
834	0.192427
846	0.100749
858	0.050306
870	0.0189678
882	0.00426089
894	0.00178682
906	0.00508558
918	0.00453578
930	0.0127827
942	0.00700985
954	0.00728474
966	0.0196551
978	0.00769709
990	0.0065975
1002	0.0136074
1014	0.0202049
1026	0.0191053
1038	0.0236411
1050	0.0338122
1062	0.0573158
1074	0.0876918
1086	0.0901659
1098	0.076696
1110	0.0892038
1122	0.0908531
1134	0.0861799
1146	0.113807
1158	0.336198
1170	0.787165
1182	0.775757
1194	0.351592
1206	0.170023
1218	0.142396
1230	0.187204
1242	0.54182
1254	0.658376
1266	0.326851
1278	0.118343
1290	0.063501
1302	0.0707857
1314	0.103498
1326	0.189541
1338	0.145695
1350	0.0442583
1362	0.010446
1374	0.00920902
1386	0.0170436
1398	0.0151193
1410	0.0404097
1422	0.0445332
1434	0.0531924
1446	0.108859
1458	0.0678993
1470	0.0562162
1482	0.087142
1494	0.226652
1506	0.833622
1518	1.15278
1530	0.721739
1542	0.0573158
1554	0.0228164
1566	0.0415093
1578	0.0492064
1590	0.0809569
1602	0.152155
1614	0.22569
1626	0.234074
1638	0.132637
1650	0.0421965
1662	0.0471447
1674	0.0129201
1686	0.00123703
1698	0.000824688
1710	0.0307884
1722	0.0272147
1734	0.00219917
1746	0.0120954
1758	0.0162189
1770	0.0122329
1782	0.0178682
1794	0.0149818
1806	0.0298262
1818	0.0336748
1830	0.0257028
1842	0.0310632
1854	0.0375233
1866	0.025153
1878	0.0244657
1890	0.0163563
1902	0.0213044
1914	0.0222666
1926	0.0247406
1938	0.0237785
1950	0.0215793
1962	0.0210295
1974	0.0208921
1986	0.0208921
1998	0.0215793
2010	0.0254279
2022	0.0214419
2034	0.0189678
2046	0.015944
2058	0.0163563
2070	0.0162189
2082	0.0177308
2094	0.018418
2106	0.0174559
2118	0.0136074
2130	0.0116831
2142	0.0112707
2154	0.0111333
2166	0.0111333
2178	0.011958
2190	0.0109958
2202	0.00989626
2214	0.0100337
2226	0.00948391
2238	0.00989626
2250	0.0108584
2262	0.0103086
2274	0.0109958
2286	0.0108584
2298	0.00948391
2310	0.00865922
2322	0.0100337
2334	0.0108584
2346	0.0134699
2358	0.0122329
2370	0.0114082
2382	0.0109958
2394	0.00962136
2406	0.0112707
2418	0.0148444
2430	0.0140197
2442	0.00907157
2454	0.00673495
2466	0.00618516
2478	0.0065975
2490	0.00879667
2502	0.0100337
2514	0.00852178
2526	0.00632261
2538	0.00357365
2550	0.00233662
2562	0.00274896
2574	0.00247406
2586	0.00398599
2598	0.00494813
2610	0.00508558
2622	0.00412344
2634	0.00329875
2646	0.00274896
2658	0.00357365
2670	0.00426089
2682	0.00494813
2694	0.00522302
2706	0.00426089
2718	0.00398599
2730	0.00467323
2742	0.00426089
2754	0.00398599
2766	0.00453578
2778	0.00398599
2790	0.0037111
2802	0.00233662
2814	0.00206172
2826	0.00247406
2838	0.00261151
2850	0.00357365
2862	0.00481068
2874	0.0065975
2886	0.00755964
2898	0.00824688
2910	0.00838433
2922	0.00824688
2934	0.00865922
2946	0.00673495
2958	0.00646006
2970	0.00646006
2982	0.00728474
2994	0.0145695
3006	0.0525051
3018	0.154217
3030	0.196001
3042	0.131125
3054	0.0991
3066	0.0663874
3078	0.0401348
3090	0.0280394
3102	0.0215793
3114	0.0191053
3126	0.0166312
3138	0.0116831
3150	0.00728474
3162	0.00481068
3174	0.0037111
3186	0.00302386
3198	0.00481068
3210	0.00508558
3222	0.00577282
3234	0.00646006
3246	0.00604771
3258	0.00632261
3270	0.00769709
3282	0.00604771
3294	0.00481068
3306	0.00384854
3318	0.00261151
3330	0.00357365
3342	0.00357365
3354	0.00508558
3366	0.0071473
3378	0.013195
3390	0.0277645
3402	0.0398599
3414	0.0338122
3426	0.0192427
3438	0.0174559
3450	0.0202049
3462	0.0272147
3474	0.0358739
3486	0.0360114
3498	0.0279019
3510	0.0149818
3522	0.00989626
3534	0.00824688
3546	0.00549792
3558	0.00357365
3570	0.00329875
3582	0.00508558
3594	0.00261151
3606	0.00549792
3618	0.010446
3630	0.0273522
3642	0.124253
3654	0.300186
3666	0.261976
3678	0.0580031
3690	0.00948391
3702	0.00591026
3714	0.00261151
3726	0.00164938
3738	0.0037111
3750	0
3762	0.00412344
3774	0.00673495
3786	0.00453578
3798	0.00288641
3810	0.00728474
3822	0.0037111
3834	0.00481068
3846	0.00824688
3858	0.00755964
3870	0.00604771
3882	0.00742219
3894	0.0100337
3906	0.00975881
3918	0.00824688
3930	0.00591026
3942	0.00467323
3954	0.00755964
3966	0.00398599
