Infrared Spectrum: Propanoic acid, anhydride
Formula: C 6 H 10 O 3
CAS: 123-62-6
Origin: Sadtler Research Labs Under US-EPA Contract
1/CM	ABSORBANCE
450	0.0539451
462	0.00177963
474	0.0187974
486	0.0201321
498	0.0172402
510	0.0203545
522	0.028919
534	0.0274731
546	0.0444908
558	0.0482725
570	0.0493848
582	0.0399305
594	0.0400417
606	0.0308099
618	0.0310323
630	0.0248036
642	0.0256934
654	0.0187974
666	0.0175739
678	0.0137921
690	0.0100104
702	0.00956552
714	0.00900939
726	0.00745221
738	0.0116788
750	0.0136809
762	0.0180188
774	0.0281404
786	0.0282517
798	0.03626
810	0.0537226
822	0.0523879
834	0.0428224
846	0.042155
858	0.0399305
870	0.0357039
882	0.0440459
894	0.0384845
906	0.025471
918	0.0184637
930	0.0270282
942	0.0710741
954	0.160501
966	0.257046
978	0.356705
990	0.419215
1002	0.389628
1014	0.351366
1026	0.517317
1038	1.00026
1050	0.99081
1062	0.547459
1074	0.404755
1086	0.381731
1098	0.351366
1110	0.288078
1122	0.286854
1134	0.305652
1146	0.283963
1158	0.228571
1170	0.188085
1182	0.152381
1194	0.131582
1206	0.0964338
1218	0.0623983
1230	0.0474939
1242	0.0442683
1254	0.0518318
1266	0.0631769
1278	0.0510532
1290	0.031366
1302	0.0236914
1314	0.0361488
1326	0.0757456
1338	0.119903
1350	0.149155
1362	0.111561
1374	0.0738547
1386	0.0659576
1398	0.0513869
1410	0.0448245
1422	0.0586166
1434	0.0722976
1446	0.0649566
1458	0.0741884
1470	0.0909837
1482	0.0565033
1494	0.0294752
1506	0.0182412
1518	0.0161279
1530	0.0149044
1542	0.0112339
1554	0.0114564
1566	0.00978798
1578	0.00622871
1590	0.0100104
1602	0.00878693
1614	0.00633994
1626	0.00978798
1638	0.00711853
1650	0.00667362
1662	0.00834202
1674	0.0070073
1686	0.00622871
1698	0.00756344
1710	0.0169065
1722	0.0290302
1734	0.0565033
1746	0.138033
1758	0.349475
1770	0.54023
1782	0.427668
1794	0.314884
1806	0.302204
1818	0.444908
1830	0.522433
1842	0.353034
1854	0.15861
1866	0.0710741
1878	0.0361488
1890	0.0202433
1902	0.0121237
1914	0.0082308
1926	0.00611748
1938	0.0053389
1950	0.00433785
1962	0.00400417
1974	0.00367049
1986	0.00311436
1998	0.00333681
2010	0.00344804
2022	0.00400417
2034	0.00389295
2046	0.00378172
2058	0.00311436
2070	0.00311436
2082	0.00333681
2094	0.0028919
2106	0.00255822
2118	0.00344804
2130	0.00400417
2142	0.00367049
2154	0.00255822
2166	0.00200209
2178	0.00189086
2190	0.0016684
2202	0.0016684
2214	0.00100104
2226	0.00111227
2238	0.0012235
2250	0.000889816
2262	0.000444908
2274	0.000667362
2286	0.000222454
2298	0.000667362
2310	0.000556135
2322	0.000778589
2334	0
2346	0.00177963
2358	0.00255822
2370	0.00233577
2382	0.00133472
2394	0.00111227
2406	0.000889816
2418	0.000889816
2430	0.000778589
2442	0.000778589
2454	0.000889816
2466	0.000667362
2478	0.00100104
2490	0.000556135
2502	0.000778589
2514	0.000778589
2526	0.000222454
2538	0.00100104
2550	0.000444908
2562	0.000222454
2574	0.000444908
2586	0.000222454
2598	0.000222454
2610	0.000222454
2622	0.000556135
2634	0.000889816
2646	0.000889816
2658	0.00111227
2670	0.000556135
2682	0.000556135
2694	0.000333681
2706	0.000778589
2718	0.00100104
2730	0.00144595
2742	0.00177963
2754	0.00333681
2766	0.0041154
2778	0.00367049
2790	0.00367049
2802	0.0041154
2814	0.00545012
2826	0.00734098
2838	0.00967675
2850	0.0117901
2862	0.0130136
2874	0.01813
2886	0.0353702
2898	0.0595064
2910	0.055836
2922	0.0538339
2934	0.0719639
2946	0.104442
2958	0.136587
2970	0.0950991
2982	0.122683
2994	0.193535
3006	0.137143
3018	0.0621759
3030	0.0335906
3042	0.0203545
3054	0.0124574
3066	0.00856448
3078	0.00622871
3090	0.0057838
3102	0.00456031
3114	0.00456031
3126	0.00433785
3138	0.00400417
3150	0.00355926
3162	0.00355926
3174	0.00333681
3186	0.00367049
3198	0.00300313
3210	0.00255822
3222	0.0016684
3234	0.0012235
3246	0.00111227
3258	0.00155718
3270	0.000333681
3282	0.000333681
3294	0.000111227
3306	0.000778589
3318	0.000556135
3330	0.00133472
3342	0.0016684
3354	0.000889816
3366	0.000444908
3378	0.000889816
3390	0.000667362
3402	0.000889816
3414	0.00100104
3426	0.000889816
3438	0.00144595
3450	0.000556135
3462	0.0012235
3474	0.00189086
3486	0.00244699
3498	0.0041154
3510	0.00478276
3522	0.00633994
3534	0.00734098
3546	0.00711853
3558	0.0149044
3570	0.0322558
3582	0.0373723
3594	0.0329232
3606	0.0123462
3618	0.00734098
3630	0.00611748
3642	0.00789712
3654	0.00255822
3666	0.00767466
3678	0.00278067
3690	0.00177963
3702	0.00611748
3714	0.00389295
3726	0.00745221
3738	0.00478276
3750	0.000667362
3762	0.0057838
3774	0.00489399
3786	0.00556135
3798	0.00478276
3810	0.00689607
3822	0.00177963
3834	0.00344804
3846	0.00600626
3858	0.00155718
3870	0.00322558
3882	0.00433785
3894	0.00378172
3906	0.00111227
3918	0.00378172
3930	0.00444908
3942	0.00422663
3954	0.00500521
3966	0.00333681
