Infrared Spectrum: 2-Octanol
Formula: C 8 H 18 O
CAS: 123-96-6
Origin: Sadtler Research Labs Under US-EPA Contract
1/CM	ABSORBANCE
450	0
462	0.0190536
474	0.012363
486	0.0242896
498	0.0142538
510	0.0127993
522	0.0215262
534	0.0138175
546	0.0146901
558	0.019199
570	0.0107631
582	0.0159992
594	0.0154174
606	0.0157083
618	0.0193445
630	0.0197808
642	0.0173082
654	0.0177445
666	0.0139629
678	0.0168719
690	0.0196353
702	0.0206535
714	0.0311257
726	0.0369435
738	0.0292348
750	0.0245805
762	0.0245805
774	0.021817
786	0.0213807
798	0.0231261
810	0.0253078
822	0.031562
834	0.0418887
846	0.0484339
858	0.042616
870	0.0385435
882	0.0395616
894	0.0462521
906	0.0541063
918	0.079705
930	0.0974495
942	0.0993403
954	0.071269
966	0.0714145
978	0.0821776
990	0.0792686
1002	0.0794141
1014	0.0862501
1026	0.103704
1038	0.136575
1050	0.158101
1062	0.163628
1074	0.16101
1086	0.177736
1098	0.185299
1110	0.152574
1122	0.148938
1134	0.1661
1146	0.149956
1158	0.101086
1170	0.0711236
1182	0.0708327
1194	0.0792686
1206	0.0840684
1218	0.0914862
1230	0.114321
1242	0.143265
1254	0.132793
1266	0.101377
1278	0.0827593
1290	0.0721417
1302	0.0692328
1314	0.0669056
1326	0.0685055
1338	0.0874136
1350	0.110103
1362	0.134102
1374	0.195335
1386	0.228206
1398	0.151556
1410	0.0900317
1422	0.0647239
1434	0.0705418
1446	0.107485
1458	0.165373
1470	0.163192
1482	0.0839229
1494	0.0388343
1506	0.026035
1518	0.0209444
1530	0.01789
1542	0.0162901
1554	0.0146901
1566	0.0139629
1578	0.0133811
1590	0.0129448
1602	0.0120721
1614	0.0126539
1626	0.0116358
1638	0.0122175
1650	0.0116358
1662	0.0116358
1674	0.0119267
1686	0.012363
1698	0.012363
1710	0.0138175
1722	0.0173082
1734	0.0209444
1746	0.01789
1758	0.0142538
1770	0.0119267
1782	0.0111994
1794	0.0104722
1806	0.00974495
1818	0.0098904
1830	0.00872682
1842	0.00974495
1854	0.0098904
1866	0.00916316
1878	0.00930861
1890	0.0098904
1902	0.00916316
1914	0.00974495
1926	0.00945405
1938	0.00916316
1950	0.0095995
1962	0.00872682
1974	0.00916316
1986	0.00916316
1998	0.00974495
2010	0.00945405
2022	0.0104722
2034	0.0101813
2046	0.0103267
2058	0.0106176
2070	0.00974495
2082	0.00945405
2094	0.00930861
2106	0.00887227
2118	0.00974495
2130	0.00930861
2142	0.00974495
2154	0.00974495
2166	0.0103267
2178	0.0101813
2190	0.0103267
2202	0.0095995
2214	0.0103267
2226	0.0103267
2238	0.0098904
2250	0.0101813
2262	0.0100358
2274	0.0101813
2286	0.011054
2298	0.0117812
2310	0.0120721
2322	0.0116358
2334	0.0104722
2346	0.0109085
2358	0.0113449
2370	0.0104722
2382	0.0107631
2394	0.0111994
2406	0.0117812
2418	0.0119267
2430	0.0120721
2442	0.0119267
2454	0.0111994
2466	0.0119267
2478	0.0113449
2490	0.0114903
2502	0.0125084
2514	0.0122175
2526	0.0126539
2538	0.0135266
2550	0.013672
2562	0.014981
2574	0.0159992
2586	0.0168719
2598	0.0187627
2610	0.0197808
2622	0.0210898
2634	0.0226897
2646	0.0248714
2658	0.0263259
2670	0.0286531
2682	0.0293803
2694	0.0279258
2706	0.0263259
2718	0.0276349
2730	0.0301075
2742	0.0343255
2754	0.0337437
2766	0.0346164
2778	0.0366526
2790	0.042616
2802	0.0525064
2814	0.0648694
2826	0.0840684
2838	0.129448
2850	0.26195
2862	0.513428
2874	0.622368
2886	0.565643
2898	0.457867
2910	0.594733
2922	0.992967
2934	1.45447
2946	1.19092
2958	0.816539
2970	1.02482
2982	0.67022
2994	0.247987
3006	0.10414
3018	0.0702509
3030	0.0541063
3042	0.0424705
3054	0.0353436
3066	0.031562
3078	0.028944
3090	0.0263259
3102	0.0244351
3114	0.0238533
3126	0.0221079
3138	0.0209444
3150	0.0206535
3162	0.0199262
3174	0.0202171
3186	0.0193445
3198	0.0193445
3210	0.0181809
3222	0.0161446
3234	0.0142538
3246	0.012363
3258	0.0127993
3270	0.0103267
3282	0.0100358
3294	0.0114903
3306	0.0116358
3318	0.0107631
3330	0.0109085
3342	0.0133811
3354	0.013672
3366	0.0119267
3378	0.0132357
3390	0.0114903
3402	0.0135266
3414	0.0157083
3426	0.013672
3438	0.0148356
3450	0.0138175
3462	0.0138175
3474	0.0132357
3486	0.0129448
3498	0.0132357
3510	0.0107631
3522	0.0113449
3534	0.0107631
3546	0.0119267
3558	0.0120721
3570	0.0119267
3582	0.0114903
3594	0.0130902
3606	0.0151265
3618	0.0210898
3630	0.0324347
3642	0.0500338
3654	0.092068
3666	0.0750507
3678	0.031562
3690	0.0157083
3702	0.0138175
3714	0.0148356
3726	0.0133811
3738	0.0143993
3750	0.0114903
3762	0.0114903
3774	0.0114903
3786	0.0114903
3798	0.013672
3810	0.0120721
3822	0.0127993
3834	0.0148356
3846	0.0133811
3858	0.0135266
3870	0.0127993
3882	0.0145447
3894	0.0146901
3906	0.0132357
3918	0.013672
3930	0.0100358
3942	0.0114903
3954	0.011054
3966	0.0122175
