Infrared Spectrum: Heptane, 3-(chloromethyl)-
Formula: C 8 H 17 Cl
CAS: 123-04-6
Origin: Sadtler Research Labs Under US-EPA Contract
1/CM	ABSORBANCE
450	0
462	0.023817
474	0.0175334
486	0.0209792
498	0.0148983
510	0.0185469
522	0.0188509
534	0.0186482
546	0.0201685
558	0.02179
570	0.017128
582	0.0177361
594	0.0149997
606	0.0143916
618	0.0161145
630	0.0146956
642	0.0152023
654	0.0188509
666	0.0215873
678	0.0482421
690	0.0792549
702	0.0440868
714	0.0490529
726	0.104998
738	0.136618
750	0.0917208
762	0.0696268
774	0.0845251
786	0.0738834
798	0.0478367
810	0.029898
822	0.0248305
834	0.0256413
846	0.0240197
858	0.0219927
870	0.0250332
882	0.027871
894	0.030202
906	0.0324317
918	0.0292899
930	0.0287831
942	0.0277696
954	0.0289858
966	0.0324317
978	0.0333438
990	0.0293912
1002	0.025844
1014	0.0243238
1026	0.0243238
1038	0.0232089
1050	0.0222968
1062	0.0227022
1074	0.0231076
1086	0.0236143
1098	0.0239184
1110	0.02179
1122	0.0190536
1134	0.0190536
1146	0.0195604
1158	0.019459
1170	0.0197631
1182	0.0227022
1194	0.023817
1206	0.0232089
1218	0.025844
1230	0.0260467
1242	0.0297966
1254	0.0378032
1266	0.0557419
1278	0.0700322
1290	0.0933424
1302	0.102768
1314	0.0615188
1326	0.0464178
1338	0.0441882
1350	0.0472286
1362	0.042972
1374	0.0498637
1386	0.0851332
1398	0.049357
1410	0.0299993
1422	0.0311141
1434	0.0460124
1446	0.115842
1458	0.178982
1470	0.174523
1482	0.0829035
1494	0.0336479
1506	0.0260467
1518	0.0237157
1530	0.0207765
1542	0.0196617
1554	0.0190536
1566	0.017128
1578	0.017128
1590	0.0166212
1602	0.0166212
1614	0.0166212
1626	0.0165199
1638	0.0153037
1650	0.0164185
1662	0.0152023
1674	0.015405
1686	0.015101
1698	0.0141889
1710	0.0145943
1722	0.0144929
1734	0.0145943
1746	0.0137835
1758	0.0136821
1770	0.0141889
1782	0.0141889
1794	0.0136821
1806	0.0133781
1818	0.0135808
1830	0.013074
1842	0.0132767
1854	0.0133781
1866	0.0131754
1878	0.013074
1890	0.0131754
1902	0.0128713
1914	0.01277
1926	0.0131754
1938	0.01277
1950	0.0128713
1962	0.0126686
1974	0.0126686
1986	0.0128713
1998	0.01277
2010	0.0131754
2022	0.0135808
2034	0.0139862
2046	0.0138848
2058	0.0140875
2070	0.0136821
2082	0.0134794
2094	0.0133781
2106	0.013074
2118	0.0131754
2130	0.0132767
2142	0.0129727
2154	0.013074
2166	0.0134794
2178	0.013074
2190	0.0128713
2202	0.0132767
2214	0.0132767
2226	0.0136821
2238	0.0135808
2250	0.0133781
2262	0.0134794
2274	0.0136821
2286	0.0138848
2298	0.0140875
2310	0.0144929
2322	0.014797
2334	0.0145943
2346	0.0140875
2358	0.014797
2370	0.0144929
2382	0.0149997
2394	0.0152023
2406	0.0153037
2418	0.0148983
2430	0.0148983
2442	0.0141889
2454	0.0137835
2466	0.0138848
2478	0.0141889
2490	0.0141889
2502	0.0140875
2514	0.0142902
2526	0.014797
2538	0.0153037
2550	0.0157091
2562	0.0156077
2574	0.0162158
2586	0.0168239
2598	0.0173307
2610	0.017432
2622	0.0178374
2634	0.0180401
2646	0.0189523
2658	0.0196617
2670	0.0210806
2682	0.0220941
2694	0.0221954
2706	0.0228035
2718	0.0230062
2730	0.0246278
2742	0.028175
2754	0.0280737
2766	0.025844
2778	0.0266548
2790	0.0304047
2802	0.0358775
2814	0.0414517
2826	0.0492556
2838	0.0650661
2850	0.12243
2862	0.283777
2874	0.401038
2886	0.398707
2898	0.309114
2910	0.320567
2922	0.504211
2934	0.778259
2946	0.785353
2958	0.633533
2970	1.01349
2982	0.557926
2994	0.208475
3006	0.147665
3018	0.0690187
3030	0.0512826
3042	0.0421612
3054	0.0357762
3066	0.0311141
3078	0.0289858
3090	0.0276683
3102	0.0259453
3114	0.0248305
3126	0.0229049
3138	0.0220941
3150	0.0213846
3162	0.0204725
3174	0.0200671
3186	0.0190536
3198	0.0185469
3210	0.0169253
3222	0.0159118
3234	0.014797
3246	0.0140875
3258	0.0134794
3270	0.0136821
3282	0.0135808
3294	0.0137835
3306	0.0138848
3318	0.0136821
3330	0.0135808
3342	0.0139862
3354	0.0140875
3366	0.0135808
3378	0.0144929
3390	0.0141889
3402	0.0138848
3414	0.0145943
3426	0.0135808
3438	0.0138848
3450	0.0143916
3462	0.0138848
3474	0.0143916
3486	0.0135808
3498	0.0135808
3510	0.0131754
3522	0.0134794
3534	0.0135808
3546	0.0133781
3558	0.0138848
3570	0.0135808
3582	0.0132767
3594	0.0139862
3606	0.0141889
3618	0.0145943
3630	0.014797
3642	0.0141889
3654	0.0146956
3666	0.0146956
3678	0.0155064
3690	0.014797
3702	0.0153037
3714	0.0148983
3726	0.0143916
3738	0.0143916
3750	0.0148983
3762	0.0135808
3774	0.0139862
3786	0.0138848
3798	0.015101
3810	0.0146956
3822	0.0140875
3834	0.0145943
3846	0.0138848
3858	0.0145943
3870	0.0149997
3882	0.0141889
3894	0.013074
3906	0.0134794
3918	0.013074
3930	0.0145943
3942	0.0140875
3954	0.01277
3966	0.014797
