Infrared Spectrum: Benzene, dodecyl-
Formula: C 18 H 30
CAS: 123-01-3
Origin: Sadtler Research Labs Under US-EPA Contract
1/CM	ABSORBANCE
450	0.049823
462	0.00608525
474	0.00456394
486	0.00101421
498	0.0101421
510	0.00747978
522	0.00836722
534	0.0150863
546	0.0214251
558	0.0300459
570	0.0324547
582	0.0163541
594	0.0100153
606	0.00722623
618	0.00253552
630	0.00342295
642	0.00507104
654	0.00887432
666	0.0204109
678	0.0333421
690	0.108267
702	0.276372
714	0.0559082
726	0.0368918
738	0.0420896
750	0.0722623
762	0.140214
774	0.0404415
786	0.0230732
798	0.0139454
810	0.0090011
822	0.00836722
834	0.00747978
846	0.00659235
858	0.00722623
870	0.00747978
882	0.00709946
894	0.0100153
906	0.0176219
918	0.0180022
930	0.0149596
942	0.0119169
954	0.010776
966	0.0114098
978	0.012424
990	0.0117902
1002	0.0174951
1014	0.0232
1026	0.0483017
1038	0.0409486
1050	0.014706
1062	0.0174951
1074	0.0251016
1086	0.020918
1098	0.0199038
1110	0.018129
1122	0.0144525
1134	0.0120437
1146	0.0161006
1158	0.0211716
1170	0.0207913
1182	0.0219322
1194	0.0314404
1206	0.025482
1218	0.0221858
1230	0.0257355
1242	0.0329618
1254	0.029412
1266	0.0271301
1278	0.0292853
1290	0.0319476
1302	0.0357508
1314	0.0376525
1326	0.033976
1338	0.0373989
1350	0.0442448
1362	0.0874754
1374	0.152765
1386	0.154286
1398	0.0749246
1410	0.0285246
1422	0.0275104
1434	0.0450055
1446	0.101928
1458	0.150737
1470	0.195235
1482	0.133115
1494	0.12424
1506	0.0586973
1518	0.0193967
1530	0.014706
1542	0.0106492
1554	0.00798689
1566	0.0068459
1578	0.0161006
1590	0.0323279
1602	0.0541334
1614	0.0201574
1626	0.00671913
1638	0.00393006
1650	0.00646558
1662	0.0063388
1674	0.0063388
1686	0.00354973
1698	0.00418361
1710	0.00469071
1722	0.0063388
1734	0.00773334
1746	0.00608525
1758	0.0031694
1770	0.00393006
1782	0.00709946
1794	0.0140721
1806	0.00747978
1818	0.00354973
1830	0.00190164
1842	0.0026623
1854	0.00418361
1866	0.00849399
1878	0.00849399
1890	0.00431038
1902	0.00177486
1914	0.00228197
1926	0.00418361
1938	0.0129312
1950	0.00925465
1962	0.00354973
1974	0.00101421
1986	0.000380328
1998	0.000126776
2010	0
2022	0.000507104
2034	0.000507104
2046	0.00101421
2058	0.000760656
2070	0.00139454
2082	0.00240874
2094	0.00114098
2106	0.00101421
2118	0.00063388
2130	0.00063388
2142	0.00063388
2154	0.00063388
2166	0.00101421
2178	0.00114098
2190	0.000507104
2202	0.00101421
2214	0.00126776
2226	0.000507104
2238	0.00101421
2250	0.00114098
2262	0.00114098
2274	0.00202842
2286	0.00240874
2298	0.00443716
2310	0.00595847
2322	0.00557814
2334	0.00570492
2346	0.00621202
2358	0.00595847
2370	0.00874754
2382	0.0068459
2394	0.0036765
2406	0.00329618
2418	0.00278907
2430	0.00240874
2442	0.0026623
2454	0.00215519
2466	0.00240874
2478	0.00253552
2490	0.0026623
2502	0.0026623
2514	0.00329618
2526	0.00304262
2538	0.0036765
2550	0.00469071
2562	0.00532459
2574	0.0063388
2586	0.00671913
2598	0.00709946
2610	0.00722623
2622	0.00786011
2634	0.00849399
2646	0.00925465
2658	0.0101421
2670	0.0114098
2682	0.0114098
2694	0.0114098
2706	0.0134383
2718	0.016988
2730	0.0214251
2742	0.0223126
2754	0.0202842
2766	0.0210448
2778	0.0228197
2790	0.0258623
2802	0.0314404
2814	0.0414558
2826	0.0538798
2838	0.0787279
2850	0.152004
2862	0.275484
2874	0.402387
2886	0.458929
2898	0.416332
2910	0.515852
2922	0.632993
2934	0.814536
2946	0.834313
2958	0.966413
2970	1.25774
2982	0.545771
2994	0.173683
3006	0.0878558
3018	0.0850667
3030	0.129438
3042	0.120691
3054	0.0996459
3066	0.173303
3078	0.117775
3090	0.108393
3102	0.0664306
3114	0.0418361
3126	0.0235803
3138	0.0173683
3150	0.0162273
3162	0.0162273
3174	0.0133115
3186	0.0129312
3198	0.012424
3210	0.0114098
3222	0.0100153
3234	0.00862077
3246	0.00786011
3258	0.00659235
3270	0.00608525
3282	0.00519782
3294	0.00342295
3306	0.00481749
3318	0.00646558
3330	0.00456394
3342	0.00456394
3354	0.00532459
3366	0.00431038
3378	0.00595847
3390	0.00697268
3402	0.00393006
3414	0.00354973
3426	0.00393006
3438	0.00240874
3450	0.00342295
3462	0.00342295
3474	0.0031694
3486	0.0031694
3498	0.00139454
3510	0.00431038
3522	0.00190164
3534	0.00393006
3546	0.00329618
3558	0.00202842
3570	0.00126776
3582	0.00405683
3594	0.00190164
3606	0.00393006
3618	0.00443716
3630	0.00278907
3642	0.00342295
3654	0.0068459
3666	0.00532459
3678	0.000380328
3690	0.00354973
3702	0.00126776
3714	0.00342295
3726	0.00329618
3738	0.000887432
3750	0.00405683
3762	0.00545137
3774	0.00519782
3786	0.00177486
3798	0.00418361
3810	0.0063388
3822	0.00354973
3834	0.00253552
3846	0.00456394
3858	0.00354973
3870	0.000760656
3882	0.00177486
3894	0.00595847
3906	0.00431038
3918	0.0036765
3930	0.00557814
3942	0.00329618
3954	0.00507104
3966	0.00342295
