Infrared Spectrum: Butanedioic acid, diethyl ester
Formula: C 8 H 14 O 4
CAS: 123-25-1
Origin: Sadtler Research Labs Under US-EPA Contract
1/CM	ABSORBANCE
450	0.00652487
462	0.00346102
474	0.00675182
486	0.00289364
498	0.0100994
510	0.00414187
522	0.00800006
534	0.000680856
546	0.0100426
558	0.00788658
570	0.00941851
582	0.0117448
594	0.0107235
606	0.0114611
618	0.00794332
630	0.0169647
642	0.0146951
654	0.0150356
666	0.00539011
678	0.00919156
690	0.00794332
702	0.0103263
714	0.00624118
726	0.00941851
738	0.00470925
750	0.0107235
762	0.00947525
774	0.00947525
786	0.0137306
798	0.0160569
810	0.0172484
822	0.0124256
834	0.0169647
846	0.0173051
858	0.0383549
870	0.0216172
882	0.015149
894	0.0121987
906	0.0156029
918	0.0169647
930	0.0190072
942	0.0169647
954	0.0186101
966	0.0216739
978	0.0155462
990	0.017759
1002	0.021447
1014	0.0421563
1026	0.092256
1038	0.142753
1050	0.119547
1062	0.0769935
1074	0.0493053
1086	0.0451634
1098	0.071036
1110	0.0651352
1122	0.0726246
1134	0.112001
1146	0.211009
1158	0.473195
1170	0.425251
1182	0.280626
1194	0.210555
1206	0.204994
1218	0.198016
1230	0.180257
1242	0.179235
1254	0.167888
1266	0.153817
1278	0.131859
1290	0.113363
1302	0.10054
1314	0.106667
1326	0.0877169
1338	0.0748374
1350	0.101107
1362	0.067348
1374	0.122838
1386	0.0692204
1398	0.0491351
1410	0.0415322
1422	0.0499294
1434	0.0529366
1446	0.0478301
1458	0.043518
1470	0.0425535
1482	0.0314896
1494	0.0186668
1506	0.0183264
1518	0.0125391
1530	0.0112909
1542	0.0163973
1554	0.0112909
1566	0.00822701
1578	0.0125391
1590	0.00817027
1602	0.00811353
1614	0.00782984
1626	0.00856744
1638	0.011688
1650	0.01061
1662	0.00987241
1674	0.0113476
1686	0.019064
1698	0.0211633
1710	0.0313761
1722	0.0483975
1734	0.102809
1746	0.310584
1758	0.56738
1770	0.303151
1782	0.100823
1794	0.0444826
1806	0.0234328
1818	0.0157732
1830	0.0110639
1842	0.00924829
1854	0.00680856
1866	0.00703551
1878	0.00669508
1890	0.00822701
1902	0.00652487
1914	0.00697877
1926	0.00635466
1938	0.00590075
1950	0.0056738
1962	0.00595749
1974	0.00539011
1986	0.00590075
1998	0.00641139
2010	0.00618444
2022	0.00726246
2034	0.0056738
2046	0.00669508
2058	0.00539011
2070	0.00573054
2082	0.00465252
2094	0.00578728
2106	0.0044823
2118	0.00470925
2130	0.00408514
2142	0.00346102
2154	0.0040284
2166	0.00351776
2178	0.00340428
2190	0.00346102
2202	0.00374471
2214	0.00306385
2226	0.00368797
2238	0.0032908
2250	0.00346102
2262	0.00340428
2274	0.0032908
2286	0.00215604
2298	0.00317733
2310	0.00255321
2322	0.00340428
2334	0.00527663
2346	0.00658161
2358	0.00822701
2370	0.00800006
2382	0.00510642
2394	0.00295038
2406	0.00340428
2418	0.00255321
2430	0.00312059
2442	0.00232626
2454	0.00278016
2466	0.002383
2478	0.00226952
2490	0.002383
2502	0.0028369
2514	0.00170214
2526	0.00175888
2538	0.00260995
2550	0.0011915
2562	0.00266669
2574	0.00147519
2586	0.002383
2598	0.00204257
2610	0.00278016
2622	0.00175888
2634	0.00272342
2646	0.00153193
2658	0.00170214
2670	0.00232626
2682	0.00181562
2694	0.00187235
2706	0.00221278
2718	0.00295038
2730	0.00260995
2742	0.00368797
2754	0.00317733
2766	0.00459578
2778	0.00374471
2790	0.00470925
2802	0.00436883
2814	0.00590075
2826	0.0056738
2838	0.0073192
2850	0.00680856
2862	0.00839722
2874	0.0135036
2886	0.0217307
2898	0.0238867
2910	0.0310357
2922	0.0364825
2934	0.0523692
2946	0.0784687
2958	0.059121
2970	0.0696175
2982	0.113533
2994	0.124767
3006	0.0703551
3018	0.0372201
3030	0.0175888
3042	0.0106667
3054	0.00748942
3066	0.00510642
3078	0.00527663
3090	0.00346102
3102	0.00419861
3114	0.00323407
3126	0.00408514
3138	0.002383
3150	0.0044823
3162	0.00187235
3174	0.00397166
3186	0.00368797
3198	0.0028369
3210	0.00385818
3222	0.00351776
3234	0.00300711
3246	0.00346102
3258	0.00368797
3270	0.00170214
3282	0.00442556
3294	0.0011915
3306	0.0028369
3318	0.00232626
3330	0.00334754
3342	0.00181562
3354	0.00357449
3366	0.00181562
3378	0.00306385
3390	0.00374471
3402	0.00243973
3414	0.00368797
3426	0.0032908
3438	0.00425535
3450	0.00300711
3462	0.00487947
3474	0.00351776
3486	0.00822701
3498	0.00737594
3510	0.00607097
3522	0.00391492
3534	0.00431209
3546	0.00357449
3558	0.00425535
3570	0.00516316
3582	0.00476599
3594	0.00470925
3606	0.00215604
3618	0.00516316
3630	0.00669508
3642	0.00385818
3654	0.00436883
3666	0.00442556
3678	0.00453904
3690	0.00607097
3702	0.00351776
3714	0.00493621
3726	0.00385818
3738	0.00680856
3750	0.00590075
3762	0.00470925
3774	0.00493621
3786	0.00368797
3798	0.00624118
3810	0.00408514
3822	0.00646813
3834	0.00561706
3846	0.00652487
3858	0.00527663
3870	0.00658161
3882	0.00408514
3894	0.00646813
3906	0.00465252
3918	0.00431209
3930	0.00340428
3942	0.00493621
3954	0
3966	0.000397166
