Infrared Spectrum: Butanoic acid, ethenyl ester
Formula: C 6 H 10 O 2
CAS: 123-20-6
Origin: Sadtler Research Labs Under US-EPA Contract
1/CM	ABSORBANCE
450	0.0147236
462	0.013291
474	0.0129727
486	0.0126543
498	0.0114605
510	0.0108238
522	0.0085954
534	0
546	0.0147236
558	0.0157582
570	0.0197376
582	0.0203743
594	0.0237169
606	0.0224435
618	0.021966
630	0.0214885
642	0.0168724
654	0.013291
666	0.0105851
678	0.0126543
690	0.0155195
702	0.0160766
714	0.0147236
726	0.0137686
738	0.0140073
750	0.015997
762	0.016952
774	0.0148032
786	0.0152807
798	0.0207722
810	0.0226823
822	0.0181458
834	0.0248311
846	0.0372467
858	0.0646246
870	0.102906
882	0.0826909
894	0.0448075
906	0.0253883
918	0.0254678
930	0.040271
942	0.0639084
954	0.0743343
966	0.0763239
978	0.0828501
990	0.0604861
1002	0.032949
1014	0.0261841
1026	0.0358141
1038	0.0580189
1050	0.0647838
1062	0.0662164
1074	0.0966982
1086	0.128215
1098	0.118585
1110	0.100359
1122	0.134343
1134	0.31604
1146	0.659776
1158	0.791572
1170	0.673784
1182	0.404382
1194	0.309036
1206	0.189019
1218	0.128374
1230	0.131637
1242	0.154399
1254	0.145246
1266	0.107681
1278	0.0853173
1290	0.0990062
1302	0.122564
1314	0.0908088
1326	0.0566659
1338	0.0630329
1350	0.0970961
1362	0.114764
1374	0.0914455
1386	0.0648634
1398	0.0433749
1410	0.0291288
1422	0.0349387
1434	0.0404302
1446	0.0412261
1458	0.0467176
1470	0.0411465
1482	0.0276167
1494	0.0171908
1506	0.0148828
1518	0.0106647
1530	0.00827705
1542	0.0128931
1554	0.0120972
1566	0.0170316
1578	0.0205334
1590	0.0148032
1602	0.0160766
1614	0.0232394
1626	0.0436933
1638	0.123837
1650	0.231598
1662	0.130921
1674	0.0255474
1686	0.0175887
1698	0.0163153
1710	0.0202947
1722	0.0275371
1734	0.0431362
1746	0.0902517
1758	0.259374
1770	0.508083
1782	0.515326
1794	0.236612
1806	0.0674898
1818	0.0282534
1830	0.0189417
1842	0.0143257
1854	0.0122564
1866	0.00939127
1878	0.0097892
1890	0.0113014
1902	0.0101871
1914	0.00819746
1926	0.00771994
1938	0.00756076
1950	0.00771994
1962	0.00756076
1974	0.00803829
1986	0.00771994
1998	0.00843622
2010	0.00994837
2022	0.0117789
2034	0.0130523
2046	0.0101871
2058	0.00724242
2070	0.00588944
2082	0.00588944
2094	0.00636696
2106	0.00660572
2118	0.00676489
2130	0.00636696
2142	0.00461605
2154	0.00413852
2166	0.00413852
2178	0.003661
2190	0.00358141
2202	0.00358141
2214	0.00350183
2226	0.00405894
2238	0.00437728
2250	0.00445687
2262	0.00557109
2274	0.00692407
2286	0.00779953
2298	0.00716283
2310	0.00541192
2322	0.00453646
2334	0.0042977
2346	0.00421811
2358	0.003661
2370	0.003661
2382	0.00318348
2394	0.00302431
2406	0.00302431
2418	0.00342224
2430	0.00358141
2442	0.00334265
2454	0.00334265
2466	0.00238761
2478	0.00238761
2490	0.00270596
2502	0.00294472
2514	0.00294472
2526	0.00302431
2538	0.0024672
2550	0.00294472
2562	0.00262637
2574	0.00206926
2586	0.00262637
2598	0.00318348
2610	0.00318348
2622	0.00318348
2634	0.00326307
2646	0.00302431
2658	0.00326307
2670	0.0042977
2682	0.0042977
2694	0.00445687
2706	0.00437728
2718	0.00493439
2730	0.00541192
2742	0.00660572
2754	0.00692407
2766	0.00668531
2778	0.00660572
2790	0.00716283
2802	0.007322
2814	0.00811787
2826	0.00955044
2838	0.0112218
2850	0.0133706
2862	0.0180662
2874	0.0334265
2886	0.0630329
2898	0.0600882
2910	0.0479114
2922	0.0553926
2934	0.0770402
2946	0.110944
2958	0.12145
2970	0.154001
2982	0.17334
2994	0.0994042
3006	0.0417832
3018	0.0203743
3030	0.0129727
3042	0.0127339
3054	0.0149624
3066	0.0139277
3078	0.0116197
3090	0.0213293
3102	0.0244332
3114	0.0139277
3126	0.0186234
3138	0.0159174
3150	0.00692407
3162	0.00580985
3174	0.00517315
3186	0.00461605
3198	0.00477522
3210	0.00469563
3222	0.00421811
3234	0.00461605
3246	0.00350183
3258	0.00358141
3270	0.00326307
3282	0.00334265
3294	0.00350183
3306	0.00358141
3318	0.00286513
3330	0.00278554
3342	0.00334265
3354	0.00254678
3366	0.00334265
3378	0.00286513
3390	0.00334265
3402	0.00302431
3414	0.00278554
3426	0.00286513
3438	0.00222844
3450	0.00334265
3462	0.00262637
3474	0.003661
3486	0.00350183
3498	0.00358141
3510	0.00469563
3522	0.0079587
3534	0.0085954
3546	0.00787911
3558	0.00708324
3570	0.0183846
3582	0.0191009
3594	0.0114605
3606	0.00405894
3618	0.00334265
3630	0.00501398
3642	0.00358141
3654	0.00358141
3666	0.00413852
3678	0.00557109
3690	0.0042977
3702	0.00358141
3714	0.003661
3726	0.00405894
3738	0.00469563
3750	0.00525274
3762	0.00477522
3774	0.0042977
3786	0.00342224
3798	0.00382018
3810	0.00477522
3822	0.00413852
3834	0.00437728
3846	0.00501398
3858	0.0054915
3870	0.00405894
3882	0.00302431
3894	0.00453646
3906	0.00382018
3918	0.00318348
3930	0.00405894
3942	0.00318348
3954	0.00254678
3966	0.00334265
