Infrared Spectrum: Hexane, 1-chloro-2-ethyl-,
Formula: C 8 H 17 Cl
CAS: 1230-40-6
Origin: Sadtler Research Labs Under US-EPA Contract
1/CM	ABSORBANCE
450	0.00431263
462	0.00437424
474	0.00381976
486	0.00406619
498	0.00246436
510	0.00117057
522	0.00486711
534	0.00468228
546	0.00609929
558	0.00529837
570	0.0115825
582	0.00332689
594	0.00468228
606	0.00468228
618	0.00529837
630	0.00517516
642	0.00499033
654	0.00492872
666	0.008194
678	0.0258142
690	0.0404155
702	0.0202078
714	0.0276624
726	0.0650591
738	0.07658
750	0.0464532
762	0.0357332
774	0.044913
786	0.0386905
798	0.0225489
810	0.0113977
822	0.009611
834	0.0107816
846	0.008194
858	0.00782434
870	0.00936457
882	0.0115825
894	0.0132459
906	0.0141085
918	0.0117057
930	0.0115825
942	0.0109664
954	0.0116441
966	0.0141701
978	0.0139852
990	0.0119521
1002	0.00985744
1014	0.00930296
1026	0.0089333
1038	0.00831721
1050	0.00782434
1062	0.00881009
1074	0.00948779
1086	0.00973422
1098	0.0111512
1110	0.0101655
1122	0.00868687
1134	0.00813239
1146	0.00868687
1158	0.008194
1170	0.00745469
1182	0.00881009
1194	0.00850204
1206	0.00899491
1218	0.0104119
1230	0.0106584
1242	0.0131843
1254	0.0185443
1266	0.0292027
1278	0.0383824
1290	0.0516283
1302	0.0557561
1314	0.031359
1326	0.022056
1338	0.0213783
1350	0.0236579
1362	0.0207006
1374	0.0266767
1386	0.0475621
1398	0.0242739
1410	0.0121986
1422	0.0131227
1434	0.022056
1446	0.0670306
1458	0.105721
1470	0.100792
1482	0.0435576
1494	0.0141085
1506	0.0089333
1518	0.00677699
1530	0.00603768
1542	0.00511355
1554	0.00394298
1566	0.0034501
1578	0.0034501
1590	0.00283401
1602	0.00283401
1614	0.0027724
1626	0.00295723
1638	0.00227953
1650	0.00240275
1662	0.00227953
1674	0.00227953
1686	0.00227953
1698	0.00178666
1710	0.00215631
1722	0.00246436
1734	0.00308045
1746	0.00215631
1758	0.0020331
1770	0.00215631
1782	0.00160183
1794	0.00104735
1806	0.000985744
1818	0.000985744
1830	0.000985744
1842	0.000492872
1854	0.000431263
1866	0.000431263
1878	0.000677699
1890	0.000369654
1902	0.000308045
1914	0.000308045
1926	0.000308045
1938	0.000308045
1950	0.000184827
1962	0.00061609
1974	0.000184827
1986	0.000677699
1998	0.000677699
2010	0.000985744
2022	0.00154022
2034	0.00154022
2046	0.00160183
2058	0.00154022
2070	0.00104735
2082	0
2094	0
2106	0.000492872
2118	0.000369654
2130	0.000431263
2142	0.000369654
2154	0.000308045
2166	0.000369654
2178	0.000369654
2190	0.000369654
2202	0.000246436
2214	0.000246436
2226	0.000369654
2238	0.000369654
2250	0.000431263
2262	0.000492872
2274	0.00061609
2286	0.00061609
2298	0.00104735
2310	0.000862526
2322	0.000554481
2334	0.00117057
2346	0.00221792
2358	0.000862526
2370	0.00529837
2382	0.00468228
2394	0.00221792
2406	0.00172505
2418	0.00172505
2430	0.00227953
2442	0.00197149
2454	0.00190988
2466	0.00184827
2478	0.00197149
2490	0.00246436
2502	0.00240275
2514	0.00252597
2526	0.00301884
2538	0.00326528
2550	0.00394298
2562	0.00468228
2574	0.00474389
2586	0.00529837
2598	0.00529837
2610	0.00566803
2622	0.00535998
2634	0.00535998
2646	0.00505194
2658	0.00486711
2670	0.00542159
2682	0.00739308
2694	0.00788595
2706	0.00881009
2718	0.00899491
2730	0.0100423
2742	0.012137
2754	0.0121986
2766	0.011028
2778	0.012137
2790	0.0146629
2802	0.0181747
2814	0.0219328
2826	0.0269847
2838	0.0369654
2850	0.0739308
2862	0.173245
2874	0.247853
2886	0.247545
2898	0.189571
2910	0.197087
2922	0.310879
2934	0.479318
2946	0.487758
2958	0.394975
2970	0.61609
2982	0.338049
2994	0.12827
3006	0.0851436
3018	0.0377047
3030	0.0266151
3042	0.021748
3054	0.0168193
3066	0.0142317
3078	0.0129379
3090	0.0120138
3102	0.0109664
3114	0.00991905
3126	0.00991905
3138	0.00881009
3150	0.00825561
3162	0.00714664
3174	0.00659216
3186	0.00622251
3198	0.00579125
3210	0.00529837
3222	0.00388137
3234	0.00320367
3246	0.00289562
3258	0.00246436
3270	0.0020331
3282	0.00160183
3294	0.00209471
3306	0.00258758
3318	0.00314206
3330	0.00308045
3342	0.00252597
3354	0.00221792
3366	0.00209471
3378	0.0027108
3390	0.00227953
3402	0.0020331
3414	0.00209471
3426	0.00197149
3438	0.00246436
3450	0.00166344
3462	0.00123218
3474	0.00246436
3486	0.00110896
3498	0.00160183
3510	0.00166344
3522	0.00166344
3534	0.00123218
3546	0.00117057
3558	0.00129379
3570	0.00154022
3582	0.000985744
3594	0.0013554
3606	0.00184827
3618	0.00061609
3630	0.00147862
3642	0.00141701
3654	0.00240275
3666	0.00240275
3678	0.00283401
3690	0.00308045
3702	0.00301884
3714	0.00320367
3726	0.00227953
3738	0.00320367
3750	0.00301884
3762	0.00406619
3774	0.00394298
3786	0.00295723
3798	0.00234114
3810	0.0033885
3822	0.00326528
3834	0.00406619
3846	0.0034501
3858	0.00375815
3870	0.00351171
3882	0.00326528
3894	0.0034501
3906	0.00314206
3918	0.00283401
3930	0.0034501
3942	0.00351171
3954	0.00301884
3966	0.0041278
