Infrared Spectrum: Tetradecanoic acid, methyl ester
Formula: C 15 H 30 O 2
CAS: 124-10-7
Origin: Sadtler Research Labs Under US-EPA Contract
1/CM	ABSORBANCE
450	0.0349834
462	0.0107865
474	0.0107865
486	0.0036441
498	0.00437292
510	0.0052475
522	0.00145764
534	0.00378986
546	0.0052475
558	0.00335257
570	0.00597632
582	0.00233222
594	0
606	0.00991195
618	0.00670514
630	0.00801702
642	0.00816278
654	0.00495598
666	0.00378986
678	0.00670514
690	0.00772549
702	0.0144306
714	0.0243426
726	0.0262375
738	0.0225934
750	0.0182205
762	0.0158883
774	0.016034
786	0.0147222
798	0.0135561
810	0.0189493
822	0.0220104
834	0.0247799
846	0.0269663
858	0.0258002
870	0.0239053
882	0.0214273
894	0.0150137
906	0.0119526
918	0.00991195
930	0.00743396
942	0.00830855
954	0.00874584
966	0.0118069
978	0.0192408
990	0.0291528
1002	0.0456241
1014	0.0622412
1026	0.0638446
1038	0.0556818
1050	0.0501428
1062	0.0530581
1074	0.059909
1086	0.065448
1098	0.0756515
1110	0.101743
1122	0.120838
1134	0.13935
1146	0.20509
1158	0.295755
1170	0.349396
1182	0.320681
1194	0.285989
1206	0.268497
1218	0.245758
1230	0.238324
1242	0.240656
1254	0.223748
1266	0.173751
1278	0.133666
1290	0.115154
1302	0.107137
1314	0.102326
1326	0.0947466
1338	0.102472
1350	0.127106
1362	0.127689
1374	0.0903737
1386	0.0581598
1398	0.0357122
1410	0.0341088
1422	0.0530581
1434	0.118215
1446	0.148096
1458	0.152906
1470	0.126815
1482	0.0548073
1494	0.0285697
1506	0.0211358
1518	0.0164713
1530	0.0119526
1542	0.0138476
1554	0.0112238
1566	0.00976619
1578	0.0093289
1590	0.00816278
1602	0.00655938
1614	0.00699667
1626	0.00772549
1638	0.00743396
1650	0.00918313
1662	0.00772549
1674	0.00962042
1686	0.0147222
1698	0.0208443
1710	0.0354207
1722	0.0781295
1734	0.161215
1746	0.331467
1758	0.578683
1770	0.395166
1782	0.194449
1794	0.0651565
1806	0.0260918
1818	0.0113696
1830	0.00612209
1842	0.00583056
1854	0.00378986
1866	0.00335257
1878	0.00349834
1890	0.00262375
1902	0.00218646
1914	0.00291528
1926	0.00247799
1938	0.00320681
1950	0.00378986
1962	0.00408139
1974	0.00437292
1986	0.00510174
1998	0.00510174
2010	0.00626785
2022	0.00714244
2034	0.00714244
2046	0.00743396
2058	0.00626785
2070	0.00539327
2082	0.00451868
2094	0.00335257
2106	0.00218646
2118	0.00218646
2130	0.00174917
2142	0.00174917
2154	0.00189493
2166	0.00131188
2178	0.00131188
2190	0.00116611
2202	0.000874584
2214	0.000874584
2226	0.00072882
2238	0.000583056
2250	0.000874584
2262	0.00072882
2274	0.00116611
2286	0.0016034
2298	0.00189493
2310	0.0016034
2322	0.00218646
2334	0.0020407
2346	0.00247799
2358	0.00174917
2370	0.00233222
2382	0.00262375
2394	0.0016034
2406	0.00145764
2418	0.00145764
2430	0.00145764
2442	0.00102035
2454	0.000874584
2466	0.00102035
2478	0.00116611
2490	0.00145764
2502	0.0016034
2514	0.0020407
2526	0.00291528
2538	0.00306104
2550	0.00320681
2562	0.00349834
2574	0.00437292
2586	0.00539327
2598	0.00641362
2610	0.00685091
2622	0.00757973
2634	0.00801702
2646	0.00918313
2658	0.0107865
2670	0.0118069
2682	0.0128272
2694	0.012973
2706	0.0115154
2718	0.0110781
2730	0.0119526
2742	0.0134103
2754	0.0147222
2766	0.016034
2778	0.0190951
2790	0.0246341
2802	0.0326511
2814	0.0430004
2826	0.0615124
2838	0.0982449
2850	0.219229
2862	0.546469
2874	0.432482
2886	0.295172
2898	0.290216
2910	0.466882
2922	0.868608
2934	1.45764
2946	0.984782
2958	0.608273
2970	0.483791
2982	0.226955
2994	0.129293
3006	0.0928517
3018	0.069821
3030	0.0561191
3042	0.0411054
3054	0.0300274
3066	0.0233222
3078	0.0198239
3090	0.0174917
3102	0.015451
3114	0.0131188
3126	0.0109323
3138	0.0093289
3150	0.00845431
3162	0.0072882
3174	0.00670514
3186	0.00583056
3198	0.00495598
3210	0.00422716
3222	0.00335257
3234	0.00276952
3246	0.00247799
3258	0.00189493
3270	0.00218646
3282	0.0020407
3294	0.00174917
3306	0.0016034
3318	0.00218646
3330	0.00218646
3342	0.00189493
3354	0.00218646
3366	0.00218646
3378	0.00174917
3390	0.00233222
3402	0.00233222
3414	0.0020407
3426	0.00174917
3438	0.00174917
3450	0.00174917
3462	0.00233222
3474	0.00247799
3486	0.0036441
3498	0.00583056
3510	0.0036441
3522	0.0020407
3534	0.000874584
3546	0.00131188
3558	0.000874584
3570	0.00393563
3582	0.00510174
3594	0.00306104
3606	0.00247799
3618	0.00335257
3630	0.00422716
3642	0.00349834
3654	0.0036441
3666	0.00233222
3678	0.00539327
3690	0.00408139
3702	0.0036441
3714	0.00437292
3726	0.00306104
3738	0.00408139
3750	0.00378986
3762	0.00349834
3774	0.00393563
3786	0.00306104
3798	0.00291528
3810	0.00320681
3822	0.0036441
3834	0.00349834
3846	0.00393563
3858	0.00349834
3870	0.00306104
3882	0.00247799
3894	0.00393563
3906	0.0036441
3918	0.00320681
3930	0.00335257
3942	0.00335257
3954	0.00247799
3966	0.00393563
