Infrared Spectrum: Nonanal
Formula: C 9 H 18 O
CAS: 124-19-6
Origin: Sadtler Research Labs Under US-EPA Contract
1/CM	ABSORBANCE
450	0
462	0.00261941
474	0.00399149
486	0.00810771
498	0.0101035
510	0.0155917
522	0.0190843
534	0.0199574
546	0.0123487
558	0.00985399
570	0.00673564
582	0.00449042
594	0.00311835
606	0.00523883
618	0.00473989
630	0.00648617
642	0.00735931
654	0.00885611
666	0.0130971
678	0.0165896
690	0.0147186
702	0.0150928
714	0.0233253
726	0.0269425
738	0.0217037
750	0.0183359
762	0.0168391
774	0.015966
786	0.0155917
798	0.0137207
810	0.0142197
822	0.0160907
834	0.0167144
846	0.0189596
858	0.0209553
870	0.0203316
882	0.0203316
894	0.0224521
906	0.0209553
918	0.0209553
930	0.02345
942	0.0229511
954	0.0207058
966	0.0229511
978	0.0284394
990	0.0325556
1002	0.033304
1014	0.0300609
1026	0.0280651
1038	0.029562
1050	0.0329298
1062	0.0352997
1074	0.0311835
1086	0.0246973
1098	0.02345
1110	0.025321
1122	0.0298114
1134	0.0298114
1146	0.0251963
1158	0.0241984
1170	0.0276909
1182	0.0270673
1194	0.0232005
1206	0.0203316
1218	0.0189596
1230	0.019209
1242	0.0202069
1254	0.021579
1266	0.0227016
1278	0.0249468
1290	0.0263189
1302	0.029063
1314	0.0304351
1326	0.0300609
1338	0.0384181
1350	0.0563798
1362	0.0570034
1374	0.0536356
1386	0.0714726
1398	0.0526377
1410	0.0483968
1422	0.0619928
1434	0.0537604
1446	0.06798
1458	0.115379
1470	0.11725
1482	0.0523883
1494	0.0199574
1506	0.00997872
1518	0.00785824
1530	0.00735931
1542	0.00336782
1554	0.00424096
1566	0.00449042
1578	0.00349255
1590	0.00498936
1602	0.00473989
1614	0.0058625
1626	0.00735931
1638	0.00723457
1650	0.00985399
1662	0.0129723
1674	0.0205811
1686	0.0323061
1698	0.0592486
1710	0.10565
1722	0.172008
1734	0.386052
1746	0.686286
1758	0.322188
1770	0.151302
1782	0.0904321
1794	0.0526377
1806	0.0319319
1818	0.0193338
1830	0.0134713
1842	0.0103529
1854	0.00860665
1866	0.00748404
1878	0.0062367
1890	0.00449042
1902	0.00473989
1914	0.00424096
1926	0.00374202
1938	0.00324308
1950	0.00311835
1962	0.00311835
1974	0.00299362
1986	0.00286888
1998	0.00311835
2010	0.00299362
2022	0.00349255
2034	0.00399149
2046	0.00399149
2058	0.00374202
2070	0.00349255
2082	0.00324308
2094	0.00274415
2106	0.00299362
2118	0.00286888
2130	0.00299362
2142	0.00324308
2154	0.00286888
2166	0.00324308
2178	0.00324308
2190	0.00336782
2202	0.00336782
2214	0.00336782
2226	0.00336782
2238	0.00311835
2250	0.00324308
2262	0.00361729
2274	0.00349255
2286	0.00349255
2298	0.00299362
2310	0.00299362
2322	0.00311835
2334	0.00286888
2346	0.00424096
2358	0.00224521
2370	0.00349255
2382	0.00299362
2394	0.00286888
2406	0.00274415
2418	0.00274415
2430	0.00261941
2442	0.00299362
2454	0.00286888
2466	0.00286888
2478	0.00286888
2490	0.00324308
2502	0.00324308
2514	0.00386675
2526	0.00436569
2538	0.00486463
2550	0.0054883
2562	0.00598723
2574	0.00735931
2586	0.00910558
2598	0.0104777
2610	0.0128476
2622	0.0158412
2634	0.0207058
2646	0.0275662
2658	0.0356739
2670	0.0488957
2682	0.0734683
2694	0.124235
2706	0.247223
2718	0.247098
2730	0.118123
2742	0.0868149
2754	0.0757135
2766	0.0701005
2778	0.0739673
2790	0.104527
2802	0.167518
2814	0.20419
2826	0.137706
2838	0.120618
2850	0.199075
2862	0.4574
2874	0.493572
2886	0.38231
2898	0.339775
2910	0.432203
2922	0.760378
2934	1.23749
2946	1.02394
2958	0.620676
2970	0.617808
2982	0.26481
2994	0.101409
3006	0.0624917
3018	0.04453
3030	0.0343018
3042	0.0264436
3054	0.02108
3066	0.0170886
3078	0.0145939
3090	0.0137207
3102	0.0113508
3114	0.00985399
3126	0.0103529
3138	0.00960452
3150	0.00823244
3162	0.00785824
3174	0.00710984
3186	0.00673564
3198	0.00573776
3210	0.00498936
3222	0.00411622
3234	0.00336782
3246	0.00324308
3258	0.00299362
3270	0.00311835
3282	0.00286888
3294	0.00249468
3306	0.00236995
3318	0.00261941
3330	0.00286888
3342	0.00311835
3354	0.00311835
3366	0.00386675
3378	0.00411622
3390	0.00411622
3402	0.00449042
3414	0.00436569
3426	0.00523883
3438	0.00648617
3450	0.00935505
3462	0.0148433
3474	0.0127229
3486	0.00848191
3498	0.0058625
3510	0.00436569
3522	0.00324308
3534	0.00386675
3546	0.00286888
3558	0.00436569
3570	0.00473989
3582	0.00673564
3594	0.00349255
3606	0.00461516
3618	0.00449042
3630	0.00386675
3642	0.00511409
3654	0.00561303
3666	0.00561303
3678	0.00436569
3690	0.00498936
3702	0.0054883
3714	0.00473989
3726	0.00461516
3738	0.00461516
3750	0.00486463
3762	0.00498936
3774	0.00449042
3786	0.00473989
3798	0.00349255
3810	0.00486463
3822	0.00399149
3834	0.00424096
3846	0.00411622
3858	0.0054883
3870	0.00461516
3882	0.00399149
3894	0.00473989
3906	0.00386675
3918	0.00361729
3930	0.00536356
3942	0.00449042
3954	0.00511409
3966	0.00511409
