Infrared Spectrum: Octanoic Acid
Formula: C 8 H 16 O 2
CAS: 124-07-2
Origin: Sadtler Research Labs Under US-EPA Contract
1/CM	ABSORBANCE
450	0.0230276
462	0.0252803
474	0.0369193
486	0.0449288
498	0.0571936
510	0.0763415
522	0.0838505
534	0.0888565
546	0.119894
558	0.156813
570	0.151682
582	0.153684
594	0.187975
606	0.188226
618	0.191479
630	0.181468
642	0.126527
654	0.0867289
666	0.0195234
678	0.056693
690	0.0384211
702	0.0499349
714	0.0546906
726	0.0611984
738	0.0489337
750	0.0365438
762	0.0261564
774	0.0217761
786	0.0148929
798	0.00963655
810	0.0060072
822	0.00663295
834	0.00913595
846	0.0106378
858	0.0107629
870	0.0140168
882	0.0163947
894	0.0146426
906	0.0167701
918	0.0170204
930	0.0146426
942	0.0145174
954	0.012515
966	0.0142671
978	0.0185222
990	0.0260312
1002	0.0387965
1014	0.0548157
1026	0.0712104
1038	0.0815978
1050	0.0902331
1062	0.119143
1074	0.18735
1086	0.323638
1098	0.511613
1110	0.458424
1122	0.389467
1134	0.510487
1146	0.482704
1158	0.318382
1170	0.226146
1182	0.195234
1194	0.178964
1206	0.150555
1218	0.120019
1230	0.0959901
1242	0.0853523
1254	0.0852272
1266	0.0921104
1278	0.0899829
1290	0.0877302
1302	0.0830996
1314	0.0804714
1326	0.0755906
1338	0.107379
1350	0.117891
1362	0.147802
1374	0.182344
1386	0.202618
1398	0.150681
1410	0.084226
1422	0.0962404
1434	0.102122
1446	0.0957397
1458	0.177713
1470	0.162695
1482	0.0674558
1494	0.0380456
1506	0.0421755
1518	0.0374199
1530	0.0463055
1542	0.030912
1554	0.0295354
1566	0.00538145
1578	0.0351672
1590	0.0187725
1602	0.0136414
1614	0.0306618
1626	0.017521
1638	0.0505606
1650	0.0170204
1662	0.0445534
1674	0.030912
1686	0.0904835
1698	0.103624
1710	0.0573187
1722	0.109506
1734	0.139167
1746	0.282714
1758	0.423883
1770	0.841383
1782	1.2515
1794	0.647276
1806	0.316129
1818	0.134536
1830	0.0498097
1842	0.0643271
1854	0.0219013
1866	0.0286594
1878	0.0226522
1890	0.0155186
1902	0.0122647
1914	0.020024
1926	0.0190228
1938	0.0090108
1950	0.0130156
1962	0.00913595
1974	0.012515
1986	0.00963655
1998	0.00988685
2010	0.0080096
2022	0.0090108
2034	0.0072587
2046	0.00913595
2058	0.00788445
2070	0.0070084
2082	0.00763415
2094	0.00638265
2106	0.0057569
2118	0.00688325
2130	0.00588205
2142	0.0072587
2154	0.00763415
2166	0.0072587
2178	0.00763415
2190	0.0072587
2202	0.00663295
2214	0.00738385
2226	0.00713355
2238	0.00763415
2250	0.0077593
2262	0.00713355
2274	0.00663295
2286	0.00813475
2298	0.010012
2310	0.0156438
2322	0.0183971
2334	0.0226522
2346	0.0332899
2358	0.015018
2370	0.0254054
2382	0.0118893
2394	0.0047557
2406	0.0042551
2418	0.00362935
2430	0.0035042
2442	0.00362935
2454	0.0040048
2466	0.00412995
2478	0.00438025
2490	0.0047557
2502	0.0052563
2514	0.00563175
2526	0.0065078
2538	0.0070084
2550	0.00738385
2562	0.0080096
2574	0.00838505
2586	0.00913595
2598	0.00988685
2610	0.0112635
2622	0.0123899
2634	0.0138917
2646	0.0146426
2658	0.0160192
2670	0.017521
2682	0.0188977
2694	0.0188977
2706	0.0186474
2718	0.0182719
2730	0.0197737
2742	0.0221516
2754	0.0221516
2766	0.0220264
2778	0.0230276
2790	0.0280336
2802	0.0344163
2814	0.0405486
2826	0.0526882
2838	0.0748397
2850	0.147552
2862	0.345789
2874	0.417375
2886	0.345289
2898	0.254805
2910	0.343286
2922	0.621996
2934	0.965908
2946	0.894322
2958	0.647026
2970	0.668426
2982	0.33365
2994	0.14167
3006	0.0871044
3018	0.0643271
3030	0.0521875
3042	0.0451792
3054	0.0396726
3066	0.0374199
3078	0.0360432
3090	0.0340408
3102	0.0322887
3114	0.0319133
3126	0.0312875
3138	0.0310372
3150	0.0307869
3162	0.0305366
3174	0.0307869
3186	0.030036
3198	0.0297857
3210	0.0292851
3222	0.0289097
3234	0.0277833
3246	0.0279085
3258	0.0274079
3270	0.0269073
3282	0.0267821
3294	0.0260312
3306	0.0271576
3318	0.0274079
3330	0.0264067
3342	0.0270324
3354	0.0269073
3366	0.0265318
3378	0.0274079
3390	0.0269073
3402	0.0270324
3414	0.0284091
3426	0.0271576
3438	0.0272827
3450	0.0297857
3462	0.0274079
3474	0.0265318
3486	0.0270324
3498	0.0279085
3510	0.0340408
3522	0.031663
3534	0.0418001
3546	0.0481828
3558	0.0728373
3570	0.268071
3582	0.465683
3594	0.0830996
3606	0.0454295
3618	0.0329145
3630	0.0087605
3642	0.0426762
3654	0.0345414
3666	0.0376701
3678	0.0352923
3690	0.0339156
3702	0.044178
3714	0.0285342
3726	0.0410492
3738	0.0297857
3750	0.0545654
3762	0.0277833
3774	0.0505606
3786	0.0379205
3798	0.0485582
3810	0.0511864
3822	0
3834	0.0247797
3846	0.0307869
3858	0.0319133
3870	0.0357929
3882	0.0190228
3894	0.0347917
3906	0.0434271
3918	0.0339156
3930	0.0470564
3942	0.0385462
3954	0.0429265
3966	0.0411744
