Infrared Spectrum: Tetradecanoic acid, ethyl ester
Formula: C 16 H 32 O 2
CAS: 124-06-1
Origin: Sadtler Research Labs Under US-EPA Contract
1/CM	ABSORBANCE
450	0.00987915
462	0.0189573
474	0.0150857
486	0.0244309
498	0.0154862
510	0.0186903
522	0.0165542
534	0.0141512
546	0.0169548
558	0.0170883
570	0.0104132
582	0.0208263
594	0
606	0.0164207
618	0.0150857
630	0.0165542
642	0.0158867
654	0.0157532
666	0.0156197
678	0.0149522
690	0.0165542
702	0.0209598
714	0.0299044
726	0.0328415
738	0.0280354
750	0.0250984
762	0.0249649
774	0.0262999
786	0.0260329
798	0.0246979
810	0.0224283
822	0.0226953
834	0.0237634
846	0.0275014
858	0.0315065
870	0.0284359
882	0.0244309
894	0.0238969
906	0.0256324
918	0.0288364
930	0.0299044
942	0.0275014
954	0.0236299
966	0.0212268
978	0.0202923
990	0.0217608
1002	0.0281689
1014	0.0452572
1026	0.0841063
1038	0.1319
1050	0.118416
1062	0.0953204
1074	0.0885118
1086	0.0925169
1098	0.123623
1110	0.14792
1122	0.151124
1134	0.147119
1146	0.220278
1158	0.316934
1170	0.358987
1182	0.345904
1194	0.283558
1206	0.236299
1218	0.21921
1230	0.224016
1242	0.230825
1254	0.206261
1266	0.153661
1278	0.120152
1290	0.110673
1302	0.11628
1314	0.113477
1326	0.0951869
1338	0.098124
1350	0.114812
1362	0.099192
1374	0.140177
1386	0.0846403
1398	0.0531338
1410	0.0412521
1422	0.0479272
1434	0.0674185
1446	0.0885118
1458	0.131499
1470	0.12963
1482	0.0591414
1494	0.030305
1506	0.0210933
1518	0.0161537
1530	0.0133502
1542	0.0120152
1554	0.0125492
1566	0.00934514
1578	0.0109472
1590	0.00961214
1602	0.00974565
1614	0.00934514
1626	0.00961214
1638	0.00974565
1650	0.0109472
1662	0.0106802
1674	0.0120152
1686	0.0168213
1698	0.0233629
1710	0.0385821
1722	0.068887
1734	0.15326
1746	0.400506
1758	0.546424
1770	0.227754
1782	0.0798342
1794	0.0341765
1806	0.0204258
1818	0.0134837
1830	0.00907814
1842	0.00841063
1854	0.00707561
1866	0.0066751
1878	0.0068086
1890	0.0066751
1902	0.00600759
1914	0.00587409
1926	0.00587409
1938	0.00574059
1950	0.00587409
1962	0.00547358
1974	0.00534008
1986	0.00520658
1998	0.00480607
2010	0.00493957
2022	0.00587409
2034	0.00560708
2046	0.00534008
2058	0.00480607
2070	0.00333755
2082	0.00373806
2094	0.00333755
2106	0.00267004
2118	0.00213603
2130	0.00186903
2142	0.00173553
2154	0.00120152
2166	0.00160202
2178	0.00146852
2190	0.00133502
2202	0.000934514
2214	0.00120152
2226	0.00120152
2238	0.00120152
2250	0.00133502
2262	0.00146852
2274	0.00133502
2286	0.00186903
2298	0.00226953
2310	0.00267004
2322	0.00320405
2334	0.00146852
2346	0.00160202
2358	0.00293704
2370	0.000801012
2382	0.00120152
2394	0.00200253
2406	0.00213603
2418	0.00240304
2430	0.00226953
2442	0.00160202
2454	0.00160202
2466	0.00160202
2478	0.00186903
2490	0.00186903
2502	0.00213603
2514	0.00226953
2526	0.00280354
2538	0.00320405
2550	0.00347105
2562	0.00373806
2574	0.00453907
2586	0.00493957
2598	0.00587409
2610	0.00614109
2622	0.0068086
2634	0.00747611
2646	0.00827712
2658	0.00934514
2670	0.0110807
2682	0.0122822
2694	0.0122822
2706	0.0108137
2718	0.0105467
2730	0.0116147
2742	0.0132167
2754	0.0136172
2766	0.0152192
2778	0.0180228
2790	0.0212268
2802	0.0276349
2814	0.034577
2826	0.0487282
2838	0.0730256
2850	0.158066
2862	0.492355
2874	0.385954
2886	0.260996
2898	0.243641
2910	0.395833
2922	0.730523
2934	1.33502
2946	0.875373
2958	0.459113
2970	0.430544
2982	0.279954
2994	0.187437
3006	0.106935
3018	0.0618114
3030	0.0380481
3042	0.0264334
3054	0.0193578
3066	0.0152192
3078	0.0132167
3090	0.0117482
3102	0.0106802
3114	0.00921164
3126	0.00854413
3138	0.00774312
3150	0.00747611
3162	0.0066751
3174	0.0065416
3186	0.00574059
3198	0.00547358
3210	0.00480607
3222	0.00347105
3234	0.00293704
3246	0.00226953
3258	0.00226953
3270	0.00186903
3282	0.00213603
3294	0.00213603
3306	0.00240304
3318	0.00186903
3330	0.00160202
3342	0.00226953
3354	0.00226953
3366	0.00200253
3378	0.00253654
3390	0.00280354
3402	0.00240304
3414	0.00253654
3426	0.00213603
3438	0.00160202
3450	0.00186903
3462	0.00253654
3474	0.00347105
3486	0.00574059
3498	0.00453907
3510	0.00173553
3522	0.00160202
3534	0.00173553
3546	0.00173553
3558	0.00160202
3570	0.00280354
3582	0.00373806
3594	0.00240304
3606	0.00373806
3618	0.00333755
3630	0.00280354
3642	0.00373806
3654	0.00320405
3666	0.00560708
3678	0.00347105
3690	0.00373806
3702	0.00427206
3714	0.00347105
3726	0.00440557
3738	0.00400506
3750	0.00520658
3762	0.00387156
3774	0.00440557
3786	0.00493957
3798	0.00480607
3810	0.00520658
3822	0.00253654
3834	0.00427206
3846	0.00333755
3858	0.00280354
3870	0.00307055
3882	0.00293704
3894	0.00360455
3906	0.00440557
3918	0.00453907
3930	0.00467257
3942	0.00467257
3954	0.00480607
3966	0.00493957
