Infrared Spectrum: Hexanedioic acid
Formula: C 6 H 10 O 4
CAS: 124-04-9
Origin: Sadtler Research Labs Under US-EPA Contract
1/CM	ABSORBANCE
450	0.0197484
462	0.011849
474	0.0203409
486	0.0257717
498	0.040583
510	0.0479392
522	0.0487292
534	0.0575172
546	0.0652191
558	0.0735134
570	0.0680826
582	0.0824496
594	0.0775618
606	0.0811659
618	0.0796848
630	0.075587
642	0.0613188
654	0.039793
666	0.0323874
678	0.0273515
690	0.0245868
702	0.0223651
714	0.0215751
726	0.0229081
738	0.0280921
750	0.0295732
762	0.0173292
774	0.0116022
786	0.00755376
798	0.0052827
810	0.00543081
822	0.00469025
834	0.00538144
846	0.00661571
858	0.00784999
870	0.0106148
882	0.00977546
894	0.00859055
906	0.00962734
918	0.00942986
930	0.00775125
942	0.0083437
954	0.00888678
966	0.00908426
978	0.010516
990	0.0117503
1002	0.0144657
1014	0.0209827
1026	0.0291783
1038	0.0417185
1050	0.0567273
1062	0.0668483
1074	0.0840294
1086	0.113356
1098	0.168059
1110	0.255199
1122	0.301262
1134	0.238215
1146	0.163862
1158	0.118145
1170	0.0946936
1182	0.0858562
1194	0.079043
1206	0.0665521
1218	0.0532219
1230	0.0442858
1242	0.0397437
1254	0.0391018
1266	0.0413729
1278	0.0413235
1290	0.041521
1302	0.0369789
1314	0.0312518
1326	0.029672
1338	0.0358927
1350	0.048433
1362	0.0568754
1374	0.0665521
1386	0.0678358
1398	0.0523333
1410	0.0314987
1422	0.0298695
1434	0.0305113
1446	0.0253767
1458	0.0241918
1470	0.0186129
1482	0.0107629
1494	0.011849
1506	0.0109604
1518	0.00715879
1530	0.00641823
1542	0.00676383
1554	0.00938049
1566	0.00582578
1578	0.00567767
1590	0.0068132
1602	0.00893615
1614	0.00454213
1626	0.00251792
1638	0.0037522
1650	0
1662	0.00399905
1674	0.00394968
1686	0.00557892
1698	0.0120959
1710	0.0192053
1722	0.0350534
1734	0.0678358
1746	0.119132
1758	0.215109
1770	0.401584
1782	0.491883
1794	0.30299
1806	0.149545
1818	0.0683788
1830	0.0256235
1842	0.012639
1854	0.0095286
1866	0.00513458
1878	0.00464087
1890	0.00464087
1902	0.00217232
1914	0.003061
1926	0.00286352
1938	0.00177736
1950	0.00246855
1962	0.0022217
1974	0.000938049
1986	0.00162924
1998	0.00143176
2010	0.000592452
2022	0.00128365
2034	0.000839307
2046	0.000789936
2058	0.00138239
2070	0.00103679
2082	0.000839307
2094	0.00138239
2106	0.000691194
2118	0.00108616
2130	0.00143176
2142	0.00128365
2154	0.00162924
2166	0.00197484
2178	0.00148113
2190	0.0022217
2202	0.00167861
2214	0.00192547
2226	0.00207358
2238	0.00202421
2250	0.00182673
2262	0.0022217
2274	0.00177736
2286	0.00286352
2298	0.0049371
2310	0.00582578
2322	0.00454213
2334	0.00365345
2346	0.00533207
2358	0.00301163
2370	0.00464087
2382	0.00513458
2394	0.0015305
2406	0.00128365
2418	0.000888678
2430	0.00133302
2442	0.00108616
2454	0.000789936
2466	0.00113553
2478	0.00133302
2490	0.00138239
2502	0.00138239
2514	0.00167861
2526	0.00143176
2538	0.00162924
2550	0.00113553
2562	0.00123427
2574	0.0011849
2586	0.000888678
2598	0.000888678
2610	0.00128365
2622	0.00108616
2634	0.00113553
2646	0.00128365
2658	0.00108616
2670	0.0011849
2682	0.00148113
2694	0.00123427
2706	0.0018761
2718	0.0018761
2730	0.00148113
2742	0.00128365
2754	0.00167861
2766	0.00143176
2778	0.00138239
2790	0.00197484
2802	0.00236981
2814	0.00315974
2826	0.00350534
2838	0.00464087
2850	0.00696131
2862	0.0112566
2874	0.0177736
2886	0.0198471
2898	0.0172798
2910	0.0182673
2922	0.0285364
2934	0.0440883
2946	0.0552461
2958	0.0603314
2970	0.0512965
2982	0.0337698
2994	0.0195015
3006	0.0106148
3018	0.00740565
3030	0.00552955
3042	0.00543081
3054	0.00592452
3066	0.00627012
3078	0.0049371
3090	0.00434465
3102	0.00286352
3114	0.00241918
3126	0.00207358
3138	0.00157987
3150	0.00207358
3162	0.00202421
3174	0.0011849
3186	0.0015305
3198	0.000839307
3210	0.00098742
3222	0.00128365
3234	0.00128365
3246	0.00148113
3258	0.00177736
3270	0.00128365
3282	0.00143176
3294	0.00192547
3306	0.00138239
3318	0.00103679
3330	0.00177736
3342	0.00113553
3354	0.00167861
3366	0.00241918
3378	0.00157987
3390	0.00212295
3402	0.0018761
3414	0.00177736
3426	0.00296226
3438	0.003061
3450	0.00227107
3462	0.0027154
3474	0.0022217
3486	0.00301163
3498	0.0037522
3510	0.0045915
3522	0.00508521
3534	0.00888678
3546	0.0144163
3558	0.0286846
3570	0.149594
3582	0.169984
3594	0.0345103
3606	0.00938049
3618	0.00804747
3630	0.00829433
3642	0.00454213
3654	0.00656634
3666	0.0011849
3678	0.00607263
3690	0.00454213
3702	0.00380157
3714	0.00508521
3726	0.00656634
3738	0.00730691
3750	0.00651697
3762	0.00429528
3774	0.00365345
3786	0.00261666
3798	0.00390031
3810	0.00311037
3822	0.00760313
3834	0.00390031
3846	0.00543081
3858	0.00444339
3870	0.00686257
3882	0.00607263
3894	0.00291289
3906	0.00730691
3918	0.00449276
3930	0.00488773
3942	0.00409779
3954	0.0034066
3966	0.00360408
