Infrared Spectrum: Ethane, 1,2-dibromo-1,1,2,2-tetrafluoro-
Formula: C 2 Br 2 F 4
CAS: 124-73-2
Origin: Sadtler Research Labs Under US-EPA Contract
1/CM	ABSORBANCE
450	0.00662714
462	0.00662714
474	0.00869812
486	0.00724843
498	0.000828392
510	0.00393486
522	0.00569519
534	0.0050739
546	0.00983716
558	0.00310647
570	0.0048668
582	0.0167749
594	0.0380025
606	0.0370705
618	0.00559165
630	0.00352067
642	0.0170856
654	0.0294079
666	0.0135649
678	0.0110797
690	0.00776617
702	0.00673068
714	0.0121152
726	0.005281
738	0.00465971
750	0.0303399
762	0.250485
774	1.03549
786	0.0101478
798	0.0113904
810	0.0148075
822	0.0141862
834	0.0111833
846	0.00890521
858	0.0391415
870	0.3297
882	0.332392
894	0.0383131
906	0.0184317
918	0.0104584
930	0.0109762
942	0.0107691
954	0.0134614
966	0.0104584
978	0.0172927
990	0.0435941
1002	0.165057
1014	0.494654
1026	0.166403
1038	0.0138756
1050	0.00963006
1062	0.00952651
1074	0.00911231
1086	0.0200885
1098	0.0719666
1110	0.181936
1122	0.40819
1134	0.679903
1146	0.187734
1158	0.161744
1170	0.452613
1182	0.77465
1194	0.557818
1206	0.0819073
1218	0.0366563
1230	0.0866705
1242	0.197261
1254	0.137927
1266	0.0124259
1278	0.00828392
1290	0.0101478
1302	0.00755908
1314	0.00393486
1326	0.00352067
1338	0.0048668
1350	0.00662714
1362	0.00600584
1374	0.00465971
1386	0.00372776
1398	0.00362421
1410	0.00352067
1422	0.00300292
1434	0.00258873
1446	0.00227808
1458	0.00207098
1470	0.00455616
1482	0.00455616
1494	0.00176033
1506	0.00155323
1518	0.000931941
1530	0.00155323
1542	0.00248518
1554	0.00176033
1566	0.00155323
1578	0.00176033
1590	0.00134614
1602	0.00176033
1614	0.00186388
1626	0.00196743
1638	0.00289937
1650	0.00310647
1662	0.00227808
1674	0.00155323
1686	0.00176033
1698	0.00269227
1710	0.00321002
1722	0.00207098
1734	0.00124259
1746	0.00134614
1758	0.00176033
1770	0.00155323
1782	0.00124259
1794	0.00155323
1806	0.00217453
1818	0.00258873
1830	0.00186388
1842	0.00176033
1854	0.00155323
1866	0.00176033
1878	0.00155323
1890	0.00113904
1902	0.000931941
1914	0.000931941
1926	0.000931941
1938	0.00103549
1950	0.00103549
1962	0.000931941
1974	0.000724843
1986	0.000828392
1998	0.000931941
2010	0.00113904
2022	0.00155323
2034	0.00176033
2046	0.00103549
2058	0.00113904
2070	0.00103549
2082	0.000828392
2094	0.000828392
2106	0.00113904
2118	0.00134614
2130	0.00155323
2142	0.00176033
2154	0.00300292
2166	0.00196743
2178	0.00165678
2190	0.00248518
2202	0.00372776
2214	0.00476325
2226	0.00207098
2238	0.00176033
2250	0.00269227
2262	0.00393486
2274	0.00362421
2286	0.00310647
2298	0.00455616
2310	0.00465971
2322	0.00465971
2334	0.00610939
2346	0.00590229
2358	0.005281
2370	0.00207098
2382	0.00227808
2394	0.00217453
2406	0.00248518
2418	0.00258873
2430	0.00279582
2442	0.00269227
2454	0.00165678
2466	0.000621294
2478	0.000621294
2490	0.000310647
2502	0.000414196
2514	0.000724843
2526	0.000414196
2538	0.000828392
2550	0.000414196
2562	0.000724843
2574	0.000621294
2586	0.000103549
2598	0.000207098
2610	0.000103549
2622	0.000103549
2634	0
2646	0.000310647
2658	0.000207098
2670	0.000621294
2682	0.000207098
2694	0.000310647
2706	0.000414196
2718	0.000103549
2730	0.000207098
2742	0.000310647
2754	0.000310647
2766	0.000414196
2778	0.000724843
2790	0.000828392
2802	0.000828392
2814	0.000414196
2826	0.000414196
2838	0.000207098
2850	0.000621294
2862	0.000310647
2874	0.000621294
2886	0.000931941
2898	0.00103549
2910	0.000724843
2922	0.000621294
2934	0.000931941
2946	0.000414196
2958	0.000621294
2970	0.000724843
2982	0.00103549
2994	0.000828392
3006	0.000828392
3018	0.000931941
3030	0.000828392
3042	0.000621294
3054	0.000828392
3066	0.000621294
3078	0.000931941
3090	0.00124259
3102	0.000931941
3114	0.00134614
3126	0.000414196
3138	0.000931941
3150	0.00103549
3162	0.000310647
3174	0.00124259
3186	0.000931941
3198	0.00134614
3210	0.000931941
3222	0.000621294
3234	0.00113904
3246	0.00113904
3258	0.00113904
3270	0.00124259
3282	0.00176033
3294	0.000931941
3306	0.00103549
3318	0.00103549
3330	0.000828392
3342	0.000931941
3354	0.00196743
3366	0.00155323
3378	0.000621294
3390	0.00124259
3402	0.00155323
3414	0.000931941
3426	0.00134614
3438	0.000310647
3450	0.00103549
3462	0.00155323
3474	0.00113904
3486	0.00134614
3498	0.00124259
3510	0.000828392
3522	0.000724843
3534	0.00155323
3546	0.000724843
3558	0.00113904
3570	0.000828392
3582	0.000621294
3594	0.000310647
3606	0.00176033
3618	0.00196743
3630	0.00155323
3642	0.000414196
3654	0.00155323
3666	0.00248518
3678	0.00176033
3690	0.00165678
3702	0.00124259
3714	0.00103549
3726	0.00176033
3738	0.00124259
3750	0.00134614
3762	0.00165678
3774	0.00113904
3786	0.00362421
3798	0.00165678
3810	0.00196743
3822	0.00176033
3834	0.00279582
3846	0.00207098
3858	0.000931941
3870	0.00103549
3882	0.00113904
3894	0.00258873
3906	0.00207098
3918	0.00227808
3930	0.000207098
3942	0.000621294
3954	0.00300292
3966	0
