Infrared Spectrum: 2-Propen-1-amine, N-2-propenyl-
Formula: C 6 H 11 N
CAS: 124-02-7
Origin: Sadtler Research Labs Under US-EPA Contract
1/CM	ABSORBANCE
450	0.030597
462	0.00412901
474	0.00974022
486	0.00402314
498	0.0110107
510	0.0118047
522	0.0107989
534	0.0109578
546	0.0258328
558	0.0387492
570	0.0366846
582	0.0325027
594	0.0331379
606	0.0519302
618	0.0493364
630	0.0431428
642	0.0500245
654	0.0532536
666	0.0531477
678	0.0593413
690	0.0733164
702	0.102008
714	0.1163
726	0.124135
738	0.0999961
750	0.0786629
762	0.049654
774	0.0295912
786	0.014028
798	0.00555828
810	0.00174689
822	0.00598177
834	0.00682874
846	0.012387
858	0.0204333
870	0.0328203
882	0.0461073
894	0.101955
906	0.25891
918	0.516708
930	0.435875
942	0.198245
954	0.114342
966	0.10619
978	0.14965
990	0.249276
1002	0.217514
1014	0.110795
1026	0.0776571
1038	0.0699814
1050	0.0643172
1062	0.0581237
1074	0.0662229
1086	0.0844859
1098	0.134934
1110	0.207668
1122	0.231595
1134	0.191311
1146	0.158173
1158	0.118259
1170	0.0635761
1182	0.0349378
1194	0.0271562
1206	0.0307029
1218	0.0349378
1230	0.0325027
1242	0.0284266
1254	0.0357318
1266	0.0393314
1278	0.0469013
1290	0.0606117
1302	0.0627821
1314	0.0742163
1326	0.0925321
1338	0.101372
1350	0.0842741
1362	0.0600824
1374	0.0408666
1386	0.0395432
1398	0.0548417
1410	0.110477
1422	0.14695
1434	0.125882
1446	0.180829
1458	0.236465
1470	0.14478
1482	0.0557945
1494	0.0318675
1506	0.0242447
1518	0.014928
1530	0.00688168
1542	0.00434075
1554	0.00550534
1566	0.00381139
1578	0.00487011
1590	0.0047113
1602	0.00730517
1614	0.0154573
1626	0.0340908
1638	0.0988844
1650	0.116724
1662	0.047113
1674	0.0315499
1686	0.0253563
1698	0.0472189
1710	0.0983022
1722	0.0642114
1734	0.0167807
1746	0.00688168
1758	0.00487011
1770	0.00344084
1782	0.00307029
1794	0.00301735
1806	0.00545241
1818	0.00979316
1830	0.0240859
1842	0.0420841
1854	0.0368964
1866	0.0154044
1878	0.00566415
1890	0.00333497
1902	0.00259386
1914	0.00111166
1926	0.00137634
1938	0.000952848
1950	0.000688168
1962	0.00307029
1974	0.00545241
1986	0.00524066
1998	0.00354671
2010	0.00254093
2022	0.00227625
2034	0.0020645
2046	0.00195863
2058	0.00195863
2070	0.00174689
2082	0.0013234
2094	0.00127046
2106	0.000582296
2118	0.000635232
2130	0.00026468
2142	0.00052936
2154	0.000688168
2166	0.000688168
2178	0.00052936
2190	0.000741104
2202	0.00079404
2214	0.000635232
2226	0.000952848
2238	0.000370552
2250	0.000158808
2262	0.000158808
2274	0.000317616
2286	0.00116459
2298	0.00222331
2310	0.00296442
2322	0.0019057
2334	0.000158808
2346	0.00222331
2358	0.00137634
2370	0.00248799
2382	0.00280561
2394	0.00153514
2406	0.00238212
2418	0.0019057
2430	0.00179982
2442	0.00169395
2454	0.00121753
2466	0.00100578
2478	0.000899912
2490	0.00121753
2502	0.00142927
2514	0.00179982
2526	0.0020645
2538	0.00275267
2550	0.00328203
2562	0.00402314
2574	0.00481718
2586	0.00524066
2598	0.00608764
2610	0.00709342
2622	0.00778159
2634	0.00931674
2646	0.0109048
2658	0.0135516
2670	0.0168336
2682	0.020698
2694	0.0247211
2706	0.0286913
2718	0.0311264
2730	0.0341967
2742	0.0410254
2754	0.0527243
2766	0.0733693
2778	0.108413
2790	0.164684
2802	0.2389
2814	0.299565
2826	0.309358
2838	0.260286
2850	0.203327
2862	0.17363
2874	0.173154
2886	0.187076
2898	0.200469
2910	0.226513
2922	0.253563
2934	0.223708
2946	0.146421
2958	0.0976669
2970	0.109472
2982	0.164207
2994	0.183211
3006	0.157432
3018	0.155844
3030	0.107672
3042	0.0580708
3054	0.0647937
3066	0.10349
3078	0.183
3090	0.258486
3102	0.166272
3114	0.0485423
3126	0.0186335
3138	0.0124929
3150	0.0098461
3162	0.00682874
3174	0.00476424
3186	0.00344084
3198	0.00275267
3210	0.00232918
3222	0.00179982
3234	0.00259386
3246	0.00211744
3258	0.00153514
3270	0.00222331
3282	0.00349378
3294	0.00254093
3306	0.00248799
3318	0.00164102
3330	0.0026468
3342	0.00269974
3354	0.00391726
3366	0.0039702
3378	0.00402314
3390	0.0032291
3402	0.00365258
3414	0.00301735
3426	0.00328203
3438	0.0026468
3450	0.00232918
3462	0.00291148
3474	0.00285854
3486	0.00285854
3498	0.00169395
3510	0.000582296
3522	0.00185276
3534	0.00333497
3546	0.00291148
3558	0.000741104
3570	0.00412901
3582	0.00116459
3594	0.00195863
3606	0.000846976
3618	0.00185276
3630	0.00381139
3642	0.0013234
3654	0.00418194
3666	0.00201157
3678	0.00164102
3690	0.00111166
3702	0.0026468
3714	0.00185276
3726	0.0020645
3738	0.00391726
3750	0.0047113
3762	0.00201157
3774	0.00211744
3786	0.00174689
3798	0.00444662
3810	0.00301735
3822	0.00412901
3834	0.00254093
3846	0.00222331
3858	0.00492305
3870	0.00333497
3882	0.00412901
3894	0.00407607
3906	0.00566415
3918	0.0086815
3930	0.00381139
3942	0.00582296
3954	0.00508186
3966	0.00608764
