Infrared Spectrum: 1-Butoxyethoxy-2-propanol
Formula: C 9 H 20 O 3
CAS: 124-16-3
Origin: Sadtler Research Labs Under US-EPA Contract
1/CM	ABSORBANCE
450	0.0224491
462	0.0165501
474	0.00794731
486	0.0266276
498	0.00868469
510	0.00729186
522	0.00991365
534	0.00589903
546	0.0117981
558	0.0138463
570	0.0112245
582	0.0108968
594	0.0164681
606	0.0128632
618	0.0101594
630	0.00540745
642	0.0145018
654	0.0105691
666	0.0104872
678	0.00917627
690	0.00835696
702	0.0143379
714	0.0103233
726	0.00802924
738	0.00876662
750	0.0109788
762	0.0131909
774	0.0108149
786	0.0103233
798	0.0140102
810	0.0223672
822	0.0317073
834	0.0407197
846	0.0484212
858	0.0499779
870	0.0489947
882	0.0485032
894	0.0481754
906	0.0514527
918	0.0524358
930	0.0657906
942	0.0814394
954	0.0876662
966	0.0883216
978	0.0981533
990	0.0988907
1002	0.109624
1014	0.107985
1026	0.127894
1038	0.155505
1050	0.171645
1062	0.205893
1074	0.230882
1086	0.30675
1098	0.462746
1110	0.614401
1122	0.799647
1134	0.755977
1146	0.565897
1158	0.368034
1170	0.206958
1182	0.105773
1194	0.0568601
1206	0.0428499
1218	0.0509611
1230	0.0734921
1242	0.108149
1254	0.147066
1266	0.153129
1278	0.115523
1290	0.101431
1302	0.0940568
1314	0.0952858
1326	0.102741
1338	0.0978256
1350	0.129205
1362	0.161732
1374	0.143133
1386	0.147804
1398	0.104872
1410	0.0756223
1422	0.0507153
1434	0.0483393
1446	0.0726728
1458	0.116342
1470	0.111017
1482	0.067675
1494	0.0312976
1506	0.016632
1518	0.0113065
1530	0.00860276
1542	0.00770151
1554	0.0081931
1566	0.00860276
1578	0.00753765
1590	0.00802924
1602	0.00622676
1614	0.00557131
1626	0.00516165
1638	0.00434234
1650	0.00450621
1662	0.004752
1674	0.00393269
1686	0.00409655
1698	0.00450621
1710	0.00434234
1722	0.00565324
1734	0.00655448
1746	0.00589903
1758	0.00442427
1770	0.00352303
1782	0.00319531
1794	0.00294952
1806	0.00245793
1818	0.00213021
1830	0.00221214
1842	0.00196634
1854	0.00163862
1866	0.00188441
1878	0.002376
1890	0.00278565
1902	0.00262179
1914	0.00311338
1926	0.00393269
1938	0.00442427
1950	0.00458814
1962	0.00491586
1974	0.00524358
1986	0.00483393
1998	0.00450621
2010	0.00540745
2022	0.00557131
2034	0.00540745
2046	0.00483393
2058	0.00491586
2070	0.00483393
2082	0.00467007
2094	0.00409655
2106	0.00499779
2118	0.00467007
2130	0.00434234
2142	0.00360496
2154	0.00352303
2166	0.00352303
2178	0.00360496
2190	0.00319531
2202	0.00319531
2214	0.00327724
2226	0.00286758
2238	0.00245793
2250	0.002376
2262	0.002376
2274	0.00253986
2286	0.00278565
2298	0.00368689
2310	0.004752
2322	0.00335917
2334	0.00221214
2346	0.00450621
2358	0.00262179
2370	0.00155669
2382	0.00188441
2394	0.00163862
2406	0.00147476
2418	0.00139283
2430	0.00114703
2442	0.000983172
2454	0.000737379
2466	0.000491586
2478	0.000245793
2490	0.000983172
2502	0.000901241
2514	0.00081931
2526	0.00081931
2538	0.00172055
2550	0.00196634
2562	0.00188441
2574	0.00286758
2586	0.00483393
2598	0.00532552
2610	0.00598096
2622	0.00696413
2634	0.00761958
2646	0.00802924
2658	0.00958593
2670	0.01188
2682	0.0143379
2694	0.0191719
2706	0.0235142
2718	0.0270372
2730	0.0316254
2742	0.0337556
2754	0.0338375
2766	0.0355581
2778	0.041539
2790	0.0511249
2802	0.0639062
2814	0.0728367
2826	0.0861914
2838	0.128304
2850	0.243007
2862	0.437102
2874	0.561637
2886	0.535255
2898	0.44849
2910	0.424157
2922	0.440707
2934	0.47774
2946	0.520426
2958	0.419159
2970	0.493552
2982	0.352385
2994	0.192456
3006	0.064152
3018	0.0316254
3030	0.0206466
3042	0.0151572
3054	0.0117161
3066	0.00934013
3078	0.007128
3090	0.00655448
3102	0.00565324
3114	0.00442427
3126	0.00352303
3138	0.00335917
3150	0.00360496
3162	0.00352303
3174	0.00368689
3186	0.00368689
3198	0.00311338
3210	0.00253986
3222	0.00155669
3234	0.00147476
3246	0.00196634
3258	0.00122897
3270	0.000327724
3282	0.00114703
3294	0.00147476
3306	0.00114703
3318	0.000901241
3330	0.00147476
3342	0.00155669
3354	0.000491586
3366	0.000163862
3378	0.00114703
3390	0.00188441
3402	0.00139283
3414	0.00122897
3426	0.00147476
3438	0.00213021
3450	0.002376
3462	0.00376883
3474	0.00565324
3486	0.00852082
3498	0.0125354
3510	0.019008
3522	0.0217117
3534	0.0197454
3546	0.0194176
3558	0.0172055
3570	0.0145837
3582	0.0143379
3594	0.0170416
3606	0.0349845
3618	0.0648894
3630	0.048667
3642	0.021384
3654	0.0125354
3666	0.0111426
3678	0.00360496
3690	0.000245793
3702	0.00114703
3714	0.00180248
3726	0.00114703
3738	0.000737379
3750	0.000983172
3762	0.00253986
3774	0.00180248
3786	0
3798	0.000163862
3810	0.00213021
3822	0.000163862
3834	0.00139283
3846	0.000655448
3858	0.00172055
3870	0.0013109
3882	0.000245793
3894	0.0010651
3906	0.000983172
3918	0.000901241
3930	8.1931e-05
3942	0.000327724
3954	0.000245793
3966	0.00139283
