Infrared Spectrum: Decane
Formula: C 10 H 22
CAS: 124-18-5
Origin: Sadtler Research Labs Under US-EPA Contract
1/CM	ABSORBANCE
450	0.0401468
462	0.0574545
474	0.00767249
486	0.0305115
498	0.00731563
510	0.0180214
522	0.0198057
534	0.020341
546	0.0089215
558	0.0176646
570	0.0107058
582	0.0144528
594	0.0132038
606	0.0117764
618	0.0158803
630	0.0107058
642	0.0144528
654	0.0117764
666	0.0119548
678	0.0198057
690	0.0162371
702	0.0212332
714	0.031939
726	0.0365782
738	0.0349723
750	0.0249802
762	0.017843
774	0.0205195
786	0.0249802
798	0.0112411
810	0.0251586
822	0.00053529
834	0.0135607
846	0.0151666
858	0.0151666
870	0.0189136
882	0.016594
894	0.0206979
906	0.0194489
918	0.0180214
930	0.0199842
942	0.0171293
954	0.0187352
966	0.0123117
978	0.0132038
990	0.0180214
1002	0.0176646
1014	0.014096
1026	0.0160587
1038	0.0146313
1050	0.0146313
1062	0.0157018
1074	0.017843
1086	0.0171293
1098	0.0157018
1110	0.0133823
1122	0.0146313
1134	0.0148097
1146	0.014096
1158	0.0126685
1170	0.0130254
1182	0.0137391
1194	0.0142744
1206	0.0142744
1218	0.014096
1230	0.0146313
1242	0.0162371
1254	0.0183783
1266	0.0183783
1278	0.0217685
1290	0.0246233
1302	0.0305115
1314	0.0290841
1326	0.0258724
1338	0.0353291
1350	0.0449644
1362	0.0433585
1374	0.0483545
1386	0.066376
1398	0.0346154
1410	0.0249802
1422	0.0269429
1434	0.0372919
1446	0.0722641
1458	0.137748
1470	0.154342
1482	0.0761896
1494	0.0317605
1506	0.0206979
1518	0.0157018
1530	0.0133823
1542	0.0112411
1554	0.0108842
1566	0.00999208
1578	0.00927836
1590	0.00981365
1602	0.0089215
1614	0.00820778
1626	0.0071372
1638	0.0071372
1650	0.00731563
1662	0.00767249
1674	0.00695877
1686	0.00606662
1698	0.00642348
1710	0.00678034
1722	0.00767249
1734	0.00731563
1746	0.00678034
1758	0.00606662
1770	0.00678034
1782	0.00678034
1794	0.00517447
1806	0.00570976
1818	0.00517447
1830	0.00481761
1842	0.00553133
1854	0.00446075
1866	0.00517447
1878	0.0053529
1890	0.00463918
1902	0.00410389
1914	0.00410389
1926	0.00392546
1938	0.00321174
1950	0.00339017
1962	0.00303331
1974	0.00374703
1986	0.00321174
1998	0.00392546
2010	0.00428232
2022	0.00499604
2034	0.0053529
2046	0.00499604
2058	0.00463918
2070	0.00463918
2082	0.00428232
2094	0.0035686
2106	0.00428232
2118	0.00446075
2130	0.00410389
2142	0.00463918
2154	0.00428232
2166	0.00410389
2178	0.00428232
2190	0.00410389
2202	0.00410389
2214	0.00428232
2226	0.00374703
2238	0.00410389
2250	0.0035686
2262	0.00285488
2274	0.00303331
2286	0.00374703
2298	0.00410389
2310	0.00499604
2322	0.00481761
2334	0.00446075
2346	0.00196273
2358	0.0035686
2370	0
2382	0.00142744
2394	0.00321174
2406	0.00303331
2418	0.00267645
2430	0.00214116
2442	0.00196273
2454	0.00160587
2466	0.00071372
2478	0.00089215
2490	0.00107058
2502	0.00196273
2514	0.00214116
2526	0.00285488
2538	0.00249802
2550	0.00339017
2562	0.00392546
2574	0.0053529
2586	0.00553133
2598	0.00678034
2610	0.00767249
2622	0.00820778
2634	0.00981365
2646	0.011598
2658	0.0114195
2670	0.0137391
2682	0.0164156
2694	0.0148097
2706	0.012847
2718	0.0133823
2730	0.0158803
2742	0.0208763
2754	0.0196273
2766	0.017843
2778	0.0198057
2790	0.0269429
2802	0.0353291
2814	0.0471055
2826	0.0661975
2838	0.102954
2850	0.25569
2862	0.631642
2874	0.617368
2886	0.496749
2898	0.389334
2910	0.558486
2922	1.12803
2934	1.7843
2946	1.20422
2958	0.755473
2970	0.967091
2982	0.393973
2994	0.144885
3006	0.0870738
3018	0.0604878
3030	0.0449644
3042	0.034437
3054	0.0262292
3066	0.0217685
3078	0.0183783
3090	0.016594
3102	0.0146313
3114	0.0130254
3126	0.0121332
3138	0.0112411
3150	0.0103489
3162	0.00981365
3174	0.00945679
3186	0.00945679
3198	0.00874307
3210	0.00588819
3222	0.00446075
3234	0.00392546
3246	0.00285488
3258	0.00428232
3270	0.00267645
3282	0.0035686
3294	0.00374703
3306	0.00339017
3318	0.00446075
3330	0.00339017
3342	0.00410389
3354	0.00428232
3366	0.00410389
3378	0.00392546
3390	0.00339017
3402	0.00267645
3414	0.00231959
3426	0.0035686
3438	0.00428232
3450	0.00321174
3462	0.00214116
3474	0.0017843
3486	0.00285488
3498	0.00124901
3510	0.00285488
3522	0.00214116
3534	0.00124901
3546	0.00249802
3558	0.00267645
3570	0.00285488
3582	0.00249802
3594	0.00142744
3606	0.00517447
3618	0.00267645
3630	0.00214116
3642	0.00339017
3654	0.00249802
3666	0.00285488
3678	0.00303331
3690	0.00428232
3702	0.00142744
3714	0.00035686
3726	0.00231959
3738	0.00214116
3750	0.00392546
3762	0.0035686
3774	0.00339017
3786	0.00196273
3798	0.00481761
3810	0.00374703
3822	0.00499604
3834	0.00196273
3846	0.00160587
3858	0.00303331
3870	0.00428232
3882	0.00339017
3894	0.00231959
3906	0.00321174
3918	0.00428232
3930	0.0053529
3942	0.00303331
3954	0.00410389
3966	0.00802935
