Infrared Spectrum: 1-Octadecanamine, N,N-dimethyl-
Formula: C 20 H 43 N
CAS: 124-28-7
Origin: Sadtler Research Labs Under US-EPA Contract
1/CM	ABSORBANCE
450	0
462	0.0188232
474	0.00169834
486	0.0212292
498	0.0145774
510	0.0141528
522	0.0144359
534	0.015285
546	0.0147189
558	0.0217953
570	0.0117468
582	0.00934085
594	0.015002
606	0.0164172
618	0.0169834
630	0.0113222
642	0.0134452
654	0.0142943
666	0.0135867
678	0.0144359
690	0.0168418
702	0.0243428
714	0.0294378
726	0.0362312
738	0.0273149
750	0.0223614
762	0.0212292
774	0.0226445
786	0.0217953
798	0.0192478
810	0.0182571
822	0.022503
834	0.022786
846	0.0239182
858	0.0138697
870	0.0185402
882	0.0130206
894	0.01019
906	0.0164172
918	0.0169834
930	0.0114638
942	0.0113222
954	0.0127375
966	0.0174079
978	0.0175495
990	0.0208046
1002	0.022786
1014	0.0321269
1026	0.0417508
1038	0.0566112
1050	0.0611401
1062	0.0502424
1074	0.0393448
1086	0.0277395
1098	0.0281641
1110	0.0261827
1122	0.0234936
1134	0.0232106
1146	0.0311362
1158	0.0319853
1170	0.0288717
1182	0.0222199
1194	0.0246259
1206	0.0205216
1218	0.0219368
1230	0.0267488
1242	0.0250505
1254	0.0341082
1266	0.0376464
1278	0.0358066
1290	0.0336837
1302	0.0359481
1314	0.0341082
1326	0.030287
1338	0.0341082
1350	0.0485441
1362	0.0510916
1374	0.0512331
1386	0.0424584
1398	0.0257581
1410	0.0236352
1422	0.0247674
1434	0.040194
1446	0.0829354
1458	0.136291
1470	0.124545
1482	0.0509501
1494	0.025475
1506	0.0178325
1518	0.0137282
1530	0.00919932
1542	0.00792557
1554	0.00835015
1566	0.00792557
1578	0.00778404
1590	0.00410431
1602	0.00495348
1614	0.00566112
1626	0.00651029
1638	0.0080671
1650	0.00665182
1662	0.00693487
1674	0.0108977
1686	0.0142943
1698	0.0188232
1710	0.0271734
1722	0.0164172
1734	0.0121714
1746	0.0117468
1758	0.0133036
1770	0.012596
1782	0.0124545
1794	0.00891626
1806	0.00636876
1818	0.00523654
1830	0.00509501
1842	0.00424584
1854	0.00481195
1866	0.00509501
1878	0.00325514
1890	0.00382126
1902	0.00367973
1914	0.00339667
1926	0.00367973
1938	0.00311362
1950	0.00283056
1962	0.00297209
1974	0.00367973
1986	0.00113222
1998	0.00481195
2010	0.00438737
2022	0.0045289
2034	0.00551959
2046	0.00410431
2058	0.0045289
2070	0.00438737
2082	0.00311362
2094	0.00367973
2106	0.00212292
2118	0.00283056
2130	0.00240598
2142	0.00183986
2154	0.00155681
2166	0.00311362
2178	0.00169834
2190	0.00169834
2202	0.00226445
2214	0.00226445
2226	0.00212292
2238	0.00127375
2250	0.0025475
2262	0.00212292
2274	0.00325514
2286	0.00311362
2298	0.00410431
2310	0.00382126
2322	0.00509501
2334	0.00155681
2346	0.00268903
2358	0.00198139
2370	0.00113222
2382	0.00311362
2394	0.00268903
2406	0.0035382
2418	0.00297209
2430	0.00240598
2442	0.00311362
2454	0.00297209
2466	0.0025475
2478	0.00339667
2490	0.00396278
2502	0.00509501
2514	0.00594418
2526	0.00551959
2538	0.0060857
2550	0.00580265
2562	0.00622723
2574	0.00679334
2586	0.0080671
2598	0.00877474
2610	0.0096239
2622	0.0113222
2634	0.0124545
2646	0.0147189
2658	0.0165588
2670	0.0199554
2682	0.0229275
2694	0.0257581
2706	0.03057
2718	0.0389202
2730	0.0475534
2742	0.0573188
2754	0.0798218
2766	0.145491
2778	0.186392
2790	0.166862
2802	0.129357
2814	0.127941
2826	0.15186
2838	0.135301
2850	0.240031
2862	0.568235
2874	0.383541
2886	0.265082
2898	0.285462
2910	0.455579
2922	0.831335
2934	1.41528
2946	0.850583
2958	0.43251
2970	0.342639
2982	0.206631
2994	0.0958145
3006	0.0527899
3018	0.0356651
3030	0.0268903
3042	0.0208046
3054	0.0168418
3066	0.0148604
3078	0.0131621
3090	0.0117468
3102	0.0096239
3114	0.00835015
3126	0.00863321
3138	0.00735946
3150	0.00693487
3162	0.00735946
3174	0.00622723
3186	0.00665182
3198	0.00665182
3210	0.00651029
3222	0.0045289
3234	0.00481195
3246	0.0035382
3258	0.00311362
3270	0.00297209
3282	0.0035382
3294	0.00297209
3306	0.00297209
3318	0.00325514
3330	0.00382126
3342	0.00382126
3354	0.00311362
3366	0.00438737
3378	0.0045289
3390	0.00396278
3402	0.00467042
3414	0.00382126
3426	0.00382126
3438	0.0035382
3450	0.00367973
3462	0.0035382
3474	0.00268903
3486	0.00311362
3498	0.00297209
3510	0.00212292
3522	0.00297209
3534	0.00240598
3546	0.00240598
3558	0.0035382
3570	0.00509501
3582	0.00396278
3594	0.00410431
3606	0.00297209
3618	0.0035382
3630	0.00566112
3642	0.0045289
3654	0.00566112
3666	0.00509501
3678	0.0045289
3690	0.00325514
3702	0.00198139
3714	0.00325514
3726	0.0025475
3738	0.00438737
3750	0.00509501
3762	0.0025475
3774	0.0035382
3786	0.00396278
3798	0.00495348
3810	0.00382126
3822	0.00580265
3834	0.00537806
3846	0.00523654
3858	0.00622723
3870	0.00396278
3882	0.0035382
3894	0.00679334
3906	0.00438737
3918	0.00537806
3930	0.00721793
3942	0.00835015
3954	0.00509501
3966	0.00424584
