Infrared Spectrum: Isobornyl acetate
Formula: C 12 H 20 O 2
CAS: 125-12-2
Origin: Sadtler Research Labs Under US-EPA Contract
1/CM	ABSORBANCE
450	0.00568578
462	0.0043591
474	0.00530673
486	0.00881296
498	0.0107082
510	0.00653865
522	0.00331671
534	0.00559102
546	0
558	0.00549625
570	0.00426434
582	0.0069177
594	0.0137406
606	0.0155411
618	0.0188578
630	0.0235012
642	0.0115611
654	0.0108977
666	0.00416957
678	0.00644388
690	0.00379052
702	0.00587531
714	0.00625436
726	0.00587531
738	0.00549625
750	0.00824438
762	0.0051172
774	0.00710723
786	0.00587531
798	0.0116558
810	0.00796009
822	0.00824438
834	0.0134563
846	0.0126035
858	0.0139302
870	0.0152568
882	0.0094763
894	0.0125087
906	0.0142145
918	0.0262494
930	0.0305137
942	0.0285237
954	0.0260598
966	0.0371471
978	0.0645336
990	0.0512668
1002	0.0554364
1014	0.130962
1026	0.180144
1038	0.0751471
1050	0.140154
1062	0.205162
1074	0.0778004
1086	0.052783
1098	0.0391371
1110	0.0493715
1122	0.0237855
1134	0.0185735
1146	0.0201845
1158	0.0286184
1170	0.049561
1182	0.0768528
1194	0.103292
1206	0.0847181
1218	0.172279
1230	0.534937
1242	0.92754
1254	0.300399
1266	0.0937206
1278	0.0512668
1290	0.0343042
1302	0.0324089
1314	0.0330723
1326	0.0207531
1338	0.0139302
1350	0.0254912
1362	0.131057
1374	0.161287
1386	0.112578
1398	0.0766633
1410	0.0236908
1422	0.0182893
1434	0.0232169
1446	0.0425486
1458	0.0762842
1470	0.0630174
1482	0.0506982
1494	0.0278603
1506	0.0136459
1518	0.0119401
1530	0.0100449
1542	0.00976059
1554	0.00900248
1566	0.00758104
1578	0.00672817
1590	0.00540149
1602	0.00634912
1614	0.00559102
1626	0.0051172
1638	0.00634912
1650	0.00729675
1662	0.0076758
1674	0.00900248
1686	0.012414
1698	0.0149726
1710	0.0223641
1722	0.0366733
1734	0.0640598
1746	0.207152
1758	0.500538
1770	0.221651
1782	0.0694613
1794	0.0336409
1806	0.0199002
1818	0.0137406
1830	0.0109925
1842	0.00833914
1854	0.00653865
1866	0.00540149
1878	0.00398005
1890	0.00341147
1902	0.00284289
1914	0.00274813
1926	0.00236908
1938	0.00199002
1950	0.0018005
1962	0.00227431
1974	0.00189526
1986	0.00189526
1998	0.0018005
2010	0.0018005
2022	0.00170573
2034	0.00189526
2046	0.00170573
2058	0.00189526
2070	0.00284289
2082	0.00274813
2094	0.00227431
2106	0.0018005
2118	0.00170573
2130	0.00236908
2142	0.00274813
2154	0.00208479
2166	0.00189526
2178	0.0018005
2190	0.00170573
2202	0.0018005
2214	0.00170573
2226	0.00170573
2238	0.00132668
2250	0.00170573
2262	0.00189526
2274	0.00132668
2286	0.000663341
2298	0.00151621
2310	0.00094763
2322	0.00094763
2334	0.000852867
2346	0.00189526
2358	0.00161097
2370	0.00398005
2382	0.00265336
2394	0.00199002
2406	0.00217955
2418	0.00199002
2430	0.00170573
2442	0.00170573
2454	0.00217955
2466	0.00274813
2478	0.00236908
2490	0.00236908
2502	0.00142144
2514	0.00189526
2526	0.00151621
2538	0.00265336
2550	0.00151621
2562	0.00161097
2574	0.00151621
2586	0.00208479
2598	0.0025586
2610	0.00246384
2622	0.00227431
2634	0.00284289
2646	0.0025586
2658	0.00208479
2670	0.00246384
2682	0.00170573
2694	0.00265336
2706	0.00312718
2718	0.00398005
2730	0.00540149
2742	0.00729675
2754	0.00653865
2766	0.00530673
2778	0.0061596
2790	0.00606483
2802	0.00559102
2814	0.00710723
2826	0.00938154
2838	0.0117506
2850	0.0141197
2862	0.025586
2874	0.0732518
2886	0.163087
2898	0.154938
2910	0.106893
2922	0.124803
2934	0.186209
2946	0.309685
2958	0.419042
2970	0.414114
2982	0.204499
2994	0.113905
3006	0.0541097
3018	0.0458653
3030	0.0284289
3042	0.0164888
3054	0.0134563
3066	0.00995012
3078	0.0118454
3090	0.00985535
3102	0.00928677
3114	0.00729675
3126	0.00710723
3138	0.00682294
3150	0.00597007
3162	0.00758104
3174	0.00578054
3186	0.00587531
3198	0.00530673
3210	0.00597007
3222	0.0051172
3234	0.00398005
3246	0.00398005
3258	0.00454862
3270	0.0043591
3282	0.00303242
3294	0.00398005
3306	0.00388528
3318	0.00398005
3330	0.00170573
3342	0.00549625
3354	0.00473815
3366	0.00104239
3378	0.00407481
3390	0.00426434
3402	0.00236908
3414	0.00312718
3426	0.00634912
3438	0.00303242
3450	0.00312718
3462	0.00559102
3474	0.00454862
3486	0.00445386
3498	0.00483291
3510	0.00322194
3522	0.00303242
3534	0.00094763
3546	0.00284289
3558	0.00189526
3570	0.00379052
3582	0.00199002
3594	0.00473815
3606	0.00426434
3618	0.0051172
3630	0.00161097
3642	0.00398005
3654	0.00265336
3666	0.00331671
3678	0.00473815
3690	0.00473815
3702	0.00303242
3714	0.00416957
3726	0.00322194
3738	0.0043591
3750	0.00483291
3762	0.00454862
3774	0.00369576
3786	0.00445386
3798	0.00521196
3810	0.00454862
3822	0.00464339
3834	0.00492768
3846	0.00492768
3858	0.00540149
3870	0.00398005
3882	0.00559102
3894	0.00549625
3906	0.00341147
3918	0.00464339
3930	0.00426434
3942	0.00549625
3954	0.00644388
3966	0.00559102
