Infrared Spectrum: Bis(2-ethyl-1-hexyl)-2-ethyl-1-hexyl phosphonate
Formula: C 24 H 51 O 3 P
CAS: 126-63-6
Origin: Sadtler Research Labs Under US-EPA Contract
1/CM	ABSORBANCE
450	0.0567575
462	0.0145962
474	0.0130196
486	0.0317863
498	0.0164271
510	0.0128162
522	0.0137317
534	0.0117482
546	0.0212586
558	0.0278702
570	0.0291925
582	0.0187666
594	0.0113413
606	0.00864586
618	0.00381435
630	0.00340749
642	0.00178003
654	0.00142402
666	0.00203432
678	0.000610296
690	0.00386521
702	0.00788299
714	0.0092053
726	0.0151048
738	0.0159694
750	0.0192243
762	0.0244118
774	0.0335154
786	0.0378384
798	0.0338714
810	0.0481625
822	0.0648948
834	0.0715572
846	0.0782196
858	0.0864077
870	0.0855432
882	0.0670817
894	0.0478574
906	0.0467385
918	0.0458231
930	0.0468911
942	0.0501968
954	0.0758801
966	0.136757
978	0.17546
990	0.19326
1002	0.222249
1014	0.306318
1026	0.316133
1038	0.269344
1050	0.247933
1062	0.177698
1074	0.103089
1086	0.0655051
1098	0.0396692
1110	0.0353972
1122	0.0294468
1134	0.0259376
1146	0.0300571
1158	0.0252256
1170	0.0204449
1182	0.0194786
1194	0.0203432
1206	0.0233947
1218	0.0295994
1230	0.0382452
1242	0.0498917
1254	0.0913918
1266	0.119313
1278	0.083458
1290	0.0532483
1302	0.035448
1314	0.0263444
1326	0.0210552
1338	0.0199363
1350	0.0211061
1362	0.0218689
1374	0.025073
1386	0.0498917
1398	0.0241575
1410	0.024005
1422	0.015766
1434	0.0170883
1446	0.0323965
1458	0.0680989
1470	0.083102
1482	0.0375841
1494	0.0155117
1506	0.0112905
1518	0.00869672
1530	0.00610296
1542	0.00645897
1554	0.00467894
1566	0.00345834
1578	0.00432293
1590	0.0041195
1602	0.00386521
1614	0.0041195
1626	0.00208518
1638	0.00305148
1650	0.00228861
1662	0.00289891
1674	0.00325491
1686	0.00498408
1698	0.00391607
1710	0.00274633
1722	0.0025429
1734	0.0025429
1746	0.00279719
1758	0.00249204
1770	0.00401778
1782	0.00472979
1794	0.00386521
1806	0.00442465
1818	0.00366178
1830	0.00320405
1842	0.00325491
1854	0.00305148
1866	0.00345834
1878	0.00294976
1890	0.0031532
1902	0.00294976
1914	0.00213604
1926	0.00198346
1938	0.00239033
1950	0.00178003
1962	0.0015766
1974	0.0015766
1986	0.00106802
1998	0.0015766
2010	0.00198346
2022	0.00132231
2034	0.00116973
2046	0.000610296
2058	0.00183089
2070	0.000915444
2082	0.000101716
2094	0.0015766
2106	0.00147488
2118	0.00122059
2130	0.00188175
2142	0.00208518
2154	0.0015766
2166	0.00249204
2178	0.0025429
2190	0.00147488
2202	0.00101716
2214	0.000559438
2226	0.00111888
2238	0.00162746
2250	0.00198346
2262	0.00183089
2274	0.00162746
2286	0.00244118
2298	0.00381435
2310	0.00589953
2322	0.00544181
2334	0.00356006
2346	0.00228861
2358	0.00483151
2370	0.000101716
2382	0.000661154
2394	0.00198346
2406	0.00233947
2418	0.00233947
2430	0.00183089
2442	0.00172917
2454	0.0019326
2466	0.00203432
2478	0.00218689
2490	0.00147488
2502	0.00172917
2514	0.00122059
2526	0.000966302
2538	0.00142402
2550	0.00076287
2562	0.00208518
2574	0.00371263
2586	0.00442465
2598	0.00442465
2610	0.00513666
2622	0.00635725
2634	0.00615382
2646	0.00671326
2658	0.00773042
2670	0.00737441
2682	0.00706926
2694	0.00818814
2706	0.00834071
2718	0.00915444
2730	0.0118499
2742	0.0145454
2754	0.0144437
2766	0.014342
2778	0.0157151
2790	0.016478
2802	0.0199363
2814	0.0231912
2826	0.0298536
2838	0.0412458
2850	0.07054
2862	0.159898
2874	0.218435
2886	0.234862
2898	0.197939
2910	0.230387
2922	0.331696
2934	0.45584
2946	0.432039
2958	0.350666
2970	0.50858
2982	0.200584
2994	0.0797453
3006	0.0459756
3018	0.0320914
3030	0.0246153
3042	0.0201398
3054	0.0164271
3066	0.013986
3078	0.0132739
3090	0.0122059
3102	0.0105785
3114	0.008595
3126	0.00854414
3138	0.00722184
3150	0.00691669
3162	0.00584867
3174	0.00595039
3186	0.00640811
3198	0.00513666
3210	0.00549266
3222	0.00462808
3234	0.0035092
3246	0.00462808
3258	0.00208518
3270	0.00213604
3282	0.00330577
3294	0.00345834
3306	0.00305148
3318	0.00376349
3330	0.00503494
3342	0.00345834
3354	0.0041195
3366	0.00391607
3378	0.00310234
3390	0.00478065
3402	0.00483151
3414	0.00356006
3426	0.00488237
3438	0.00284805
3450	0.00320405
3462	0.00417036
3474	0.00259376
3486	0.00371263
3498	0.00208518
3510	0.00213604
3522	0.00127145
3534	0.000864586
3546	0.00198346
3558	0.000915444
3570	0.00228861
3582	0.0019326
3594	0.00188175
3606	0.00345834
3618	0.00106802
3630	0.000712012
3642	0.00223775
3654	0.00218689
3666	0.00249204
3678	0.00172917
3690	0.00274633
3702	0.000864586
3714	0.00076287
3726	0.00137317
3738	0.00152574
3750	0.00142402
3762	0.00305148
3774	0.00223775
3786	0.000559438
3798	5.0858e-05
3810	0.000152574
3822	0.00208518
3834	0.00208518
3846	0.000152574
3858	0.0041195
3870	0.000406864
3882	0.00432293
3894	0.00142402
3906	0.00228861
3918	0.00391607
3930	0.000101716
3942	0.00137317
3954	0.00152574
3966	0.00742527
