Infrared Spectrum: Triethylphosphorothioate
Formula: C 6 H 15 O 3 P S
CAS: 126-68-1
Origin: Sadtler Research Labs Under US-EPA Contract
1/CM	ABSORBANCE
450	0.0188491
462	0.0145189
474	0.0422832
486	0.0364247
498	0.0249624
510	0.0175755
522	0.0028019
534	0.000509436
546	0.0028019
558	0.00331133
570	0.00764154
582	0.0114623
594	0.009934
606	0.028019
618	0.0486511
630	0.0366794
642	0.0285284
654	0.0127359
666	0.00458492
678	0.00356605
690	0.00203774
702	0.00178303
714	0.00331133
726	0.00483964
738	0.011717
750	0.0270001
762	0.0672456
774	0.193076
786	0.411879
798	0.459766
810	0.499502
822	0.728493
834	0.795739
846	0.299548
858	0.091189
870	0.0486511
882	0.0387171
894	0.0420285
906	0.0570568
918	0.0967928
930	0.198935
942	0.462823
954	0.97557
966	1.09834
978	0.655389
990	0.286048
1002	0.233576
1014	0.41519
1026	1.17017
1038	2.31386
1050	2.52043
1062	1.35637
1074	0.665833
1086	0.462823
1098	0.399907
1110	0.273567
1122	0.205303
1134	0.182378
1146	0.188491
1158	0.190274
1170	0.179831
1182	0.131689
1194	0.0779437
1206	0.0410096
1218	0.0295473
1230	0.0247076
1242	0.0221605
1254	0.0231793
1266	0.0282737
1278	0.0310756
1290	0.0348964
1302	0.0412643
1314	0.0336228
1326	0.0203774
1338	0.0150284
1350	0.0170661
1362	0.0270001
1374	0.0486511
1386	0.121246
1398	0.194605
1410	0.0774343
1422	0.0524719
1434	0.0509436
1446	0.0669908
1458	0.0601134
1470	0.0527266
1482	0.059604
1494	0.0338775
1506	0.019868
1518	0.0127359
1530	0.00840569
1542	0.00662267
1554	0.00458492
1566	0.00585851
1578	0.0056038
1590	0.00458492
1602	0.00382077
1614	0.0028019
1626	0.00356605
1638	0.00331133
1650	0.00687739
1662	0.00687739
1674	0.00636795
1686	0.00433021
1698	0.00356605
1710	0.00407549
1722	0.0056038
1734	0.00585851
1746	0.00611323
1758	0.00611323
1770	0.00662267
1782	0.00636795
1794	0.00815098
1806	0.009934
1818	0.0150284
1830	0.0206322
1842	0.0231793
1854	0.0252171
1866	0.0249624
1878	0.0224152
1890	0.0170661
1902	0.0119717
1914	0.00891513
1926	0.00662267
1938	0.0056038
1950	0.00382077
1962	0.00229246
1974	0.00127359
1986	0.00127359
1998	0.000254718
2010	0.000254718
2022	0
2034	0.000254718
2046	0
2058	0.000254718
2070	0.000764154
2082	0.00178303
2094	0.00229246
2106	0.00229246
2118	0.00229246
2130	0.00203774
2142	0.0028019
2154	0.00229246
2166	0.00229246
2178	0.00229246
2190	0.00229246
2202	0.00203774
2214	0.00152831
2226	0.00152831
2238	0.00178303
2250	0.00229246
2262	0.00254718
2274	0.00254718
2286	0.00203774
2298	0.000509436
2310	0
2322	0
2334	0.000509436
2346	0.00127359
2358	0.00127359
2370	0.000764154
2382	0.00178303
2394	0.00178303
2406	0.00229246
2418	0.00331133
2430	0.00356605
2442	0.00433021
2454	0.00433021
2466	0.00483964
2478	0.00382077
2490	0.00356605
2502	0.00254718
2514	0.00229246
2526	0.00178303
2538	0.00178303
2550	0.00203774
2562	0.00203774
2574	0.00178303
2586	0.00203774
2598	0.00203774
2610	0.00203774
2622	0.00254718
2634	0.0028019
2646	0.00203774
2658	0.00229246
2670	0.00229246
2682	0.00229246
2694	0.00229246
2706	0.00254718
2718	0.00458492
2730	0.00891513
2742	0.00840569
2754	0.00942457
2766	0.0109529
2778	0.0145189
2790	0.011717
2802	0.0101887
2814	0.0127359
2826	0.0168114
2838	0.019868
2850	0.0249624
2862	0.0359152
2874	0.0654625
2886	0.100614
2898	0.111057
2910	0.178557
2922	0.162765
2934	0.208614
2946	0.312284
2958	0.218548
2970	0.248095
2982	0.439643
2994	0.511219
3006	0.255482
3018	0.13067
3030	0.0718305
3042	0.0382077
3054	0.0226699
3066	0.0150284
3078	0.0119717
3090	0.009934
3102	0.00866041
3114	0.00866041
3126	0.00789626
3138	0.00687739
3150	0.00738682
3162	0.00662267
3174	0.00585851
3186	0.00585851
3198	0.0056038
3210	0.00611323
3222	0.00738682
3234	0.00585851
3246	0.00433021
3258	0.0028019
3270	0.00254718
3282	0.00203774
3294	0.00203774
3306	0.00152831
3318	0.00203774
3330	0.00152831
3342	0.00152831
3354	0.00178303
3366	0.00178303
3378	0.00178303
3390	0.00152831
3402	0.00178303
3414	0.00178303
3426	0.00203774
3438	0.00178303
3450	0.00229246
3462	0.00203774
3474	0.00229246
3486	0.00127359
3498	0.00152831
3510	0.00127359
3522	0.00178303
3534	0.000764154
3546	0.00203774
3558	0.00178303
3570	0.00229246
3582	0.00178303
3594	0.0028019
3606	0.00178303
3618	0.00203774
3630	0.0056038
3642	0.00152831
3654	0.00203774
3666	0.000764154
3678	0.00458492
3690	0.00178303
3702	0.00203774
3714	0.00407549
3726	0.00229246
3738	0.0028019
3750	0.00407549
3762	0.0028019
3774	0.0028019
3786	0.00152831
3798	0.00178303
3810	0.00152831
3822	0.00458492
3834	0.00203774
3846	0.00331133
3858	0.00331133
3870	0.00229246
3882	0.00254718
3894	0.00203774
3906	0.00254718
3918	0.00356605
3930	0.00229246
3942	0.00254718
3954	0.00254718
3966	0.0028019
