Infrared Spectrum: 1,3-Dioxolane, 2-ethyl-2-methyl-
Formula: C 6 H 12 O 2
CAS: 126-39-6
Origin: Sadtler Research Labs Under US-EPA Contract
1/CM	ABSORBANCE
450	0.0886383
462	0.0246091
474	0.006608
486	0.0226723
498	0.0428381
510	0.0255205
522	0.000683586
534	0.0112792
546	0.00455724
558	0.0180011
570	0.018115
582	0.0158364
594	0.00831696
606	0.00763338
618	0.003304
630	0.0133299
642	0.0210772
654	0.0193683
666	0.0137857
678	0.0120767
690	0.00968413
702	0.00751945
714	0.0047851
726	0.00763338
738	0.00843089
750	0.0156085
762	0.0447749
774	0.0453445
786	0.0361161
798	0.0172036
810	0.0144692
822	0.0173175
834	0.0226723
846	0.0552565
858	0.152326
870	0.285511
882	0.262497
894	0.154149
906	0.0971831
918	0.0603834
930	0.0714347
942	0.119172
954	0.0904612
966	0.0320146
978	0.0290524
990	0.0473953
1002	0.0716626
1014	0.0901194
1026	0.142072
1038	0.219659
1050	0.315475
1062	0.658065
1074	1.13236
1086	0.831696
1098	0.24837
1110	0.124982
1122	0.174314
1134	0.25737
1146	0.277308
1158	0.271612
1170	0.244154
1182	0.297474
1194	0.432482
1206	0.450825
1218	0.374833
1230	0.31331
1242	0.262839
1254	0.26489
1266	0.20519
1278	0.133413
1290	0.134553
1302	0.114045
1314	0.0578769
1326	0.0675611
1338	0.11245
1350	0.131135
1362	0.15244
1374	0.253496
1386	0.244496
1398	0.095816
1410	0.0326982
1422	0.0295081
1434	0.0405594
1446	0.072574
1458	0.116437
1470	0.118716
1482	0.0831696
1494	0.0360022
1506	0.0200519
1518	0.0127603
1530	0.0108234
1542	0.0160643
1554	0.0117349
1566	0.00968413
1578	0.00854483
1590	0.00592441
1602	0.0051269
1614	0.00831696
1626	0.00706372
1638	0.011621
1650	0.00900055
1662	0.00763338
1674	0.00854483
1686	0.011507
1698	0.0129881
1710	0.0184568
1722	0.0326982
1734	0.0386226
1746	0.0393062
1758	0.0230141
1770	0.0113931
1782	0.00649407
1794	0.00535476
1806	0.00467117
1818	0.00592441
1830	0.00729158
1842	0.00683586
1854	0.00569655
1866	0.00432938
1878	0.00364579
1890	0.00432938
1902	0.00626621
1914	0.00900055
1926	0.0103677
1938	0.00979807
1950	0.00911448
1962	0.00831696
1974	0.00831696
1986	0.00717765
1998	0.00569655
2010	0.0047851
2022	0.00444331
2034	0.00421545
2046	0.00410152
2058	0.00603834
2070	0.00763338
2082	0.00763338
2094	0.00729158
2106	0.00683586
2118	0.00569655
2130	0.00489903
2142	0.00535476
2154	0.00546869
2166	0.00455724
2178	0.00341793
2190	0.00307614
2202	0.00341793
2214	0.00375972
2226	0.00353186
2238	0.00296221
2250	0.00273434
2262	0.00262041
2274	0.00341793
2286	0.00398759
2298	0.00410152
2310	0.00170897
2322	0.00193683
2334	0.00273434
2346	0.003304
2358	0.000911448
2370	0.00432938
2382	0.00410152
2394	0.00284827
2406	0.00284827
2418	0.00284827
2430	0.00273434
2442	0.00125324
2454	0.000797517
2466	0.000227862
2478	0.000341793
2490	0.000227862
2502	0.000569655
2514	0.000341793
2526	0.000797517
2538	0.0014811
2550	0.00227862
2562	0.00136717
2574	0.0018229
2586	0.00193683
2598	0.00273434
2610	0.00307614
2622	0.00455724
2634	0.0047851
2646	0.00615227
2658	0.00854483
2670	0.0135578
2682	0.0175454
2694	0.0142414
2706	0.0095702
2718	0.00797517
2730	0.00877269
2742	0.0108234
2754	0.0107095
2766	0.0108234
2778	0.0124185
2790	0.0160643
2802	0.0216469
2814	0.0316728
2826	0.0465978
2838	0.0648267
2850	0.0885244
2862	0.157225
2874	0.381669
2886	0.575693
2898	0.498334
2910	0.348971
2922	0.320032
2934	0.43852
2946	0.618645
2958	0.609075
2970	0.589023
2982	0.798656
2994	0.776554
3006	0.377453
3018	0.114501
3030	0.0542312
3042	0.0341793
3054	0.0252927
3066	0.0221026
3078	0.0218748
3090	0.0189125
3102	0.0144692
3114	0.0121906
3126	0.0104817
3138	0.0104817
3150	0.0100259
3162	0.0102538
3174	0.0101399
3186	0.0100259
3198	0.009912
3210	0.00831696
3222	0.00729158
3234	0.00467117
3246	0.00364579
3258	0.00375972
3270	0.00375972
3282	0.00432938
3294	0.00375972
3306	0.00341793
3318	0.003304
3330	0.00170897
3342	0.00296221
3354	0.00410152
3366	0.00353186
3378	0.00284827
3390	0.00262041
3402	0.00239255
3414	0.00262041
3426	0.00273434
3438	0.00262041
3450	0.00227862
3462	0.0014811
3474	0.00113931
3486	0.00250648
3498	0.00273434
3510	0.000911448
3522	0.00250648
3534	0.00296221
3546	0.00170897
3558	0.00307614
3570	0.00341793
3582	0.000569655
3594	0.00250648
3606	0.00227862
3618	0.00444331
3630	0.00398759
3642	0.00341793
3654	0.00193683
3666	0.00467117
3678	0.00284827
3690	0.0047851
3702	0.00227862
3714	0.00501296
3726	0.00159503
3738	0.00125324
3750	0.0051269
3762	0.00364579
3774	0.0014811
3786	0.0018229
3798	0
3810	0.00216469
3822	0.000455724
3834	0.00205076
3846	0.00102538
3858	0.00193683
3870	0.00444331
3882	0.00250648
3894	0.00170897
3906	0
3918	0.000683586
3930	0.00375972
3942	0.00319007
3954	0.00501296
3966	0.00353186
