Infrared Spectrum: Methacrylic acid, 2-hydroxyethyl ester
Formula: C 6 H 10 O 3
CAS: 12676-48-1
Origin: Sadtler Research Labs Under US-EPA Contract
1/CM	ABSORBANCE
450	0.00642711
462	0.00742874
474	0.0100997
486	0.0106006
498	0.0118526
510	0.010851
522	0.0138559
534	0.0106006
546	0.00434039
558	0.00709486
570	0.00876425
582	0.00893118
594	0.00926506
606	0.00626017
618	0.00333876
630	0.00717833
642	0.0116857
654	0.0141063
666	0.00884771
678	0.00425692
690	0.00233713
702	0.0010851
714	0.000333876
726	0.000417345
738	0.00183632
750	0.00325529
762	0.00325529
774	0.00333876
786	0.00692793
798	0.0181962
810	0.0388131
822	0.0349735
834	0.0214515
846	0.0218689
858	0.0257085
870	0.0247068
882	0.0259589
894	0.0390635
906	0.0411502
918	0.0403155
930	0.0701974
942	0.0978257
954	0.0605985
966	0.0299654
978	0.0237887
990	0.0315513
1002	0.0484955
1014	0.0887275
1026	0.126289
1038	0.108259
1050	0.0892284
1062	0.0869747
1074	0.109177
1086	0.115772
1098	0.0838863
1110	0.0670256
1122	0.0785443
1134	0.135554
1146	0.344393
1158	0.776095
1170	0.666166
1182	0.315179
1194	0.154835
1206	0.0890614
1218	0.0623513
1230	0.0505822
1242	0.0459914
1254	0.0494971
1266	0.0575101
1278	0.0869747
1290	0.193147
1302	0.231376
1314	0.207921
1326	0.165352
1338	0.0708652
1350	0.0575936
1362	0.0535871
1374	0.0595134
1386	0.0626852
1398	0.0721172
1410	0.084721
1422	0.0585118
1434	0.0511665
1446	0.0647719
1458	0.0828847
1470	0.0654397
1482	0.0311339
1494	0.0146071
1506	0.00843037
1518	0.00634364
1530	0.00550895
1542	0.00383957
1554	0.00525855
1566	0.00559242
1578	0.00659405
1590	0.00868078
1602	0.0115187
1614	0.0181962
1626	0.0298819
1638	0.048579
1650	0.037728
1662	0.0142732
1674	0.0117691
1686	0.0167773
1698	0.0262927
1710	0.0585118
1722	0.16435
1734	0.383039
1746	0.431117
1758	0.191227
1770	0.0587622
1782	0.0237052
1794	0.0157756
1806	0.0116857
1818	0.0072618
1830	0.00383957
1842	0.00367264
1854	0.00442386
1866	0.00667752
1878	0.00934853
1890	0.00918159
1902	0.00609324
1914	0.00392304
1926	0.00392304
1938	0.0035057
1950	0.00342223
1962	0.00392304
1974	0.00400651
1986	0.00425692
1998	0.00392304
2010	0.0035057
2022	0.00300488
2034	0.00200326
2046	0.00208672
2058	0.00183632
2070	0.00150244
2082	0.00150244
2094	0.00233713
2106	0.0024206
2118	0.0024206
2130	0.00191979
2142	0.00200326
2154	0.00191979
2166	0.00191979
2178	0.00141897
2190	0.00100163
2202	0.0013355
2214	0.0010851
2226	0.00141897
2238	0.00141897
2250	0.00125203
2262	0.00083469
2274	0.00083469
2286	8.3469e-05
2298	0.000250407
2310	0.000333876
2322	0.00100163
2334	0.0010851
2346	0.000500814
2358	0
2370	0.00141897
2382	0.000918159
2394	0.00100163
2406	0.00100163
2418	0.00100163
2430	0.000918159
2442	0.000918159
2454	0.000918159
2466	0.00100163
2478	0.00158591
2490	0.0010851
2502	0.00100163
2514	0.0010851
2526	0.00100163
2538	0.00100163
2550	0.00158591
2562	0.0010851
2574	0.00100163
2586	0.0010851
2598	0.00100163
2610	0.0010851
2622	0.0010851
2634	0.00150244
2646	0.0010851
2658	0.0010851
2670	0.00116857
2682	0.00166938
2694	0.00208672
2706	0.00258754
2718	0.00308835
2730	0.00358917
2742	0.00467426
2754	0.00500814
2766	0.00450733
2778	0.00492467
2790	0.00550895
2802	0.00651058
2814	0.00843037
2826	0.0102667
2838	0.0123534
2850	0.0170277
2862	0.0263762
2874	0.0421518
2886	0.0585952
2898	0.0595969
2910	0.0518342
2922	0.0529193
2934	0.0761237
2946	0.0983265
2958	0.11719
2970	0.118192
2982	0.0928175
2994	0.0772923
3006	0.0446559
3018	0.0247903
3030	0.016193
3042	0.0115187
3054	0.00993281
3066	0.00692793
3078	0.00517508
3090	0.00525855
3102	0.00918159
3114	0.0136889
3126	0.00509161
3138	0.00225366
3150	0.0010851
3162	0.00150244
3174	0.0010851
3186	0.00116857
3198	0.00100163
3210	0.000584283
3222	0.000500814
3234	0.000918159
3246	0.000500814
3258	0.000584283
3270	0.00141897
3282	0.000500814
3294	0.000417345
3306	0.000500814
3318	0.000417345
3330	0.000918159
3342	0.0013355
3354	0.00166938
3366	0.0013355
3378	0.00191979
3390	0.00233713
3402	0.00191979
3414	0.0010851
3426	0.00225366
3438	0.00275448
3450	0.00383957
3462	0.00500814
3474	0.00609324
3486	0.00375611
3498	0.00267101
3510	0.00300488
3522	0.0024206
3534	0.00617671
3546	0.0128542
3558	0.0232044
3570	0.0271274
3582	0.0247068
3594	0.020283
3606	0.0150244
3618	0.0114353
3630	0.0113518
3642	0.0186136
3654	0.0292141
3666	0.0282125
3678	0.0204499
3690	0.0117691
3702	0.00584283
3714	0.00467426
3726	0.00367264
3738	0.00275448
3750	0.00200326
3762	0.00183632
3774	0.00208672
3786	0.00200326
3798	0.00183632
3810	0.00267101
3822	0.00116857
3834	0.00267101
3846	0.00183632
3858	0.0035057
3870	0.00392304
3882	0.00333876
3894	0.00275448
3906	0.00333876
3918	0.00250407
3930	0.00250407
3942	0.00250407
3954	0.00300488
3966	0.00333876
