Infrared Spectrum: Bicyclo[3.1.1]hept-2-ene-2-ethanol, 6,6-dimethyl-
Formula: C 11 H 18 O
CAS: 128-50-7
Origin: Sadtler Research Labs Under US-EPA Contract
1/CM	ABSORBANCE
450	0.0111096
462	0.0134181
474	0.0137067
486	0.00793546
498	0.00591552
510	0.00490555
522	0.00779117
534	0.0083683
546	0.00504984
558	0.00346274
570	0.00144281
582	0.00461699
594	0.0100997
606	0.00894542
618	0.00706977
630	0.00562696
642	0.00432843
654	0.00894542
666	0.0113982
678	0.00779117
690	0.00807974
702	0.00476127
714	0.00216422
726	0.00187565
738	0.00115425
750	0.00461699
762	0.0177466
774	0.0258263
786	0.0683892
798	0.0769018
810	0.0287119
822	0.0100997
834	0.011831
846	0.0122639
858	0.0235178
870	0.023085
882	0.0297219
894	0.0323189
906	0.0200551
918	0.0209207
930	0.0282791
942	0.0402544
954	0.0659364
966	0.04314
978	0.0282791
990	0.0419858
1002	0.0823845
1014	0.119609
1026	0.201849
1038	0.362578
1050	0.376141
1062	0.312513
1074	0.123649
1086	0.0695434
1098	0.0588666
1110	0.0561253
1122	0.0614637
1134	0.048767
1146	0.0383787
1158	0.0388116
1170	0.0500655
1182	0.0738719
1194	0.0695434
1206	0.0833944
1218	0.0880114
1230	0.0585781
1242	0.0383787
1254	0.04516
1266	0.0585781
1278	0.0468913
1290	0.040543
1302	0.0466028
1314	0.0549711
1326	0.0603095
1338	0.0701206
1350	0.0747376
1362	0.0857029
1374	0.147888
1386	0.192327
1398	0.127112
1410	0.0552596
1422	0.0541054
1434	0.0950812
1446	0.100852
1458	0.0841158
1470	0.107201
1482	0.0895985
1494	0.0265477
1506	0.0125524
1518	0.00865686
1530	0.00649265
1542	0.00663693
1554	0.00519412
1566	0.00591552
1578	0.00807974
1590	0.0083683
1602	0.00735833
1614	0.00750261
1626	0.00634836
1638	0.00894542
1650	0.0129853
1662	0.00937827
1674	0.00490555
1686	0.00447271
1698	0.00461699
1710	0.00418415
1722	0.00418415
1734	0.00418415
1746	0.00476127
1758	0.00432843
1770	0.0030299
1782	0.00216422
1794	0.00144281
1806	0.00115425
1818	0.00158709
1830	0.00129853
1842	0.00173137
1854	0.00144281
1866	0.00115425
1878	0.00115425
1890	0.00129853
1902	0.00201993
1914	0.0023085
1926	0.00187565
1938	0.00115425
1950	0.00100997
1962	0.000721405
1974	0.000865686
1986	0.000577124
1998	0.000721405
2010	0.00129853
2022	0.00115425
2034	0.00216422
2046	0.0030299
2058	0.00360703
2070	0.00331846
2082	0.00288562
2094	0.00245278
2106	0.00216422
2118	0.00158709
2130	0.00115425
2142	0.000865686
2154	0.00100997
2166	0.000577124
2178	0.000288562
2190	0
2202	0.000577124
2214	0.00100997
2226	0.00100997
2238	0.000144281
2250	0.000721405
2262	0.000721405
2274	0.00100997
2286	0.00201993
2298	0.0030299
2310	0.00519412
2322	0.00649265
2334	0.00548268
2346	0.00476127
2358	0.0060598
2370	0.00375131
2382	0.00288562
2394	0.00115425
2406	0.00129853
2418	0.00173137
2430	0.00187565
2442	0.00187565
2454	0.00158709
2466	0.00187565
2478	0.00259706
2490	0.00245278
2502	0.0030299
2514	0.00346274
2526	0.00360703
2538	0.00375131
2550	0.00346274
2562	0.00375131
2574	0.00432843
2586	0.00389559
2598	0.00346274
2610	0.00375131
2622	0.0053384
2634	0.00706977
2646	0.00750261
2658	0.0113982
2670	0.0100997
2682	0.0083683
2694	0.00822402
2706	0.00966683
2718	0.0139953
2730	0.0209207
2742	0.0201993
2754	0.0191894
2766	0.0242392
2778	0.0232292
2790	0.0243835
2802	0.0307319
2814	0.0415529
2826	0.0673792
2838	0.189585
2850	0.286542
2862	0.208342
2874	0.377728
2886	0.61204
2898	0.731793
2910	0.61204
2922	1.30574
2934	1.17603
2946	0.812735
2958	0.66023
2970	0.427216
2982	0.374121
2994	0.552885
3006	0.289428
3018	0.0898871
3030	0.138221
3042	0.0917627
3054	0.0336175
3066	0.0200551
3078	0.0177466
3090	0.0158709
3102	0.0145724
3114	0.0141395
3126	0.0126967
3138	0.0116868
3150	0.0105325
3162	0.0083683
3174	0.00591552
3186	0.00375131
3198	0.0030299
3210	0.00288562
3222	0.00418415
3234	0.00317418
3246	0.00187565
3258	0.000432843
3270	0.000865686
3282	0.00115425
3294	0.00173137
3306	0.00173137
3318	0.0023085
3330	0.00173137
3342	0.00129853
3354	0.000865686
3366	0.000721405
3378	0.00115425
3390	0.00173137
3402	0.00100997
3414	0.00144281
3426	0.000865686
3438	0.000288562
3450	0.000865686
3462	0.00115425
3474	0.00144281
3486	0.00201993
3498	0.00115425
3510	0.000721405
3522	0.00173137
3534	0.00274134
3546	0.00288562
3558	0.00144281
3570	0.00288562
3582	0.00403987
3594	0.0150052
3606	0.0323189
3618	0.0414086
3630	0.033906
3642	0.0275577
3654	0.0424186
3666	0.0621851
3678	0.0450157
3690	0.0132739
3702	0.00620408
3714	0.00447271
3726	0.00375131
3738	0.00331846
3750	0.00418415
3762	0.00187565
3774	0.00201993
3786	0.000865686
3798	0.00129853
3810	0.00331846
3822	0.00418415
3834	0.00461699
3846	0.00476127
3858	0.00418415
3870	0.00447271
3882	0.0053384
3894	0.00317418
3906	0.00360703
3918	0.00461699
3930	0.00360703
3942	0.00389559
3954	0.00418415
3966	0.00360703
