Infrared Spectrum: Benzene, 1,2-dichloro-4-(trichloromethyl)-
Formula: C 7 H 3 Cl 5
CAS: 13014-24-9
Origin: Sadtler Research Labs Under US-EPA Contract
1/CM	ABSORBANCE
450	0.00418648
462	0.00524971
474	0.00425293
486	0.00212646
498	0.0108981
510	0.0299699
522	0.166462
534	0.047779
546	0.00159485
558	0.0017942
570	0.00804069
582	0.0066452
594	0.00624649
606	0.00538261
618	0.00425293
630	0.00777488
642	0.00624649
654	0.0112304
666	0.0410009
678	0.104064
690	0.0316976
702	0.0296376
714	0.0283086
726	0.117421
738	0.268134
750	0.208194
762	0.608833
774	0.398646
786	0.11968
798	0.125727
810	0.31166
822	0.209922
834	0.100874
846	0.0372131
858	0.0168124
870	0.0195369
882	0.0252518
894	0.0288402
906	0.0538261
918	0.125661
930	0.115626
942	0.0182743
954	0.0150846
966	0.00936973
978	0.00531616
990	0.00425293
1002	0.00471809
1014	0.0115626
1026	0.0833308
1038	0.192844
1050	0.0293718
1062	0.0228595
1074	0.00777488
1086	0.00897102
1098	0.0099678
1110	0.014553
1122	0.0326944
1134	0.105858
1146	0.0877166
1158	0.0822676
1170	0.0245208
1182	0.117088
1194	0.358376
1206	0.0693759
1218	0.0188724
1230	0.0129581
1242	0.0119614
1254	0.0190053
1266	0.0302357
1278	0.0180749
1290	0.00883812
1302	0.00903747
1314	0.00956909
1326	0.00870521
1338	0.0101672
1350	0.0162807
1362	0.0359505
1374	0.142938
1386	0.121341
1398	0.0558197
1410	0.0192046
1422	0.0120943
1434	0.0108981
1446	0.0354189
1458	0.14759
1470	0.142672
1482	0.192777
1494	0.0121607
1506	0.00637939
1518	0.00744262
1530	0.0120278
1542	0.00757553
1554	0.0253182
1566	0.0292389
1578	0.0156827
1590	0.026315
1602	0.0147523
1614	0.00538261
1626	0.00239227
1638	0.00385422
1650	0.00591423
1662	0.00451874
1674	0.00279098
1686	0.00112968
1698	0.000797424
1710	0.00372131
1722	0.00299034
1734	0.0015284
1746	0.0016613
1758	0.00551552
1770	0.017942
1782	0.0114962
1794	0.00352196
1806	0.00372131
1818	0.00378776
1830	0.00219292
1842	0.00232582
1854	0.00239227
1866	0.00106323
1878	0.00186066
1890	0.00531616
1902	0.00870521
1914	0.00312324
1926	0.00172775
1938	0.00132904
1950	0.000797424
1962	0.000730972
1974	0.000730972
1986	0.000863876
1998	0.00112968
2010	0.00119614
2022	0.000598068
2034	0.000730972
2046	0.00066452
2058	0.000930328
2070	0.00112968
2082	0.00106323
2094	0.00172775
2106	0.0031897
2118	0.00451874
2130	0.00159485
2142	0.000930328
2154	0.00106323
2166	0.000465164
2178	0.000531616
2190	0.00099678
2202	0.000863876
2214	0.000730972
2226	0.000598068
2238	0.000398712
2250	0.000465164
2262	0.000531616
2274	0.000531616
2286	0.00112968
2298	0.00172775
2310	0.00225937
2322	0.00225937
2334	0.00192711
2346	0.00305679
2358	0.00225937
2370	0.00279098
2382	0.00425293
2394	0.00252518
2406	0.00192711
2418	0.00139549
2430	0.00106323
2442	0.00099678
2454	0.00099678
2466	0.00146194
2478	0.00106323
2490	0.00139549
2502	0.0015284
2514	0.00252518
2526	0.00312324
2538	0.00378776
2550	0.00252518
2562	0.00159485
2574	0.00099678
2586	0.00106323
2598	0.000598068
2610	0.00099678
2622	0.00106323
2634	0.00106323
2646	0.00159485
2658	0.00106323
2670	0.00106323
2682	0.000598068
2694	0.00112968
2706	0.00106323
2718	0.00126259
2730	0.00206001
2742	0.00212646
2754	0.00259163
2766	0.00292389
2778	0.00412002
2790	0.00259163
2802	0.00159485
2814	0.00119614
2826	0.00126259
2838	0.00172775
2850	0.00112968
2862	0.0015284
2874	0.000797424
2886	0.000598068
2898	0.00066452
2910	0.000730972
2922	0.00099678
2934	0.000730972
2946	0.00119614
2958	0.00126259
2970	0.00126259
2982	0.000863876
2994	0.000730972
3006	0.00066452
3018	0.00132904
3030	0.0017942
3042	0.00132904
3054	0.00126259
3066	0.0017942
3078	0.00704391
3090	0.00744262
3102	0.00325615
3114	0.00279098
3126	0.00239227
3138	0.0015284
3150	0.0016613
3162	0.000797424
3174	0.000863876
3186	0.000797424
3198	0.000797424
3210	0.000797424
3222	0.000863876
3234	0.000797424
3246	0.00112968
3258	0.00132904
3270	0.000863876
3282	0.00132904
3294	0.000598068
3306	0.00146194
3318	0.000930328
3330	0.000863876
3342	0.00099678
3354	0.00112968
3366	0.00066452
3378	0.000930328
3390	0.000863876
3402	0.00146194
3414	0.00033226
3426	0.000598068
3438	0.00139549
3450	0.000863876
3462	0.000132904
3474	0.00033226
3486	0.000398712
3498	0.000531616
3510	0.0015284
3522	0.000863876
3534	0.0015284
3546	0.000930328
3558	0.000531616
3570	0.00146194
3582	0.000531616
3594	0.00139549
3606	0.00146194
3618	0.000930328
3630	0.000930328
3642	0.00112968
3654	0.000598068
3666	0.00132904
3678	0.0017942
3690	0.00112968
3702	0.000598068
3714	0.00146194
3726	0.000598068
3738	0.000598068
3750	0.000598068
3762	0.00106323
3774	0.00206001
3786	0.00159485
3798	0.000531616
3810	0.000531616
3822	0.00066452
3834	0.00066452
3846	0.00033226
3858	0.000598068
3870	0.000199356
3882	0.000598068
3894	6.6452e-05
3906	0.000199356
3918	6.6452e-05
3930	0.000132904
3942	6.6452e-05
3954	0
3966	0.00066452
