Infrared Spectrum: 9-Decen-1-ol
Formula: C 10 H 20 O
CAS: 13019-22-2
Origin: Sadtler Research Labs Under US-EPA Contract
1/CM	ABSORBANCE
450	0
462	0.0477371
474	0.0473861
486	0.0493166
498	0.042121
510	0.0437005
522	0.0498431
534	0.0454555
546	0.0477371
558	0.0507207
570	0.0422965
582	0.0407169
594	0.0486146
606	0.045631
618	0.0587938
630	0.0691486
642	0.0624794
654	0.0519492
666	0.0498431
678	0.0454555
690	0.0477371
702	0.0524757
714	0.0601979
726	0.0659895
738	0.0573898
750	0.0535287
762	0.0503696
774	0.0496676
786	0.0480881
798	0.0484391
810	0.0510717
822	0.0549328
834	0.0559858
846	0.0596714
858	0.0633569
870	0.0744137
882	0.085646
894	0.109163
906	0.204287
918	0.267995
930	0.134085
942	0.1132
954	0.113727
966	0.12022
978	0.134787
990	0.193756
1002	0.203585
1014	0.202707
1026	0.246759
1038	0.310116
1050	0.344339
1062	0.311871
1074	0.228857
1086	0.162692
1098	0.114604
1110	0.0909111
1122	0.0793278
1134	0.0747647
1146	0.0721321
1158	0.0717811
1170	0.0738872
1182	0.0765197
1194	0.0798543
1206	0.0847684
1218	0.0886295
1230	0.0902091
1242	0.0916131
1254	0.0909111
1266	0.0916131
1278	0.0924906
1290	0.0930171
1302	0.0931926
1314	0.089858
1326	0.0868745
1338	0.0933681
1350	0.1132
1362	0.113025
1374	0.11829
1386	0.13233
1398	0.116184
1410	0.0910866
1422	0.0872255
1434	0.0975802
1446	0.14286
1458	0.166202
1470	0.135665
1482	0.089156
1494	0.0556348
1506	0.0458065
1518	0.0429985
1530	0.0412434
1542	0.0412434
1554	0.0408924
1566	0.0387864
1578	0.0386109
1590	0.0389619
1602	0.0400149
1614	0.04528
1626	0.0563368
1638	0.106531
1650	0.103021
1662	0.0487901
1674	0.0396639
1686	0.0377334
1698	0.0358028
1710	0.0349253
1722	0.0351008
1734	0.0356273
1746	0.0343988
1758	0.0349253
1770	0.0342233
1782	0.0349253
1794	0.0349253
1806	0.0366803
1818	0.0426475
1830	0.0547572
1842	0.0433495
1854	0.0366803
1866	0.0351008
1878	0.0342233
1890	0.0343988
1902	0.0340478
1914	0.0338723
1926	0.0338723
1938	0.0338723
1950	0.0343988
1962	0.0354518
1974	0.0365048
1986	0.0361538
1998	0.0352763
2010	0.0352763
2022	0.0358028
2034	0.0368558
2046	0.0377334
2058	0.0363293
2070	0.0370313
2082	0.0363293
2094	0.0347498
2106	0.0349253
2118	0.0342233
2130	0.0336968
2142	0.0335213
2154	0.0336968
2166	0.0336968
2178	0.0342233
2190	0.0340478
2202	0.0336968
2214	0.0336968
2226	0.0336968
2238	0.0338723
2250	0.0340478
2262	0.0342233
2274	0.0347498
2286	0.0352763
2298	0.0359783
2310	0.0359783
2322	0.0368558
2334	0.0361538
2346	0.0363293
2358	0.0354518
2370	0.0366803
2382	0.0365048
2394	0.0354518
2406	0.0351008
2418	0.0351008
2430	0.0345743
2442	0.0352763
2454	0.0351008
2466	0.0352763
2478	0.0349253
2490	0.0347498
2502	0.0352763
2514	0.0358028
2526	0.0372068
2538	0.0384354
2550	0.0380844
2562	0.0391374
2574	0.0393129
2586	0.0394884
2598	0.0403659
2610	0.0412434
2622	0.0429985
2634	0.044578
2646	0.0465086
2658	0.0479126
2670	0.0519492
2682	0.0533532
2694	0.0538797
2706	0.0531777
2718	0.0537042
2730	0.0554593
2742	0.0579163
2754	0.0607244
2766	0.064059
2778	0.066165
2790	0.0724832
2802	0.0800298
2814	0.0902091
2826	0.11127
2838	0.157252
2850	0.31854
2862	0.676392
2874	0.656911
2886	0.468069
2898	0.446131
2910	0.637255
2922	1.06408
2934	1.75504
2946	1.28118
2958	0.560384
2970	0.321523
2982	0.23149
2994	0.177786
3006	0.152864
3018	0.114604
3030	0.0847684
3042	0.0730097
3054	0.0714301
3066	0.085997
3078	0.122677
3090	0.173749
3102	0.0751157
3114	0.0517737
3126	0.0447535
3138	0.04177
3150	0.0396639
3162	0.0391374
3174	0.0389619
3186	0.0379089
3198	0.0365048
3210	0.0356273
3222	0.0349253
3234	0.0349253
3246	0.0347498
3258	0.0349253
3270	0.0335213
3282	0.0343988
3294	0.0347498
3306	0.0351008
3318	0.0358028
3330	0.0345743
3342	0.0354518
3354	0.0352763
3366	0.0361538
3378	0.0354518
3390	0.0354518
3402	0.0361538
3414	0.0347498
3426	0.0358028
3438	0.0356273
3450	0.0365048
3462	0.0354518
3474	0.0356273
3486	0.0359783
3498	0.0366803
3510	0.0349253
3522	0.0352763
3534	0.0342233
3546	0.0342233
3558	0.0347498
3570	0.0336968
3582	0.0354518
3594	0.0338723
3606	0.0375579
3618	0.0393129
3630	0.0422965
3642	0.0524757
3654	0.0840664
3666	0.114604
3678	0.111445
3690	0.0601979
3702	0.0458065
3714	0.0393129
3726	0.0384354
3738	0.0366803
3750	0.0373824
3762	0.0377334
3774	0.0359783
3786	0.0386109
3798	0.0379089
3810	0.0386109
3822	0.0380844
3834	0.0380844
3846	0.0403659
3858	0.0415944
3870	0.0373824
3882	0.0419455
3894	0.0393129
3906	0.0359783
3918	0.0380844
3930	0.0400149
3942	0.0387864
3954	0.0358028
3966	0.0342233
