Infrared Spectrum: Benzene, 2,4-dichloro-1-(trichloromethyl)-
Formula: C 7 H 3 Cl 5
CAS: 13014-18-1
Origin: Sadtler Research Labs Under US-EPA Contract
1/CM	ABSORBANCE
450	0.0263081
462	0.0342005
474	0.0330629
486	0.0485633
498	0.0659836
510	0.00746581
522	0.0167092
534	0.0147894
546	0.00604375
558	0.0106654
570	0.074587
582	0.0442261
594	0.0024175
606	0.00291522
618	0.00113765
630	0.00604375
642	0.0249572
654	0.0100255
666	0.0180602
678	0.0516208
690	0.0941404
702	0.145832
714	0.0286545
726	0.034485
738	0.108432
750	0.135309
762	0.368669
774	0.71103
786	0.39967
798	0.317404
810	0.395902
822	0.166452
834	0.0521185
846	0.0437994
858	0.122937
870	0.29586
882	0.375282
894	0.0816262
906	0.0383245
918	0.0470702
930	0.0354093
942	0.0113765
954	0.00753692
966	0.0046217
978	0.00348405
990	0.0023464
1002	0.00426618
1014	0.00796354
1026	0.0204066
1038	0.0592288
1050	0.0844704
1062	0.119169
1074	0.0273036
1086	0.0226819
1098	0.0729517
1110	0.170718
1122	0.158346
1134	0.0699654
1146	0.0893765
1158	0.0866746
1170	0.0461458
1182	0.172354
1194	0.0952069
1206	0.0264503
1218	0.0295077
1230	0.0223974
1242	0.0201221
1254	0.0287967
1266	0.0553181
1278	0.020051
1290	0.00839015
1302	0.0100966
1314	0.00910118
1326	0.0157138
1338	0.00903008
1350	0.0108077
1362	0.0319252
1374	0.154365
1386	0.119382
1398	0.041453
1410	0.0275169
1422	0.0356937
1434	0.0695387
1446	0.0930027
1458	0.170292
1470	0.337739
1482	0.107934
1494	0.0233218
1506	0.0140073
1518	0.0219708
1530	0.0174202
1542	0.0408842
1554	0.0976955
1566	0.112556
1578	0.139291
1590	0.291451
1602	0.0584467
1614	0.0127985
1626	0.00639927
1638	0.00846126
1650	0.00817685
1662	0.00753692
1674	0.00447949
1686	0.00213309
1698	0.00156427
1710	0.00327074
1722	0.00455059
1734	0.00775023
1746	0.0107366
1758	0.00910118
1770	0.0155716
1782	0.0125141
1794	0.00327074
1806	0.0023464
1818	0.00220419
1830	0.00220419
1842	0.00135096
1854	0.00071103
1866	0.000284412
1878	0.00199088
1890	0.00668368
1902	0.0123008
1914	0.0023464
1926	0.00135096
1938	0.00177757
1950	0.000853236
1962	0.000568824
1974	0.000426618
1986	0.000853236
1998	0.000426618
2010	0.000355515
2022	0.000568824
2034	0.00071103
2046	0.00113765
2058	0.00156427
2070	0.000568824
2082	7.1103e-05
2094	0.000284412
2106	0.000426618
2118	0.000497721
2130	0.000426618
2142	0.000568824
2154	0.00071103
2166	7.1103e-05
2178	0.000213309
2190	0.000284412
2202	0.000426618
2214	0.000568824
2226	0.000782133
2238	0.00199088
2250	0.00127985
2262	0.000639927
2274	0.000497721
2286	0.000639927
2298	0.000284412
2310	7.1103e-05
2322	0.000853236
2334	0.000568824
2346	0.000426618
2358	0.000355515
2370	0.00120875
2382	0.00156427
2394	0.00163537
2406	0.00163537
2418	0.00149316
2430	0.00120875
2442	0.00191978
2454	0.00191978
2466	0.00142206
2478	0.00156427
2490	0.00199088
2502	0.00255971
2514	0.00270191
2526	0.00277302
2538	0.00298633
2550	0.00177757
2562	0.00142206
2574	0.00127985
2586	0.00149316
2598	0.00142206
2610	0.00177757
2622	0.0024175
2634	0.00284412
2646	0.00334184
2658	0.00263081
2670	0.00177757
2682	0.00170647
2694	0.00199088
2706	0.00199088
2718	0.00163537
2730	0.00135096
2742	0.000924339
2754	0.00113765
2766	0.00163537
2778	0.00199088
2790	0.0023464
2802	0.00277302
2814	0.0022753
2826	0.00191978
2838	0.00220419
2850	0.00184868
2862	0.00149316
2874	0.00106654
2886	0.00113765
2898	0.000782133
2910	0.000924339
2922	0.000568824
2934	0.000995442
2946	0.00177757
2958	0.00191978
2970	0.00220419
2982	0.00248861
2994	0.00199088
3006	0.00220419
3018	0.00277302
3030	0.00355515
3042	0.00319964
3054	0.00255971
3066	0.00305743
3078	0.00732361
3090	0.00881677
3102	0.00547493
3114	0.0115187
3126	0.00348405
3138	0.00177757
3150	0.00127985
3162	0.000426618
3174	0.000568824
3186	0.000782133
3198	0.000782133
3210	0.00120875
3222	0.00135096
3234	0.00120875
3246	0.00184868
3258	0.00156427
3270	0.00142206
3282	0.000924339
3294	0.00120875
3306	0.000853236
3318	0.00135096
3330	0.000639927
3342	0.00120875
3354	0.00113765
3366	0.000568824
3378	0.000853236
3390	0.000853236
3402	0.000426618
3414	0.000639927
3426	0.000639927
3438	0.00071103
3450	0.000853236
3462	0.000853236
3474	0.000639927
3486	0.000782133
3498	0.000568824
3510	0.000995442
3522	0.000782133
3534	0.000639927
3546	0.000284412
3558	0.00206199
3570	0.00391066
3582	0.00369736
3594	0.00177757
3606	0.000853236
3618	0.00135096
3630	0.00199088
3642	0.00113765
3654	0.00120875
3666	0.000142206
3678	0.00199088
3690	0.00191978
3702	0.000497721
3714	0.00213309
3726	0.00071103
3738	0.00177757
3750	0.00213309
3762	0.00113765
3774	0.00298633
3786	0.00120875
3798	0.00113765
3810	0.000355515
3822	0.00270191
3834	0.000853236
3846	0.00191978
3858	0.00199088
3870	0.00127985
3882	0.00170647
3894	0.00206199
3906	0.000995442
3918	0.00156427
3930	0.00199088
3942	0.000782133
3954	0.0022753
3966	0.00177757
