Infrared Spectrum: o-Cresol, 6-nitro-,
Formula: C 7 H 7 N O 3
CAS: 13073-29-5
Origin: Sadtler Research Labs Under US-EPA Contract
1/CM	ABSORBANCE
450	0.0103324
462	0.0322074
474	0.0309042
486	0.0255984
498	0.0242952
510	0.0272739
522	0.028484
534	0.0277393
546	0.0300665
558	0.0282048
570	0.0431914
582	0.06246
594	0.041609
606	0.0301595
618	0.0403989
630	0.081077
642	0.0807047
654	0.0708377
666	0.0849866
678	0.121197
690	0.158803
702	0.1723
714	0.144654
726	0.139907
738	0.309415
750	0.302806
762	0.0889893
774	0.0436569
786	0.118497
798	0.140372
810	0.0488696
822	0.0227127
834	0.0648802
846	0.0982047
858	0.0337899
870	0.00409574
882	0.00325797
894	0.0250399
906	0.100997
918	0.0989494
930	0.0158245
942	0.00902924
954	0.00977392
966	0.0138697
978	0.0239228
990	0.0496143
1002	0.0684175
1014	0.0405851
1026	0.0101463
1038	0.0093085
1050	0.0166622
1062	0.0390026
1074	0.120359
1086	0.154707
1098	0.12371
1110	0.0873137
1122	0.0456116
1134	0.0458909
1146	0.105931
1158	0.203577
1170	0.169601
1182	0.0857313
1194	0.0852659
1206	0.156383
1218	0.225266
1230	0.280186
1242	0.57964
1254	0.841488
1266	0.603377
1278	0.596209
1290	0.464122
1302	0.305319
1314	0.482646
1326	0.634281
1338	0.735278
1350	0.792898
1362	0.507034
1374	0.284095
1386	0.252633
1398	0.202553
1410	0.146237
1422	0.145771
1434	0.257845
1446	0.432938
1458	0.598071
1470	0.748031
1482	0.371595
1494	0.120638
1506	0.0895478
1518	0.119149
1530	0.300758
1542	0.748869
1554	0.813842
1566	0.351768
1578	0.143444
1590	0.171649
1602	0.412739
1614	0.623111
1626	0.332127
1638	0.0603191
1650	0.039375
1662	0.0363962
1674	0.0154521
1686	0.0103324
1698	0.0180585
1710	0.0263431
1722	0.0145213
1734	0.00539893
1746	0.00390957
1758	0.00353723
1770	0.00288563
1782	0.00400265
1794	0.0074468
1806	0.012008
1818	0.0150798
1830	0.0108909
1842	0.00474734
1854	0.0067952
1866	0.0130319
1878	0.0170346
1890	0.00632978
1902	0.0049335
1914	0.00893616
1926	0.0126596
1938	0.00809839
1950	0.00353723
1962	0.00297872
1974	0.00223404
1986	0.00158244
1998	0.000651595
2010	0.00111702
2022	0.000465425
2034	0.00167553
2046	0.00195478
2058	0.00223404
2070	0.0037234
2082	0.00400265
2094	0.0037234
2106	0.00232712
2118	0.000837765
2130	0.00074468
2142	0.00139627
2154	0.00223404
2166	0.00297872
2178	0.0025133
2190	0.00130319
2202	0.000465425
2214	0.000837765
2226	0.00242021
2238	0.00446808
2250	0.00484042
2262	0.00446808
2274	0.00428191
2286	0.00437499
2298	0.0055851
2310	0.00670212
2322	0.00763297
2334	0.00623669
2346	0.00474734
2358	0.0030718
2370	0.00474734
2382	0.00577127
2394	0.00530585
2406	0.00511967
2418	0.00484042
2430	0.00614361
2442	0.00958775
2454	0.0123803
2466	0.0118218
2478	0.010984
2490	0.0107979
2502	0.0111702
2514	0.0104255
2526	0.00828456
2538	0.00781914
2550	0.00921541
2562	0.0104255
2574	0.00996009
2586	0.00958775
2598	0.0112633
2610	0.0118218
2622	0.0117287
2634	0.0108909
2646	0.00977392
2658	0.00958775
2670	0.0101463
2682	0.0116356
2694	0.014242
2706	0.0145213
2718	0.0140558
2730	0.0123803
2742	0.0143351
2754	0.0183377
2766	0.0159175
2778	0.0146143
2790	0.0167553
2802	0.0185239
2814	0.0210372
2826	0.0235505
2838	0.0255053
2850	0.0308111
2862	0.0414228
2874	0.0508244
2886	0.0486835
2898	0.0470079
2910	0.0486835
2922	0.0653457
2934	0.109189
2946	0.113564
2958	0.0699999
2970	0.0707446
2982	0.0724201
2994	0.0666489
3006	0.0467287
3018	0.0412367
3030	0.0605983
3042	0.0795877
3054	0.0581781
3066	0.0521276
3078	0.0582712
3090	0.065718
3102	0.0565957
3114	0.035
3126	0.0289494
3138	0.0352792
3150	0.0445877
3162	0.0576196
3174	0.0768882
3186	0.105651
3198	0.138324
3210	0.166994
3222	0.183377
3234	0.185518
3246	0.178909
3258	0.168298
3270	0.152287
3282	0.13879
3294	0.127806
3306	0.120545
3318	0.113378
3330	0.103604
3342	0.093085
3354	0.0833111
3366	0.0735371
3378	0.0659042
3390	0.0604122
3402	0.0548271
3414	0.0508244
3426	0.0476595
3438	0.0440292
3450	0.0410505
3462	0.038351
3474	0.035093
3486	0.032859
3498	0.029601
3510	0.0274601
3522	0.0260638
3534	0.0227127
3546	0.0214095
3558	0.0188963
3570	0.0168484
3582	0.0148005
3594	0.0125665
3606	0.00847074
3618	0.00902924
3630	0.00800531
3642	0.00605052
3654	0.00465425
3666	0.00232712
3678	0.00716754
3690	0.00232712
3702	0.00167553
3714	0.00269946
3726	0.000837765
3738	0.00018617
3750	0.000837765
3762	0.00018617
3774	0.00055851
3786	0.00018617
3798	0.00018617
3810	0.00037234
3822	0.00195478
3834	0.000651595
3846	0.000279255
3858	0.00223404
3870	0.00093085
3882	0.00297872
3894	0.00130319
3906	0.00148936
3918	0.00102393
3930	0.000279255
3942	0.0012101
3954	0.00102393
3966	0.00018617
