Infrared Spectrum: 4-Chloro-2-cyclohexylphenol
Formula: C 12 H 15 Cl O
CAS: 13081-17-9
Origin: Sadtler Research Labs Under US-EPA Contract
1/CM	ABSORBANCE
450	0.00506823
462	0.0144397
474	0.0444666
486	0.0214204
498	0.012814
510	0.0168304
522	0.0271581
534	0.00516386
546	0.00439884
558	0.00439884
570	0.0220898
582	0.0110927
594	0.00200817
606	0.00325132
618	0.00860643
630	0.0239068
642	0.0244805
654	0.158836
666	0.0197948
678	0.0290706
690	0.00870206
702	0.00545074
714	0.00229505
726	0.00344257
738	0.00545074
750	0.0115709
762	0.00612013
774	0.0272537
786	0.019221
798	0.0863512
810	0.101843
822	0.0480048
834	0.0101365
846	0.0108059
858	0.0154916
870	0.0586194
882	0.0580456
894	0.0242893
906	0.040259
918	0.0241936
930	0.00545074
942	0.00258193
954	0.00219942
966	0.00449447
978	0.00363383
990	0.0119534
1002	0.0332782
1014	0.0224723
1026	0.0212292
1038	0.0148222
1050	0.0110927
1062	0.0149178
1074	0.0263931
1086	0.0419803
1098	0.0983046
1110	0.192497
1122	0.0849168
1134	0.0898894
1146	0.0841518
1158	0.223002
1170	0.150326
1182	0.127471
1194	0.206459
1206	0.15549
1218	0.0786054
1230	0.0889331
1242	0.146596
1254	0.174519
1266	0.153959
1278	0.071529
1290	0.0446578
1302	0.0896981
1314	0.153768
1326	0.0740153
1338	0.0332782
1350	0.0404502
1362	0.0324176
1374	0.0319394
1386	0.025628
1398	0.0451359
1410	0.102512
1422	0.0908457
1434	0.0537424
1446	0.0904631
1458	0.132635
1470	0.144492
1482	0.298643
1494	0.30878
1506	0.132443
1518	0.0283056
1530	0.0191254
1542	0.0141528
1554	0.0115709
1566	0.0113796
1578	0.0210379
1590	0.024098
1602	0.0284012
1614	0.017691
1626	0.0130053
1638	0.0101365
1650	0.0109971
1662	0.0085108
1674	0.0107102
1686	0.00745891
1698	0.00191254
1710	0.00401633
1722	0.00765016
1734	0.0116665
1746	0.0110927
1758	0.0085108
1770	0.0106146
1782	0.0060245
1794	0.00793704
1806	0.00698077
1818	0.00631138
1830	0.0100408
1842	0.0095627
1854	0.00659826
1866	0.00803267
1878	0.00688514
1890	0.00468572
1902	0.00392071
1914	0.00306006
1926	0.00296444
1938	0.00392071
1950	0.0024863
1962	0.00372945
1974	0.00286881
1986	0.00229505
1998	0.00296444
2010	0.00239068
2022	0.00363383
2034	0.00306006
2046	0.00286881
2058	0.00277318
2070	0.00239068
2082	0.00181691
2094	0.00219942
2106	0.00153003
2118	0.00172129
2130	0.0014344
2142	0.00114752
2154	0.00133878
2166	0.00133878
2178	0.00095627
2190	0.00114752
2202	0.0010519
2214	0.00153003
2226	0.00210379
2238	0.00267756
2250	0.00267756
2262	0.00277318
2274	0.00258193
2286	0.00296444
2298	0.00430321
2310	0.00468572
2322	0.00449447
2334	0.00296444
2346	0.00487698
2358	0.00401633
2370	0.00296444
2382	0.00411196
2394	0.0035382
2406	0.00363383
2418	0.00344257
2430	0.00372945
2442	0.0035382
2454	0.00344257
2466	0.00363383
2478	0.0045901
2490	0.00535511
2502	0.0049726
2514	0.00478135
2526	0.00439884
2538	0.00315569
2550	0.00296444
2562	0.0035382
2574	0.00439884
2586	0.00545074
2598	0.00592887
2610	0.00545074
2622	0.00621575
2634	0.00592887
2646	0.00726765
2658	0.0101365
2670	0.0118577
2682	0.00994521
2694	0.00755453
2706	0.00698077
2718	0.00535511
2730	0.00545074
2742	0.00564199
2754	0.00631138
2766	0.0070764
2778	0.00965833
2790	0.0129096
2802	0.0153003
2814	0.0174041
2826	0.0229505
2838	0.0372945
2850	0.094097
2862	0.325514
2874	0.185803
2886	0.077171
2898	0.0812829
2910	0.171555
2922	0.321211
2934	0.812638
2946	0.69999
2958	0.139329
2970	0.0454228
2982	0.0208467
2994	0.0145353
3006	0.014344
3018	0.0252455
3030	0.0321307
3042	0.0173085
3054	0.0129096
3066	0.0145353
3078	0.0165435
3090	0.0148222
3102	0.0109971
3114	0.00831955
3126	0.00592887
3138	0.00468572
3150	0.00583325
3162	0.00640701
3174	0.0060245
3186	0.00487698
3198	0.00525948
3210	0.0049726
3222	0.00478135
3234	0.00468572
3246	0.00535511
3258	0.00573762
3270	0.00612013
3282	0.00631138
3294	0.00631138
3306	0.00669389
3318	0.00659826
3330	0.00841518
3342	0.00908456
3354	0.0109015
3366	0.010519
3378	0.0121446
3390	0.0109015
3402	0.0118577
3414	0.0116665
3426	0.0133878
3438	0.012049
3450	0.0103277
3462	0.0109015
3474	0.00994521
3486	0.00822392
3498	0.00755453
3510	0.00736328
3522	0.00841518
3534	0.00659826
3546	0.0085108
3558	0.00564199
3570	0.00841518
3582	0.00678952
3594	0.00879768
3606	0.00468572
3618	0.00984958
3630	0.0311744
3642	0.153768
3654	0.205789
3666	0.0328957
3678	0.0081283
3690	0.00124315
3702	0.0035382
3714	0.00267756
3726	0.00296444
3738	0.00124315
3750	0.00133878
3762	0.00095627
3774	0.00229505
3786	0.000765016
3798	0.00286881
3810	0.00095627
3822	0.00229505
3834	0.00277318
3846	0.00286881
3858	0.00344257
3870	0.00401633
3882	0.000860643
3894	0.00631138
3906	0.00286881
3918	0.00640701
3930	0.00525948
3942	0.00401633
3954	0.00621575
3966	0.00239068
