Infrared Spectrum: 1,2-Benzenedicarboxylic acid, dipentyl ester
Formula: C 18 H 26 O 4
CAS: 131-18-0
Origin: Sadtler Research Labs Under US-EPA Contract
1/CM	ABSORBANCE
450	0.00306742
462	0.0085206
474	0.0123833
486	0.0042035
498	0.0120424
510	0.0157915
522	0.01102
534	0.0126105
546	0.0127241
558	0.0131785
570	0.0131785
582	0.0098839
594	0.00261298
606	0.00352185
618	0.00193134
630	0.00647566
642	0.00499875
654	0.016814
666	0.00670287
678	0.00886142
690	0.02897
702	0.0563496
714	0.0545318
726	0.0662335
738	0.123151
750	0.115085
762	0.0606667
774	0.0482834
786	0.0440799
798	0.0264707
810	0.0241985
822	0.0280612
834	0.020563
846	0.0167004
858	0.0155643
870	0.0144282
882	0.0143146
894	0.0204494
906	0.0346504
918	0.0363546
930	0.0328327
942	0.0590762
954	0.0855468
966	0.0798664
978	0.050442
990	0.0374906
1002	0.034764
1014	0.0363546
1026	0.0507828
1038	0.126673
1050	0.141783
1062	0.262775
1074	0.489537
1086	0.146441
1098	0.146782
1110	0.360024
1122	0.725614
1134	0.532026
1146	0.230851
1158	0.120424
1170	0.0954307
1182	0.0668015
1194	0.0557815
1206	0.0591898
1218	0.0849788
1230	0.164845
1242	0.374679
1254	0.67165
1266	1.01759
1278	0.978278
1290	0.841949
1302	0.359797
1314	0.162119
1326	0.099407
1338	0.0925905
1350	0.0870237
1362	0.071005
1374	0.0898639
1386	0.108609
1398	0.0707778
1410	0.0316966
1422	0.0288564
1434	0.0404444
1446	0.0661199
1458	0.0923633
1470	0.123492
1482	0.0802072
1494	0.0430574
1506	0.0219263
1518	0.0151099
1530	0.0123833
1542	0.00817978
1554	0.0117016
1566	0.0163596
1578	0.0408989
1590	0.0268115
1602	0.0331735
1614	0.016814
1626	0.0148826
1638	0.0119288
1650	0.014201
1662	0.0161323
1674	0.0179501
1686	0.0280612
1698	0.0458976
1710	0.0804345
1722	0.161551
1734	0.418645
1746	1.13608
1758	0.512713
1770	0.189725
1782	0.0919089
1794	0.0655518
1806	0.0644157
1818	0.043171
1830	0.0212447
1842	0.0145418
1854	0.0138602
1866	0.0171548
1878	0.0128377
1890	0.00795256
1902	0.00636205
1914	0.0056804
1926	0.00693009
1938	0.0106792
1950	0.00613483
1962	0.00727091
1974	0.00352185
1986	0.00193134
1998	0.00124969
2010	0.00181773
2022	0.00159051
2034	0.00170412
2046	0.00159051
2058	0.00227216
2070	0.00318102
2082	0.0042035
2094	0.00397628
2106	0.00318102
2118	0.00249938
2130	0.00170412
2142	0.00181773
2154	0.0013633
2166	0.00056804
2178	0.000454432
2190	0.000681648
2202	0.000681648
2214	0.000908864
2226	0.00102247
2238	0.0013633
2250	0.0013633
2262	0.00056804
2274	0.00056804
2286	0.00113608
2298	0.00056804
2310	0
2322	0.00102247
2334	0.000454432
2346	0
2358	0
2370	0
2382	0.00193134
2394	0.0028402
2406	0.00261298
2418	0.00193134
2430	0.0014769
2442	0.00102247
2454	0.000908864
2466	0.000113608
2478	0.000454432
2490	0.00102247
2502	0.00159051
2514	0.00170412
2526	0.00204494
2538	0.00159051
2550	0.00181773
2562	0.00227216
2574	0.00295381
2586	0.00272659
2598	0.00340824
2610	0.00374906
2622	0.00374906
2634	0.00363546
2646	0.00352185
2658	0.00386267
2670	0.00363546
2682	0.00329463
2694	0.0043171
2706	0.00499875
2718	0.00647566
2730	0.0098839
2742	0.0102247
2754	0.0102247
2766	0.0101111
2778	0.0104519
2790	0.0112472
2802	0.0129513
2814	0.0163596
2826	0.0218127
2838	0.0311286
2850	0.050442
2862	0.0685056
2874	0.138261
2886	0.203131
2898	0.178705
2910	0.209948
2922	0.239486
2934	0.284361
2946	0.310036
2958	0.417169
2970	0.651315
2982	0.279362
2994	0.120879
3006	0.0564632
3018	0.0298789
3030	0.0253346
3042	0.0245393
3054	0.0227216
3066	0.0355593
3078	0.0755493
3090	0.0322647
3102	0.0171548
3114	0.0129513
3126	0.00965668
3138	0.00920225
3150	0.0101111
3162	0.0098839
3174	0.00908864
3186	0.00874782
3198	0.00693009
3210	0.00590762
3222	0.00454432
3234	0.0043171
3246	0.00386267
3258	0.00306742
3270	0.00318102
3282	0.00295381
3294	0.00238577
3306	0.00340824
3318	0.00340824
3330	0.00374906
3342	0.0042035
3354	0.00374906
3366	0.00318102
3378	0.00363546
3390	0.00306742
3402	0.00295381
3414	0.00261298
3426	0.0028402
3438	0.00374906
3450	0.00352185
3462	0.00670287
3474	0.0071573
3486	0.00511236
3498	0.00306742
3510	0.00170412
3522	0.00193134
3534	0.00193134
3546	0.00113608
3558	0.00215855
3570	0.00897503
3582	0.0112472
3594	0.00159051
3606	0.00193134
3618	0.00193134
3630	0.00193134
3642	0.00170412
3654	0.00249938
3666	0.00613483
3678	0.00238577
3690	0.00306742
3702	0.00295381
3714	0.0028402
3726	0.00295381
3738	0.00238577
3750	0.00454432
3762	0.00352185
3774	0.00352185
3786	0.00329463
3798	0.00227216
3810	0.00590762
3822	0.0028402
3834	0.00397628
3846	0.00363546
3858	0.00249938
3870	0.00227216
3882	0.0028402
3894	0.00352185
3906	0.00374906
3918	0.00397628
3930	0.00556679
3942	0.00499875
3954	0.00340824
3966	0.00454432
