Infrared Spectrum: 1,2-Benzenedicarboxylic acid, di-2-propenyl ester
Formula: C 14 H 14 O 4
CAS: 131-17-9
Origin: Sadtler Research Labs Under US-EPA Contract
1/CM	ABSORBANCE
450	0.0120983
462	0.0135584
474	0.00604914
486	0.0127241
498	0.0108467
510	0.00625773
522	0.0143928
534	0.0171045
546	0.0302457
558	0.0298285
570	0.0214849
582	0.00375464
594	0.009178
606	0.00709209
618	0.0173131
630	0.037755
642	0.0429697
654	0.032123
666	0.01481
678	0.0164787
690	0.0396323
702	0.0899027
714	0.0926144
726	0.110553
738	0.184186
750	0.194615
762	0.102001
774	0.0700866
786	0.0686264
798	0.0381722
810	0.0390065
822	0.0340003
834	0.0296199
846	0.0308715
858	0.0287856
870	0.0279512
882	0.032123
894	0.04589
906	0.0853137
918	0.18064
930	0.316641
942	0.202333
954	0.159155
966	0.276174
978	0.305794
990	0.198579
1002	0.161867
1014	0.109302
1026	0.12432
1038	0.273671
1050	0.261782
1062	0.598448
1074	0.607
1086	0.271377
1098	0.293488
1110	0.688767
1122	1.17186
1134	0.923224
1146	0.353353
1158	0.151228
1170	0.104504
1182	0.0742584
1194	0.0748842
1206	0.0949089
1218	0.143928
1230	0.277843
1242	0.633908
1254	1.23903
1266	2.08591
1278	1.77574
1290	1.117
1302	0.557355
1314	0.197744
1326	0.108885
1338	0.0767615
1350	0.106173
1362	0.20275
1374	0.114516
1386	0.0707123
1398	0.0456814
1410	0.0552766
1422	0.0721725
1434	0.0761357
1446	0.114308
1458	0.109927
1470	0.0579883
1482	0.050479
1494	0.0425526
1506	0.0191904
1518	0.0150186
1530	0.0146014
1542	0.00813505
1554	0.0156443
1566	0.0283684
1578	0.065289
1590	0.0467244
1602	0.0590313
1614	0.033166
1626	0.027534
1638	0.0387979
1650	0.0577797
1662	0.0392151
1674	0.0296199
1686	0.0362948
1698	0.0617429
1710	0.117645
1722	0.214223
1734	0.595736
1746	1.77699
1758	1.2699
1770	0.356065
1782	0.126615
1794	0.0696694
1806	0.0542337
1818	0.0435955
1830	0.0348347
1842	0.0294113
1854	0.0325402
1866	0.0358777
1878	0.0254481
1890	0.0175216
1902	0.0150186
1914	0.0127241
1926	0.0146014
1938	0.0214849
1950	0.0123069
1962	0.0146014
1974	0.0108467
1986	0.00604914
1998	0.00479759
2010	0.00438041
2022	0.00417182
2034	0.0068835
2046	0.00667491
2058	0.00667491
2070	0.00750928
2082	0.00813505
2094	0.00834364
2106	0.00584055
2118	0.00375464
2130	0.00187732
2142	0.000834364
2154	0.000834364
2166	0.000834364
2178	0.00187732
2190	0.00208591
2202	0.00292027
2214	0.00250309
2226	0.0022945
2238	0.00271168
2250	0.0022945
2262	0.00187732
2274	0.00187732
2286	0.00166873
2298	0.00166873
2310	0.00271168
2322	0.00584055
2334	0.00521477
2346	0.00166873
2358	0.00312886
2370	0.00104295
2382	0.00312886
2394	0.00417182
2406	0.00333746
2418	0.00271168
2430	0.00166873
2442	0.000834364
2454	0.00187732
2466	0.00104295
2478	0.000834364
2490	0.00166873
2502	0.00146014
2514	0.00187732
2526	0.00292027
2538	0.00292027
2550	0.00312886
2562	0.00354605
2574	0.00396323
2586	0.00271168
2598	0.00166873
2610	0.00146014
2622	0.00146014
2634	0.000834364
2646	0.000625773
2658	0.000625773
2670	0.000417182
2682	0.00104295
2694	0.00166873
2706	0.00166873
2718	0.00250309
2730	0.00312886
2742	0.00292027
2754	0.00250309
2766	0.00208591
2778	0.00271168
2790	0.00208591
2802	0.00479759
2814	0.00667491
2826	0.009178
2838	0.00813505
2850	0.0112639
2862	0.0181474
2874	0.0271168
2886	0.0427612
2898	0.046933
2910	0.0373378
2922	0.0408838
2934	0.0675835
2946	0.119105
2958	0.149143
2970	0.0905285
2982	0.0671663
2994	0.0775959
3006	0.0686264
3018	0.0615343
3030	0.0730068
3042	0.0483931
3054	0.0392151
3066	0.0654976
3078	0.146222
3090	0.115977
3102	0.0949089
3114	0.0404667
3126	0.0154357
3138	0.0106381
3150	0.00938659
3162	0.00834364
3174	0.0068835
3186	0.00438041
3198	0.00250309
3210	0.00146014
3222	0.00396323
3234	0.00333746
3246	0.00292027
3258	0.000208591
3270	0.00166873
3282	0.00312886
3294	0.00125155
3306	0.00187732
3318	0.00312886
3330	0.00292027
3342	0.000834364
3354	0.00312886
3366	0.00166873
3378	0.00208591
3390	0.00271168
3402	0.00292027
3414	0.00104295
3426	0.00208591
3438	0.00333746
3450	0.00584055
3462	0.00730068
3474	0.0125155
3486	0.013767
3498	0.00792646
3510	0.00375464
3522	0.00438041
3534	0.00146014
3546	0.00375464
3558	0.000834364
3570	0.00208591
3582	0.00125155
3594	0.00292027
3606	0.00333746
3618	0.00125155
3630	0.00250309
3642	0.00250309
3654	0.000625773
3666	0.00187732
3678	0.00333746
3690	0.00396323
3702	0.00354605
3714	0.00271168
3726	0.0022945
3738	0.00521477
3750	0.00312886
3762	0.00438041
3774	0.00500618
3786	0.00375464
3798	0.00396323
3810	0.00479759
3822	0.00500618
3834	0.00438041
3846	0.00312886
3858	0
3870	0.00187732
3882	0.00333746
3894	0.00396323
3906	0.00750928
3918	0.00187732
3930	0.00792646
3942	0.00542337
3954	0.00250309
3966	0.00125155
