Infrared Spectrum: Methanone, (2-methylphenyl)phenyl-
Formula: C 14 H 12 O
CAS: 131-58-8
Origin: Sadtler Research Labs Under US-EPA Contract
1/CM	ABSORBANCE
450	0.0229113
462	0.0158347
474	0.0234017
486	0.00924858
498	0.00119111
510	0.00336312
522	0.00308286
534	0.0123314
546	0.00434403
558	0.0016115
570	0.00105097
582	0.00728676
594	0.00490455
606	0.00567526
618	0.00868806
630	0.0353828
642	0.295324
654	0.0314592
666	0.0241024
678	0.0456123
690	0.17229
702	0.305273
714	0.222807
726	0.235418
738	0.189876
750	0.150009
762	0.150219
774	0.0542303
786	0.0386759
798	0.0310388
810	0.0305483
822	0.0135225
834	0.0117009
846	0.0117009
858	0.0166054
870	0.016185
882	0.0134525
894	0.0223507
906	0.0510774
918	0.265897
930	0.389071
942	0.10783
954	0.0586444
966	0.0185672
978	0.0119811
990	0.0098091
1002	0.0206692
1014	0.0104397
1026	0.0320197
1038	0.0210896
1050	0.0208093
1062	0.02158
1074	0.0209494
1086	0.0119811
1098	0.016185
1110	0.0262043
1122	0.0271852
1134	0.0296375
1146	0.0650904
1158	0.088352
1170	0.0444913
1182	0.0980209
1194	0.0300579
1206	0.0296375
1218	0.039867
1230	0.0734281
1242	0.156525
1254	0.379612
1266	0.675216
1278	0.353968
1290	0.329095
1302	0.169627
1314	0.192889
1326	0.0730077
1338	0.0370644
1350	0.0229113
1362	0.0154844
1374	0.020529
1386	0.0362937
1398	0.0274655
1410	0.0224909
1422	0.0289368
1434	0.050657
1446	0.144474
1458	0.112174
1470	0.0631986
1482	0.0620075
1494	0.0442811
1506	0.0245928
1518	0.0213698
1530	0.0245227
1542	0.0259941
1554	0.0296375
1566	0.0362937
1578	0.0673325
1590	0.0928361
1602	0.117849
1614	0.048485
1626	0.031249
1638	0.0322299
1650	0.0461728
1662	0.0998426
1674	0.365739
1686	0.70065
1698	0.299878
1710	0.0927661
1722	0.0428798
1734	0.0270451
1746	0.0194781
1758	0.0163952
1770	0.0130321
1782	0.0113505
1794	0.01079
1806	0.0207392
1818	0.0191277
1830	0.00994923
1842	0.00903838
1854	0.00630585
1866	0.00574533
1878	0.00588546
1890	0.00931865
1902	0.0157646
1914	0.0189876
1926	0.0139429
1938	0.00833774
1950	0.0180067
1962	0.0156946
1974	0.0100894
1986	0.00301279
1998	0.00175162
2010	0.00119111
2022	0.00098091
2034	0.000910845
2046	0.00056052
2058	0.000910845
2070	0.00084078
2082	0.00119111
2094	0.000630585
2106	7.0065e-05
2118	7.0065e-05
2130	0.00028026
2142	0.000210195
2154	0.000210195
2166	0.000490455
2178	0.00098091
2190	0.00154143
2202	0.00105097
2214	0.000770715
2226	0.000770715
2238	0.000490455
2250	0.00154143
2262	0.00168156
2274	0.00168156
2286	0.00196182
2298	0.0025924
2310	0.00406377
2322	0.00595552
2334	0.00301279
2346	0.00350325
2358	0.00133124
2370	0.00322299
2382	0.00350325
2394	0.00266247
2406	0.00294273
2418	0.00266247
2430	0.0016115
2442	0.00154143
2454	0.00056052
2466	0.000630585
2478	0.00056052
2490	0.00014013
2502	0
2514	0.000210195
2526	0.000490455
2538	0.00042039
2550	0.00098091
2562	0.00126117
2574	0.00203189
2586	0.00287266
2598	0.0028026
2610	0.00147137
2622	0.00126117
2634	0.00168156
2646	0.00147137
2658	0.000770715
2670	0.00084078
2682	0.000630585
2694	0.0014013
2706	0.00196182
2718	0.0025924
2730	0.00266247
2742	0.00462429
2754	0.00665618
2766	0.00371345
2778	0.00203189
2790	0.00175162
2802	0.0025924
2814	0.00343319
2826	0.00490455
2838	0.00798741
2850	0.0122614
2862	0.0199685
2874	0.0295674
2886	0.0313191
2898	0.0262043
2910	0.0271852
2922	0.0390963
2934	0.0636891
2946	0.0612368
2958	0.0447015
2970	0.0465932
2982	0.0468034
2994	0.0395167
3006	0.0387459
3018	0.07546
3030	0.127238
3042	0.0977407
3054	0.0945177
3066	0.219514
3078	0.242985
3090	0.127028
3102	0.0633388
3114	0.0236119
3126	0.0112104
3138	0.00896832
3150	0.00868806
3162	0.00791734
3174	0.00378351
3186	0.00168156
3198	0.000910845
3210	0.00028026
3222	0.00042039
3234	0.000490455
3246	0.000630585
3258	0.00070065
3270	0.000770715
3282	0.000910845
3294	0.00126117
3306	0.00084078
3318	0.00154143
3330	0.0028026
3342	0.00819761
3354	0.0100894
3366	0.00413383
3378	0.00154143
3390	0.00133124
3402	0.00119111
3414	0.00084078
3426	0.00098091
3438	0.00042039
3450	0.00112104
3462	0.00084078
3474	0.00084078
3486	0.00056052
3498	0.000910845
3510	0.000350325
3522	0.00070065
3534	0.000490455
3546	0.000490455
3558	0.00056052
3570	0.000630585
3582	0.00042039
3594	0.00084078
3606	0.00042039
3618	0.000350325
3630	0.00098091
3642	0.000630585
3654	0.00182169
3666	0.00119111
3678	0.00098091
3690	0.00126117
3702	0.00133124
3714	0.00238221
3726	0.00154143
3738	0.00126117
3750	0.000770715
3762	0.00147137
3774	0.0014013
3786	0.000910845
3798	0.00056052
3810	0.000630585
3822	7.0065e-05
3834	0.00126117
3846	0.000910845
3858	0.00133124
3870	0.00147137
3882	0.000910845
3894	0.00014013
3906	0
3918	0.00028026
3930	0
3942	0
3954	0.00070065
3966	0
