Infrared Spectrum: Dimethyl phthalate
Formula: C 10 H 10 O 4
CAS: 131-11-3
Origin: Sadtler Research Labs Under US-EPA Contract
1/CM	ABSORBANCE
450	0.00105256
462	0.00225549
474	0.00165403
486	0.00330805
498	0.000375915
510	0.00248104
522	0.00323287
534	0.00240586
546	0.00601464
558	0.00676647
570	0.00105256
582	0.00202994
594	0.00202994
606	0.00105256
618	0.00255622
630	0.00218031
642	0.0048869
654	0.0103001
666	0.00172921
678	0.00774385
690	0.0233067
702	0.0377419
714	0.0330053
726	0.0487186
738	0.0851072
750	0.0827013
762	0.0392455
774	0.0288703
786	0.0267651
798	0.0177432
810	0.0272914
822	0.0227053
834	0.0186454
846	0.013157
858	0.00466135
870	0.00428543
882	0.0048869
894	0.00481171
906	0.00278177
918	0.00248104
930	0.00285695
942	0.00639056
954	0.0204498
966	0.0339075
978	0.021352
990	0.00541318
1002	0.00503726
1014	0.00789421
1026	0.0164651
1038	0.0569887
1050	0.0461624
1062	0.0757093
1074	0.191641
1086	0.109166
1098	0.0647326
1110	0.132397
1122	0.303063
1134	0.314641
1146	0.132999
1158	0.0530792
1170	0.0419521
1182	0.0522522
1194	0.0718749
1206	0.052177
1218	0.0430799
1230	0.0610486
1242	0.118338
1254	0.249908
1266	0.467638
1278	0.703487
1290	0.703487
1302	0.312085
1314	0.0926255
1326	0.0465383
1338	0.0333061
1350	0.025863
1362	0.0204498
1374	0.0171417
1386	0.0150366
1398	0.0136081
1410	0.01436
1422	0.0226301
1434	0.110068
1446	0.0912722
1458	0.0340579
1470	0.0266148
1482	0.0278929
1494	0.0236075
1506	0.013984
1518	0.0112774
1530	0.0109767
1542	0.00857086
1554	0.00962342
1566	0.0132322
1578	0.0252615
1590	0.0215023
1602	0.0236826
1614	0.0167658
1626	0.01233
1638	0.00977379
1650	0.00992416
1662	0.0118789
1674	0.0127811
1686	0.01436
1698	0.0173673
1710	0.0274418
1722	0.0527785
1734	0.167733
1746	0.522146
1758	0.674692
1770	0.237278
1782	0.0657851
1794	0.0188709
1806	0.0122548
1818	0.0132322
1830	0.0126307
1842	0.00909714
1854	0.00631537
1866	0.00533799
1878	0.00330805
1890	0.0039847
1902	0.00390952
1914	0.00533799
1926	0.00691684
1938	0.00984897
1950	0.00616501
1962	0.00526281
1974	0.00338324
1986	0.00142848
1998	0.00142848
2010	0.00233067
2022	0.00248104
2034	0.00278177
2046	0.00345842
2058	0.00248104
2070	0.00293214
2082	0.0048869
2094	0.00631537
2106	0.00526281
2118	0.00300732
2130	0.00195476
2142	0.000902196
2154	0.000375915
2166	0.000526281
2178	0.000451098
2190	0.000526281
2202	0.000526281
2214	0.000451098
2226	0.000451098
2238	0.000977379
2250	0.00150366
2262	0.00112775
2274	0.000827013
2286	0.000902196
2298	0.00157884
2310	0.00233067
2322	0.00157884
2334	0.000902196
2346	0.00240586
2358	0.00150366
2370	0.000451098
2382	0.00180439
2394	0.00150366
2406	0.00150366
2418	0.000451098
2430	0.000451098
2442	0.000526281
2454	0.000451098
2466	7.5183e-05
2478	0.000526281
2490	0.000300732
2502	0.000601464
2514	0.000601464
2526	0.000676647
2538	0.000676647
2550	0.00075183
2562	0.00112775
2574	0.00120293
2586	0.00135329
2598	0.00135329
2610	0.000902196
2622	0.000827013
2634	0.000827013
2646	0.000977379
2658	0.000977379
2670	0.000977379
2682	0.000977379
2694	0.000977379
2706	0.00105256
2718	0.000601464
2730	0.00120293
2742	0.00075183
2754	0.00112775
2766	0.00127811
2778	0.00127811
2790	0.00135329
2802	0.00127811
2814	0.00180439
2826	0.00323287
2838	0.0101497
2850	0.0239834
2862	0.0112774
2874	0.0079694
2886	0.0111271
2898	0.0167658
2910	0.0202994
2922	0.0206001
2934	0.0181191
2946	0.032855
2958	0.124503
2970	0.0888663
2982	0.0245097
2994	0.0273666
3006	0.0350353
3018	0.0309002
3030	0.0315017
3042	0.0264644
3054	0.0180439
3066	0.0218031
3078	0.0437565
3090	0.0299228
3102	0.0108264
3114	0.00834531
3126	0.00548836
3138	0.0035336
3150	0.00413507
3162	0.00360878
3174	0.00255622
3186	0.00233067
3198	0.00218031
3210	0.00172921
3222	0.00225549
3234	0.00172921
3246	0.00157884
3258	0.000977379
3270	0.000977379
3282	0.00187958
3294	0.00105256
3306	0.00210512
3318	0.00195476
3330	0.00157884
3342	0.00210512
3354	0.00195476
3366	0.00233067
3378	0.00172921
3390	0.00172921
3402	0.00210512
3414	0.00240586
3426	0.00165403
3438	0.00120293
3450	0.00180439
3462	0.00315769
3474	0.0039847
3486	0.00699202
3498	0.00639056
3510	0.00315769
3522	0.00172921
3534	0.00142848
3546	0.00165403
3558	0.00180439
3570	0.00150366
3582	0.00218031
3594	0.00150366
3606	0.00142848
3618	0.00157884
3630	0.000902196
3642	0.00105256
3654	0.000977379
3666	0.00142848
3678	0.00180439
3690	0.00180439
3702	0.00180439
3714	0.00135329
3726	7.5183e-05
3738	0.000902196
3750	0.00120293
3762	0.00180439
3774	0.00210512
3786	0.00120293
3798	0.00120293
3810	0.00127811
3822	0.00120293
3834	0.00135329
3846	0.00172921
3858	0.00210512
3870	0.00165403
3882	0.00165403
3894	0.00210512
3906	0.00210512
3918	0.00202994
3930	0.00202994
3942	0.00202994
3954	0.00202994
3966	0.00195476
