Infrared Spectrum: 1,2-Benzenedicarboxylic acid, dipropyl ester
Formula: C 14 H 18 O 4
CAS: 131-16-8
Origin: Sadtler Research Labs Under US-EPA Contract
1/CM	ABSORBANCE
450	0.00319995
462	0.00483257
474	0.00352647
486	0.00274281
498	0.00313464
510	0.00137141
522	0.00202446
534	0.00417952
546	0.00470196
558	0.00568153
570	0.00692233
582	0.00182854
594	0.00300403
606	0.00339586
618	0.0012408
630	0.00280811
642	0.00679172
654	0.0123426
666	0.0039183
678	0.00875087
690	0.0244241
702	0.0339586
714	0.0312158
726	0.0473461
738	0.0839822
750	0.0598194
762	0.0327178
774	0.0259261
786	0.0242935
798	0.0153467
810	0.0158691
822	0.0165875
834	0.0135834
846	0.0110365
858	0.0109059
870	0.0119508
882	0.014563
894	0.0171752
906	0.02142
918	0.0264485
930	0.0318035
942	0.0588398
954	0.0417299
966	0.0386606
978	0.0230527
990	0.0116243
1002	0.011559
1014	0.014563
1026	0.0267097
1038	0.0694192
1050	0.0833292
1062	0.161303
1074	0.281922
1086	0.091427
1098	0.0849618
1110	0.227588
1122	0.402801
1134	0.272975
1146	0.120488
1158	0.0628887
1170	0.0462359
1182	0.0444727
1194	0.0223343
1206	0.0315423
1218	0.0504155
1230	0.0974351
1242	0.218119
1254	0.407373
1266	0.621377
1278	0.616022
1290	0.420956
1302	0.189776
1314	0.124275
1326	0.0572072
1338	0.0325219
1350	0.0335668
1362	0.0256649
1374	0.0348729
1386	0.0479339
1398	0.0345463
1410	0.0176977
1422	0.0153467
1434	0.0202446
1446	0.0377463
1458	0.0446033
1470	0.049893
1482	0.036179
1494	0.0239669
1506	0.0131916
1518	0.00986106
1530	0.00862026
1542	0.00718355
1554	0.00888148
1566	0.0133222
1578	0.0257955
1590	0.019265
1602	0.0220731
1614	0.0129957
1626	0.00973044
1638	0.00835904
1650	0.00751007
1662	0.0108406
1674	0.0119508
1686	0.0167834
1698	0.0277546
1710	0.0471502
1722	0.0926678
1734	0.270363
1746	0.637507
1758	0.339194
1770	0.0992636
1782	0.0401626
1794	0.0235751
1806	0.0171752
1818	0.0143018
1830	0.0119508
1842	0.00946922
1854	0.00875087
1866	0.00711824
1878	0.00626928
1890	0.00502849
1902	0.0052244
1914	0.00496318
1926	0.00613867
1938	0.00796721
1950	0.00535501
1962	0.00620397
1974	0.00463665
1986	0.00378769
1998	0.00313464
2010	0.00378769
2022	0.00306933
2034	0.00326525
2046	0.00319995
2058	0.00359177
2070	0.00417952
2082	0.00424482
2094	0.00417952
2106	0.00372238
2118	0.00274281
2130	0.00215506
2142	0.00228568
2154	0.00248159
2166	0.00215506
2178	0.00313464
2190	0.0026122
2202	0.0026122
2214	0.0026122
2226	0.00300403
2238	0.00254689
2250	0.00208976
2262	0.00208976
2274	0.00202446
2286	0.00248159
2298	0.00333055
2310	0.00319995
2322	0.00431013
2334	0.00359177
2346	0.00195915
2358	0.00319995
2370	0
2382	0.0013061
2394	0.00241628
2406	0.00248159
2418	0.00195915
2430	0.0013061
2442	0.000979575
2454	0.000587745
2466	6.5305e-05
2478	0.00052244
2490	0.000587745
2502	0.000587745
2514	0.000587745
2526	0.00091427
2538	0.00111019
2550	0.00091427
2562	0.00150201
2574	0.00104488
2586	0.00065305
2598	0.000587745
2610	0.000718355
2622	0.000587745
2634	0.00065305
2646	0.000587745
2658	0.000587745
2670	0.000587745
2682	0.00111019
2694	0.00065305
2706	0.00013061
2718	0.00065305
2730	0.00117549
2742	0.0026122
2754	0.00313464
2766	0.00372238
2778	0.00319995
2790	0.00319995
2802	0.00319995
2814	0.00450605
2826	0.00600806
2838	0.00901209
2850	0.0126692
2862	0.0209629
2874	0.030628
2886	0.0559011
2898	0.0657621
2910	0.0531583
2922	0.0578602
2934	0.0832639
2946	0.107492
2958	0.123884
2970	0.159279
2982	0.172013
2994	0.0824149
3006	0.0337627
3018	0.0180895
3030	0.0156732
3042	0.0142365
3054	0.0131263
3066	0.0194609
3078	0.0401626
3090	0.0171099
3102	0.0077713
3114	0.00515909
3126	0.003853
3138	0.00326525
3150	0.003853
3162	0.00333055
3174	0.00274281
3186	0.00182854
3198	0.00222037
3210	0.00150201
3222	0.000979575
3234	0.00143671
3246	0.00111019
3258	0.00091427
3270	0.00052244
3282	0.00156732
3294	0.00111019
3306	0.0012408
3318	0.00052244
3330	0.00104488
3342	0.00052244
3354	0.00104488
3366	6.5305e-05
3378	0.000587745
3390	0.00156732
3402	0.00013061
3414	0.000979575
3426	0.00052244
3438	0.00111019
3450	0.00235098
3462	0.00326525
3474	0.00444074
3486	0.00404891
3498	0.00195915
3510	0.00104488
3522	0.00117549
3534	0.00156732
3546	0.00104488
3558	0.00052244
3570	0.00143671
3582	0.00078366
3594	0.00111019
3606	0.00111019
3618	0.000848965
3630	0.00195915
3642	0.000979575
3654	0.00065305
3666	0.00117549
3678	0.00091427
3690	0.000457135
3702	0.0012408
3714	0.000979575
3726	0.000326525
3738	0.000457135
3750	0.00078366
3762	0.00039183
3774	6.5305e-05
3786	0.00052244
3798	0.00013061
3810	0.000195915
3822	0.00039183
3834	0.00104488
3846	0.00026122
3858	0.00104488
3870	0.00039183
3882	0.00169793
3894	0.00163262
3906	0.00091427
3918	0.00195915
3930	0.00195915
3942	0.00248159
3954	0.00163262
3966	0.00313464
