Infrared Spectrum: Dibenzothiophene
Formula: C 12 H 8 S
CAS: 132-65-0
Origin: Sadtler Research Labs Under US-EPA Contract
1/CM	ABSORBANCE
450	0
462	0.0262765
474	0.0289905
486	0.0518129
498	0.0769791
510	0.0420671
522	0.032198
534	0.0299775
546	0.0305943
558	0.0291139
570	0.0262765
582	0.0292373
594	0.0297307
606	0.0344186
618	0.0817903
630	0.0331849
642	0.0262765
654	0.0265233
666	0.0282504
678	0.0304709
690	0.0428073
702	0.11917
714	0.113742
726	0.338017
738	1.23364
750	0.579071
762	0.0609418
774	0.0315812
786	0.0262765
798	0.0292373
810	0.0386129
822	0.0387363
834	0.0339251
846	0.0360223
858	0.0397232
870	0.0391064
882	0.0307176
894	0.0273868
906	0.0272634
918	0.0305943
930	0.0400933
942	0.0351587
954	0.0284971
966	0.0288672
978	0.0397232
990	0.0397232
1002	0.0544035
1014	0.0699474
1026	0.224522
1038	0.0662465
1050	0.0425606
1062	0.0975809
1074	0.237969
1086	0.0734016
1098	0.0328148
1110	0.0326915
1122	0.0405868
1134	0.0688371
1146	0.0505792
1158	0.0848744
1170	0.0602016
1182	0.0383662
1194	0.0510727
1206	0.0405868
1218	0.0826539
1230	0.150257
1242	0.0724147
1254	0.0439176
1266	0.0653829
1278	0.0381195
1290	0.047125
1302	0.123487
1314	0.127805
1326	0.036269
1338	0.0355288
1350	0.0423139
1362	0.0292373
1374	0.0277569
1386	0.0365157
1398	0.0497157
1410	0.0883286
1422	0.194792
1434	0.21564
1446	0.208362
1458	0.163827
1470	0.13385
1482	0.0527998
1494	0.0324447
1506	0.0392298
1518	0.0317045
1530	0.0259064
1542	0.0301008
1554	0.0433008
1566	0.063039
1578	0.0750053
1590	0.0894389
1602	0.0492222
1614	0.0394765
1626	0.0326915
1638	0.0268934
1650	0.0333083
1662	0.0398466
1674	0.045398
1686	0.0334316
1698	0.0477419
1710	0.0345419
1722	0.0262765
1734	0.0305943
1746	0.0273868
1758	0.0277569
1770	0.0460148
1782	0.0574876
1794	0.0351587
1806	0.0428073
1818	0.0474951
1830	0.0277569
1842	0.0257831
1854	0.0329382
1866	0.0479886
1878	0.029484
1890	0.0492222
1902	0.0555138
1914	0.0312111
1926	0.0544035
1938	0.0610652
1950	0.0251663
1962	0.0230691
1974	0.0229457
1986	0.0228223
1998	0.022699
2010	0.0223289
2022	0.0225756
2034	0.0225756
2046	0.0224522
2058	0.0218354
2070	0.0223289
2082	0.0220822
2094	0.0220822
2106	0.0219588
2118	0.0223289
2130	0.0218354
2142	0.0217121
2154	0.0220822
2166	0.0224522
2178	0.0225756
2190	0.0229457
2202	0.0218354
2214	0.022699
2226	0.0224522
2238	0.0217121
2250	0.0229457
2262	0.0236859
2274	0.0246728
2286	0.0272634
2298	0.0297307
2310	0.0277569
2322	0.0293606
2334	0.0245494
2346	0.0229457
2358	0.0234392
2370	0.0214653
2382	0.024056
2394	0.0223289
2406	0.0210952
2418	0.0223289
2430	0.0229457
2442	0.0229457
2454	0.0238093
2466	0.0243027
2478	0.0228223
2490	0.0235625
2502	0.0229457
2514	0.0218354
2526	0.0218354
2538	0.0224522
2550	0.0238093
2562	0.0268934
2574	0.02677
2586	0.0262765
2598	0.0299775
2610	0.0317045
2622	0.0265233
2634	0.025413
2646	0.025413
2658	0.0257831
2670	0.0231924
2682	0.0218354
2694	0.0220822
2706	0.0217121
2718	0.0225756
2730	0.0230691
2742	0.0235625
2754	0.0229457
2766	0.0236859
2778	0.0234392
2790	0.0223289
2802	0.0218354
2814	0.0218354
2826	0.0219588
2838	0.022699
2850	0.0234392
2862	0.0246728
2874	0.0273868
2886	0.0297307
2898	0.0282504
2910	0.0261532
2922	0.0249195
2934	0.0249195
2946	0.0251663
2958	0.0261532
2970	0.0296074
2982	0.0307176
2994	0.0402167
3006	0.0648895
3018	0.087095
3030	0.0904258
3042	0.0848744
3054	0.158153
3066	0.367748
3078	0.496417
3090	0.180482
3102	0.0536633
3114	0.0470017
3126	0.0489755
3138	0.0356522
3150	0.0259064
3162	0.0251663
3174	0.0252896
3186	0.025413
3198	0.0245494
3210	0.0234392
3222	0.0224522
3234	0.022699
3246	0.0225756
3258	0.0220822
3270	0.0225756
3282	0.022699
3294	0.0230691
3306	0.0228223
3318	0.0230691
3330	0.0223289
3342	0.0225756
3354	0.0230691
3366	0.0220822
3378	0.0220822
3390	0.0219588
3402	0.0223289
3414	0.022699
3426	0.0224522
3438	0.0224522
3450	0.0219588
3462	0.0223289
3474	0.0228223
3486	0.0230691
3498	0.0223289
3510	0.0215887
3522	0.022699
3534	0.0210952
3546	0.0234392
3558	0.0229457
3570	0.0234392
3582	0.024056
3594	0.0229457
3606	0.0224522
3618	0.0230691
3630	0.0229457
3642	0.0235625
3654	0.0230691
3666	0.0245494
3678	0.0245494
3690	0.0247962
3702	0.0247962
3714	0.0238093
3726	0.0243027
3738	0.0247962
3750	0.0241793
3762	0.0256597
3774	0.0250429
3786	0.0251663
3798	0.022699
3810	0.0246728
3822	0.0249195
3834	0.0277569
3846	0.0260298
3858	0.0223289
3870	0.0217121
3882	0.024056
3894	0.0223289
3906	0.0219588
3918	0.0243027
3930	0.0235625
3942	0.0231924
3954	0.0230691
3966	0.0239326
