Infrared Spectrum: Dibenzofuran
Formula: C 12 H 8 O
CAS: 132-64-9
Origin: Sadtler Research Labs Under US-EPA Contract
1/CM	ABSORBANCE
450	0
462	0.00687487
474	0.0121873
486	0.00359368
498	0.00515615
510	0.0106248
522	0.00781235
534	0.00843734
546	0.0321869
558	0.0640613
570	0.0273432
582	0.0168747
594	0.00999981
606	0.0232808
618	0.0710924
630	0.0131247
642	0.0162497
654	0.014531
666	0.0168747
678	0.013906
690	0.0121873
702	0.0432804
714	0.229996
726	0.352962
738	0.449366
750	1.02639
762	0.424211
774	0.0456241
786	0.0134372
798	0.012031
810	0.0106248
822	0.0285932
834	0.180934
846	0.179684
858	0.172809
870	0.0895295
882	0.0274995
894	0.0185934
906	0.012656
918	0.0237495
930	0.0364056
942	0.0143747
954	0.00874983
966	0.00859359
978	0.0134372
990	0.0245308
1002	0.075936
1014	0.065155
1026	0.0674987
1038	0.00781235
1050	0.00937482
1062	0.0128123
1074	0.014531
1086	0.0196871
1098	0.0607801
1110	0.217496
1122	0.0918732
1134	0.0173434
1146	0.0359368
1158	0.0406242
1170	0.0439054
1182	0.301244
1194	1.56247
1206	0.694362
1218	0.0548427
1230	0.0481241
1242	0.0840609
1254	0.0631238
1266	0.0451554
1278	0.0859359
1290	0.0921857
1302	0.0612488
1314	0.163747
1326	0.065155
1338	0.0437492
1350	0.039843
1362	0.0221871
1374	0.0104685
1386	0.0121873
1398	0.0207809
1410	0.0598426
1422	0.0682799
1434	0.152341
1446	0.374055
1458	0.464522
1470	0.366087
1482	0.199215
1494	0.0567177
1506	0.0243745
1518	0.0170309
1530	0.011406
1542	0.00953107
1554	0.0154685
1566	0.027187
1578	0.0798422
1590	0.165934
1602	0.101404
1614	0.0365618
1626	0.0156247
1638	0.00968731
1650	0.0134372
1662	0.0174997
1674	0.0306244
1686	0.025937
1698	0.0226558
1710	0.013281
1722	0.00921857
1734	0.00921857
1746	0.00937482
1758	0.0179684
1770	0.0353118
1782	0.0285932
1794	0.0104685
1806	0.0214058
1818	0.0190621
1830	0.00562489
1842	0.00921857
1854	0.0268745
1866	0.0149997
1878	0.0198434
1890	0.0423429
1902	0.0243745
1914	0.0121873
1926	0.0479678
1938	0.0262495
1950	0.00562489
1962	0.00671862
1974	0.0053124
1986	0.00374993
1998	0.00406242
2010	0.00437492
2022	0.00468741
2034	0.00828109
2046	0.0128123
2058	0.00812484
2070	0.00578114
2082	0.00593739
2094	0.00484366
2106	0.0049999
2118	0.00453116
2130	0.00578114
2142	0.00484366
2154	0.00374993
2166	0.00343743
2178	0.00249995
2190	0.0026562
2202	0.00343743
2214	0.00421867
2226	0.00343743
2238	0.00296869
2250	0.00562489
2262	0.0053124
2274	0.00390618
2286	0.00546865
2298	0.0106248
2310	0.012031
2322	0.00843734
2334	0.00749986
2346	0.00890608
2358	0.00609363
2370	0.00484366
2382	0.0053124
2394	0.0053124
2406	0.00546865
2418	0.0079686
2430	0.0159372
2442	0.014531
2454	0.0104685
2466	0.0123435
2478	0.0103123
2490	0.0110935
2502	0.0109373
2514	0.00906233
2526	0.0101561
2538	0.00578114
2550	0.00515615
2562	0.00593739
2574	0.00546865
2586	0.00562489
2598	0.0076561
2610	0.00859359
2622	0.0112498
2634	0.0117185
2646	0.012031
2658	0.0128123
2670	0.0103123
2682	0.00656237
2694	0.00562489
2706	0.00640613
2718	0.00593739
2730	0.00562489
2742	0.00656237
2754	0.00640613
2766	0.00703112
2778	0.00781235
2790	0.0076561
2802	0.00937482
2814	0.011406
2826	0.0112498
2838	0.00937482
2850	0.00703112
2862	0.00703112
2874	0.00859359
2886	0.00906233
2898	0.012656
2910	0.0215621
2922	0.0224996
2934	0.0174997
2946	0.0142185
2958	0.011406
2970	0.010781
2982	0.0103123
2994	0.0101561
3006	0.015156
3018	0.0357806
3030	0.0703112
3042	0.104529
3054	0.223433
3066	0.267495
3078	0.291244
3090	0.207184
3102	0.120623
3114	0.0303119
3126	0.0117185
3138	0.0076561
3150	0.00812484
3162	0.00843734
3174	0.00937482
3186	0.00968731
3198	0.00687487
3210	0.00687487
3222	0.00781235
3234	0.00593739
3246	0.00515615
3258	0.00468741
3270	0.00421867
3282	0.00406242
3294	0.00374993
3306	0.00421867
3318	0.00406242
3330	0.00374993
3342	0.00343743
3354	0.00374993
3366	0.00249995
3378	0.00312494
3390	0.0026562
3402	0.00296869
3414	0.00249995
3426	0.00312494
3438	0.00312494
3450	0.00296869
3462	0.00359368
3474	0.00343743
3486	0.00406242
3498	0.00374993
3510	0.0026562
3522	0.00312494
3534	0.00312494
3546	0.00406242
3558	0.00515615
3570	0.00343743
3582	0.00421867
3594	0.00593739
3606	0.0049999
3618	0.0053124
3630	0.0076561
3642	0.00671862
3654	0.00812484
3666	0.00624988
3678	0.00562489
3690	0.00656237
3702	0.0076561
3714	0.00546865
3726	0.0079686
3738	0.00671862
3750	0.00671862
3762	0.0049999
3774	0.00687487
3786	0.00515615
3798	0.00546865
3810	0.00640613
3822	0.00671862
3834	0.0079686
3846	0.00515615
3858	0.0103123
3870	0.00890608
3882	0.00921857
3894	0.0103123
3906	0.0123435
3918	0.0109373
3930	0.00890608
3942	0.00874983
3954	0.00874983
3966	0.00749986
