Infrared Spectrum: Benzoic acid, (1,1-dimethylethyl)-
Formula: C 11 H 14 O 2
CAS: 1320-16-7
Origin: Sadtler Research Labs Under US-EPA Contract
1/CM	ABSORBANCE
450	0.0167327
462	0.0197416
474	0.0135036
486	0.0228974
498	0.0355937
510	0.0623806
522	0.10069
534	0.0987082
546	0.0620137
558	0.0638484
570	0.098488
582	0.0683252
594	0.0367679
606	0.0235579
618	0.0200352
630	0.0199618
642	0.0234845
654	0.0248055
666	0.0711873
678	0.108689
690	0.0271539
702	0.0559224
714	0.0767649
726	0.0408777
738	0.01321
750	0.00653162
762	0.0267136
774	0.0744898
786	0.0468222
798	0.0223103
810	0.0223836
822	0.0209159
834	0.0261265
846	0.0327315
858	0.0252458
870	0.0102011
882	0.00506384
894	0.00455012
906	0.00616468
918	0.00565095
930	0.00403639
942	0.00183472
954	0.000807279
966	0.00124761
978	0.000954057
990	0.00161456
1002	0.0132834
1014	0.0830763
1026	0.0665638
1038	0.036034
1050	0.037355
1062	0.0791867
1074	0.239248
1086	0.270659
1098	0.153897
1110	0.201233
1122	0.0912959
1134	0.0448407
1146	0.0421253
1158	0.0709672
1170	0.220314
1182	0.322324
1194	0.0940113
1206	0.0728019
1218	0.0324379
1230	0.037355
1242	0.0444737
1254	0.0487303
1266	0.0908556
1278	0.0827828
1290	0.0697929
1302	0.0633347
1314	0.0514457
1326	0.0554087
1338	0.114707
1350	0.0997357
1362	0.129678
1374	0.122633
1386	0.0485835
1398	0.0501247
1410	0.0565829
1422	0.0359606
1434	0.0242918
1446	0.0220901
1458	0.0337589
1470	0.0390429
1482	0.0526933
1494	0.0362542
1506	0.0249523
1518	0.0176867
1530	0.00836635
1542	0.01754
1554	0.0208425
1566	0.0222369
1578	0.0248055
1590	0.0339791
1602	0.0673711
1614	0.112872
1626	0.0573168
1638	0.0198884
1650	0.0157786
1662	0.00792601
1674	0.0124761
1686	0.0199618
1698	0.0231909
1710	0.0311903
1722	0.0676647
1734	0.121459
1746	0.238955
1758	0.710699
1770	0.378687
1782	0.0804343
1794	0.0317774
1806	0.0261999
1818	0.017173
1830	0.012256
1842	0.00689857
1854	0.00308234
1866	0.00440334
1878	0.00381623
1890	0.00308234
1902	0.00308234
1914	0.00572434
1926	0.00550418
1938	0.00572434
1950	0.0046969
1962	0.00220167
1974	0.00168795
1986	0.000366945
1998	0.000440334
2010	0.00102745
2022	0.00110083
2034	0.00073389
2046	0.00102745
2058	0.000220167
2070	0.000660501
2082	0.000954057
2094	0.000513723
2106	0.000954057
2118	0.00102745
2130	0.000880668
2142	0.00183472
2154	0.00190811
2166	0.00168795
2178	0.001321
2190	0.000880668
2202	0.000807279
2214	0.00102745
2226	0.000220167
2238	0.000440334
2250	0.000880668
2262	0.000660501
2274	0.000880668
2286	0.00154117
2298	0.00220167
2310	0.00315573
2322	0.00352267
2334	0.000954057
2346	0.00212828
2358	0.00300895
2370	0.000220167
2382	0.00234845
2394	0.00190811
2406	0.00161456
2418	0.00176134
2430	0.00117422
2442	0.00117422
2454	0.00117422
2466	0.00073389
2478	0.000880668
2490	0.00073389
2502	0.000587112
2514	0.000807279
2526	0.00110083
2538	0.00073389
2550	0.000366945
2562	0.00073389
2574	0.00110083
2586	0.00161456
2598	0.00102745
2610	0.00073389
2622	0.00110083
2634	0.000880668
2646	0.000954057
2658	0.000880668
2670	0.000880668
2682	0.000954057
2694	0.00117422
2706	0.000954057
2718	0.00212828
2730	0.00242184
2742	0.00190811
2754	0.00234845
2766	0.00205489
2778	0.00278878
2790	0.00359606
2802	0.00322912
2814	0.00418317
2826	0.00513723
2838	0.00704534
2850	0.00976074
2862	0.0204021
2874	0.0438866
2886	0.0519594
2898	0.0471157
2910	0.0592983
2922	0.0672977
2934	0.0635549
2946	0.0725817
2958	0.141714
2970	0.278952
2982	0.162703
2994	0.0440334
3006	0.0156319
3018	0.0093204
3030	0.00843974
3042	0.0115221
3054	0.0154851
3066	0.0150447
3078	0.0160722
3090	0.015852
3102	0.015852
3114	0.0107882
3126	0.0066784
3138	0.00477028
3150	0.00359606
3162	0.00308234
3174	0.00293556
3186	0.00278878
3198	0.00256861
3210	0.00278878
3222	0.00249523
3234	0.002642
3246	0.00205489
3258	0.00190811
3270	0.00249523
3282	0.00154117
3294	0.00168795
3306	0.0019815
3318	0.00154117
3330	0.00124761
3342	0.00212828
3354	0.00161456
3366	0.00286217
3378	0.00513723
3390	0.0123294
3402	0.00829296
3414	0.002642
3426	0.00205489
3438	0.00212828
3450	0.00110083
3462	0.000220167
3474	0.000513723
3486	0.00212828
3498	0.00455012
3510	0.00557756
3522	0.00704534
3534	0.00513723
3546	0.00344928
3558	0.00410978
3570	0.0314105
3582	0.239762
3594	0.119331
3606	0.00528401
3618	0.001321
3630	0.00388962
3642	0.00154117
3654	0.000220167
3666	0.00183472
3678	0.00220167
3690	0.001321
3702	0.00234845
3714	0.00117422
3726	0.00256861
3738	0.00154117
3750	0.000807279
3762	0.00190811
3774	0.00102745
3786	0.00073389
3798	0.00190811
3810	0.000293556
3822	0.00242184
3834	0.0019815
3846	0.00220167
3858	0.000146778
3870	0.000807279
3882	0.00234845
3894	0.0019815
3906	0.00227506
3918	0.00212828
3930	0.000880668
3942	0.00102745
3954	0.000807279
3966	0.000440334
