Infrared Spectrum: 2,3-Dibromonaphthalene
Formula: C 10 H 6 Br 2
CAS: 13214-70-5
Origin: Sadtler Research Labs Under US-EPA Contract
1/CM	ABSORBANCE
450	0
462	0.0775316
474	0.146216
486	0.0339244
498	0.0284909
510	0.0402286
522	0.023963
534	0.0216991
546	0.0205845
558	0.0270629
570	0.0324267
582	0.0556932
594	0.125562
606	0.0308245
618	0.0261922
630	0.0251124
642	0.0341334
654	0.0223609
666	0.0284213
678	0.024799
690	0.0259483
702	0.0279685
714	0.0373029
726	0.0425274
738	0.22016
750	0.196581
762	0.0218732
774	0.0162308
786	0.0163004
798	0.00564246
810	0.022326
822	0.024381
834	0.028073
846	0.0378602
858	0.109506
870	0.202641
882	0.277177
894	0.0458014
906	0.0256697
918	0.0232664
930	0.0194003
942	0.101738
954	0.142037
966	0.0329492
978	0.0255652
990	0.0238237
1002	0.0159521
1014	0.0187385
1026	0.00745362
1038	0.0133399
1050	0.0123298
1062	0.012295
1074	0.0150814
1086	0.0402635
1098	0.219638
1110	0.0552752
1122	0.0273415
1134	0.0741182
1146	0.0552752
1158	0.0252169
1170	0.0160566
1182	0.0166836
1194	0.0633906
1206	0.0253911
1218	0.029292
1230	0.0236844
1242	0.0158476
1254	0.0140713
1266	0.0226047
1278	0.0245551
1290	0.0183902
1302	0.0335413
1314	0.0517574
1326	0.0454183
1338	0.0450352
1350	0.0250079
1362	0.0188082
1374	0.0170667
1386	0.0206194
1398	0.0447217
1410	0.0466025
1422	0.140504
1434	0.165094
1446	0.0339592
1458	0.0142455
1470	0.0238237
1482	0.0773923
1494	0.0753025
1506	0.0397759
1518	0.0172757
1530	0.0173802
1542	0.0134444
1554	0.028282
1566	0.064122
1578	0.0876323
1590	0.0416915
1602	0.0185296
1614	0.0168229
1626	0.018634
1638	0.0103097
1650	0.0066177
1662	0.00710532
1674	0.00961308
1686	0.0138972
1698	0.0194003
1710	0.0180768
1722	0.0148724
1734	0.0130961
1746	0.0150117
1758	0.0241372
1770	0.0135489
1782	0.015987
1794	0.0136185
1806	0.0165791
1818	0.0128174
1830	0.015987
1842	0.0105883
1854	0.012504
1866	0.00776709
1878	0.00787158
1890	0.01024
1902	0.0150466
1914	0.0120512
1926	0.0170319
1938	0.0127826
1950	0.0198183
1962	0.00748845
1974	0.00633906
1986	0.00578178
1998	0.00672219
2010	0.00640872
2022	0.00606042
2034	0.00606042
2046	0.00651321
2058	0.00720981
2070	0.00619974
2082	0.00619974
2094	0.00581661
2106	0.00581661
2118	0.00595593
2130	0.00501552
2142	0.00578178
2154	0.00484137
2166	0.00508518
2178	0.00578178
2190	0.0048762
2202	0.00515484
2214	0.00532899
2226	0.00459756
2238	0.00498069
2250	0.00442341
2262	0.00508518
2274	0.00585144
2286	0.00700083
2298	0.00654804
2310	0.0062694
2322	0.00564246
2334	0.00759294
2346	0.00717498
2358	0.00707049
2370	0.00689634
2382	0.00647838
2394	0.00525933
2406	0.00599076
2418	0.00543348
2430	0.00550314
2442	0.00560763
2454	0.00581661
2466	0.00651321
2478	0.00717498
2490	0.0073143
2502	0.00578178
2514	0.00539865
2526	0.00508518
2538	0.00532899
2550	0.00553797
2562	0.00654804
2574	0.00619974
2586	0.00543348
2598	0.00640872
2610	0.00543348
2622	0.00619974
2634	0.00616491
2646	0.00640872
2658	0.00637389
2670	0.00619974
2682	0.00609525
2694	0.0062694
2706	0.0052245
2718	0.00585144
2730	0.00536382
2742	0.00515484
2754	0.00536382
2766	0.0055728
2778	0.00525933
2790	0.0052245
2802	0.00571212
2814	0.0055728
2826	0.00644355
2838	0.00564246
2850	0.00679185
2862	0.00745362
2874	0.00707049
2886	0.00748845
2898	0.00727947
2910	0.00849852
2922	0.00877716
2934	0.00863784
2946	0.00884682
2958	0.00700083
2970	0.00613008
2982	0.00971757
2994	0.0117725
3006	0.010867
3018	0.0140365
3030	0.0223957
3042	0.0242765
3054	0.073561
3066	0.176902
3078	0.0970712
3090	0.0433285
3102	0.013723
3114	0.0115636
3126	0.0109714
3138	0.00978723
3150	0.00860301
3162	0.00794124
3174	0.00860301
3186	0.00787158
3198	0.00828954
3210	0.0073143
3222	0.0059211
3234	0.00842886
3246	0.0066177
3258	0.00679185
3270	0.00773226
3282	0.00703566
3294	0.00637389
3306	0.0066177
3318	0.00647838
3330	0.00644355
3342	0.00675702
3354	0.00654804
3366	0.00578178
3378	0.00693117
3390	0.00780192
3402	0.00707049
3414	0.00929961
3426	0.006966
3438	0.00783675
3450	0.00748845
3462	0.00759294
3474	0.00727947
3486	0.00790641
3498	0.00693117
3510	0.00759294
3522	0.00780192
3534	0.0087075
3546	0.00808056
3558	0.00668736
3570	0.00947376
3582	0.00727947
3594	0.0108321
3606	0.00717498
3618	0.00804573
3630	0.00895131
3642	0.0106928
3654	0.0106231
3666	0.0101704
3678	0.0045279
3690	0.00982206
3702	0.0102748
3714	0.00891648
3726	0.0114591
3738	0.00985689
3750	0.00877716
3762	0.00724464
3774	0.00773226
3786	0.0101007
3798	0.00985689
3810	0.00703566
3822	0.00424926
3834	0.0087075
3846	0.00999621
3858	0.0059211
3870	0.00529416
3882	0.00752328
3894	0.00560763
3906	0.0113546
3918	0.0103445
3930	0.00996138
3942	0.011668
3954	0.0048762
3966	0.00811539
