Infrared Spectrum: Cyclohexaneacetic acid, 4-tert-butyl-1-hydroxy-, tert-butyl ester
Formula: C 16 H 30 O 3
CAS: 13278-12-1
Origin: Sadtler Research Labs Under US-EPA Contract
1/CM	ABSORBANCE
450	0.0440162
462	0.0368147
474	0.0263828
486	0.031767
498	0.0341899
510	0.0270558
522	0.0230176
534	0.0247002
546	0.0145374
558	0.00740333
570	0.00726872
582	0.0150086
594	0.0156143
606	0.0247675
618	0.0693221
630	0.0382281
642	0.030421
654	0.0142682
666	0.00699951
678	0.00148067
690	0.00336515
702	0.00397088
714	0.00275942
726	6.7303e-05
738	0.00154797
750	0.0137298
762	0.0210658
774	0.0128549
786	0.0104993
798	0.00908591
810	0.00874939
822	0.0196525
834	0.033988
846	0.0403145
858	0.0227484
870	0.0189121
882	0.0313632
894	0.0497369
906	0.0372859
918	0.0449584
930	0.0479197
942	0.0413913
954	0.0436796
966	0.0579479
978	0.0494004
990	0.052429
1002	0.0354014
1014	0.0376224
1026	0.0372859
1038	0.0270558
1050	0.0334496
1062	0.0738987
1074	0.0994065
1086	0.0947626
1098	0.131914
1110	0.20487
1122	0.234484
1134	0.328035
1146	0.47314
1158	0.398703
1170	0.358119
1182	0.28025
1194	0.184814
1206	0.157422
1218	0.153182
1230	0.182593
1242	0.191679
1254	0.178218
1266	0.119867
1278	0.0778023
1290	0.0728218
1302	0.0852729
1314	0.114617
1326	0.136827
1338	0.153384
1350	0.162537
1362	0.211399
1374	0.289605
1386	0.146721
1398	0.216648
1410	0.0876958
1422	0.0603035
1434	0.0683125
1446	0.0844653
1458	0.0733603
1470	0.0803598
1482	0.0967817
1494	0.0381608
1506	0.0131241
1518	0.00592266
1530	0.00397088
1542	0.00235561
1554	0.00323054
1566	0.00296133
1578	0.00316324
1590	0.00309594
1602	0.00376897
1614	0.0043747
1626	0.00646109
1638	0.00969163
1650	0.0118453
1662	0.0142682
1674	0.0162873
1686	0.0204601
1698	0.0308248
1710	0.0811001
1722	0.226475
1734	0.240743
1746	0.243031
1758	0.183872
1770	0.145913
1782	0.111117
1794	0.0735622
1806	0.033988
1818	0.0161527
1830	0.00922051
1842	0.00639378
1854	0.0045093
1866	0.00309594
1878	0.00235561
1890	0.00208639
1902	0.00201909
1914	0.00161527
1926	0.00114415
1938	0.00161527
1950	0.00168257
1962	0.00161527
1974	0.00148067
1986	0.00188448
1998	0.00195179
2010	0.00154797
2022	0.000874939
2034	0.000740333
2046	0.000740333
2058	0.00100955
2070	0.00134606
2082	0.00100955
2094	0.000471121
2106	0.000538424
2118	0.00067303
2130	0.00114415
2142	0.000740333
2154	0.000942242
2166	0.00100955
2178	0.000740333
2190	0.000740333
2202	0.000807636
2214	0.00114415
2226	0.00141336
2238	0.00154797
2250	0.00141336
2262	0.00154797
2274	0.0021537
2286	0.00370167
2298	0.0045766
2310	0.00538424
2322	0.00309594
2334	0.000807636
2346	0.00363436
2358	0.000605727
2370	0.00356706
2382	0.00498042
2394	0.00161527
2406	0.00161527
2418	0.00100955
2430	0.000538424
2442	0.000403818
2454	0.000269212
2466	0.000874939
2478	0.000807636
2490	0.00168257
2502	0.00168257
2514	0.00134606
2526	0.00148067
2538	0.00161527
2550	0.00148067
2562	0.00174988
2574	0.00188448
2586	0.00262482
2598	0.00269212
2610	0.00329785
2622	0.0045766
2634	0.00551885
2646	0.00491312
2658	0.00484582
2670	0.00545154
2682	0.00545154
2694	0.00551885
2706	0.00605727
2718	0.00821097
2730	0.0107685
2742	0.00935512
2754	0.0101628
2766	0.00962433
2778	0.00955703
2790	0.0125184
2802	0.0149413
2814	0.0208639
2826	0.0330458
2838	0.0736968
2850	0.134068
2862	0.125789
2874	0.185151
2886	0.200765
2898	0.183199
2910	0.239868
2922	0.32117
2934	0.415596
2946	0.54051
2958	0.663877
2970	0.589776
2982	0.411423
2994	0.175997
3006	0.0741006
3018	0.055525
3030	0.0249021
3042	0.0161527
3054	0.0152105
3066	0.0191814
3078	0.0188448
3090	0.0180372
3102	0.0182391
3114	0.0119799
3126	0.00854748
3138	0.00807636
3150	0.00726872
3162	0.00787445
3174	0.006663
3186	0.00652839
3198	0.00592266
3210	0.00632648
3222	0.00538424
3234	0.00498042
3246	0.00464391
3258	0.00309594
3270	0.00296133
3282	0.00289403
3294	0.00269212
3306	0.00269212
3318	0.00323054
3330	0.00376897
3342	0.00417279
3354	0.0045093
3366	0.00518233
3378	0.00498042
3390	0.00464391
3402	0.00572076
3414	0.006663
3426	0.00713412
3438	0.00827827
3450	0.00854748
3462	0.00767254
3474	0.00848018
3486	0.00747063
3498	0.0106339
3510	0.0168931
3522	0.0203928
3534	0.0331804
3546	0.0629283
3558	0.0804271
3570	0.15123
3582	0.0563999
3594	0.0471121
3606	0.0418625
3618	0.0238926
3630	0.0182391
3642	0.0106339
3654	0.00349976
3666	0.00174988
3678	0.0021537
3690	0.00148067
3702	0.000403818
3714	0.000403818
3726	0
3738	0.000538424
3750	6.7303e-05
3762	0.000201909
3774	0.00168257
3786	0.000942242
3798	0.00154797
3810	0.00121145
3822	0.00121145
3834	0.000538424
3846	0.00262482
3858	0.00249021
3870	0.000942242
3882	0.000874939
3894	0.00195179
3906	0.00141336
3918	0.00242291
3930	0.00208639
3942	0.000874939
3954	0.00242291
3966	0.00269212
