Infrared Spectrum: Cyclohexaneacetic acid, 1-hydroxy-3,3,5-trimethyl-, tert-butyl ester
Formula: C 15 H 28 O 3
CAS: 13278-11-0
Origin: Sadtler Research Labs Under US-EPA Contract
1/CM	ABSORBANCE
450	0.0512964
462	0.040915
474	0.038625
486	0.0348846
498	0.041373
510	0.0448081
522	0.0435867
534	0.0303809
546	0.0193125
558	0.0161828
570	0.0209155
582	0.0270986
594	0.0129004
606	0.00503804
618	0.00396937
630	0.00320603
642	0.00496171
654	0.00442737
666	0.0042747
678	7.6334e-05
690	0.00106868
702	0.00167935
714	0.00251902
726	0.00465637
738	0.0125951
750	0.0306863
762	0.0192362
774	0.0160301
786	0.0224422
798	0.0304573
810	0.0325946
822	0.0213735
834	0.0477088
846	0.0628992
858	0.038167
870	0.0338923
882	0.0203812
894	0.039999
906	0.0389303
918	0.0380143
930	0.0376327
942	0.0506094
954	0.0687006
966	0.0640442
978	0.0291596
990	0.0262589
1002	0.0289306
1014	0.0257246
1026	0.0454951
1038	0.0695403
1050	0.0512201
1062	0.0454951
1074	0.0622122
1086	0.0879368
1098	0.0967152
1110	0.109387
1122	0.201751
1134	0.435256
1146	0.562734
1158	0.579909
1170	0.539758
1182	0.417547
1194	0.230147
1206	0.235109
1218	0.248544
1230	0.172973
1242	0.216331
1254	0.215949
1266	0.143126
1278	0.132134
1290	0.140302
1302	0.138165
1314	0.16221
1326	0.208239
1338	0.248009
1350	0.203125
1362	0.215491
1374	0.349839
1386	0.206178
1398	0.253505
1410	0.111066
1422	0.0703799
1434	0.0713723
1446	0.0603039
1458	0.126104
1470	0.108929
1482	0.0832041
1494	0.0345793
1506	0.0143508
1518	0.00862574
1530	0.00671739
1542	0.00580138
1554	0.00603039
1566	0.00557238
1578	0.00625939
1590	0.00664106
1602	0.00610672
1614	0.00694639
1626	0.00610672
1638	0.00656472
1650	0.0101524
1662	0.0116791
1674	0.0161065
1686	0.0254192
1698	0.0470217
1710	0.134043
1722	0.3848
1734	0.286329
1746	0.258849
1758	0.127172
1770	0.037022
1782	0.0200758
1794	0.0129004
1806	0.00961808
1818	0.00824407
1830	0.00793874
1842	0.00732806
1854	0.00671739
1866	0.00572505
1878	0.00580138
1890	0.00572505
1902	0.00549605
1914	0.00496171
1926	0.00488538
1938	0.00503804
1950	0.00458004
1962	0.00488538
1974	0.00503804
1986	0.00503804
1998	0.00496171
2010	0.00465637
2022	0.00419837
2034	0.00450371
2046	0.00442737
2058	0.00458004
2070	0.00488538
2082	0.00450371
2094	0.00450371
2106	0.00412204
2118	0.00442737
2130	0.00450371
2142	0.00465637
2154	0.00473271
2166	0.00503804
2178	0.00480904
2190	0.00442737
2202	0.00473271
2214	0.00473271
2226	0.0042747
2238	0.00412204
2250	0.00366403
2262	0.00320603
2274	0.00297703
2286	0.00282436
2298	0.00251902
2310	0.000229002
2322	0.00190835
2334	0.00503804
2346	0.0040457
2358	0.00603039
2370	0.00671739
2382	0.00549605
2394	0.00610672
2406	0.00664106
2418	0.00610672
2430	0.00488538
2442	0.00396937
2454	0.00442737
2466	0.0040457
2478	0.00374037
2490	0.0035877
2502	0.00366403
2514	0.0040457
2526	0.0040457
2538	0.00419837
2550	0.00442737
2562	0.00450371
2574	0.00473271
2586	0.00488538
2598	0.00488538
2610	0.00557238
2622	0.00679373
2634	0.0078624
2646	0.00770973
2658	0.00687006
2670	0.00648839
2682	0.00671739
2694	0.00694639
2706	0.00893108
2718	0.0120608
2730	0.0160301
2742	0.0148851
2754	0.0117554
2766	0.0118318
2778	0.0137401
2790	0.0149615
2802	0.0183965
2814	0.0274039
2826	0.0471744
2838	0.106486
2850	0.108394
2862	0.102211
2874	0.228773
2886	0.263658
2898	0.27694
2910	0.38999
2922	0.442279
2934	0.446859
2946	0.393425
2958	0.76334
2970	0.330755
2982	0.300909
2994	0.211369
3006	0.100685
3018	0.0716776
3030	0.0241215
3042	0.0139691
3054	0.0113738
3066	0.0106104
3078	0.0107631
3090	0.0108394
3102	0.00992342
3114	0.00938908
3126	0.00900741
3138	0.00877841
3150	0.00870208
3162	0.00931275
3174	0.00938908
3186	0.00954175
3198	0.00908375
3210	0.00778607
3222	0.00610672
3234	0.00580138
3246	0.00534338
3258	0.00396937
3270	0.00282436
3282	0.00274802
3294	0.00297703
3306	0.00305336
3318	0.00320603
3330	0.0038167
3342	0.00389303
3354	0.0035877
3366	0.00389303
3378	0.00450371
3390	0.00442737
3402	0.00633572
3414	0.0074044
3426	0.00778607
3438	0.00862574
3450	0.00923641
3462	0.0122134
3474	0.0161828
3486	0.0195415
3498	0.0222895
3510	0.0267932
3522	0.0480141
3534	0.0992342
3546	0.109692
3558	0.078395
3570	0.0532048
3582	0.0489301
3594	0.0684716
3606	0.0426707
3618	0.0196942
3630	0.00969442
3642	0.00625939
3654	0.0033587
3666	0.00106868
3678	0.000839674
3690	0.000992342
3702	0.00160301
3714	0.00038167
3726	0.00038167
3738	0.000687006
3750	0.000992342
3762	0.000839674
3774	0.00114501
3786	0.000839674
3798	0.000152668
3810	0.00076334
3822	0.000839674
3834	0.000305336
3846	7.6334e-05
3858	0.00038167
3870	0.000687006
3882	7.6334e-05
3894	0.00129768
3906	0.00114501
3918	0.000687006
3930	0.00122134
3942	0.000458004
3954	0.000916008
3966	7.6334e-05
