Infrared Spectrum: Benzene, 1-chloro-2-methyl-4-nitro-
Formula: C 7 H 6 Cl N O 2
CAS: 13290-74-9
Origin: Sadtler Research Labs Under US-EPA Contract
1/CM	ABSORBANCE
450	0.00637188
462	0.007889
474	0.00586618
486	0.00728215
498	0.0155757
510	0.0579538
522	0.0406587
534	0.0168905
546	0.0121369
558	0.0288252
570	0.0687759
582	0.0476374
594	0.0146654
606	0.00627074
618	0.0061696
630	0.00505705
642	0.00121369
654	0.00202282
666	0.000202282
678	0.00333765
690	0.0191156
702	0.017902
714	0.00293309
726	0.0333765
738	0.138462
750	0.0933531
762	0.0224533
774	0.00586618
786	0.0135529
798	0.150397
810	0.248503
822	0.084655
834	0.0737318
846	0.0185088
858	0.00485477
870	0.0122381
882	0.0339834
894	0.0842505
906	0.0801037
918	0.161826
930	0.0605835
942	0.00586618
954	0.00627074
966	0.00546161
978	0.00293309
990	0.00374222
1002	0.0131483
1014	0.0147666
1026	0.0334777
1038	0.0916337
1050	0.318392
1062	0.377054
1074	0.0917349
1086	0.0537059
1098	0.0323651
1110	0.0269035
1122	0.0358039
1134	0.0310503
1146	0.013654
1158	0.00495591
1170	0.00546161
1182	0.00546161
1194	0.00869813
1206	0.0189134
1218	0.00930497
1230	0.00890041
1242	0.00900155
1254	0.0421758
1266	0.0769683
1278	0.0581561
1290	0.0758557
1302	0.0516831
1314	0.0558298
1326	0.0923417
1338	0.404564
1350	0.992699
1362	0.641841
1374	0.142811
1386	0.0665508
1398	0.0398496
1410	0.0539082
1422	0.0768672
1434	0.0714055
1446	0.0735295
1458	0.106704
1470	0.243042
1482	0.205721
1494	0.0924429
1506	0.110041
1518	0.230298
1530	0.547982
1542	0.738532
1554	0.679465
1566	0.355511
1578	0.260741
1590	0.182458
1602	0.120762
1614	0.100635
1626	0.0470306
1638	0.0206328
1650	0.0261955
1662	0.0270046
1674	0.0178008
1686	0.0156769
1698	0.0174974
1710	0.0211385
1722	0.0218465
1734	0.0119346
1746	0.007889
1758	0.0131483
1770	0.0193179
1782	0.0209362
1794	0.0130472
1806	0.00525933
1818	0.00111255
1830	0.000910269
1842	0.000606846
1854	0.000404564
1866	0.00151712
1878	0.00242738
1890	0.00748443
1902	0.0126426
1914	0.00910269
1926	0.00323651
1938	0.00192168
1950	0.00121369
1962	0.00111255
1974	0.00131483
1986	0.00101141
1998	0.00161826
2010	0.00161826
2022	0.00252852
2034	0.00151712
2046	0.000910269
2058	0.00111255
2070	0.00111255
2082	0.00131483
2094	0.000707987
2106	0.000809128
2118	0.000606846
2130	0.00111255
2142	0.000707987
2154	0.000404564
2166	0.00111255
2178	0.00111255
2190	0.00121369
2202	0.00131483
2214	0.000809128
2226	0.000202282
2238	0.000910269
2250	0.00131483
2262	0.00323651
2274	0.00465249
2286	0.00364108
2298	0.00374222
2310	0.00546161
2322	0.00505705
2334	0.0056639
2346	0.00647302
2358	0.00606846
2370	0.00536047
2382	0.00505705
2394	0.00262967
2406	0.00313537
2418	0.00283195
2430	0.00273081
2442	0.0039445
2454	0.0056639
2466	0.0056639
2478	0.00505705
2490	0.00495591
2502	0.0044502
2514	0.00293309
2526	0.00293309
2538	0.00343879
2550	0.00434906
2562	0.00556275
2574	0.00819242
2586	0.00778786
2598	0.00505705
2610	0.00455135
2622	0.00343879
2634	0.00313537
2646	0.00303423
2658	0.0039445
2670	0.00515819
2682	0.00697873
2694	0.00809128
2706	0.00667531
2718	0.00637188
2730	0.00525933
2742	0.00505705
2754	0.00546161
2766	0.00576504
2778	0.00495591
2790	0.00596732
2802	0.00647302
2814	0.00768672
2826	0.00819242
2838	0.0105187
2850	0.015778
2862	0.0251841
2874	0.0319606
2886	0.0309491
2898	0.0303423
2910	0.0305446
2922	0.0334777
2934	0.0521888
2946	0.0578527
2958	0.0405575
2970	0.0423781
2982	0.0350959
2994	0.0377256
3006	0.0274092
3018	0.0161826
3030	0.014362
3042	0.0134518
3054	0.0118335
3066	0.0125415
3078	0.020835
3090	0.0199248
3102	0.0148677
3114	0.0061696
3126	0.00465249
3138	0.00384336
3150	0.00323651
3162	0.00232624
3174	0.00252852
3186	0.00293309
3198	0.00364108
3210	0.00293309
3222	0.00343879
3234	0.00273081
3246	0.00252852
3258	0.00242738
3270	0.00232624
3282	0.00242738
3294	0.00283195
3306	0.0022251
3318	0.00202282
3330	0.00151712
3342	0.00202282
3354	0.00212396
3366	0.00192168
3378	0.00192168
3390	0.0022251
3402	0.00161826
3414	0.00242738
3426	0.00161826
3438	0.00121369
3450	0.00182054
3462	0.00182054
3474	0.00121369
3486	0.00151712
3498	0.00161826
3510	0.00121369
3522	0.00121369
3534	0.00121369
3546	0.00101141
3558	0.000910269
3570	0.00404564
3582	0.00374222
3594	0.0022251
3606	0.000910269
3618	0.00101141
3630	0.00252852
3642	0.000910269
3654	0.00141597
3666	0.000505705
3678	0.00212396
3690	0.00161826
3702	0.0022251
3714	0.00212396
3726	0.00283195
3738	0.00212396
3750	0.00101141
3762	0.000809128
3774	0.000910269
3786	0.00202282
3798	0.0022251
3810	0.000505705
3822	0.00212396
3834	0.0017194
3846	0.00283195
3858	0.000404564
3870	0.00313537
3882	0.00232624
3894	0.0017194
3906	0.00262967
3918	0.00283195
3930	0.00232624
3942	0.00192168
3954	0.00333765
3966	0.00323651
