Infrared Spectrum: Benzenamine, 2-bromo-4-nitro-
Formula: C 6 H 5 Br N 2 O 2
CAS: 13296-94-1
Origin: Sadtler Research Labs Under US-EPA Contract
1/CM	ABSORBANCE
450	0.00963527
462	0.0205403
474	0.0203909
486	0.0155359
498	0.012847
510	0.00806674
522	0.0065729
534	0.0102328
546	0.00851489
558	0.00261422
570	0.00537782
582	0.00619944
594	0.00791735
606	0.00963527
618	0.0168057
630	0.0349559
642	0.0323416
654	0.00963527
666	0.0185983
678	0.0500436
690	0.118686
702	0.0737957
714	0.0319682
726	0.0430226
738	0.0819371
750	0.0656543
762	0.0221088
774	0.00881366
786	0.00829081
798	0.0102328
810	0.0439189
822	0.0923193
834	0.0419022
846	0.0277107
858	0.0228558
870	0.0274867
882	0.045114
894	0.0445911
906	0.0311466
918	0.00799204
930	0.00291299
942	0.00395868
954	0.00993404
966	0.00702105
978	0.00425744
990	0.0074692
1002	0.0239761
1014	0.0253953
1026	0.0227064
1038	0.0244243
1050	0.0226317
1062	0.0218101
1074	0.0142662
1086	0.0140421
1098	0.0193452
1110	0.084626
1122	0.15887
1134	0.0615462
1146	0.0357775
1158	0.0304743
1170	0.00522844
1182	0.00485498
1194	0.00702105
1206	0.0108303
1218	0.0152372
1230	0.0200175
1242	0.0278601
1254	0.0546745
1266	0.0572888
1278	0.0510893
1290	0.0753642
1302	0.185535
1314	0.251339
1326	0.17224
1338	0.408117
1350	0.718014
1362	0.084626
1374	0.0212872
1386	0.0387651
1398	0.0434707
1410	0.0406324
1422	0.0489233
1434	0.051164
1446	0.0498196
1458	0.0629654
1470	0.0979212
1482	0.148488
1494	0.220192
1506	0.115474
1518	0.0912736
1530	0.331782
1542	0.398034
1554	0.102403
1566	0.0869415
1578	0.103374
1590	0.149309
1602	0.154463
1614	0.279572
1626	0.359717
1638	0.1213
1650	0.0366738
1662	0.0147143
1674	0.00552721
1686	0.00365991
1698	0.00515375
1710	0.00365991
1722	0.00171792
1734	0.00388398
1746	0.00433214
1758	0.00627413
1770	0.00619944
1782	0.00582598
1794	0.00709574
1806	0.00448152
1818	0.00209138
1830	0.00261422
1842	0.00246484
1854	0.00209138
1866	0.00268891
1878	0.00336114
1890	0.00664759
1902	0.00455621
1914	0.00224076
1926	0.00216607
1938	0.00268891
1950	0.00268891
1962	0.00246484
1974	0.00253953
1986	0.00268891
1998	0.00291299
2010	0.0027636
2022	0.00239014
2034	0.00253953
2046	0.00291299
2058	0.00261422
2070	0.00261422
2082	0.00171792
2094	0.00179261
2106	0.00194199
2118	0.00216607
2130	0.00201668
2142	0.00141915
2154	0.000970996
2166	0.00134446
2178	0.00134446
2190	0.00141915
2202	0.00141915
2214	0.00119507
2226	0.00156853
2238	0.00164322
2250	0.00112038
2262	0.00112038
2274	0.00126976
2286	0.00179261
2298	0.00336114
2310	0.00530313
2322	0.00597536
2334	0.00694636
2346	0.00791735
2358	0.00679697
2370	0.00799204
2382	0.00448152
2394	0.00134446
2406	0.00164322
2418	0.00126976
2430	0.00224076
2442	0.00239014
2454	0.00365991
2466	0.00522844
2478	0.00291299
2490	0.00112038
2502	0.00037346
2514	0.000672228
2526	0.000522844
2538	0.00074692
2550	0.000522844
2562	0.00104569
2574	0.00171792
2586	0.000896304
2598	0.00171792
2610	0.0027636
2622	0.0046309
2634	0.00724512
2646	0.00664759
2658	0.0037346
2670	0.00291299
2682	0.00194199
2694	0.00179261
2706	0.0018673
2718	0.00194199
2730	0.00149384
2742	0.00141915
2754	0.000970996
2766	0.000970996
2778	0.00112038
2790	0.00156853
2802	0.00253953
2814	0.0028383
2826	0.00313706
2838	0.0028383
2850	0.00343583
2862	0.00627413
2874	0.00978465
2886	0.00709574
2898	0.00478029
2910	0.00597536
2922	0.00679697
2934	0.00873896
2946	0.0084402
2958	0.00500436
2970	0.00545252
2982	0.00455621
2994	0.00418275
3006	0.00358522
3018	0.00328645
3030	0.00575128
3042	0.00903773
3054	0.0101581
3066	0.0141168
3078	0.0188224
3090	0.0123242
3102	0.0100087
3114	0.0064982
3126	0.00455621
3138	0.00388398
3150	0.00425744
3162	0.00590067
3174	0.00664759
3186	0.00791735
3198	0.00873896
3210	0.00702105
3222	0.00492967
3234	0.00433214
3246	0.00306237
3258	0.00313706
3270	0.00418275
3282	0.00545252
3294	0.00627413
3306	0.0083655
3318	0.00985934
3330	0.0111291
3342	0.0136686
3354	0.0161335
3366	0.0212872
3378	0.0249471
3390	0.0259181
3402	0.0348065
3414	0.0597536
3426	0.0637123
3438	0.0426491
3450	0.01576
3462	0.0122495
3474	0.0141168
3486	0.0164322
3498	0.0218848
3510	0.0279348
3522	0.0261422
3534	0.0262169
3546	0.0187477
3558	0.00664759
3570	0.00231545
3582	0.000896304
3594	0.00149384
3606	0.000896304
3618	0.00156853
3630	0.0018673
3642	0.00037346
3654	0.00149384
3666	0.00171792
3678	0.00156853
3690	0.00164322
3702	0.00141915
3714	0.00171792
3726	0.00268891
3738	0.000970996
3750	0.00179261
3762	0.00201668
3774	0.00126976
3786	0.00253953
3798	0.0028383
3810	0.00246484
3822	0.0018673
3834	0.00231545
3846	0.00171792
3858	0.00321176
3870	0.00351052
3882	0.00448152
3894	0.00433214
3906	0.00306237
3918	0.00253953
3930	0.00351052
3942	0.00179261
3954	0.00246484
3966	0.00395868
