Infrared Spectrum: Ethanol, ((.alpha.-methylbenzyl)amino)-
Formula: C 10 H 15 N O
CAS: 1331-41-5
Origin: Sadtler Research Labs Under US-EPA Contract
1/CM	ABSORBANCE
450	0.0122392
462	0.0243898
474	0.000221725
486	0.0273165
498	0.00461188
510	0.0341013
522	0.0438572
534	0.0527706
546	0.0717946
558	0.0701981
570	0.050509
582	0.0547661
594	0.0505533
606	0.0382254
618	0.0463849
630	0.0288243
642	0.0266513
654	0.0399105
666	0.0807522
678	0.10359
690	0.242168
702	0.44345
714	0.199109
726	0.122259
738	0.138489
750	0.159066
762	0.229618
774	0.130463
786	0.0623047
798	0.0354317
810	0.0242124
822	0.0100663
834	0.0166294
846	0.019157
858	0.0313963
870	0.0301546
882	0.0401766
894	0.0352543
906	0.038048
918	0.0236802
930	0.0275826
942	0.023902
954	0.0203987
966	0.0258088
978	0.0232811
990	0.0449215
1002	0.0876701
1014	0.150241
1026	0.228554
1038	0.306867
1050	0.40487
1062	0.349527
1074	0.308686
1086	0.187136
1098	0.105985
1110	0.113213
1122	0.183056
1134	0.262301
1146	0.169886
1158	0.103102
1170	0.0883796
1182	0.102614
1194	0.128113
1206	0.141372
1218	0.114587
1230	0.0856745
1242	0.0636794
1254	0.0702868
1266	0.0823487
1278	0.0864284
1290	0.0891778
1302	0.103102
1314	0.105807
1326	0.11951
1338	0.105009
1350	0.130906
1362	0.137957
1374	0.162835
1386	0.137957
1398	0.119022
1410	0.0998206
1422	0.0737014
1434	0.0988894
1446	0.192945
1458	0.238044
1470	0.193876
1482	0.131749
1494	0.12523
1506	0.0513959
1518	0.0211082
1530	0.0111306
1542	0.0130818
1554	0.00518837
1566	0.00239463
1578	0.00558747
1590	0.0199553
1602	0.0425712
1614	0.0207091
1626	0.00660741
1638	0.0121505
1650	0.0209752
1662	0.0143234
1674	0.0228377
1686	0.0197779
1698	0.0113523
1710	0.00718389
1722	0.00674044
1734	0.00749431
1746	0.00931245
1758	0.00727258
1770	0.00651872
1782	0.00864728
1794	0.0153877
1806	0.0170285
1818	0.00962287
1830	0.00643003
1842	0.00474492
1854	0.00744996
1866	0.0134809
1878	0.015299
1890	0.0131705
1902	0.00776038
1914	0.00656306
1926	0.00984459
1938	0.0176937
1950	0.018891
1962	0.0129931
1974	0.00447885
1986	0.00301546
1998	0.00168511
2010	0.00119732
2022	0.00115297
2034	0.00150773
2046	0.000842555
2058	0.000931245
2070	0.000931245
2082	0.00146339
2094	0.00133035
2106	0.00106428
2118	0.00164077
2130	0.00133035
2142	0.000665175
2154	0.000487795
2166	0.000576485
2178	0.000487795
2190	0.000576485
2202	0.00017738
2214	0.000133035
2226	0.000487795
2238	0.00101994
2250	0.00137469
2262	0.00221725
2274	0.00257201
2286	0.00359195
2298	0.00478926
2310	0.00807079
2322	0.00780472
2334	0.00807079
2346	0.00665175
2358	0.0066961
2370	0.00660741
2382	0.00678479
2394	0.00576485
2406	0.00678479
2418	0.00691782
2430	0.00696217
2442	0.00860293
2454	0.00802645
2466	0.00807079
2478	0.0079821
2490	0.00700651
2502	0.00713955
2514	0.0070952
2526	0.00700651
2538	0.00740562
2550	0.00851424
2562	0.00944548
2574	0.0107758
2586	0.0138356
2598	0.0155208
2610	0.0161416
2622	0.0160085
2634	0.016452
2646	0.0171172
2658	0.0189797
2670	0.0213299
2682	0.024168
2694	0.0268287
2706	0.0301546
2718	0.0308198
2730	0.0326823
2742	0.0341456
2754	0.0384471
2766	0.0476709
2778	0.0626151
2790	0.0887343
2802	0.118579
2814	0.15033
2826	0.18177
2838	0.207845
2850	0.219774
2862	0.217468
2874	0.234452
2886	0.257733
2898	0.242124
2910	0.226514
2922	0.264341
2934	0.356002
2946	0.341501
2958	0.283631
2970	0.361057
2982	0.334893
2994	0.132902
3006	0.0587571
3018	0.0851867
3030	0.172413
3042	0.144875
3054	0.0993328
3066	0.172591
3078	0.186515
3090	0.105674
3102	0.0550321
3114	0.0271835
3126	0.00864728
3138	0.00248332
3150	0.000576485
3162	0.00110863
3174	0.00124166
3186	0.00053214
3198	0.00053214
3210	0.00097559
3222	0.00128601
3234	0.00181815
3246	0.00221725
3258	0.00279374
3270	0.00447885
3282	0.00572051
3294	0.00740562
3306	0.008869
3318	0.00900204
3330	0.0105985
3342	0.0117958
3354	0.0137026
3366	0.011308
3378	0.008869
3390	0.00767169
3402	0.00638568
3414	0.00465622
3426	0.00505533
3438	0.00447885
3450	0.00412409
3462	0.00350326
3474	0.0035476
3486	0.00399105
3498	0.00372498
3510	0.00416843
3522	0.00514402
3534	0.00651872
3546	0.0108645
3558	0.0190684
3570	0.0327266
3582	0.0303763
3594	0.021463
3606	0.0142347
3618	0.0123279
3630	0.0105985
3642	0.010155
3654	0.0249662
3666	0.0339683
3678	0.0386688
3690	0.0189797
3702	0.00345891
3714	0
3726	0
3738	0
3750	0
3762	0
3774	0
3786	0
3798	0
3810	0
3822	0
3834	0
3846	0
3858	0
3870	0
3882	0
3894	0
3906	0
3918	0
3930	0
3942	0
3954	0
3966	0
