Infrared Spectrum: Succinimide, N-(o-toluidinomethyl)-,
Formula: C 12 H 14 N 2 O 2
CAS: 13314-98-2
Origin: Sadtler Research Labs Under US-EPA Contract
1/CM	ABSORBANCE
450	0
462	0.0737205
474	0.0605659
486	0.0802978
498	0.0881084
510	0.0805719
522	0.0738576
534	0.0823532
546	0.0848197
558	0.0822162
570	0.0646767
582	0.0727613
594	0.104141
606	0.121954
618	0.152922
630	0.186768
642	0.265558
654	0.261173
666	0.208281
678	0.126476
690	0.105648
702	0.101811
714	0.127298
726	0.194304
738	0.155389
750	0.141412
762	0.120995
774	0.11798
786	0.116336
798	0.0878343
810	0.0727613
822	0.0881084
834	0.0790646
846	0.0753648
858	0.0623473
870	0.0786535
882	0.10647
894	0.118939
906	0.104689
918	0.0804348
930	0.0774203
942	0.0685135
954	0.0633065
966	0.0600178
978	0.0697467
990	0.0716651
1002	0.0656359
1014	0.0722132
1026	0.0937265
1038	0.113321
1050	0.0941375
1062	0.0787905
1074	0.0723503
1086	0.0785165
1098	0.0859159
1110	0.117843
1122	0.181972
1134	0.291593
1146	0.449175
1158	0.402037
1170	0.246512
1182	0.11798
1194	0.120447
1206	0.152237
1218	0.171832
1230	0.156211
1242	0.12812
1254	0.113732
1266	0.119899
1278	0.154566
1290	0.185398
1302	0.175806
1314	0.186768
1326	0.301733
1338	0.346678
1350	0.251033
1362	0.133738
1374	0.0940005
1386	0.0805719
1398	0.076324
1410	0.0718021
1422	0.0757759
1434	0.104141
1446	0.114966
1458	0.12812
1470	0.115377
1482	0.139631
1494	0.151141
1506	0.106059
1518	0.0801608
1530	0.0656359
1542	0.0674173
1554	0.0617992
1566	0.066047
1578	0.0792016
1590	0.0874232
1602	0.0870121
1614	0.0946857
1626	0.107292
1638	0.121543
1650	0.112773
1662	0.0879713
1674	0.0919451
1686	0.113321
1698	0.18252
1710	0.277343
1722	0.311325
1734	0.34983
1746	0.48165
1758	0.859707
1770	1.36205
1782	1.22393
1794	0.749401
1806	0.224998
1818	0.181698
1830	0.14196
1842	0.0882454
1854	0.0679654
1866	0.0650878
1878	0.0653619
1890	0.0682394
1902	0.0671432
1914	0.0641286
1926	0.0656359
1938	0.0664581
1950	0.0641286
1962	0.0615251
1974	0.0598808
1986	0.0586476
1998	0.0582365
2010	0.0570032
2022	0.0568662
2034	0.0570032
2046	0.0594697
2058	0.0650878
2070	0.0648138
2082	0.0563181
2094	0.0546738
2106	0.0541257
2118	0.0554959
2130	0.0549478
2142	0.0554959
2154	0.0552219
2166	0.056044
2178	0.0563181
2190	0.0563181
2202	0.0568662
2214	0.0574143
2226	0.0576884
2238	0.0570032
2250	0.0571403
2262	0.0570032
2274	0.0575513
2286	0.0576884
2298	0.0568662
2310	0.0580994
2322	0.0587846
2334	0.0594697
2346	0.060977
2358	0.0586476
2370	0.0594697
2382	0.0585105
2394	0.0567292
2406	0.0570032
2418	0.0575513
2430	0.0585105
2442	0.0583735
2454	0.0572773
2466	0.0565922
2478	0.0572773
2490	0.0561811
2502	0.0542627
2514	0.0527554
2526	0.0538516
2538	0.0528924
2550	0.0534405
2562	0.0546738
2574	0.0549478
2586	0.0553589
2598	0.0546738
2610	0.055633
2622	0.0563181
2634	0.0563181
2646	0.0570032
2658	0.0564551
2670	0.0582365
2682	0.0565922
2694	0.0553589
2706	0.0549478
2718	0.0549478
2730	0.055633
2742	0.0575513
2754	0.0580994
2766	0.0567292
2778	0.0563181
2790	0.0590586
2802	0.0626213
2814	0.0626213
2826	0.0671432
2838	0.0718021
2850	0.0797497
2862	0.0970151
2874	0.123735
2886	0.136068
2898	0.120584
2910	0.110444
2922	0.119351
2934	0.128531
2946	0.13045
2958	0.124421
2970	0.116884
2982	0.101811
2994	0.1014
3006	0.105785
3018	0.171832
3030	0.180602
3042	0.118117
3054	0.113184
3066	0.137164
3078	0.14059
3090	0.105922
3102	0.0775573
3114	0.0667321
3126	0.0619362
3138	0.0594697
3150	0.0580994
3162	0.056044
3174	0.0548108
3186	0.0550849
3198	0.0543997
3210	0.0528924
3222	0.0545367
3234	0.0549478
3246	0.0579624
3258	0.0580994
3270	0.0605659
3282	0.0575513
3294	0.0575513
3306	0.0568662
3318	0.0554959
3330	0.056044
3342	0.05577
3354	0.0564551
3366	0.0548108
3378	0.0546738
3390	0.05577
3402	0.055907
3414	0.060977
3426	0.0726243
3438	0.109348
3450	0.157855
3462	0.147852
3474	0.131957
3486	0.0796127
3498	0.0656359
3510	0.0616621
3522	0.060977
3534	0.0639916
3546	0.0642657
3558	0.0656359
3570	0.0646767
3582	0.0620732
3594	0.0594697
3606	0.0568662
3618	0.0582365
3630	0.0580994
3642	0.055633
3654	0.0604289
3666	0.0575513
3678	0.0597438
3690	0.0601549
3702	0.0549478
3714	0.0574143
3726	0.0583735
3738	0.0580994
3750	0.0617992
3762	0.0526184
3774	0.0530294
3786	0.0523443
3798	0.0575513
3810	0.0528924
3822	0.0571403
3834	0.0563181
3846	0.0575513
3858	0.060977
3870	0.0617992
3882	0.056044
3894	0.0687876
3906	0.0672803
3918	0.0613881
3930	0.0565922
3942	0.0601549
3954	0.0567292
3966	0.0594697
