Infrared Spectrum: Pentanol, 2,2,4-trimethyl-
Formula: C 8 H 18 O
CAS: 1331-40-4
Origin: Sadtler Research Labs Under US-EPA Contract
1/CM	ABSORBANCE
450	0.0600219
462	0.00788057
474	0.0268803
486	0.0179202
498	0.0174884
510	0.000647718
522	0.0147896
534	0.011551
546	0.016193
558	0.0201872
570	0.016085
582	0.020619
594	0.027636
606	0.0139259
618	0.0245053
630	0.020727
642	0.0194315
654	0.0125225
666	0.0129544
678	0.0127385
690	0.00647718
702	0.0116589
714	0.0134941
726	0.00755671
738	0.0185679
750	0.0216986
762	0.0237497
774	0.0165168
786	0.0127385
798	0.0136021
810	0.0178122
822	0.0133862
834	0.0126305
846	0.0128464
858	0.0147896
870	0.016085
882	0.0232099
894	0.0231019
906	0.0195395
918	0.0293632
930	0.0415619
942	0.0474993
954	0.0699535
966	0.109788
978	0.167327
990	0.230588
1002	0.194855
1014	0.094243
1026	0.0791295
1038	0.100288
1050	0.0721126
1062	0.0466357
1074	0.0421017
1086	0.0503061
1098	0.0634764
1110	0.0886294
1122	0.104067
1134	0.0751353
1146	0.0586185
1158	0.0779421
1170	0.102555
1182	0.087226
1194	0.0721126
1206	0.0715728
1218	0.0723285
1230	0.0778341
1242	0.0750273
1254	0.0617491
1266	0.0538685
1278	0.050522
1290	0.0430732
1302	0.0376756
1314	0.0324939
1326	0.0307666
1338	0.0355165
1350	0.052897
1362	0.128464
1374	0.197878
1386	0.148543
1398	0.145737
1410	0.0823681
1422	0.0362722
1434	0.0333575
1446	0.0486868
1458	0.0908964
1470	0.160094
1482	0.183736
1494	0.100612
1506	0.0311984
1518	0.0172725
1530	0.0117669
1542	0.00971577
1554	0.00852829
1566	0.00831238
1578	0.00744876
1590	0.00669309
1602	0.0071249
1614	0.00690899
1626	0.00626127
1638	0.00647718
1650	0.00582946
1662	0.0055056
1674	0.00582946
1686	0.0055056
1698	0.00582946
1710	0.00798852
1722	0.00885215
1734	0.00636923
1746	0.0052897
1758	0.00518174
1770	0.00410221
1782	0.00323859
1794	0.00259087
1806	0.00248292
1818	0.00194315
1830	0.00172725
1842	0.00172725
1854	0.00151134
1866	0.00205111
1878	0.00194315
1890	0.00151134
1902	0.00151134
1914	0.00140339
1926	0.00161929
1938	0.0018352
1950	0.00172725
1962	0.00215906
1974	0.00215906
1986	0.00215906
1998	0.00172725
2010	0.00161929
2022	0.00107953
2034	0.00107953
2046	0.000755671
2058	0.000431812
2070	0.000431812
2082	0.000971577
2094	0.000971577
2106	0.00140339
2118	0.00140339
2130	0.00107953
2142	0.000863624
2154	0.000647718
2166	0.000755671
2178	0.000647718
2190	0.000323859
2202	0.000431812
2214	0.000539765
2226	0.000431812
2238	0.000755671
2250	0.000755671
2262	0.00107953
2274	0.00118748
2286	0.00248292
2298	0.00291473
2310	0.00280678
2322	0.000971577
2334	0.000107953
2346	0.000971577
2358	0.000107953
2370	0.000107953
2382	0.00237497
2394	0.00248292
2406	0.00259087
2418	0.00259087
2430	0.00280678
2442	0.00259087
2454	0.00205111
2466	0.00269883
2478	0.00226701
2490	0.00226701
2502	0.00205111
2514	0.00226701
2526	0.00248292
2538	0.00323859
2550	0.00334654
2562	0.00388631
2574	0.00518174
2586	0.00539765
2598	0.00615332
2610	0.00658513
2622	0.0073408
2634	0.00885215
2646	0.0101476
2658	0.0101476
2670	0.0111192
2682	0.0133862
2694	0.0144657
2706	0.0152214
2718	0.0175963
2730	0.0208349
2742	0.0186759
2754	0.0169486
2766	0.0167327
2778	0.0174884
2790	0.0200793
2802	0.0241815
2814	0.0322779
2826	0.0443687
2838	0.0677945
2850	0.112271
2862	0.186219
2874	0.320944
2886	0.384313
2898	0.311552
2910	0.305075
2922	0.371574
2934	0.428573
2946	0.544083
2958	0.862437
2970	1.06798
2982	0.659917
2994	0.308638
3006	0.14185
3018	0.0625048
3030	0.032062
3042	0.0199713
3054	0.0158691
3066	0.0131703
3078	0.0118748
3090	0.0110112
3102	0.0103635
3114	0.0102555
3126	0.00939191
3138	0.00993168
3150	0.0110112
3162	0.0117669
3174	0.0119828
3186	0.011443
3198	0.0116589
3210	0.00906805
3222	0.00744876
3234	0.00658513
3246	0.00464198
3258	0.00399426
3270	0.00269883
3282	0.00259087
3294	0.00161929
3306	0.00140339
3318	0.000755671
3330	0.000971577
3342	0.000863624
3354	0.00194315
3366	0.00118748
3378	0.00215906
3390	0.00140339
3402	0.00118748
3414	0.00107953
3426	0.00172725
3438	0.00248292
3450	0.00280678
3462	0.00259087
3474	0.00248292
3486	0.00237497
3498	0.00259087
3510	0.00280678
3522	0.00269883
3534	0.00302268
3546	0.00259087
3558	0.00248292
3570	0.00323859
3582	0.00313064
3594	0.00226701
3606	0.00313064
3618	0.00453403
3630	0.00842033
3642	0.0197554
3654	0.0358404
3666	0.0587264
3678	0.0496584
3690	0.0145737
3702	0.00334654
3714	0.000647718
3726	0.000863624
3738	0.000107953
3750	0.000107953
3762	0.000863624
3774	0.000323859
3786	0.000107953
3798	0
3810	0.00215906
3822	0.00226701
3834	0.00323859
3846	0.00291473
3858	0.00626127
3870	0.00507379
3882	0.00485789
3894	0.00593741
3906	0.00388631
3918	0.00323859
3930	0.00431812
3942	0.00377836
3954	0.00140339
3966	0.00431812
