Infrared Spectrum: 1-(2-Furyl)-3-(2-thienyl)-2-propen-1-one
Formula: C 11 H 8 O 2 S
CAS: 13343-95-8
Origin: Sadtler Research Labs Under US-EPA Contract
1/CM	ABSORBANCE
450	0.00216073
462	0.0121189
474	0.0104279
486	0.0163464
498	0.0125886
510	0.0118371
522	0.0158767
534	0.00234863
546	0.00394569
558	0.00601248
570	0.0277138
582	0.042745
594	0.0876507
606	0.0385175
618	0.01024
630	0.00225468
642	0.00995817
654	0.0121189
666	0.0185072
678	0.0543942
690	0.144206
702	0.26577
714	0.110479
726	0.0430268
738	0.0951663
750	0.242754
762	0.0907509
774	0.0178495
786	0.013716
798	0.0262107
810	0.0676404
822	0.154727
834	0.0524213
846	0.0327868
858	0.102212
870	0.0761894
882	0.0856778
894	0.0274319
906	0.0263046
918	0.10287
930	0.0378598
942	0.0284653
954	0.0500727
966	0.110385
978	0.0714921
990	0.0422753
1002	0.11264
1014	0.195781
1026	0.25957
1038	0.44079
1050	0.0876507
1062	0.0331626
1074	0.0387993
1086	0.0951663
1098	0.0572125
1110	0.0269622
1122	0.0139978
1134	0.0126826
1146	0.0383296
1158	0.141951
1170	0.0585277
1182	0.0152191
1194	0.0526092
1206	0.0680162
1218	0.0685798
1230	0.13359
1242	0.140824
1254	0.0731832
1266	0.090563
1278	0.107661
1290	0.379726
1302	0.16478
1314	0.210155
1326	0.101742
1338	0.0259288
1350	0.0354173
1362	0.0881204
1374	0.0480998
1386	0.0784441
1398	0.0835171
1410	0.0340081
1422	0.049603
1434	0.0309079
1446	0.0321292
1458	0.0862415
1470	0.207337
1482	0.192775
1494	0.0498848
1506	0.032505
1518	0.0519516
1530	0.0248015
1542	0.0296866
1554	0.0730892
1566	0.205458
1578	0.276762
1590	0.239748
1602	0.5663
1614	0.75156
1626	0.138757
1638	0.0777865
1650	0.151345
1662	0.1986
1674	0.330499
1686	0.230071
1698	0.0651039
1710	0.0306261
1722	0.0149373
1734	0.00977028
1746	0.00638826
1758	0.00948844
1770	0.00403963
1782	0.00516697
1794	0.0125886
1806	0.00300624
1818	0.00300624
1830	0.00610642
1842	0.00281835
1854	0.000657615
1866	0.00056367
1878	0.00140917
1890	0.00319413
1902	0.00469725
1914	0.0046033
1926	0.00216073
1938	0.00169101
1950	0.00103339
1962	0.00037578
1974	0.000281835
1986	0.000281835
1998	0.00075156
2010	0.00103339
2022	0.00140917
2034	0.00103339
2046	0.00140917
2058	0.00234863
2070	0.00403963
2082	0.00281835
2094	0.00432147
2106	0.0029123
2118	0.00159706
2130	0.00131523
2142	0
2154	0.00093945
2166	0.00263046
2178	0.00093945
2190	9.3945e-05
2202	0.00037578
2214	0.00075156
2226	0.00131523
2238	0.00150312
2250	0.00103339
2262	0.000657615
2274	0.00122128
2286	0.00159706
2298	0.00075156
2310	0.00093945
2322	0.00197284
2334	0.00169101
2346	0.00244257
2358	0.0029123
2370	0.00197284
2382	0.00385174
2394	0.00310018
2406	0.00159706
2418	0.00131523
2430	0.00122128
2442	0.00263046
2454	0.00328807
2466	0.00356991
2478	0.00300624
2490	0.00216073
2502	0.00122128
2514	0.00150312
2526	0.00225468
2538	0.0018789
2550	0.00272441
2562	0.0029123
2574	0.00178495
2586	0.00169101
2598	0.00234863
2610	0.00272441
2622	0.00432147
2634	0.00629431
2646	0.0056367
2658	0.00356991
2670	0.00253652
2682	0.00253652
2694	0.00338202
2706	0.0029123
2718	0.00263046
2730	0.00216073
2742	0.00150312
2754	0.00159706
2766	0.00234863
2778	0.00272441
2790	0.00356991
2802	0.00347596
2814	0.00403963
2826	0.00432147
2838	0.00450936
2850	0.00497908
2862	0.00338202
2874	0.00216073
2886	0.00216073
2898	0.00310018
2910	0.00366385
2922	0.00310018
2934	0.00244257
2946	0.0018789
2958	0.00112734
2970	0.0018789
2982	0.00253652
2994	0.00234863
3006	0.0029123
3018	0.00516697
3030	0.00723376
3042	0.00826716
3054	0.0109916
3066	0.0122128
3078	0.0213255
3090	0.0254591
3102	0.0147494
3114	0.00883083
3126	0.0121189
3138	0.00732771
3150	0.00526092
3162	0.00450936
3174	0.00140917
3186	0.00112734
3198	0.000845505
3210	0.000469725
3222	0.00103339
3234	0.00169101
3246	0.00225468
3258	0.00263046
3270	0.0037578
3282	0.00432147
3294	0.0029123
3306	0.0029123
3318	0.00272441
3330	0.00450936
3342	0.00601248
3354	0.00310018
3366	0.00234863
3378	0.00234863
3390	0.00263046
3402	0.00122128
3414	0.00159706
3426	0.00216073
3438	0.00178495
3450	0.00244257
3462	0.00281835
3474	0.00178495
3486	0.00225468
3498	0.0029123
3510	0.00263046
3522	0.00253652
3534	0.0018789
3546	0.00263046
3558	0.0018789
3570	0.00140917
3582	0.00206679
3594	0.00216073
3606	0.00159706
3618	0.00169101
3630	0.00216073
3642	0.000281835
3654	0.00216073
3666	0.00244257
3678	0.00234863
3690	0.00225468
3702	0.0029123
3714	0.00225468
3726	0.00244257
3738	0.00356991
3750	0.00150312
3762	0.00253652
3774	0.00234863
3786	0.00225468
3798	0.00328807
3810	0.00225468
3822	0.00328807
3834	0.0046033
3846	0.00338202
3858	0.00300624
3870	0.000845505
3882	0.0029123
3894	0.00272441
3906	0.00263046
3918	0.0029123
3930	0.00281835
3942	0.00319413
3954	0.00554275
3966	0.00263046
