Infrared Spectrum: 2-Furoic acid, tetrahydro-5-oxo-2-phenyl-, methyl ester
Formula: C 12 H 12 O 4
CAS: 13389-98-5
Origin: Sadtler Research Labs Under US-EPA Contract
1/CM	ABSORBANCE
450	0
462	0.0136233
474	0.0212657
486	0.0280773
498	0.0189397
510	0.0197704
522	0.0227609
534	0.0272466
546	0.0176106
558	0.0139556
570	0.0129588
582	0.0124604
594	0.0159492
606	0.0177768
618	0.0162815
630	0.015617
642	0.0147863
654	0.0146201
666	0.0224286
678	0.0511705
690	0.134073
702	0.157997
714	0.0754267
726	0.0606404
738	0.086724
750	0.097523
762	0.0740975
774	0.039707
786	0.0210995
798	0.0194381
810	0.0265821
822	0.0387102
834	0.0586467
846	0.0785833
858	0.0814076
870	0.092705
882	0.0702764
894	0.0420329
906	0.0395408
918	0.0428636
930	0.044525
942	0.052998
954	0.0441927
966	0.0460202
978	0.060142
990	0.0800785
1002	0.168962
1014	0.348391
1026	0.377299
1038	0.31533
1050	0.205513
1062	0.125434
1074	0.110814
1086	0.10583
1098	0.0976891
1110	0.117958
1122	0.170458
1134	0.34241
1146	0.571515
1158	0.531143
1170	0.552243
1182	0.611388
1194	0.502069
1206	0.397901
1218	0.293234
1230	0.265156
1242	0.263329
1254	0.316327
1266	0.293566
1278	0.205513
1290	0.166969
1302	0.164975
1314	0.149026
1326	0.102507
1338	0.105498
1350	0.122278
1362	0.143709
1374	0.151186
1386	0.0835674
1398	0.0480139
1410	0.0431959
1422	0.0696118
1434	0.13424
1446	0.160988
1458	0.100015
1470	0.0501737
1482	0.0352213
1494	0.0544933
1506	0.0476816
1518	0.0265821
1530	0.0245884
1542	0.0274128
1554	0.0214318
1566	0.0182752
1578	0.020435
1590	0.0224286
1602	0.0269144
1614	0.0220964
1626	0.0197704
1638	0.0194381
1650	0.022927
1662	0.0202688
1674	0.0260837
1686	0.0342244
1698	0.0470171
1710	0.0588129
1722	0.0857272
1734	0.152681
1746	0.30287
1758	0.677345
1770	0.470835
1782	0.220465
1794	0.202522
1806	0.497085
1818	1.66138
1830	0.790983
1842	0.147863
1854	0.0654584
1866	0.0485123
1878	0.0421991
1890	0.0405377
1902	0.0314001
1914	0.0225948
1926	0.0184413
1938	0.0207673
1950	0.0227609
1962	0.0207673
1974	0.0164477
1986	0.0151186
1998	0.0152847
2010	0.0159492
2022	0.0167799
2034	0.015617
2046	0.0151186
2058	0.014454
2070	0.0137895
2082	0.0126265
2094	0.0117958
2106	0.0117958
2118	0.0116297
2130	0.0111312
2142	0.0112974
2154	0.0109651
2166	0.0109651
2178	0.0109651
2190	0.010799
2202	0.010799
2214	0.0104667
2226	0.0104667
2238	0.0104667
2250	0.010799
2262	0.0116297
2274	0.0134572
2286	0.0164477
2298	0.0206011
2310	0.0230932
2322	0.0202688
2334	0.015617
2346	0.0199366
2358	0.0164477
2370	0.0164477
2382	0.0191059
2394	0.0114635
2406	0.0109651
2418	0.010799
2430	0.0109651
2442	0.0112974
2454	0.0111312
2466	0.0106328
2478	0.0104667
2490	0.0104667
2502	0.0104667
2514	0.0106328
2526	0.0106328
2538	0.0103006
2550	0.00996828
2562	0.0103006
2574	0.0103006
2586	0.010799
2598	0.0111312
2610	0.0112974
2622	0.010799
2634	0.010799
2646	0.0112974
2658	0.0114635
2670	0.0114635
2682	0.0112974
2694	0.0109651
2706	0.0111312
2718	0.0109651
2730	0.0106328
2742	0.0106328
2754	0.010799
2766	0.010799
2778	0.0114635
2790	0.0119619
2802	0.0134572
2814	0.0141217
2826	0.0154508
2838	0.0191059
2850	0.0312339
2862	0.0285757
2874	0.0219302
2886	0.0275789
2898	0.0420329
2910	0.0463525
2922	0.0461864
2934	0.0503398
2946	0.0682827
2958	0.138559
2970	0.13208
2982	0.055324
2994	0.0495091
3006	0.0609726
3018	0.054161
3030	0.0721039
3042	0.0956955
3054	0.0647938
3066	0.0739314
3078	0.101178
3090	0.0564869
3102	0.0453557
3114	0.0315662
3126	0.0215979
3138	0.0161154
3150	0.0146201
3162	0.0134572
3174	0.0131249
3186	0.0124604
3198	0.0121281
3210	0.0116297
3222	0.0116297
3234	0.0109651
3246	0.0111312
3258	0.010799
3270	0.0111312
3282	0.0109651
3294	0.0106328
3306	0.0103006
3318	0.0106328
3330	0.0104667
3342	0.00996828
3354	0.0104667
3366	0.0106328
3378	0.0106328
3390	0.0106328
3402	0.0101344
3414	0.0106328
3426	0.0101344
3438	0.0106328
3450	0.0104667
3462	0.0116297
3474	0.0109651
3486	0.0126265
3498	0.0139556
3510	0.0134572
3522	0.0117958
3534	0.0106328
3546	0.0116297
3558	0.0111312
3570	0.0162815
3582	0.0199366
3594	0.0176106
3606	0.0166138
3618	0.0255853
3630	0.0220964
3642	0.0116297
3654	0.0121281
3666	0.0111312
3678	0.0129588
3690	0.0114635
3702	0.0111312
3714	0.0116297
3726	0.0116297
3738	0.0111312
3750	0.010799
3762	0.00996828
3774	0.0103006
3786	0.0103006
3798	0.00996828
3810	0.00996828
3822	0.0114635
3834	0.0103006
3846	0.0103006
3858	0.0109651
3870	0.0116297
3882	0.00996828
3894	0.0119619
3906	0.010799
3918	0.0111312
3930	0.0119619
3942	0.0103006
3954	0.0111312
3966	0.0101344
