Infrared Spectrum: Methanone, (4-chlorophenyl)phenyl-
Formula: C 13 H 9 Cl O
CAS: 134-85-0
Origin: Sadtler Research Labs Under US-EPA Contract
1/CM	ABSORBANCE
450	0.017176
462	0.00802517
474	0.017866
486	0.0100224
498	0.033299
510	0.0258185
522	0.00693578
534	0.00668159
546	0.00355867
558	0.00443019
570	0.0228772
582	0.0121649
594	0.00704472
606	0.00243297
618	0.00849724
630	0.00965926
642	0.0116928
654	0.0226593
666	0.0679053
678	0.0359862
690	0.0817043
702	0.106724
714	0.0467711
726	0.0859529
738	0.0767657
750	0.0476063
762	0.025637
774	0.0197906
786	0.0321733
798	0.0219331
810	0.0176481
822	0.023894
834	0.0523997
846	0.0709919
858	0.0226956
870	0.0140894
882	0.0147068
894	0.0206258
906	0.0408884
918	0.147104
930	0.154076
942	0.0985898
954	0.03388
966	0.0234945
978	0.0114386
990	0.0117654
1002	0.0257822
1014	0.0632936
1026	0.029813
1038	0.0130364
1050	0.0128548
1062	0.0169219
1074	0.0310839
1086	0.118635
1098	0.171833
1110	0.037475
1122	0.0196453
1134	0.0151062
1146	0.0195364
1158	0.0190643
1170	0.0490589
1182	0.0471706
1194	0.0118017
1206	0.0144163
1218	0.0229498
1230	0.057193
1242	0.0764389
1254	0.122338
1266	0.265375
1278	0.36313
1290	0.126478
1302	0.10509
1314	0.0982267
1326	0.0390728
1338	0.0205532
1350	0.0198995
1362	0.0167403
1374	0.0137626
1386	0.0224777
1398	0.0462264
1410	0.0253102
1422	0.0143073
1434	0.0157598
1446	0.0376566
1458	0.0203353
1470	0.0152515
1482	0.0553047
1494	0.0346426
1506	0.00929613
1518	0.0104581
1530	0.0097682
1542	0.00994976
1554	0.019718
1566	0.0359136
1578	0.0794892
1590	0.134358
1602	0.129274
1614	0.0273437
1626	0.0185559
1638	0.0179749
1650	0.0216789
1662	0.046517
1674	0.191587
1686	0.28582
1698	0.109447
1710	0.0269806
1722	0.0146341
1734	0.0156872
1746	0.00853355
1758	0.0078073
1770	0.00915088
1782	0.0104945
1794	0.00849724
1806	0.00915088
1818	0.0080978
1830	0.00472069
1842	0.00628215
1854	0.00486594
1866	0.00432125
1878	0.00537432
1890	0.00631846
1902	0.00951401
1914	0.0106034
1926	0.00769836
1938	0.00522907
1950	0.00639109
1962	0.00700841
1974	0.00595533
1986	0.00319554
1998	0.00261454
2010	0.00272348
2022	0.0025056
2034	0.00297767
2046	0.00232403
2058	0.00225141
2070	0.00246928
2082	0.00225141
2094	0.00174302
2106	0.00156146
2118	0.00156146
2130	0.00137989
2142	0.00181565
2154	0.00163409
2166	0.00148883
2178	0.00152515
2190	0.00177934
2202	0.00181565
2214	0.00210615
2226	0.00177934
2238	0.00185196
2250	0.00210615
2262	0.00210615
2274	0.00261454
2286	0.00348605
2298	0.00341342
2310	0.004757
2322	0.00548326
2334	0.00305029
2346	0.00254191
2358	0.00366761
2370	0
2382	0.00119833
2394	0.00148883
2406	0.00243297
2418	0.00243297
2430	0.0019609
2442	0.00134358
2454	0.00108939
2466	0.000980451
2478	0.000944138
2490	0.000871512
2502	0.000944138
2514	0.00130727
2526	0.00163409
2538	0.00199722
2550	0.00225141
2562	0.00232403
2574	0.00188828
2586	0.00152515
2598	0.00159777
2610	0.000944138
2622	0.00105308
2634	0.000907825
2646	0.000399443
2658	0.00036313
2670	0.000544695
2682	0.000326817
2694	0.000472069
2706	0.00036313
2718	0.000472069
2730	0.00116202
2742	0.00159777
2754	0.00141621
2766	0.000907825
2778	0.000617321
2790	0.000544695
2802	0.000217878
2814	0.000217878
2826	0.000581008
2838	0.000907825
2850	0.00141621
2862	0.00214247
2874	0.00261454
2886	0.0016704
2898	0.00137989
2910	0.000835199
2922	0.00127096
2934	0.00159777
2946	0.00105308
2958	0.00108939
2970	0.00145252
2982	0.0016704
2994	0.00188828
3006	0.00341342
3018	0.00671791
3030	0.0171034
3042	0.0258185
3054	0.0177571
3066	0.0395085
3078	0.0543606
3090	0.042232
3102	0.0234219
3114	0.00878775
3126	0.00312292
3138	0.00228772
3150	0.00185196
3162	0.00210615
3174	0.000907825
3186	0.000145252
3198	0.00036313
3210	0.000435756
3222	0.00105308
3234	0.00116202
3246	0.00148883
3258	0.00119833
3270	0.00181565
3282	0.00192459
3294	0.00217878
3306	0.0019609
3318	0.00217878
3330	0.00297767
3342	0.00595533
3354	0.00406706
3366	0.00330448
3378	0.00156146
3390	0.00326817
3402	0.0027961
3414	0.00254191
3426	0.0025056
3438	0.00272348
3450	0.00268716
3462	0.00268716
3474	0.0027961
3486	0.00203353
3498	0.00330448
3510	0.00275979
3522	0.0036313
3534	0.00294135
3546	0.00348605
3558	0.00246928
3570	0.00294135
3582	0.00326817
3594	0.00265085
3606	0.00428493
3618	0.00388549
3630	0.00217878
3642	0.00319554
3654	0.00217878
3666	0.00493857
3678	0.00170671
3690	0.00308661
3702	0.00428493
3714	0.00413968
3726	0.00381287
3738	0.00283241
3750	0.00225141
3762	0.00243297
3774	0.00286873
3786	0.0027961
3798	0.00388549
3810	0.00315923
3822	0.00217878
3834	0.00344974
3846	0.00228772
3858	0.0019609
3870	0.00341342
3882	0.00203353
3894	0.00265085
3906	0.00323186
3918	0.00348605
3930	0.00359499
3942	0.00381287
3954	0.00366761
3966	0.00305029
