Infrared Spectrum: Benzene, 1-chloro-4-(chlorophenylmethyl)-
Formula: C 13 H 10 Cl 2
CAS: 134-83-8
Origin: Sadtler Research Labs Under US-EPA Contract
1/CM	ABSORBANCE
450	0.0295766
462	0.0368556
474	0.0814509
486	0.147975
498	0.148067
510	0.107066
522	0.0316958
534	0.0233112
546	0.0457931
558	0.0352892
570	0.0385141
582	0.0869792
594	0.134799
606	0.256976
618	0.117846
630	0.106697
642	0.0801609
654	0.0785024
666	0.145856
678	0.224819
690	0.447058
702	0.5673
714	0.347456
726	0.282037
738	0.402187
750	0.490456
762	0.30498
774	0.224727
786	0.237719
798	0.313641
810	0.340914
822	0.259648
834	0.252645
846	0.300005
858	0.176907
870	0.0903884
882	0.0507686
894	0.0446874
906	0.0185199
918	0.0226662
930	0.0393434
942	0.047083
954	0.0810823
966	0.0999708
978	0.111212
990	0.134523
1002	0.157189
1014	0.546476
1026	0.177828
1038	0.114805
1050	0.0655108
1062	0.0691043
1074	0.116464
1086	0.504277
1098	0.522244
1110	0.174419
1122	0.104209
1134	0.029853
1146	0.0209156
1158	0.0471752
1170	0.0539013
1182	0.0941661
1194	0.0635759
1206	0.0951796
1218	0.144935
1230	0.0836622
1242	0.0840308
1254	0.152398
1266	0.150002
1278	0.13093
1290	0.092784
1302	0.0765675
1314	0.0769361
1326	0.0664322
1338	0.0710392
1350	0.0508607
1362	0.0367635
1374	0.0473594
1386	0.0594297
1398	0.106328
1410	0.141986
1422	0.0733426
1434	0.0813587
1446	0.153688
1458	0.147515
1470	0.12494
1482	0.334465
1494	0.894946
1506	0.166495
1518	0.0591532
1530	0.0507686
1542	0.0401726
1554	0.0360263
1566	0.0474516
1578	0.0773046
1590	0.138393
1602	0.165574
1614	0.0590611
1626	0.0453324
1638	0.0312351
1650	0.031143
1662	0.035105
1674	0.0326172
1686	0.041094
1698	0.0257989
1710	0.0240483
1722	0.0339993
1734	0.0351971
1746	0.0492022
1758	0.0504
1770	0.05169
1782	0.0528878
1794	0.0506765
1806	0.0428446
1818	0.0336307
1830	0.0274574
1842	0.0266282
1854	0.0304059
1866	0.0357499
1878	0.0515978
1890	0.0659715
1902	0.0611803
1914	0.0432132
1926	0.0354735
1938	0.0452402
1950	0.0492022
1962	0.0465302
1974	0.0328936
1986	0.0272731
1998	0.0234033
2010	0.0246011
2022	0.0219291
2034	0.0246933
2046	0.0256146
2058	0.0208234
2070	0.0234954
2082	0.0204549
2094	0.0214684
2106	0.0237719
2118	0.0226662
2130	0.0227583
2142	0.0229426
2154	0.0196256
2166	0.0207313
2178	0.0213762
2190	0.0206391
2202	0.023864
2214	0.0202706
2226	0.0189806
2238	0.0186121
2250	0.0166772
2262	0.0187042
2274	0.0180592
2286	0.0210998
2298	0.0221134
2310	0.0175985
2322	0.0141894
2334	0.0070947
2346	0.0117938
2358	0.0248775
2370	0.0104117
2382	0.0223898
2394	0.0252461
2406	0.0163086
2418	0.0180592
2430	0.0175985
2442	0.0186121
2454	0.0227583
2466	0.0222976
2478	0.021192
2490	0.021192
2502	0.0192571
2514	0.0215605
2526	0.0255225
2538	0.0242326
2550	0.0303137
2562	0.0264439
2574	0.0258911
2586	0.0286552
2598	0.0260753
2610	0.0262596
2622	0.0256146
2634	0.0247854
2646	0.0260753
2658	0.0237719
2670	0.0218369
2682	0.0260753
2694	0.0221134
2706	0.0291159
2718	0.0249697
2730	0.027181
2742	0.0247854
2754	0.031143
2766	0.0268124
2778	0.0388827
2790	0.0304059
2802	0.0357499
2814	0.0313273
2826	0.029853
2838	0.0328936
2850	0.0334465
2862	0.03317
2874	0.0357499
2886	0.03317
2898	0.0392512
2910	0.0461616
2922	0.0422918
2934	0.048373
2946	0.0671693
2958	0.0674457
2970	0.0518743
2982	0.0599825
2994	0.0522428
3006	0.0594297
3018	0.0942582
3030	0.210261
3042	0.210077
3054	0.157742
3066	0.209985
3078	0.272547
3090	0.183817
3102	0.133694
3114	0.0739876
3126	0.043766
3138	0.030498
3150	0.0288395
3162	0.030498
3174	0.0289316
3186	0.0305901
3198	0.0258911
3210	0.0215605
3222	0.0273653
3234	0.0186121
3246	0.0260753
3258	0.0207313
3270	0.0209156
3282	0.0236797
3294	0.0164007
3306	0.0171379
3318	0.0168614
3330	0.0152951
3342	0.0149265
3354	0.0195335
3366	0.0136366
3378	0.0190728
3390	0.0110567
3402	0.0133602
3414	0.0180592
3426	0.0197177
3438	0.0251539
3450	0.0230348
3462	0.0200863
3474	0.0197177
3486	0.0186121
3498	0.0169536
3510	0.0210077
3522	0.016585
3534	0.0203627
3546	0.0170457
3558	0.0148344
3570	0.0161243
3582	0.0169536
3594	0.0150187
3606	0.0204549
3618	0.0202706
3630	0.0177828
3642	0.0209156
3654	0.0161243
3666	0.0225741
3678	0.0197177
3690	0.0216527
3702	0.0234033
3714	0.0182435
3726	0.0171379
3738	0.00737112
3750	0.00875321
3762	0.0160322
3774	0.0191649
3786	0.0169536
3798	0.016585
3810	0.0146501
3822	0.0153872
3834	0.0168614
3846	0.0199942
3858	0.0219291
3870	0.0190728
3882	0.0171379
3894	0.016585
3906	0.0106881
3918	0.013913
3930	0.0179671
3942	0.0158479
3954	0
3966	0.00128995
