Infrared Spectrum: Benzaldehyde, 4-hydroxy-3,5-dimethoxy-
Formula: C 9 H 10 O 4
CAS: 134-96-3
Origin: Sadtler Research Labs Under US-EPA Contract
1/CM	ABSORBANCE
450	0
462	0.0287868
474	0.0377223
486	0.0373359
498	0.0262269
510	0.0168567
522	0.0145383
534	0.0149247
546	0.0110607
558	0.0105294
570	0.0136689
582	0.0225078
594	0.0261786
606	0.0282072
618	0.0311052
630	0.0221697
642	0.0155043
654	0.0116403
666	0.0145866
678	0.014973
690	0.0187404
702	0.0426972
714	0.0689241
726	0.0561729
738	0.0329889
750	0.0253575
762	0.0170016
774	0.0114954
786	0.0099498
798	0.0126546
810	0.0142968
822	0.0174363
834	0.0285936
846	0.0340515
858	0.0333753
870	0.0211071
882	0.016422
894	0.0195132
906	0.0252609
918	0.0329406
930	0.0271446
942	0.0199962
954	0.0239085
966	0.0288351
978	0.020286
990	0.0173397
1002	0.0186921
1014	0.0183057
1026	0.019803
1038	0.0326025
1050	0.0344379
1062	0.0420693
1074	0.0712425
1086	0.136254
1098	0.235511
1110	0.279415
1122	0.274924
1134	0.242273
1146	0.116644
1158	0.0515361
1170	0.0421176
1182	0.0570423
1194	0.0991116
1206	0.23498
1218	0.288448
1230	0.134081
1242	0.108289
1254	0.10341
1266	0.102831
1278	0.0994497
1290	0.0783426
1302	0.161129
1314	0.425764
1326	0.4063
1338	0.148619
1350	0.0597954
1362	0.0758793
1374	0.12331
1386	0.162626
1398	0.116741
1410	0.0524538
1422	0.0983871
1434	0.129202
1446	0.069069
1458	0.123407
1470	0.150165
1482	0.0895965
1494	0.134032
1506	0.17871
1518	0.087423
1530	0.0278208
1542	0.0230874
1554	0.0244881
1566	0.0306222
1578	0.0591675
1590	0.128333
1602	0.167939
1614	0.139684
1626	0.0684411
1638	0.0344379
1650	0.0280623
1662	0.0241983
1674	0.0276276
1686	0.0380121
1698	0.0809508
1710	0.408811
1722	0.268645
1734	0.0482034
1746	0.0219282
1758	0.0218316
1770	0.0221697
1782	0.0154077
1794	0.0144417
1806	0.0148764
1818	0.0104811
1830	0.0095151
1842	0.0098532
1854	0.0106743
1866	0.0113022
1878	0.010143
1890	0.0088872
1902	0.0094185
1914	0.0088389
1926	0.0092736
1938	0.0109158
1950	0.0111573
1962	0.0110607
1974	0.0104811
1986	0.0097566
1998	0.0096117
2010	0.0099981
2022	0.0097083
2034	0.011109
2046	0.0119784
2058	0.0117369
2070	0.011109
2082	0.0109641
2094	0.011109
2106	0.0117369
2118	0.0116403
2130	0.0107226
2142	0.0108192
2154	0.0103845
2166	0.0109158
2178	0.0107709
2190	0.0099498
2202	0.0094185
2214	0.00966
2226	0.00966
2238	0.0102879
2250	0.0098049
2262	0.0094185
2274	0.0094185
2286	0.0103845
2298	0.0119301
2310	0.0127995
2322	0.0113022
2334	0.0095151
2346	0.0103845
2358	0.0120267
2370	0.0088872
2382	0.0109641
2394	0.0090321
2406	0.0089355
2418	0.0087423
2430	0.0085974
2442	0.0089355
2454	0.0092736
2466	0.0095634
2478	0.0105777
2490	0.0109641
2502	0.011109
2514	0.0114471
2526	0.0118818
2538	0.0117852
2550	0.0113988
2562	0.0110124
2574	0.0102879
2586	0.0104811
2598	0.010626
2610	0.0110607
2622	0.0120267
2634	0.0128961
2646	0.0131859
2658	0.0134274
2670	0.0139104
2682	0.0170982
2694	0.0302841
2706	0.0556416
2718	0.067137
2730	0.0421659
2742	0.025599
2754	0.0228942
2766	0.0249228
2778	0.0335202
2790	0.0572838
2802	0.0701799
2814	0.054096
2826	0.0426489
2838	0.0438081
2850	0.0588777
2862	0.0491694
2874	0.0341481
2886	0.0325542
2898	0.0343896
2910	0.0361284
2922	0.0425523
2934	0.0495075
2946	0.0848148
2958	0.0902727
2970	0.0660744
2982	0.0517776
2994	0.0424557
3006	0.0580083
3018	0.0639975
3030	0.0309603
3042	0.022218
3054	0.0212037
3066	0.0204792
3078	0.0210588
3090	0.0195615
3102	0.0167118
3114	0.0141519
3126	0.0126546
3138	0.0117369
3150	0.0117369
3162	0.011109
3174	0.0109641
3186	0.0103362
3198	0.0104811
3210	0.0101913
3222	0.0094668
3234	0.0101913
3246	0.0104328
3258	0.010626
3270	0.0100464
3282	0.0094668
3294	0.0097566
3306	0.00966
3318	0.0095634
3330	0.0099015
3342	0.0093702
3354	0.0089838
3366	0.0097566
3378	0.0102396
3390	0.0109641
3402	0.0142485
3414	0.0129444
3426	0.0094185
3438	0.008694
3450	0.0090321
3462	0.0100464
3474	0.0100464
3486	0.0104328
3498	0.0107226
3510	0.011592
3522	0.0121233
3534	0.0168084
3546	0.0349692
3558	0.106695
3570	0.174556
3582	0.0972762
3594	0.0264684
3606	0.01449
3618	0.0135723
3630	0.0111573
3642	0.0097566
3654	0.009177
3666	0.0107709
3678	0.0109641
3690	0.0108675
3702	0.0103845
3714	0.0102879
3726	0.0104328
3738	0.0107709
3750	0.0105294
3762	0.0105777
3774	0.0103362
3786	0.0108675
3798	0.0104811
3810	0.0098532
3822	0.0109158
3834	0.0104811
3846	0.0108675
3858	0.0109641
3870	0.0112539
3882	0.0109641
3894	0.0102879
3906	0.0100464
3918	0.0099981
3930	0.0110124
3942	0.0109641
3954	0.0099015
3966	0.0109158
