Infrared Spectrum: Benzoic acid, 2-amino-, methyl ester
Formula: C 8 H 9 N O 2
CAS: 134-20-3
Origin: Sadtler Research Labs Under US-EPA Contract
1/CM	ABSORBANCE
450	0.0163468
462	0.0215804
474	0.0306261
486	0.0356012
498	0.055114
510	0.0748207
522	0.0662919
534	0.0446469
546	0.0390903
558	0.0306907
570	0.0233895
582	0.0209343
594	0.0199651
606	0.0225496
618	0.0235188
630	0.0265555
642	0.0258448
654	0.0300446
666	0.0463914
678	0.0422562
690	0.0526588
702	0.0665504
714	0.0284939
726	0.0284293
738	0.104607
750	0.181107
762	0.0573755
774	0.0116302
786	0.0140208
798	0.0190605
810	0.0203528
822	0.0213866
834	0.0286877
846	0.0345028
858	0.0174452
870	0.00471668
882	0.00523357
894	0.00678426
906	0.00497512
918	0.00251987
930	0.00193836
942	0.00251987
954	0.00245526
966	0.00491051
978	0.00465206
990	0.00174452
1002	0.00135685
1014	0.0032306
1026	0.0158946
1038	0.0237126
1050	0.0174452
1062	0.0326937
1074	0.0702332
1086	0.106028
1098	0.219681
1110	0.31634
1122	0.167862
1134	0.0657104
1146	0.069781
1158	0.216321
1170	0.153001
1182	0.0573108
1194	0.0805066
1206	0.0503327
1218	0.0430962
1230	0.123409
1242	0.479421
1254	0.612005
1266	0.252181
1278	0.222265
1290	0.477547
1302	0.302449
1314	0.127479
1326	0.092589
1338	0.038961
1350	0.0180914
1362	0.0101441
1374	0.00710732
1386	0.0053628
1398	0.00497512
1410	0.00684887
1422	0.0123409
1434	0.0791497
1446	0.12483
1458	0.0885184
1470	0.0731408
1482	0.0730116
1494	0.0922659
1506	0.0505912
1518	0.0162822
1530	0.0133101
1542	0.0230665
1554	0.0516896
1566	0.0962073
1578	0.0973057
1590	0.16825
1602	0.246753
1614	0.321509
1626	0.285908
1638	0.0918137
1650	0.0388318
1662	0.0337275
1674	0.0304969
1686	0.0440008
1698	0.155004
1710	0.505977
1722	0.40053
1734	0.123086
1746	0.0618337
1758	0.0220327
1770	0.0230019
1782	0.015313
1794	0.00962719
1806	0.00600892
1818	0.00458745
1830	0.00232603
1842	0.000839956
1854	0
1866	0.000581508
1878	0.00129224
1890	0.0027137
1902	0.00458745
1914	0.00885184
1926	0.00736577
1938	0.00736577
1950	0.00381211
1962	0.00142146
1974	0.000387672
1986	6.4612e-05
1998	0.00116302
2010	0.00135685
2022	0.00135685
2034	0.00251987
2046	0.00394133
2058	0.00355366
2070	0.00413517
2082	0.00419978
2094	0.00329521
2106	0.00251987
2118	0.00258448
2130	0.0027137
2142	0.0027137
2154	0.00297215
2166	0.00200297
2178	0.00155069
2190	0.00116302
2202	0.00122763
2214	0.00180914
2226	0.00174452
2238	0.00135685
2250	0.00187375
2262	0.00187375
2274	0.00180914
2286	0.00245526
2298	0.00361827
2310	0.00381211
2322	0.00361827
2334	0.00284293
2346	0.00394133
2358	0.00368288
2370	0.0032306
2382	0.00335982
2394	0.00264909
2406	0.00316599
2418	0.00206758
2430	0.00129224
2442	0.00116302
2454	0.00122763
2466	0.00135685
2478	0.0016153
2490	0.00129224
2502	0.00135685
2514	0.00187375
2526	0.00187375
2538	0.00232603
2550	0.00206758
2562	0.00142146
2574	0.00142146
2586	0.00200297
2598	0.00193836
2610	0.00193836
2622	0.00193836
2634	0.00258448
2646	0.00400594
2658	0.00400594
2670	0.00258448
2682	0.00155069
2694	0.00129224
2706	0.00129224
2718	0.00167991
2730	0.00264909
2742	0.0021322
2754	0.00200297
2766	0.0016153
2778	0.00316599
2790	0.0032306
2802	0.00316599
2814	0.00387672
2826	0.00419978
2838	0.00762422
2850	0.0202236
2862	0.0157007
2874	0.00684887
2886	0.0085934
2898	0.0136331
2910	0.0178329
2922	0.0199651
2934	0.0162176
2946	0.0262971
2958	0.0929121
2970	0.0765652
2982	0.0215158
2994	0.025651
3006	0.0312722
3018	0.0307553
3030	0.0441946
3042	0.0468437
3054	0.0430962
3066	0.0428378
3078	0.035472
3090	0.0390903
3102	0.019642
3114	0.00878723
3126	0.0059443
3138	0.00439362
3150	0.00387672
3162	0.00335982
3174	0.00387672
3186	0.00419978
3198	0.0032306
3210	0.00245526
3222	0.00239064
3234	0.00187375
3246	0.00129224
3258	0.00155069
3270	0.00239064
3282	0.00303676
3294	0.00387672
3306	0.00620275
3318	0.00581508
3330	0.00587969
3342	0.00678426
3354	0.00652581
3366	0.0136331
3378	0.05912
3390	0.130387
3402	0.079602
3414	0.0285585
3426	0.0164761
3438	0.0096918
3450	0.00516896
3462	0.00568586
3474	0.00794728
3486	0.0140854
3498	0.0279124
3510	0.057957
3522	0.0838664
3534	0.0493636
3546	0.0153777
3558	0.00555663
3570	0.00355366
3582	0.0027137
3594	0.00277832
3606	0.00219681
3618	0.00155069
3630	0.0021322
3642	0.00142146
3654	0.0010984
3666	0.00135685
3678	0.00155069
3690	0.00180914
3702	0.00167991
3714	0.00193836
3726	0.0016153
3738	0.00219681
3750	0.00180914
3762	0.000710732
3774	0.00142146
3786	0.00116302
3798	0.00142146
3810	0.00135685
3822	0.00122763
3834	0.00129224
3846	0.00187375
3858	0.00245526
3870	0.00122763
3882	0.00167991
3894	0.00297215
3906	0.00155069
3918	0.00180914
3930	0.00239064
3942	0.00155069
3954	0.00239064
3966	0.00284293
