Infrared Spectrum: Benzoic acid, 2-ethoxy-
Formula: C 9 H 10 O 3
CAS: 134-11-2
Origin: Sadtler Research Labs Under US-EPA Contract
1/CM	ABSORBANCE
450	0.0173394
462	0.00728645
474	0.00475373
486	0.00728645
498	0.0106764
510	0.0131702
522	0.0227556
534	0.0246259
546	0.0235738
558	0.0275483
570	0.0335099
582	0.0344451
594	0.0276262
606	0.02673
618	0.0265741
630	0.0520183
642	0.0421601
654	0.0326916
666	0.028951
678	0.033432
690	0.0421991
702	0.0501869
714	0.0303927
726	0.02673
738	0.038965
750	0.112414
762	0.118493
774	0.0314837
786	0.00849437
798	0.0138326
810	0.0181577
822	0.011144
834	0.00112999
846	0.00038965
858	0.00116895
870	0.00179239
882	0.0030003
894	0.00775403
906	0.0197942
918	0.0238076
930	0.0131312
942	0.00413029
954	0.00440304
966	0.00198721
978	0.00198721
990	0.00475373
1002	0.0140274
1014	0.0369388
1026	0.0898533
1038	0.137001
1050	0.125545
1062	0.0754752
1074	0.0428615
1086	0.0479269
1098	0.0512
1110	0.0743063
1122	0.107894
1134	0.0663574
1146	0.0427446
1158	0.0726697
1170	0.0570837
1182	0.0770338
1194	0.073527
1206	0.0844761
1218	0.130494
1230	0.16112
1242	0.152704
1254	0.11331
1266	0.0875933
1278	0.101192
1290	0.13552
1302	0.111869
1314	0.0777352
1326	0.0772676
1338	0.0899312
1350	0.109686
1362	0.128896
1374	0.125195
1386	0.153678
1398	0.153678
1410	0.0925419
1422	0.0453942
1434	0.0344061
1446	0.0955422
1458	0.185512
1470	0.084593
1482	0.114479
1494	0.0808913
1506	0.0292237
1518	0.00662405
1530	0
1542	0.000428615
1554	0.00374064
1566	0.0115336
1578	0.0403677
1590	0.0570837
1602	0.121064
1614	0.0507324
1626	0.00681887
1638	0.00187032
1650	0.000740335
1662	0.00327306
1674	0.00603957
1686	0.0139105
1698	0.0293796
1710	0.0559537
1722	0.0819434
1734	0.116272
1746	0.182122
1758	0.190305
1770	0.338645
1782	0.323332
1794	0.0603178
1806	0.0207683
1818	0.0102088
1830	0.00553303
1842	0.00451994
1854	0.00264962
1866	0.00105205
1878	0.00124688
1890	0.00159756
1902	0.00284444
1914	0.00381857
1926	0.00487062
1938	0.00603957
1950	0.00537717
1962	0.00537717
1974	0.00405236
1986	0.00346788
1998	0.00323409
2010	0.00327306
2022	0.0031172
2034	0.00354581
2046	0.00292237
2058	0.00276651
2070	0.002221
2082	0.00206515
2094	0.00175342
2106	0.00163653
2118	0.000974125
2130	0.00128584
2142	0.000974125
2154	0.000584475
2166	0.000584475
2178	0.00046758
2190	0.000350685
2202	0.00070137
2214	0.00085723
2226	0.00105205
2238	0.000740335
2250	0.00023379
2262	0.00015586
2274	0.00054551
2286	0.00085723
2298	0.000818265
2310	0.00136377
2322	0.00159756
2334	0.00101309
2346	0.00062344
2358	0.00159756
2370	0.000818265
2382	0.00124688
2394	0.00167549
2406	0.00183135
2418	0.0023379
2430	0.00214307
2442	0.00187032
2454	0.00218204
2466	0.002221
2478	0.00237686
2490	0.00249376
2502	0.00245479
2514	0.00296134
2526	0.00261065
2538	0.00206515
2550	0.00253272
2562	0.00272755
2574	0.00272755
2586	0.00280548
2598	0.00268858
2610	0.00276651
2622	0.0023379
2634	0.00210411
2646	0.00167549
2658	0.00198721
2670	0.00237686
2682	0.0023379
2694	0.00206515
2706	0.00214307
2718	0.00253272
2730	0.00362374
2742	0.00405236
2754	0.00432512
2766	0.00432512
2778	0.00451994
2790	0.00424718
2802	0.00413029
2814	0.00506545
2826	0.00619543
2838	0.00732542
2850	0.00876712
2862	0.011183
2874	0.0160536
2886	0.0234569
2898	0.0287951
2910	0.0297693
2922	0.0291458
2934	0.0338216
2946	0.0405626
2958	0.031133
2970	0.0303148
2982	0.0506935
2994	0.0680719
3006	0.0352633
3018	0.0214697
3030	0.0208463
3042	0.0237297
3054	0.0240024
3066	0.0260286
3078	0.0360426
3090	0.0359257
3102	0.0169498
3114	0.014417
3126	0.0112219
3138	0.0107543
3150	0.011105
3162	0.0114947
3174	0.0114167
3186	0.0112219
3198	0.0117674
3210	0.0132871
3222	0.0143002
3234	0.0163263
3246	0.017846
3258	0.0203397
3270	0.0225607
3282	0.0236907
3294	0.0250935
3306	0.0263014
3318	0.0276651
3330	0.0290679
3342	0.0321072
3354	0.0356919
3366	0.0414977
3378	0.0476542
3390	0.0517066
3402	0.0555641
3414	0.0616426
3426	0.0657729
3438	0.0577851
3450	0.0436798
3462	0.0328865
3474	0.0246259
3486	0.0179239
3498	0.0131312
3510	0.0101699
3522	0.00966332
3534	0.00841644
3546	0.00654612
3558	0.0127416
3570	0.041147
3582	0.0385753
3594	0.012235
3606	0.00272755
3618	0.00214307
3630	0.0023379
3642	0.00038965
3654	0.00101309
3666	0.000818265
3678	0.00132481
3690	0.000350685
3702	3.8965e-05
3714	0.00159756
3726	0.000506545
3738	0.00023379
3750	0.00105205
3762	0.000974125
3774	0.000350685
3786	0.00031172
3798	0.00038965
3810	0.00105205
3822	0.00280548
3834	0.000896195
3846	0.00198721
3858	0.000584475
3870	0.0015586
3882	0.00093516
3894	0.0015586
3906	0.00116895
3918	0.00237686
3930	0.00109102
3942	0.00105205
3954	0.00179239
3966	0.0007793
