Infrared Spectrum: 1-Naphthalenamine
Formula: C 10 H 9 N
CAS: 134-32-7
Origin: Sadtler Research Labs Under US-EPA Contract
1/CM	ABSORBANCE
450	0.0576557
462	0.0612524
474	0.0633232
486	0.0608709
498	0.0623423
510	0.0681732
522	0.0718789
534	0.0681188
546	0.0686092
558	0.0843038
570	0.0891538
582	0.0736772
594	0.0645766
606	0.0581462
618	0.0602715
630	0.0622878
642	0.0698081
654	0.0725328
666	0.0659389
678	0.0584731
690	0.0588546
702	0.0620153
714	0.0529146
726	0.0451219
738	0.0662114
750	0.159997
762	0.362228
774	0.31994
786	0.233947
798	0.102614
810	0.0410347
822	0.0314981
834	0.038201
846	0.0439775
858	0.0340594
870	0.0258306
882	0.0184193
894	0.0130788
906	0.0102996
918	0.00899167
930	0.0101361
942	0.0116074
954	0.0142232
966	0.00937314
978	0.00632142
990	0.00910066
1002	0.0291003
1014	0.0470292
1026	0.0300812
1038	0.0114984
1050	0.00517703
1062	0.00555849
1074	0.0178744
1086	0.0394544
1098	0.0272475
1110	0.0106265
1122	0.0127518
1134	0.0098091
1146	0.00479556
1158	0.00528601
1170	0.00986359
1182	0.00910066
1194	0.00152586
1206	0.00239778
1218	0.0104085
1230	0.00861021
1242	0.0150951
1254	0.0228334
1266	0.038528
1278	0.110298
1290	0.108718
1302	0.032697
1314	0.0100816
1326	0.00506804
1338	0.0101361
1350	0.0227244
1362	0.0427786
1374	0.0710615
1386	0.0698081
1398	0.137818
1410	0.158199
1422	0.0558574
1434	0.0191277
1446	0.0528602
1458	0.0958567
1470	0.0637047
1482	0.0301357
1494	0.0297543
1506	0.0802166
1518	0.100816
1530	0.038092
1542	0.0125338
1554	0.0200542
1566	0.054277
1578	0.100107
1590	0.125284
1602	0.142286
1614	0.239832
1626	0.357433
1638	0.238143
1650	0.092696
1662	0.043814
1674	0.021798
1686	0.0132968
1698	0.0135148
1710	0.0189643
1722	0.0174929
1734	0.0118254
1746	0.010899
1758	0.0138417
1770	0.00991809
1782	0.00817425
1794	0.00893718
1806	0.0122069
1818	0.0156946
1830	0.00948213
1842	0.00430511
1854	0.00348768
1866	0.0043596
1878	0.00833774
1890	0.0169479
1902	0.0220705
1914	0.0149316
1926	0.0133513
1938	0.0134058
1950	0.00615793
1962	0.00321521
1974	0.00283374
1986	0.00294273
1998	0.00337869
2010	0.00250677
2022	0.00310621
2034	0.00370566
2046	0.00376015
2058	0.0043596
2070	0.00479556
2082	0.00528601
2094	0.00523152
2106	0.00485005
2118	0.00479556
2130	0.00506804
2142	0.00474107
2154	0.00495904
2166	0.00485005
2178	0.00441409
2190	0.00397813
2202	0.00403263
2214	0.00381465
2226	0.00452308
2238	0.00479556
2250	0.00490455
2262	0.00534051
2274	0.00615793
2286	0.00643041
2298	0.00637592
2310	0.00626692
2322	0.00566748
2334	0.00724784
2346	0.00850122
2358	0.00664839
2370	0.00790177
2382	0.00719334
2394	0.0054495
2406	0.00572197
2418	0.00610344
2430	0.00517703
2442	0.00468657
2454	0.00468657
2466	0.00463208
2478	0.00479556
2490	0.00517703
2502	0.005395
2514	0.00512253
2526	0.00501354
2538	0.00463208
2550	0.00403263
2562	0.00441409
2574	0.00452308
2586	0.00457758
2598	0.00474107
2610	0.00457758
2622	0.00517703
2634	0.00528601
2646	0.00528601
2658	0.00517703
2670	0.00501354
2682	0.00501354
2694	0.00490455
2706	0.00593996
2718	0.00702985
2730	0.00741132
2742	0.00708435
2754	0.00632142
2766	0.00479556
2778	0.00528601
2790	0.005395
2802	0.005395
2814	0.00577647
2826	0.00621243
2838	0.00702985
2850	0.00724784
2862	0.00784728
2874	0.00790177
2886	0.00724784
2898	0.00670288
2910	0.00708435
2922	0.00784728
2934	0.0104085
2946	0.0138417
2958	0.0182013
2970	0.0174929
2982	0.0148226
2994	0.0175474
3006	0.0344953
3018	0.0718789
3030	0.0949303
3042	0.129044
3054	0.192313
3066	0.249424
3078	0.198907
3090	0.0859386
3102	0.0479011
3114	0.0225064
3126	0.00893718
3138	0.00664839
3150	0.00686637
3162	0.0076293
3174	0.00773829
3186	0.00730233
3198	0.00686637
3210	0.00779278
3222	0.00850122
3234	0.00811975
3246	0.00713884
3258	0.00561299
3270	0.00561299
3282	0.00414162
3294	0.00479556
3306	0.00512253
3318	0.00468657
3330	0.00408712
3342	0.00501354
3354	0.00468657
3366	0.00648491
3378	0.00752031
3390	0.0144412
3402	0.0332964
3414	0.0362937
3426	0.0170569
3438	0.00920966
3450	0.0076838
3462	0.00986359
3474	0.0211441
3486	0.0458848
3498	0.0392364
3510	0.0148226
3522	0.00855572
3534	0.00664839
3546	0.00615793
3558	0.005395
3570	0.00577647
3582	0.00686637
3594	0.00599445
3606	0.00468657
3618	0.00501354
3630	0.00534051
3642	0.00583096
3654	0.00610344
3666	0.00604895
3678	0.00534051
3690	0.00495904
3702	0.00637592
3714	0.00555849
3726	0.00561299
3738	0.00626692
3750	0.00566748
3762	0.00523152
3774	0.00572197
3786	0.00495904
3798	0.00512253
3810	0.00523152
3822	0.00659389
3834	0.00670288
3846	0.00670288
3858	0.00648491
3870	0.00632142
3882	0.00686637
3894	0.00692087
3906	0.00959112
3918	0.00735682
3930	0.00610344
3942	0.00773829
3954	0.00670288
3966	0.00523152
