Infrared Spectrum: Epichlorohydrin
Formula: C 3 H 5 Cl O
CAS: 13403-37-7
Origin: Sadtler Research Labs Under US-EPA Contract
1/CM	ABSORBANCE
450	0
462	0.00615127
474	0.00447365
486	0.00820169
498	0.0212498
510	0.0349504
522	0.0290787
534	0.0116501
546	0.00223682
558	0.00652407
570	0.00689687
582	0.00475325
594	0.00549886
606	0.00559206
618	0.00717648
630	0.0089473
642	0.00587166
654	0.00540566
666	0.00652407
678	0.0206906
690	0.0397968
702	0.0641223
714	0.118924
726	0.301505
738	0.725756
750	0.906473
762	0.785405
774	0.398527
786	0.40356
798	0.258633
810	0.239713
822	0.226385
834	0.40412
846	0.555292
858	0.491169
870	0.174752
882	0.111841
894	0.0775432
906	0.0900322
918	0.147071
930	0.20411
942	0.291067
954	0.455566
966	0.430682
978	0.270842
990	0.0849993
1002	0.0396104
1014	0.0289855
1026	0.0297311
1038	0.033832
1050	0.0432453
1062	0.052379
1074	0.0614195
1086	0.0641223
1098	0.0636563
1110	0.0583438
1122	0.0619787
1134	0.0782888
1146	0.0685027
1158	0.0573186
1170	0.0441773
1182	0.0607671
1194	0.0612331
1206	0.0512606
1218	0.0423133
1230	0.0632835
1242	0.124796
1254	0.278951
1266	0.50459
1278	0.48129
1290	0.234867
1302	0.0768908
1314	0.0397036
1326	0.0215294
1338	0.0179878
1350	0.0195722
1362	0.0269351
1374	0.0400764
1386	0.073722
1398	0.116688
1410	0.126847
1422	0.0994455
1434	0.108486
1446	0.157882
1458	0.132439
1470	0.0968358
1482	0.0924554
1494	0.0730696
1506	0.0406356
1518	0.0164034
1530	0.0128617
1542	0.0137937
1554	0.0159374
1566	0.0149122
1578	0.0163102
1590	0.0150986
1602	0.0119297
1614	0.0092269
1626	0.0093201
1638	0.0094133
1650	0.00717648
1662	0.00726968
1674	0.0100657
1686	0.0147258
1698	0.0173354
1710	0.0216226
1722	0.0230206
1734	0.0336456
1746	0.0260031
1758	0.019479
1770	0.0121161
1782	0.00699008
1794	0.00512606
1806	0.00428725
1818	0.00400764
1830	0.00493965
1842	0.00475325
1854	0.00438045
1866	0.00428725
1878	0.00372804
1890	0.00382124
1902	0.00419405
1914	0.00624447
1926	0.00782888
1938	0.00717648
1950	0.00531246
1962	0.00596486
1974	0.00792209
1986	0.0097861
1998	0.00810849
2010	0.00549886
2022	0.00540566
2034	0.00605807
2046	0.00531246
2058	0.00503285
2070	0.00493965
2082	0.00577846
2094	0.00493965
2106	0.00531246
2118	0.00587166
2130	0.00587166
2142	0.00531246
2154	0.00624447
2166	0.00643087
2178	0.00699008
2190	0.0093201
2202	0.0103453
2214	0.0103453
2226	0.0107181
2238	0.0146326
2250	0.0217158
2262	0.0230206
2274	0.0215294
2286	0.016683
2298	0.0139802
2310	0.0101589
2322	0.00708328
2334	0.00540566
2346	0.00745608
2358	0.00372804
2370	0.00829489
2382	0.00745608
2394	0.00484645
2406	0.00447365
2418	0.00391444
2430	0.00307563
2442	0.00326203
2454	0.00391444
2466	0.00344844
2478	0.00335524
2490	0.00316883
2502	0.00335524
2514	0.00288923
2526	0.00288923
2538	0.00242323
2550	0.00223682
2562	0.00149122
2574	0.00195722
2586	0.00363484
2598	0.00633767
2610	0.00848129
2622	0.0091337
2634	0.00745608
2646	0.00624447
2658	0.00577846
2670	0.00577846
2682	0.00726968
2694	0.0101589
2706	0.0115569
2718	0.0109045
2730	0.0100657
2742	0.0093201
2754	0.00792209
2766	0.0089473
2778	0.0091337
2790	0.0107181
2802	0.0106249
2814	0.0108113
2826	0.0117433
2838	0.015751
2850	0.0237663
2862	0.0296379
2874	0.0382124
2886	0.0434317
2898	0.0489305
2910	0.0644951
2922	0.122559
2934	0.175311
2946	0.224428
2958	0.26031
2970	0.328254
2982	0.342793
2994	0.380633
3006	0.427793
3018	0.439722
3030	0.350436
3042	0.310453
3054	0.355189
3066	0.355655
3078	0.213896
3090	0.0966494
3102	0.0346708
3114	0.0137937
3126	0.00792209
3138	0.00671047
3150	0.00512606
3162	0.00521926
3174	0.00400764
3186	0.00428725
3198	0.00456685
3210	0.00335524
3222	0.00400764
3234	0.00372804
3246	0.00428725
3258	0.00326203
3270	0.00382124
3282	0.00158442
3294	0.00233003
3306	0.00186402
3318	0.00251643
3330	0.00195722
3342	0.00288923
3354	0.00242323
3366	0.00270283
3378	0.00316883
3390	0.00475325
3402	0.00410084
3414	0.00447365
3426	0.00521926
3438	0.00447365
3450	0.00428725
3462	0.00260963
3474	0.00288923
3486	0.00260963
3498	0.00326203
3510	0.00372804
3522	0.00363484
3534	0.00344844
3546	0.00419405
3558	0.00344844
3570	0.00568526
3582	0.00661727
3594	0.00792209
3606	0.00820169
3618	0.0105317
3630	0.0103453
3642	0.00848129
3654	0.00810849
3666	0.00475325
3678	0.00699008
3690	0.00745608
3702	0.00745608
3714	0.00838809
3726	0.00820169
3738	0.00820169
3750	0.0097861
3762	0.0120229
3774	0.0114637
3786	0.0111841
3798	0.0092269
3810	0.0101589
3822	0.0109045
3834	0.0103453
3846	0.0122093
3858	0.0122093
3870	0.0119297
3882	0.0105317
3894	0.0102521
3906	0.0093201
3918	0.00829489
3930	0.0089473
3942	0.00745608
3954	0.00689687
3966	0.00866769
