Infrared Spectrum: 2-Propanol, 1-(2-methoxypropoxy)-
Formula: C 7 H 16 O 3
CAS: 13429-07-7
Origin: Sadtler Research Labs Under US-EPA Contract
1/CM	ABSORBANCE
450	0.0316183
462	0.0311103
474	0.0410149
486	0.0210788
498	0.0259041
510	0.0346658
522	0.0317452
534	0.0293326
546	0.0223487
558	0.013206
570	0.0107934
582	0.00761886
594	0.00431735
606	0.00317453
618	0.00139679
630	0.0026666
642	0.00774584
654	0.00952357
666	0.00863471
678	0.00342849
690	0.00126981
702	0.00177773
714	0.00228566
726	0.00165075
738	0.000888867
750	0.00165075
762	0.00139679
774	0.00215868
786	0.00647603
798	0.0147298
810	0.0260311
822	0.039872
834	0.0496496
846	0.0577764
858	0.0631096
870	0.0558716
882	0.0406339
894	0.0483798
906	0.0697126
918	0.0901565
930	0.123553
942	0.165329
954	0.182472
966	0.161266
978	0.108315
990	0.0711094
1002	0.0827916
1014	0.135489
1026	0.149203
1038	0.190091
1050	0.302977
1062	0.391482
1074	0.466782
1086	0.590843
1098	0.834646
1110	1.05432
1122	1.26981
1134	1.09559
1146	0.800234
1158	0.637826
1170	0.440497
1182	0.257137
1194	0.23428
1206	0.276057
1218	0.161647
1230	0.129521
1242	0.163805
1254	0.225264
1266	0.234407
1278	0.154536
1290	0.113902
1302	0.132187
1314	0.179678
1326	0.177646
1338	0.160504
1350	0.16279
1362	0.16698
1374	0.250914
1386	0.300056
1398	0.209138
1410	0.138155
1422	0.0791092
1434	0.0716173
1446	0.11733
1458	0.189964
1470	0.17917
1482	0.0857122
1494	0.0340309
1506	0.0189202
1518	0.013206
1530	0.00977754
1542	0.00888867
1554	0.00749188
1566	0.00660301
1578	0.00609509
1590	0.0053332
1602	0.0053332
1614	0.00495226
1626	0.00546018
1638	0.00431735
1650	0.0053332
1662	0.00380943
1674	0.00342849
1686	0.0020317
1698	0.00139679
1710	0.00139679
1722	0.00126981
1734	0.00279358
1746	0.00431735
1758	0.00380943
1770	0.00355547
1782	0.0026666
1794	0.00215868
1806	0.00114283
1818	0.000761886
1830	0.000761886
1842	0.000253962
1854	0.00152377
1866	0.00114283
1878	0.00139679
1890	0.00228566
1902	0.00241264
1914	0.0026666
1926	0.00330151
1938	0.00342849
1950	0.00355547
1962	0.00355547
1974	0.00419037
1986	0.00571414
1998	0.00698396
2010	0.00812678
2022	0.00914263
2034	0.00965056
2046	0.0102855
2058	0.0113013
2070	0.0123172
2082	0.0126981
2094	0.0110473
2106	0.00876169
2118	0.0073649
2130	0.00660301
2142	0.0053332
2154	0.0046983
2166	0.0046983
2178	0.00495226
2190	0.00482528
2202	0.00444433
2214	0.00431735
2226	0.00482528
2238	0.00431735
2250	0.00342849
2262	0.00253962
2274	0.00228566
2286	0.00177773
2298	0.00139679
2310	0.000507924
2322	0.000253962
2334	0.000253962
2346	0.000253962
2358	0.000253962
2370	0.00177773
2382	0.00126981
2394	0.0026666
2406	0.00279358
2418	0.0020317
2430	0.00126981
2442	0.000888867
2454	0.000888867
2466	0.00101585
2478	0.000634905
2490	0.000507924
2502	0.000888867
2514	0.00177773
2526	0.00215868
2538	0.0020317
2550	0.00253962
2562	0.00368245
2574	0.00558716
2586	0.00723792
2598	0.00952357
2610	0.0107934
2622	0.0120632
2634	0.013206
2646	0.0149838
2658	0.0167615
2670	0.0181583
2682	0.0177773
2694	0.0191741
2706	0.0217138
2718	0.0248883
2730	0.0321262
2742	0.0408879
2754	0.0505384
2766	0.0561256
2778	0.0581573
2790	0.067046
2802	0.0930771
2814	0.180694
2826	0.282025
2838	0.307167
2850	0.318849
2862	0.41726
2874	0.559224
2886	0.674523
2898	0.708808
2910	0.658396
2922	0.581827
2934	0.616493
2946	0.538145
2958	0.336627
2970	0.393641
2982	0.684047
2994	0.621191
3006	0.198344
3018	0.0672999
3030	0.0392371
3042	0.0284437
3054	0.0228566
3066	0.0208249
3078	0.0186662
3090	0.0166345
3102	0.0146028
3114	0.0118092
3126	0.00939659
3138	0.0079998
3150	0.00698396
3162	0.00698396
3174	0.0073649
3186	0.00749188
3198	0.00672999
3210	0.00495226
3222	0.00241264
3234	0.00139679
3246	0.00114283
3258	0.000888867
3270	0.000761886
3282	0.00101585
3294	0.000380943
3306	0.000380943
3318	0.000888867
3330	0.000253962
3342	0.000507924
3354	0.000634905
3366	0.00152377
3378	0.0020317
3390	0.00241264
3402	0.0020317
3414	0.00279358
3426	0.00355547
3438	0.00444433
3450	0.00609509
3462	0.00825376
3474	0.0107934
3486	0.0139679
3498	0.0209519
3510	0.0319992
3522	0.0500305
3534	0.0544748
3546	0.0481258
3558	0.0433005
3570	0.0389832
3582	0.033523
3594	0.0370785
3606	0.0676809
3618	0.146409
3630	0.0954897
3642	0.0285707
3654	0.0259041
3666	0.020063
3678	0.00901565
3690	0.00177773
3702	0.000253962
3714	0.000380943
3726	0.000253962
3738	0.000126981
3750	0.000634905
3762	0.000761886
3774	0.000253962
3786	0.000253962
3798	0.000253962
3810	0.000253962
3822	0.000253962
3834	0.000253962
3846	0.000253962
3858	0.000253962
3870	0.000253962
3882	0.000253962
3894	0.000253962
3906	0.000253962
3918	0.000253962
3930	0.000253962
3942	0.000253962
3954	0.000253962
3966	0.000253962
