Infrared Spectrum: 1,3-Propanediol, 2-hydroxymethyl-2-methyl-, triacetate
Formula: C 11 H 18 O 6
CAS: 13431-59-9
Origin: Sadtler Research Labs Under US-EPA Contract
1/CM	ABSORBANCE
450	0.0143694
462	0.0113265
474	0.0103122
486	0.0160599
498	0.00743829
510	0.0189338
522	0.0087907
534	0.00710018
546	0.0106503
558	0.0109884
570	0.0108193
582	0.0114955
594	0.0189338
606	0.0395582
618	0.019441
630	0.0302603
642	0.0453059
654	0.022653
666	0.00912881
678	0.0042263
690	0.00202862
702	0.00185957
714	0.00084526
726	0.00152147
738	0.000676208
750	0.00185957
762	0.00253578
774	0.00185957
786	0.00253578
798	0.0045644
810	0.00743829
822	0.0138623
834	0.0307675
846	0.0398963
858	0.0371914
870	0.0349938
882	0.0368533
894	0.0436154
906	0.0426011
918	0.0344866
930	0.0290769
942	0.0185957
954	0.0177505
966	0.0319508
978	0.0615349
990	0.0699875
1002	0.0759043
1014	0.130508
1026	0.289924
1038	0.450016
1050	0.437338
1062	0.234982
1074	0.15164
1086	0.115632
1098	0.0806378
1110	0.0527442
1122	0.0331342
1134	0.0253578
1146	0.0256959
1158	0.0360081
1170	0.0530823
1182	0.0994026
1194	0.22653
1206	0.62059
1218	1.52722
1230	1.39603
1242	0.782373
1254	0.407753
1266	0.200496
1278	0.120534
1290	0.0725233
1302	0.0442916
1314	0.0314437
1326	0.0251887
1338	0.0241744
1350	0.0385439
1362	0.149442
1374	0.25324
1386	0.327961
1398	0.105827
1410	0.051899
1422	0.0348247
1434	0.0341485
1446	0.0351628
1458	0.0491941
1470	0.0846951
1482	0.0633945
1494	0.0245125
1506	0.0167361
1518	0.0133551
1530	0.0108193
1542	0.00946691
1554	0.00625492
1566	0.00473346
1578	0.00355009
1590	0.00236673
1602	0.00270483
1614	0.0042263
1626	0.00608587
1638	0.00710018
1650	0.00794544
1662	0.0084526
1674	0.00946691
1686	0.012848
1698	0.01961
1710	0.0349938
1722	0.0696494
1734	0.120534
1746	0.242759
1758	0.644088
1770	1.17964
1782	0.39237
1794	0.166685
1806	0.0804688
1818	0.0417558
1830	0.0207934
1842	0.0104812
1854	0.00659303
1866	0.00524061
1878	0.0045644
1890	0.00405725
1902	0.00287388
1914	0.00169052
1926	0.00152147
1938	0.00169052
1950	0.00219768
1962	0.00236673
1974	0.00185957
1986	0.00152147
1998	0.00185957
2010	0.00270483
2022	0.00270483
2034	0.00287388
2046	0.00371914
2058	0.00439535
2070	0.00439535
2082	0.0042263
2094	0.00405725
2106	0.00439535
2118	0.00473346
2130	0.00490251
2142	0.00405725
2154	0.00304294
2166	0.00202862
2178	0.00118336
2190	0.00101431
2202	0.000338104
2214	0.000507156
2226	0.00084526
2238	0.000338104
2250	0.000338104
2262	0.000676208
2274	0.000507156
2286	0.00101431
2298	0.00135242
2310	0.00169052
2322	0.00202862
2334	0.00236673
2346	0.00321199
2358	0.00185957
2370	0.00321199
2382	0.00169052
2394	0.000169052
2406	0.00101431
2418	0.00118336
2430	0.00169052
2442	0.00202862
2454	0.00219768
2466	0.00219768
2478	0.00135242
2490	0.00084526
2502	0.000676208
2514	0
2526	0
2538	0.000338104
2550	0
2562	0.000507156
2574	0.000507156
2586	0.00118336
2598	0.00101431
2610	0.00118336
2622	0.00135242
2634	0.00101431
2646	0.00118336
2658	0.00152147
2670	0.00152147
2682	0.00202862
2694	0.00152147
2706	0.00185957
2718	0.00236673
2730	0.00321199
2742	0.0042263
2754	0.00405725
2766	0.00355009
2778	0.00304294
2790	0.00355009
2802	0.00405725
2814	0.0038882
2826	0.00540966
2838	0.00693113
2850	0.00946691
2862	0.012848
2874	0.0160599
2886	0.0297532
2898	0.0483489
2910	0.0469965
2922	0.0405725
2934	0.0524061
2946	0.084526
2958	0.100586
2970	0.0985573
2982	0.106334
2994	0.0828355
3006	0.0329651
3018	0.0199481
3030	0.0191029
3042	0.016398
3054	0.0135242
3066	0.0126789
3078	0.0116646
3090	0.00912881
3102	0.00794544
3114	0.00625492
3126	0.00490251
3138	0.00405725
3150	0.00355009
3162	0.00270483
3174	0.00236673
3186	0.00169052
3198	0.00169052
3210	0.00185957
3222	0.00152147
3234	0.00118336
3246	0.000676208
3258	0.000507156
3270	0.000507156
3282	0.00084526
3294	0.000676208
3306	0.00118336
3318	0.00152147
3330	0.00084526
3342	0.000169052
3354	0.000507156
3366	0
3378	0.000169052
3390	0.00084526
3402	0.000676208
3414	0.000338104
3426	0.000338104
3438	0.00084526
3450	0.000507156
3462	0.00169052
3474	0.00169052
3486	0.00185957
3498	0.0042263
3510	0.00895976
3522	0.00659303
3534	0.00219768
3546	0.00118336
3558	0.00101431
3570	0.00219768
3582	0.00253578
3594	0.00202862
3606	0.00169052
3618	0.000169052
3630	0.00135242
3642	0.00084526
3654	0.00084526
3666	0.00152147
3678	0.00202862
3690	0.00118336
3702	0.00135242
3714	0.000169052
3726	0.00084526
3738	0
3750	0.000676208
3762	0
3774	0.000507156
3786	0.000338104
3798	0.00152147
3810	0.00185957
3822	0.00169052
3834	0.000169052
3846	0.000676208
3858	0.00169052
3870	0.00152147
3882	0.00152147
3894	0.000676208
3906	0.00355009
3918	0
3930	0.00287388
3942	0.00219768
3954	0.00084526
3966	0.00185957
