Infrared Spectrum: Heptane, 2,2,4,6,6-pentamethyl-
Formula: C 12 H 26
CAS: 13475-82-6
Origin: Sadtler Research Labs Under US-EPA Contract
1/CM	ABSORBANCE
450	0
462	0.00421686
474	0.0166666
486	0.00783132
498	0.0134538
510	0.00783132
522	0.0116466
534	0.0118474
546	0.0180723
558	0.00843373
570	0.0138554
582	0.0114458
594	0.013253
606	0.00983935
618	0.0140562
630	0.0176707
642	0.0110442
654	0.0110442
666	0.0106426
678	0.0136546
690	0.0100401
702	0.011245
714	0.0108434
726	0.0120482
738	0.0114458
750	0.012249
762	0.0120482
774	0.0120482
786	0.0144578
798	0.00943774
810	0.0120482
822	0.0134538
834	0.0150602
846	0.0146586
858	0.0150602
870	0.0104418
882	0.0134538
894	0.0144578
906	0.0140562
918	0.0214859
930	0.0222891
942	0.0168675
954	0.0224899
966	0.0495983
978	0.0411646
990	0.0182731
1002	0.015261
1014	0.0148594
1026	0.0138554
1038	0.0128514
1050	0.0118474
1062	0.0124498
1074	0.013253
1086	0.0144578
1098	0.0140562
1110	0.0164658
1122	0.0166666
1134	0.0128514
1146	0.0144578
1158	0.0198795
1170	0.0273092
1182	0.0413654
1194	0.0650602
1206	0.0803212
1218	0.0586345
1230	0.0572289
1242	0.107229
1254	0.0477911
1266	0.0263052
1278	0.0281124
1290	0.025502
1302	0.0196787
1314	0.0176707
1326	0.0196787
1338	0.028514
1350	0.0612449
1362	0.180522
1374	0.263855
1386	0.129116
1398	0.146385
1410	0.041767
1422	0.0271084
1434	0.0365461
1446	0.065261
1458	0.117269
1470	0.23996
1482	0.268875
1494	0.0925702
1506	0.0277108
1518	0.0144578
1530	0.0108434
1542	0.00863453
1554	0.0070281
1566	0.0070281
1578	0.00622489
1590	0.0070281
1602	0.00722891
1614	0.00622489
1626	0.0066265
1638	0.0064257
1650	0.00582329
1662	0.00622489
1674	0.00622489
1686	0.00522088
1698	0.00602409
1710	0.0068273
1722	0.00582329
1734	0.00481927
1746	0.00502007
1758	0.00461847
1770	0.00441767
1782	0.00401606
1794	0.00361445
1806	0.00401606
1818	0.00441767
1830	0.00321285
1842	0.00361445
1854	0.00361445
1866	0.00341365
1878	0.00361445
1890	0.00381526
1902	0.00361445
1914	0.00341365
1926	0.00321285
1938	0.00361445
1950	0.00281124
1962	0.00281124
1974	0.00301205
1986	0.00240964
1998	0.00281124
2010	0.00220883
2022	0.00220883
2034	0.00180723
2046	0.00180723
2058	0.00100402
2070	0.00100402
2082	0.00120482
2094	0.00160642
2106	0.00140562
2118	0.00200803
2130	0.00200803
2142	0.00140562
2154	0.00160642
2166	0.00180723
2178	0.00160642
2190	0.00220883
2202	0.00140562
2214	0.00200803
2226	0.00200803
2238	0.00140562
2250	0.000803212
2262	0.000602409
2274	0.000803212
2286	0.00200803
2298	0.00321285
2310	0.00301205
2322	0.00240964
2334	0.000200803
2346	0.00100402
2358	0.00160642
2370	0.00180723
2382	0.00301205
2394	0.00240964
2406	0.00281124
2418	0.00240964
2430	0.00200803
2442	0.00220883
2454	0.00160642
2466	0.00160642
2478	0.00140562
2490	0.00160642
2502	0.00180723
2514	0.00220883
2526	0.00281124
2538	0.00401606
2550	0.00381526
2562	0.00502007
2574	0.00522088
2586	0.00562248
2598	0.00562248
2610	0.0068273
2622	0.0068273
2634	0.00742971
2646	0.00823292
2658	0.00943774
2670	0.0104418
2682	0.0126506
2694	0.0140562
2706	0.0156626
2718	0.0218875
2730	0.0238956
2742	0.0196787
2754	0.0210843
2766	0.0184739
2778	0.0178715
2790	0.0242972
2802	0.0301205
2814	0.0443775
2826	0.0604417
2838	0.0971887
2850	0.176506
2862	0.268273
2874	0.5002
2886	0.54759
2898	0.544377
2910	0.691566
2922	0.68514
2934	0.666264
2946	0.987148
2958	1.87088
2970	1.43474
2982	0.559236
2994	0.270482
3006	0.113253
3018	0.0483935
3030	0.0291164
3042	0.0202811
3054	0.0170683
3066	0.014257
3078	0.014257
3090	0.0124498
3102	0.0118474
3114	0.0126506
3126	0.0126506
3138	0.0124498
3150	0.0134538
3162	0.0156626
3174	0.0154618
3186	0.0176707
3198	0.0168675
3210	0.0156626
3222	0.0138554
3234	0.013253
3246	0.00963854
3258	0.00923694
3270	0.0064257
3282	0.0066265
3294	0.0064257
3306	0.00622489
3318	0.00502007
3330	0.00401606
3342	0.00321285
3354	0.00401606
3366	0.00341365
3378	0.00381526
3390	0.00441767
3402	0.00100402
3414	0.00240964
3426	0.000803212
3438	0.00281124
3450	0.00200803
3462	0.00200803
3474	0.00100402
3486	0.00180723
3498	0.00160642
3510	0.00301205
3522	0.000401606
3534	0.00200803
3546	0.00220883
3558	0.00100402
3570	0.00240964
3582	0.00100402
3594	0.00200803
3606	0.00301205
3618	0.00321285
3630	0.00341365
3642	0.00160642
3654	0.00261044
3666	0.00401606
3678	0.00461847
3690	0.000401606
3702	0.00421686
3714	0.00321285
3726	0.00261044
3738	0.00220883
3750	0.00401606
3762	0.00502007
3774	0.00522088
3786	0.00502007
3798	0.00461847
3810	0.00602409
3822	0.00481927
3834	0.00401606
3846	0.00441767
3858	0.00522088
3870	0
3882	0.00742971
3894	0.00481927
3906	0.00421686
3918	0.00983935
3930	0.00200803
3942	0.00803212
3954	0.00823292
3966	0.0064257
