Infrared Spectrum: 2-(4-Aminophenyl)ethylamine
Formula: C 8 H 12 N 2
CAS: 13472-00-9
Origin: Sadtler Research Labs Under US-EPA Contract
1/CM	ABSORBANCE
450	0.0372045
462	0.0202993
474	0.0499323
486	0.0259126
498	0.039489
510	0.0206256
522	0.0152081
534	0.0300899
546	0.0561331
558	0.0363559
570	0.0240197
582	0.0135111
594	0.00711454
606	0.0197118
618	0.0310037
630	0.065989
642	0.171141
654	0.279817
666	0.199077
678	0.141508
690	0.107175
702	0.10117
714	0.104303
726	0.108937
738	0.118597
750	0.166506
762	0.22166
774	0.239545
786	0.306578
798	0.320938
810	0.298158
822	0.224532
834	0.1325
846	0.0843954
858	0.0611589
870	0.0430136
882	0.0314606
894	0.0229101
906	0.0208867
918	0.0165136
930	0.0213436
942	0.0129889
954	0.0128584
966	0.0251293
978	0.0254557
990	0.0304816
1002	0.0249988
1014	0.0309385
1026	0.0330271
1038	0.0400764
1050	0.058287
1062	0.100909
1074	0.121665
1086	0.0959484
1098	0.0577648
1110	0.0412513
1122	0.0521515
1134	0.0430136
1146	0.0144902
1158	0.00868104
1170	0.0225838
1182	0.0713412
1194	0.0134458
1206	0.0049606
1218	0.00600493
1230	0.0112919
1242	0.0363559
1254	0.115856
1266	0.369303
1278	0.337321
1290	0.093207
1302	0.0396848
1314	0.0274138
1326	0.0232365
1338	0.0258473
1350	0.0321786
1362	0.0347242
1374	0.0336798
1386	0.0325702
1398	0.0176232
1410	0.0101823
1422	0.0193202
1434	0.0280665
1446	0.038771
1458	0.0313954
1470	0.0399459
1482	0.0440579
1494	0.0540444
1506	0.239479
1518	0.65271
1530	0.229558
1542	0.042622
1554	0.0227143
1566	0.0302857
1578	0.0477131
1590	0.0735604
1602	0.123493
1614	0.278446
1626	0.511333
1638	0.341041
1650	0.094904
1662	0.0478436
1674	0.0291761
1686	0.017101
1698	0.0152734
1710	0.0230407
1722	0.0201687
1734	0.0145554
1746	0.0152081
1758	0.0152734
1770	0.0125973
1782	0.012532
1794	0.0122057
1806	0.0135111
1818	0.0125973
1830	0.0120751
1842	0.0144249
1854	0.0225838
1866	0.0277402
1878	0.0242155
1890	0.0146207
1902	0.0114877
1914	0.0124668
1926	0.01325
1938	0.0107044
1950	0.00881159
1962	0.00796306
1974	0.00711454
1986	0.0065271
1998	0.00574385
2010	0.00665764
2022	0.00731035
2034	0.00828942
2046	0.00770198
2058	0.0080936
2070	0.00887686
2082	0.00770198
2094	0.006984
2106	0.00659237
2118	0.00535222
2130	0.00424262
2142	0.00358991
2154	0.00326355
2166	0.00417734
2178	0.00430789
2190	0.00326355
2202	0.0029372
2214	0.00287192
2226	0.00280665
2238	0.00280665
2250	0.00300247
2262	0.00313301
2274	0.00463424
2286	0.0065271
2298	0.0120751
2310	0.0157303
2322	0.0136416
2334	0.00979065
2346	0.0142291
2358	0.0114224
2370	0.00796306
2382	0.00939902
2394	0.00110961
2406	0.00117488
2418	0.00130542
2430	0.0015665
2442	0.00163178
2454	0.00176232
2466	0.00163178
2478	0.00065271
2490	0.000130542
2502	0.000522168
2514	0.00130542
2526	0.00326355
2538	0.00437316
2550	0.00306774
2562	0.00234976
2574	0.00221921
2586	0.00332882
2598	0.00476478
2610	0.00541749
2622	0.00580912
2634	0.00548276
2646	0.00580912
2658	0.00613547
2670	0.00678818
2682	0.00704927
2694	0.00776725
2706	0.00920321
2718	0.00992119
2730	0.0118141
2742	0.0142943
2754	0.0148165
2766	0.0133806
2778	0.0133806
2790	0.0144902
2802	0.0176884
2814	0.0232365
2826	0.0358991
2838	0.0723855
2850	0.141899
2862	0.166311
2874	0.135959
2886	0.112005
2898	0.107697
2910	0.175514
2922	0.267676
2934	0.299855
2946	0.265914
2958	0.139941
2970	0.0629212
2982	0.0398153
2994	0.0552193
3006	0.122971
3018	0.151625
3030	0.19751
3042	0.158739
3054	0.0822415
3066	0.0646836
3078	0.0418387
3090	0.027936
3102	0.0243461
3114	0.0178843
3126	0.0119446
3138	0.00920321
3150	0.00561331
3162	0.00339409
3174	0.00267611
3186	0.00189286
3198	0.00339409
3210	0.00548276
3222	0.0060702
3234	0.00750617
3246	0.00561331
3258	0.00319828
3270	0.00124015
3282	0.000979065
3294	0.00117488
3306	0.000979065
3318	0.00163178
3330	0.00443843
3342	0.00724508
3354	0.00717981
3366	0.0060702
3378	0.00744089
3390	0.0178843
3402	0.0477784
3414	0.0529348
3426	0.024085
3438	0.0101823
3450	0.00933375
3462	0.0124668
3474	0.0218658
3486	0.0352463
3498	0.0329619
3510	0.020234
3522	0.00959484
3534	0.00365518
3546	0.00456897
3558	0.000717981
3570	0.00639656
3582	0.00274138
3594	0.00313301
3606	0.00208867
3618	0.00130542
3630	0.00137069
3642	0.00124015
3654	0.0020234
3666	0.00130542
3678	0.00110961
3690	0.00182759
3702	0.00300247
3714	0.00124015
3726	0.00365518
3738	0.0029372
3750	0.0015665
3762	0.000456897
3774	6.5271e-05
3786	0.000783252
3798	0.000326355
3810	6.5271e-05
3822	0.000522168
3834	0.000195813
3846	0.0029372
3858	0.00430789
3870	0.00776725
3882	0.00300247
3894	0.00267611
3906	0.00215394
3918	0.00352463
3930	0.00195813
3942	0
3954	0.00822415
3966	0.000326355
