Infrared Spectrum: 1,2,4-Trimethoxybenzene
Formula: C 9 H 12 O 3
CAS: 135-77-3
Origin: Sadtler Research Labs Under US-EPA Contract
1/CM	ABSORBANCE
450	0
462	0.022715
474	0.0214623
486	0.0144474
498	0.0121091
510	0.0149485
522	0.0146979
534	0.015366
546	0.0197921
558	0.00885217
570	0.0247193
582	0.0113575
594	0.0162846
606	0.0172868
618	0.0216293
630	0.0250533
642	0.0243852
654	0.0200426
666	0.0160341
678	0.0129442
690	0.0184559
702	0.0393337
714	0.0539481
726	0.0281432
738	0.0265565
750	0.0464321
762	0.0612136
774	0.0412544
786	0.0423401
798	0.0541151
810	0.0557018
822	0.0553678
834	0.0626333
846	0.0576226
858	0.0388326
870	0.030064
882	0.0206272
894	0.0201262
906	0.0270576
918	0.0526119
930	0.0497726
942	0.0274751
954	0.0203767
966	0.0233831
978	0.0295629
990	0.0390831
1002	0.0633013
1014	0.127605
1026	0.234081
1038	0.303228
1050	0.304064
1062	0.153744
1074	0.0573721
1086	0.0445949
1098	0.0621322
1110	0.112406
1122	0.142637
1134	0.122177
1146	0.161093
1158	0.328031
1170	0.260805
1182	0.211784
1194	0.241931
1206	0.450375
1218	0.462484
1230	0.42624
1242	0.310243
1254	0.313584
1266	0.335547
1278	0.186146
1290	0.130778
1302	0.123429
1314	0.111237
1326	0.0640529
1338	0.0328198
1350	0.0279762
1362	0.0232161
1374	0.0227985
1386	0.026473
1398	0.0390831
1410	0.0672264
1422	0.0819243
1434	0.154161
1446	0.182221
1458	0.157502
1470	0.202264
1482	0.159673
1494	0.301809
1506	0.786924
1518	0.547498
1530	0.12084
1542	0.0486034
1554	0.0413379
1566	0.0471002
1578	0.0733227
1590	0.126018
1602	0.144307
1614	0.123847
1626	0.0626333
1638	0.0327363
1650	0.0204602
1662	0.0221304
1674	0.0169527
1686	0.0147814
1698	0.0125266
1710	0.0160341
1722	0.0151155
1734	0.0106059
1746	0.0133618
1758	0.0144474
1770	0.0132782
1782	0.0131947
1794	0.0116915
1806	0.0143639
1818	0.0159506
1830	0.0142804
1842	0.0146979
1854	0.0162011
1866	0.0157836
1878	0.015366
1890	0.0125266
1902	0.0140298
1914	0.0147814
1926	0.0162846
1938	0.0160341
1950	0.015533
1962	0.015199
1974	0.0149485
1986	0.015199
1998	0.0160341
2010	0.0185394
2022	0.0197086
2034	0.0197086
2046	0.0184559
2058	0.019291
2070	0.0190405
2082	0.0181219
2094	0.0156166
2106	0.0136958
2118	0.0121926
2130	0.0119421
2142	0.0124431
2154	0.0122761
2166	0.0123596
2178	0.0130277
2190	0.0143639
2202	0.0142804
2214	0.0138628
2226	0.0125266
2238	0.0123596
2250	0.0119421
2262	0.0126102
2274	0.0127772
2286	0.0116915
2298	0.0111905
2310	0.0101883
2322	0.0098543
2334	0.0091027
2346	0.0140298
2358	0.00801706
2370	0.00801706
2382	0.0116915
2394	0.00943674
2406	0.0101883
2418	0.0108564
2430	0.0107729
2442	0.0109399
2454	0.0109399
2466	0.0100213
2478	0.0106059
2490	0.0111905
2502	0.0116915
2514	0.0121926
2526	0.0116915
2538	0.00977079
2550	0.0102719
2562	0.0108564
2574	0.0098543
2586	0.0124431
2598	0.011274
2610	0.0120256
2622	0.0116915
2634	0.00868514
2646	0.0106059
2658	0.00851812
2670	0.00993781
2682	0.0106059
2694	0.00901919
2706	0.00810057
2718	0.0083511
2730	0.00952025
2742	0.0104389
2754	0.0113575
2766	0.0117751
2778	0.0142804
2790	0.0179549
2802	0.0227985
2814	0.033989
2826	0.0658902
2838	0.148232
2850	0.129108
2862	0.0754939
2874	0.0650551
2886	0.0710679
2898	0.0890227
2910	0.118753
2922	0.142052
2934	0.172033
2946	0.236002
2958	0.206773
2970	0.135872
2982	0.100714
2994	0.129275
3006	0.193161
3018	0.0912775
3030	0.0443443
3042	0.0389161
3054	0.0398347
3066	0.0366613
3078	0.0324023
3090	0.0288948
3102	0.0232161
3114	0.0185394
3126	0.0175373
3138	0.0149485
3150	0.0138628
3162	0.0136958
3174	0.0141969
3186	0.0122761
3198	0.0126937
3210	0.0133618
3222	0.0142804
3234	0.0121926
3246	0.0146979
3258	0.0146979
3270	0.0134453
3282	0.015199
3294	0.0151155
3306	0.0151155
3318	0.0142804
3330	0.0133618
3342	0.0145309
3354	0.0143639
3366	0.0147814
3378	0.0134453
3390	0.0138628
3402	0.0121091
3414	0.0134453
3426	0.0142804
3438	0.0134453
3450	0.0133618
3462	0.0141134
3474	0.015032
3486	0.0136123
3498	0.0157001
3510	0.0131947
3522	0.0172868
3534	0.0169527
3546	0.0157001
3558	0.0157836
3570	0.0147814
3582	0.0110235
3594	0.0161176
3606	0.0163682
3618	0.0128607
3630	0.0154495
3642	0.0119421
3654	0.0135288
3666	0.0110235
3678	0.0132782
3690	0.0133618
3702	0.0115245
3714	0.015533
3726	0.0118586
3738	0.0120256
3750	0.0129442
3762	0.00851812
3774	0.0182889
3786	0.00993781
3798	0.0109399
3810	0.0167857
3822	0.0149485
3834	0.0173703
3846	0.0160341
3858	0.0142804
3870	0.0194581
3882	0.0217129
3894	0.0119421
3906	0.0143639
3918	0.0147814
3930	0.0172033
3942	0.0184559
3954	0.0162846
3966	0.0170362
