Infrared Spectrum: Benzene, 1,2-diethyl-
Formula: C 10 H 14
CAS: 135-01-3
Origin: Sadtler Research Labs Under US-EPA Contract
1/CM	ABSORBANCE
450	0.0354123
462	0.0358
474	0.0361878
486	0.0279163
498	0.0184816
510	0.00982239
522	0.00710831
534	0.0121487
546	0.0261069
558	0.0199033
570	0.00775452
582	0.00827149
594	0.0108563
606	0.00504044
618	0.000904694
630	0.00168015
642	0.00271408
654	0.000516968
666	0.000258484
678	0.00284332
690	0.0118903
702	0.0352831
714	0.0572542
726	0.0695322
738	0.183911
750	0.481426
762	0.266885
774	0.0602268
786	0.0469148
798	0.0413574
810	0.0321813
822	0.0178354
834	0.00814225
846	0.00710831
858	0.00969315
870	0.00930542
882	0.00684983
894	0.0049112
906	0.0040065
918	0.0040065
930	0.00995163
942	0.0171892
954	0.0213249
966	0.0306304
978	0.0204202
990	0.0108563
1002	0.00788376
1014	0.0107271
1026	0.0272701
1038	0.0379971
1050	0.06139
1062	0.0916326
1074	0.0467856
1086	0.0144751
1098	0.00995163
1110	0.0108563
1122	0.0153798
1134	0.0162845
1146	0.00736679
1158	0.00633286
1170	0.0089177
1182	0.00956391
1194	0.00762528
1206	0.00710831
1218	0.00684983
1230	0.00904694
1242	0.0143459
1254	0.0143459
1266	0.0120195
1278	0.0131827
1290	0.0153798
1302	0.0187401
1314	0.0306304
1326	0.0463979
1338	0.0339906
1350	0.0180939
1362	0.0184816
1374	0.0479488
1386	0.0655257
1398	0.0307596
1410	0.020808
1422	0.0248145
1434	0.04433
1446	0.118515
1458	0.18921
1470	0.175381
1482	0.175252
1494	0.192054
1506	0.0719878
1518	0.0254607
1530	0.0142166
1542	0.0105978
1554	0.00762528
1566	0.00814225
1578	0.0135704
1590	0.0218419
1602	0.0473026
1614	0.0460102
1626	0.0136997
1638	0.00736679
1650	0.00697907
1662	0.00568665
1674	0.00762528
1686	0.0130534
1698	0.0103394
1710	0.00568665
1722	0.008013
1734	0.00762528
1746	0.00348953
1758	0.00310181
1770	0.00348953
1782	0.00504044
1794	0.015509
1806	0.0144751
1818	0.00504044
1830	0.0107271
1842	0.008013
1854	0.00219711
1866	0.00529892
1878	0.00788376
1890	0.00542816
1902	0.0200325
1914	0.0211957
1926	0.00762528
1938	0.0168015
1950	0.0120195
1962	0.00116318
1974	0
1986	0.000258484
1998	0.000387726
2010	0.00103394
2022	0.00193863
2034	0.00232636
2046	0.00103394
2058	0.000387726
2070	0.000129242
2082	0
2094	0.00064621
2106	0.00064621
2118	0
2130	0
2142	0.000129242
2154	0.000258484
2166	0.000387726
2178	0.000129242
2190	0.000129242
2202	0.000129242
2214	0.000129242
2226	0.000516968
2238	0.000775452
2250	0.000904694
2262	0.000775452
2274	0.000904694
2286	0.00193863
2298	0.00206787
2310	0.00271408
2322	0.00374802
2334	0.00348953
2346	0.00336029
2358	0.00142166
2370	0.000129242
2382	0.00168015
2394	0.000904694
2406	0.00168015
2418	0.00297257
2430	0.00336029
2442	0.00297257
2454	0.00142166
2466	0.00116318
2478	0.00129242
2490	0.0015509
2502	0.00193863
2514	0.00193863
2526	0.00232636
2538	0.00232636
2550	0.00271408
2562	0.00258484
2574	0.00232636
2586	0.00232636
2598	0.00271408
2610	0.0040065
2622	0.00607437
2634	0.00736679
2646	0.00581589
2658	0.00348953
2670	0.00271408
2682	0.00310181
2694	0.00426499
2706	0.0049112
2718	0.00542816
2730	0.00943467
2742	0.0148628
2754	0.0116318
2766	0.0140874
2778	0.0182231
2790	0.020808
2802	0.0209372
2814	0.0232636
2826	0.0307596
2838	0.0435546
2850	0.0642333
2862	0.108951
2874	0.265075
2886	0.495772
2898	0.390182
2910	0.291311
2922	0.282781
2934	0.426499
2946	0.589602
2958	0.514642
2970	1.12958
2982	1.08292
2994	0.286013
3006	0.164267
3018	0.273993
3030	0.31716
3042	0.18236
3054	0.167498
3066	0.252539
3078	0.268953
3090	0.120841
3102	0.0633286
3114	0.0494997
3126	0.0266239
3138	0.0204202
3150	0.0221004
3162	0.023522
3174	0.0183524
3186	0.0108563
3198	0.00594513
3210	0.00387726
3222	0.00310181
3234	0.00284332
3246	0.00284332
3258	0.0024556
3270	0.0015509
3282	0.00103394
3294	0.00168015
3306	0.0015509
3318	0.00129242
3330	0.00129242
3342	0.00129242
3354	0.00129242
3366	0.00129242
3378	0.00129242
3390	0.000775452
3402	0.00116318
3414	0.00103394
3426	0.00129242
3438	0.0015509
3450	0.000516968
3462	0.00116318
3474	0.00129242
3486	0.000904694
3498	0.00129242
3510	0.000904694
3522	0.0015509
3534	0.00116318
3546	0.00142166
3558	0.00103394
3570	0.00180939
3582	0.00103394
3594	0
3606	0.00180939
3618	0.00180939
3630	0.00142166
3642	0.00232636
3654	0.00387726
3666	0.00258484
3678	0.0015509
3690	0.00258484
3702	0.00219711
3714	0.00271408
3726	0.00206787
3738	0.00271408
3750	0.00180939
3762	0.00129242
3774	0.00297257
3786	0.00180939
3798	0.000516968
3810	0.00193863
3822	0.00193863
3834	0.00116318
3846	0.00284332
3858	0.00271408
3870	0.00310181
3882	0.00193863
3894	0.0015509
3906	0.00103394
3918	0.00232636
3930	0.00348953
3942	0.00271408
3954	0.00336029
3966	0.000904694
