Infrared Spectrum: 2-Naphthalenol
Formula: C 10 H 8 O
CAS: 135-19-3
Origin: Sadtler Research Labs Under US-EPA Contract
1/CM	ABSORBANCE
450	0.113036
462	0.0890137
474	0.0767842
486	0.0244591
498	0.00773083
510	0.00755612
522	0.0181696
534	0.0146318
546	0.0124916
558	0.00406196
570	0.00406196
582	0.00781818
594	0.00414931
606	0.00803657
618	0.0330635
630	0.027997
642	0.00978365
654	0.00349416
666	0.00235856
678	0.00345048
690	0.00545963
702	0.00716303
714	0.0426724
726	0.0623708
738	0.118365
750	0.0908918
762	0.0304865
774	0.0119238
786	0.0346359
798	0.0821128
810	0.0636811
822	0.0732027
834	0.166584
846	0.130376
858	0.0542468
870	0.0403139
882	0.0250269
894	0.0417552
906	0.0538101
918	0.0188248
930	0.0174708
942	0.0176455
954	0.0501412
966	0.0499665
978	0.00952159
990	0.00598375
1002	0.00467344
1014	0.0138456
1026	0.0113997
1038	0.00519756
1050	0.0060711
1062	0.00668258
1074	0.00851702
1086	0.0109629
1098	0.0166409
1110	0.0466034
1122	0.148808
1134	0.10762
1146	0.113779
1158	0.223801
1170	0.386978
1182	0.428384
1194	0.278616
1206	0.142256
1218	0.118321
1230	0.0424104
1242	0.0422357
1254	0.110459
1266	0.177678
1278	0.131599
1290	0.0328888
1302	0.00860437
1314	0.00895379
1326	0.0180823
1338	0.0222316
1350	0.0317095
1362	0.0594444
1374	0.0921585
1386	0.102859
1398	0.0429345
1410	0.00904114
1422	0.0150686
1434	0.0122732
1446	0.0459919
1458	0.0763911
1470	0.0902804
1482	0.054902
1494	0.0407506
1506	0.0840782
1518	0.163876
1530	0.0580467
1542	0.0201788
1554	0.00869172
1566	0.0189558
1578	0.050578
1590	0.077483
1602	0.135835
1614	0.127668
1626	0.173572
1638	0.201307
1650	0.0705384
1662	0.0404012
1674	0.0454678
1686	0.0343301
1698	0.0175145
1710	0.00921585
1722	0.0100894
1734	0.00952159
1746	0.00982733
1758	0.00991468
1770	0.00973997
1782	0.00864805
1794	0.00554698
1806	0.0066389
1818	0.00690097
1830	0.00642052
1842	0.00484815
1854	0.00200914
1866	0.00366887
1878	0.00751244
1890	0.0117054
1902	0.0113123
1914	0.00969629
1926	0.00812392
1938	0.00991468
1950	0.00353784
1962	0.00100457
1974	0.00122296
1986	0.00139766
1998	0.00104825
2010	0.000262062
2022	0.00087354
2034	0.000786186
2046	0.00109193
2058	0.00157237
2070	0.00200914
2082	0.00305739
2094	0.00205282
2106	0.000611478
2118	0.000917217
2130	0.0011356
2142	0.000960894
2154	0.00135399
2166	0.00139766
2178	0.0017034
2190	0.0015287
2202	0.000611478
2214	0.000524124
2226	0.000786186
2238	0.000829863
2250	0.00117928
2262	0.00165973
2274	0.00192179
2286	0.00318842
2298	0.00401828
2310	0.00524124
2322	0.00676994
2334	0.00847334
2346	0.00864805
2358	0.00668258
2370	0.007032
2382	0.00537227
2394	0.00506653
2406	0.00541595
2418	0.00401828
2430	0.0043677
2442	0.00393093
2454	0.00388725
2466	0.00449873
2478	0.00388725
2490	0.00353784
2502	0.00362519
2514	0.00371255
2526	0.00362519
2538	0.00327578
2550	0.00353784
2562	0.00353784
2574	0.00401828
2586	0.00331945
2598	0.00366887
2610	0.00297004
2622	0.00279533
2634	0.0037999
2646	0.00410564
2658	0.00362519
2670	0.00231488
2682	0.00222753
2694	0.00248959
2706	0.0022712
2718	0.00288268
2730	0.00336313
2742	0.00393093
2754	0.00375622
2766	0.00428035
2778	0.00397461
2790	0.00318842
2802	0.00353784
2814	0.00384358
2826	0.00467344
2838	0.00454241
2850	0.00366887
2862	0.00458609
2874	0.00462976
2886	0.00414931
2898	0.0055033
2910	0.00572169
2922	0.00576536
2934	0.007032
2946	0.00991468
2958	0.0130594
2970	0.0165973
2982	0.0188685
2994	0.0214891
3006	0.0288268
3018	0.0525871
3030	0.0739452
3042	0.0752555
3054	0.115919
3066	0.159465
3078	0.125178
3090	0.0545089
3102	0.0274292
3114	0.0148065
3126	0.00668258
3138	0.00532859
3150	0.00567801
3162	0.00537227
3174	0.00537227
3186	0.00637684
3198	0.00559066
3210	0.00545963
3222	0.00511021
3234	0.00524124
3246	0.00480447
3258	0.00410564
3270	0.00476079
3282	0.00467344
3294	0.00480447
3306	0.00545963
3318	0.0049355
3330	0.00462976
3342	0.00519756
3354	0.0049355
3366	0.0058964
3378	0.00628949
3390	0.00594007
3402	0.00620213
3414	0.00532859
3426	0.00480447
3438	0.00428035
3450	0.00449873
3462	0.00388725
3474	0.00397461
3486	0.00401828
3498	0.0032321
3510	0.00414931
3522	0.00423667
3534	0.00358151
3546	0.00288268
3558	0.00131031
3570	0.00349416
3582	0.00511021
3594	0.00445505
3606	0.00401828
3618	0.00738141
3630	0.0198294
3642	0.147279
3654	0.254768
3666	0.0894942
3678	0.00248959
3690	0.00375622
3702	0.00414931
3714	0.00279533
3726	0.00375622
3738	0.00262062
3750	0.00952159
3762	0.00554698
3774	0.00458609
3786	0.00528492
3798	0.0022712
3810	0.00973997
3822	0.00554698
3834	0.00642052
3846	0.00738141
3858	0.00419299
3870	0.00397461
3882	0.00755612
3894	0.00205282
3906	0.00563433
3918	0.00567801
3930	0.00602743
3942	0.00742509
3954	0.00642052
3966	0.00773083
