Infrared Spectrum: 6-Isopropylquinoline
Formula: C 12 H 13 N
CAS: 135-79-5
Origin: Sadtler Research Labs Under US-EPA Contract
1/CM	ABSORBANCE
450	0.00771258
462	0.0344437
474	0.0406664
486	0.0296233
498	0.0167398
510	0.014724
522	0.0120947
534	0.0202455
546	0.0386506
558	0.0329538
570	0.0146364
582	0.013497
594	0.0230501
606	0.0411046
618	0.0539004
630	0.0169151
642	0.00464508
654	0.0126206
666	0.0134094
678	0.0267311
690	0.0177039
702	0.0130588
714	0.0128835
726	0.00920251
738	0.0256794
750	0.0458373
762	0.104383
774	0.125067
786	0.179756
798	0.195532
810	0.059159
822	0.101841
834	0.2759
846	0.164418
858	0.0474149
870	0.0685368
882	0.107538
894	0.0587208
906	0.0555657
918	0.0289222
930	0.0250659
942	0.024803
954	0.0319021
966	0.0254165
978	0.0254165
990	0.01376
1002	0.0202455
1014	0.0465384
1026	0.0764247
1038	0.0588085
1050	0.0582826
1062	0.0276952
1074	0.0364595
1086	0.0206837
1098	0.0259423
1110	0.0596849
1122	0.0783528
1134	0.0452238
1146	0.0252412
1158	0.0227872
1170	0.0676604
1182	0.0707279
1194	0.0177039
1206	0.0144611
1218	0.0138476
1230	0.0205961
1242	0.0227872
1254	0.028221
1266	0.022349
1278	0.0167398
1290	0.033392
1302	0.0610872
1314	0.0713414
1326	0.079054
1338	0.0445226
1350	0.0489048
1362	0.123664
1374	0.132779
1386	0.106223
1398	0.0750224
1410	0.0322526
1422	0.0312886
1434	0.0450485
1446	0.0659952
1458	0.112972
1470	0.124453
1482	0.107976
1494	0.299301
1506	0.237425
1518	0.0443474
1530	0.029448
1542	0.024803
1554	0.0360213
1566	0.087643
1578	0.101491
1590	0.117792
1602	0.133919
1614	0.0638917
1626	0.0550398
1638	0.0322526
1650	0.0179668
1662	0.01227
1674	0.018405
1686	0.0128835
1698	0.0161263
1710	0.0154252
1722	0.0152499
1734	0.023576
1746	0.0255041
1758	0.0228748
1770	0.0145487
1782	0.0119194
1794	0.0242771
1806	0.0141982
1818	0.00595972
1830	0.00920251
1842	0.00823844
1854	0.00718673
1866	0.0113936
1878	0.0205961
1890	0.0170027
1902	0.0157757
1914	0.0243648
1926	0.0259423
1938	0.0297986
1950	0.0148117
1962	0.00438215
1974	0.00385629
1986	0.00376865
1998	0.00394393
2010	0.00280458
2022	0.00324279
2034	0.00350572
2046	0.00420686
2058	0.00464508
2070	0.00368101
2082	0.00280458
2094	0.00350572
2106	0.00324279
2118	0.00262929
2130	0.00324279
2142	0.00280458
2154	0.00254165
2166	0.00315515
2178	0.00350572
2190	0.00271693
2202	0.00254165
2214	0.00333043
2226	0.00394393
2238	0.00411922
2250	0.00552151
2262	0.00718673
2274	0.00771258
2286	0.00762494
2298	0.00990366
2310	0.0118318
2322	0.0121824
2334	0.0113936
2346	0.015951
2358	0.0146364
2370	0.0143735
2382	0.0106924
2394	0.0069238
2406	0.00657323
2418	0.0063103
2430	0.00648558
2442	0.00648558
2454	0.00701144
2466	0.00841373
2478	0.00832609
2490	0.0081508
2502	0.00780023
2514	0.00683615
2526	0.0069238
2538	0.00709908
2550	0.0075373
2562	0.00806316
2574	0.00955309
2586	0.0100789
2598	0.0106048
2610	0.011043
2622	0.0099913
2634	0.00964073
2646	0.00911487
2658	0.00885194
2670	0.0093778
2682	0.0099913
2694	0.00981602
2706	0.0106048
2718	0.0124453
2730	0.0148993
2742	0.014987
2754	0.014987
2766	0.0165645
2778	0.016214
2790	0.0167398
2802	0.0187556
2814	0.0215602
2826	0.023576
2838	0.0276952
2850	0.039527
2862	0.0668716
2874	0.155479
2886	0.22086
2898	0.185277
2910	0.193516
2922	0.207188
2934	0.256005
2946	0.282035
2958	0.355743
2970	0.87643
2982	0.44733
2994	0.15618
3006	0.134883
3018	0.167661
3030	0.198511
3042	0.242333
3054	0.231027
3066	0.232955
3078	0.231728
3090	0.130237
3102	0.0489924
3114	0.0301492
3126	0.0234883
3138	0.0214725
3150	0.0205961
3162	0.0205085
3174	0.0216478
3186	0.0237513
3198	0.0228748
3210	0.0205961
3222	0.0179668
3234	0.0166522
3246	0.0150746
3258	0.0143735
3270	0.0129712
3282	0.0121824
3294	0.0120947
3306	0.0120947
3318	0.0123577
3330	0.0123577
3342	0.0123577
3354	0.0127959
3366	0.0127082
3378	0.0130588
3390	0.0124453
3402	0.0128835
3414	0.0124453
3426	0.0119194
3438	0.0121824
3450	0.0123577
3462	0.0124453
3474	0.0127959
3486	0.0114812
3498	0.0130588
3510	0.0135847
3522	0.0123577
3534	0.0143735
3546	0.0117442
3558	0.013497
3570	0.0107801
3582	0.0170027
3594	0.00893959
3606	0.0156005
3618	0.0161263
3630	0.00893959
3642	0.0169151
3654	0.00262929
3666	0.0185803
3678	0.0152499
3690	0.00543387
3702	0.0154252
3714	0.0102542
3726	0.015951
3738	0.015951
3750	0
3762	0.0180545
3774	0.0146364
3786	0.0151622
3798	0.00823844
3810	0.0231378
3822	0.00823844
3834	0.0164769
3846	0.0133217
3858	0.0108677
3870	0.0161263
3882	0.016214
3894	0.0193691
3906	0.0117442
3918	0.0144611
3930	0.0202455
3942	0.0148993
3954	0.0169151
3966	0.0179668
