Infrared Spectrum: Benzene, (1-methylpropyl)-
Formula: C 10 H 14
CAS: 135-98-8
Origin: Sadtler Research Labs Under US-EPA Contract
1/CM	ABSORBANCE
450	0.00153507
462	0.00180596
474	0.00171566
486	0.00415371
498	0.0129126
510	0.029708
522	0.0533661
534	0.0778369
546	0.0664593
558	0.0308819
570	0.0250125
582	0.045149
594	0.0328685
606	0.0156216
618	0.0137253
630	0.00288954
642	0.0110164
654	0.0102037
666	0.0192335
678	0.0623959
690	0.271165
702	0.333741
714	0.0995084
726	0.0456908
738	0.0845189
750	0.179964
762	0.180415
774	0.0544497
786	0.0167051
798	0.0183305
810	0.016073
822	0.00577907
834	0.00370222
846	0.0046955
858	0.00731414
870	0.00532758
882	0.00785593
894	0.015441
906	0.0204073
918	0.0120999
930	0.00740444
942	0.0158021
954	0.0232969
966	0.0192335
978	0.0147186
990	0.0305207
1002	0.0485803
1014	0.0669108
1026	0.0738638
1038	0.0425304
1050	0.033952
1062	0.0446975
1074	0.0450587
1086	0.0428916
1098	0.0256446
1110	0.0173372
1122	0.0120999
1134	0.0124611
1146	0.0123708
1158	0.0109261
1170	0.0130932
1182	0.0151701
1194	0.0091201
1206	0.0090298
1218	0.0125514
1230	0.0189626
1242	0.031514
1254	0.0749473
1266	0.0910204
1278	0.025464
1290	0.0232969
1302	0.0295274
1314	0.0288954
1326	0.0304304
1338	0.02727
1350	0.0426207
1362	0.065466
1374	0.0866861
1386	0.0986054
1398	0.041808
1410	0.0218521
1422	0.0243805
1434	0.0355774
1446	0.103752
1458	0.173282
1470	0.123528
1482	0.0778369
1494	0.129758
1506	0.0667302
1518	0.0194141
1530	0.0166148
1542	0.0148992
1554	0.00975218
1566	0.0091201
1578	0.0186014
1590	0.0443363
1602	0.080907
1614	0.0513796
1626	0.0091201
1638	0.00704324
1650	0.00830742
1662	0.0148992
1674	0.0121902
1686	0.019685
1698	0.0620347
1710	0.0821712
1722	0.0420789
1734	0.0237484
1746	0.0268185
1758	0.0170663
1770	0.0155313
1782	0.0142671
1794	0.0238387
1806	0.0186917
1818	0.0091201
1830	0.00397311
1842	0.00388281
1854	0.00785593
1866	0.012732
1878	0.0153507
1890	0.00975218
1902	0.00361192
1914	0.00397311
1926	0.0092104
1938	0.0177887
1950	0.0165245
1962	0.00939099
1974	0.00189626
1986	0.00225745
1998	0.00189626
2010	0.00135447
2022	0.00334103
2034	0.00406341
2046	0.0045149
2058	0.00361192
2070	0.00550818
2082	0.0044246
2094	0.000722384
2106	0.000180596
2118	0.000632086
2130	0.000541788
2142	0.000541788
2154	9.0298e-05
2166	0.000180596
2178	0.000993278
2190	0.00045149
2202	0.000270894
2214	0.000270894
2226	0.000270894
2238	0.00126417
2250	0.00234775
2262	0.00225745
2274	0.00252834
2286	0.00297983
2298	0.00388281
2310	0.0044246
2322	0.00180596
2334	0.000812682
2346	0.00614026
2358	0
2370	0.00794622
2382	0.0103843
2394	0.00514699
2406	0.00406341
2418	0.0046052
2430	0.00496639
2442	0.00478579
2454	0.00514699
2466	0.00523728
2478	0.00604997
2490	0.00559848
2502	0.00577907
2514	0.0043343
2526	0.00523728
2538	0.00595967
2550	0.00695295
2562	0.00740444
2574	0.00948129
2586	0.010294
2598	0.0100231
2610	0.00767533
2622	0.00559848
2634	0.00541788
2646	0.00532758
2658	0.00406341
2670	0.0100231
2682	0.0141768
2694	0.0141768
2706	0.0137253
2718	0.0149895
2730	0.0197753
2742	0.0237484
2754	0.0229357
2766	0.0201365
2778	0.0215812
2790	0.0227551
2802	0.0305207
2814	0.0337715
2826	0.0365707
2838	0.0428013
2850	0.05454
2862	0.124069
2874	0.244437
2886	0.352252
2898	0.272068
2910	0.226016
2922	0.356316
2934	0.465576
2946	0.386114
2958	0.431895
2970	0.884198
2982	0.593619
2994	0.134002
3006	0.0840674
3018	0.112692
3030	0.239741
3042	0.246514
3054	0.13635
3066	0.204073
3078	0.243805
3090	0.157841
3102	0.100231
3114	0.0591452
3126	0.0308819
3138	0.0193238
3150	0.0165245
3162	0.0192335
3174	0.0172469
3186	0.0176081
3198	0.0135447
3210	0.0108358
3222	0.010294
3234	0.00767533
3246	0.00948129
3258	0.00812682
3270	0.00668205
3282	0.00803652
3294	0.00776563
3306	0.00632086
3318	0.00478579
3330	0.00279924
3342	0.00586937
3354	0.00541788
3366	0.0044246
3378	0.00523728
3390	0.00614026
3402	0.00623056
3414	0.00595967
3426	0.0044246
3438	0.0045149
3450	0.00388281
3462	0.00595967
3474	0.00370222
3486	0.00198656
3498	0.00108358
3510	0.00261864
3522	0.00207685
3534	0.00325073
3546	0.00189626
3558	0.00288954
3570	0.00343132
3582	0.00153507
3594	0.00252834
3606	0.00252834
3618	0.00171566
3630	0.00343132
3642	0.00523728
3654	0.00704324
3666	0.00478579
3678	0.0044246
3690	0.00361192
3702	0.00379252
3714	0.00270894
3726	0.00297983
3738	0.00388281
3750	0.00216715
3762	0.00144477
3774	0.00171566
3786	0.00153507
3798	0.00126417
3810	0.00234775
3822	0.00243805
3834	0.00108358
3846	0.00189626
3858	0.00207685
3870	0.00397311
3882	0.00279924
3894	0.00090298
3906	0.00126417
3918	0.00189626
3930	0.00352162
3942	0.00252834
3954	0.0046955
3966	0.00704324
