Infrared Spectrum: Benzene, 1,4-dibutoxy-2-nitro-
Formula: C 14 H 21 N O 4
CAS: 135-15-9
Origin: Sadtler Research Labs Under US-EPA Contract
1/CM	ABSORBANCE
450	0
462	0.0467016
474	0.0392199
486	0.0334918
498	0.0407396
510	0.0434868
522	0.0378756
534	0.0388108
546	0.0410903
558	0.0369404
570	0.038577
582	0.0386939
594	0.0391615
606	0.0362975
618	0.0412657
630	0.0420256
642	0.0405643
654	0.037934
666	0.0381094
678	0.0473445
690	0.0456495
702	0.050267
714	0.0534233
726	0.0607296
738	0.0663408
750	0.0585669
762	0.0631845
774	0.068971
786	0.0780892
798	0.0924679
810	0.144371
822	0.110763
834	0.0746407
846	0.0725949
858	0.0885517
870	0.091708
882	0.0760434
894	0.0588007
906	0.0535402
918	0.0513776
930	0.0590929
942	0.0689126
954	0.0829406
966	0.115673
978	0.138936
990	0.122511
1002	0.141683
1014	0.207147
1026	0.251393
1038	0.185929
1050	0.117251
1062	0.156529
1074	0.146183
1086	0.0948059
1098	0.0743484
1110	0.0701984
1122	0.0801934
1134	0.104275
1146	0.107606
1158	0.071952
1170	0.0614309
1182	0.0766864
1194	0.143787
1206	0.433991
1218	0.547092
1230	0.304524
1242	0.209193
1254	0.258524
1266	0.383023
1278	0.364728
1290	0.195632
1302	0.154191
1314	0.123154
1326	0.100359
1338	0.121693
1350	0.207848
1362	0.250634
1374	0.154659
1386	0.185988
1398	0.12105
1410	0.0860384
1422	0.0988974
1434	0.0939876
1446	0.0983713
1458	0.144664
1470	0.307038
1482	0.237541
1494	0.410319
1506	0.488525
1518	0.321826
1530	0.369872
1542	0.532187
1554	0.499397
1566	0.243736
1578	0.172486
1590	0.0963256
1602	0.0624246
1614	0.0597943
1626	0.0571057
1638	0.0473445
1650	0.0436037
1662	0.0392784
1674	0.0394537
1686	0.040915
1698	0.0391615
1710	0.0364143
1722	0.036239
1734	0.0375834
1746	0.0368235
1758	0.037408
1770	0.0361221
1782	0.03507
1794	0.03507
1806	0.0353038
1818	0.0347777
1830	0.0346024
1842	0.0336672
1854	0.0344855
1866	0.0367651
1878	0.0348362
1890	0.0360636
1902	0.032732
1914	0.0336087
1926	0.0336672
1938	0.0340179
1950	0.0337841
1962	0.0347193
1974	0.0351869
1986	0.0338425
1998	0.0370573
2010	0.0348362
2022	0.0369404
2034	0.0381678
2046	0.0364143
2058	0.0362975
2070	0.0359467
2082	0.0358298
2094	0.0358883
2106	0.0344271
2118	0.031563
2130	0.0330827
2142	0.0337256
2154	0.0327904
2166	0.0319137
2178	0.0334334
2190	0.0323813
2202	0.0314461
2214	0.0317968
2226	0.0311539
2238	0.031563
2250	0.0317383
2262	0.0316799
2274	0.0313876
2286	0.0320306
2298	0.0317968
2310	0.0306862
2322	0.0329658
2334	0.0330827
2346	0.033375
2358	0.0347193
2370	0.0334918
2382	0.0324397
2394	0.0326735
2406	0.0337256
2418	0.0330242
2430	0.0340179
2442	0.0340763
2454	0.0341348
2466	0.0344855
2478	0.0353622
2490	0.0352454
2502	0.0354792
2514	0.0353622
2526	0.0349531
2538	0.0348946
2550	0.0349531
2562	0.0351869
2574	0.0333165
2586	0.0343101
2598	0.033375
2610	0.0336672
2622	0.0337256
2634	0.0337256
2646	0.0333165
2658	0.0348362
2670	0.0348362
2682	0.0355376
2694	0.0358298
2706	0.0368819
2718	0.0369404
2730	0.0386355
2742	0.0410319
2754	0.0428438
2766	0.0424932
2778	0.0417333
2790	0.0428438
2802	0.044948
2814	0.0474029
2826	0.0525465
2838	0.0609633
2850	0.0796089
2862	0.103749
2874	0.158049
2886	0.218194
2898	0.17383
2910	0.179734
2922	0.219129
2934	0.252562
2946	0.329716
2958	0.303706
2970	0.383666
2982	0.237132
2994	0.109301
3006	0.0699062
3018	0.0569303
3030	0.0500917
3042	0.0482797
3054	0.0514944
3066	0.0516698
3078	0.0472276
3090	0.0458248
3102	0.0394537
3114	0.0367066
3126	0.0359467
3138	0.0347193
3150	0.0345439
3162	0.0340179
3174	0.0337256
3186	0.0336087
3198	0.0336087
3210	0.0337841
3222	0.0322644
3234	0.0328489
3246	0.0321475
3258	0.0331412
3270	0.0322059
3282	0.0326735
3294	0.033258
3306	0.0335503
3318	0.0326735
3330	0.0330242
3342	0.0338425
3354	0.0333165
3366	0.0326735
3378	0.0333165
3390	0.033258
3402	0.0334918
3414	0.0335503
3426	0.033258
3438	0.0329074
3450	0.0331412
3462	0.032732
3474	0.0334334
3486	0.0331996
3498	0.0323229
3510	0.032732
3522	0.0319721
3534	0.0319721
3546	0.0325566
3558	0.0331412
3570	0.0305693
3582	0.032732
3594	0.0326151
3606	0.0315045
3618	0.0328489
3630	0.0319137
3642	0.032732
3654	0.0319137
3666	0.0323813
3678	0.0333165
3690	0.0320306
3702	0.0348362
3714	0.0320891
3726	0.0323229
3738	0.0329658
3750	0.0320891
3762	0.0334334
3774	0.0324397
3786	0.0325566
3798	0.0329658
3810	0.0323813
3822	0.0319721
3834	0.0342517
3846	0.0312707
3858	0.0310954
3870	0.0329074
3882	0.0312123
3894	0.0342517
3906	0.0337841
3918	0.0323229
3930	0.0355376
3942	0.033901
3954	0.0371742
3966	0.03507
