Infrared Spectrum: Benzenemethanol, 2-chloro-.alpha.-methyl-
Formula: C 8 H 9 Cl O
CAS: 13524-04-4
Origin: Sadtler Research Labs Under US-EPA Contract
1/CM	ABSORBANCE
450	0.0866123
462	0.0634514
474	0.017612
486	0.0283078
498	0.0453569
510	0.0462415
522	0.0167274
534	0.0214721
546	0.0512275
558	0.00900704
570	0.0247694
582	0.0220351
594	0.0143148
606	0.0825913
618	0.0360282
630	0.0143952
642	0.0157623
654	0.00297554
666	0.0230001
678	0.0661857
690	0.134864
702	0.063371
714	0.0186574
726	0.0769619
738	0.20869
750	0.600335
762	0.365509
774	0.0729409
786	0.0398883
798	0.0201854
810	0.00675528
822	0.00812242
834	0.0117413
846	0.013028
858	0.01914
870	0.0242064
882	0.0409338
894	0.121193
906	0.154004
918	0.061843
930	0.0328918
942	0.0505842
954	0.0365911
966	0.0270211
978	0.0373953
990	0.0745493
1002	0.181267
1014	0.184886
1026	0.220753
1038	0.434911
1050	0.477454
1062	0.257746
1074	0.184001
1086	0.328516
1098	0.389635
1110	0.206197
1122	0.137116
1134	0.211344
1146	0.106154
1158	0.068357
1170	0.086934
1182	0.0978711
1194	0.115001
1206	0.106878
1218	0.0608779
1230	0.0679549
1242	0.122319
1254	0.258148
1266	0.295383
1278	0.206358
1290	0.107843
1302	0.0699654
1314	0.0685983
1326	0.0847627
1338	0.117574
1350	0.154326
1362	0.142906
1374	0.186816
1386	0.180141
1398	0.101088
1410	0.0640947
1422	0.081948
1434	0.166711
1446	0.262893
1458	0.200326
1470	0.203382
1482	0.185529
1494	0.0488954
1506	0.0398883
1518	0.0246889
1530	0.0152798
1542	0.028147
1554	0.0225176
1566	0.038682
1578	0.0721367
1590	0.0470457
1602	0.0388429
1614	0.0165665
1626	0.0113392
1638	0.0131085
1650	0.0144756
1662	0.0076399
1674	0.0151994
1686	0.0222763
1698	0.0248498
1710	0.0149581
1722	0.0108567
1734	0.0198637
1746	0.0092483
1758	0.00667486
1770	0.0117413
1782	0.00772032
1794	0.0207484
1806	0.02107
1818	0.00908746
1830	0.0152798
1842	0.0115001
1854	0.00377974
1866	0.00514688
1878	0.0032168
1890	0.0140735
1902	0.0119826
1914	0.0224372
1926	0.0205071
1938	0.00852452
1950	0.0180141
1962	0.0108567
1974	0.0028147
1986	0.00377974
1998	0.00305596
2010	0.0044231
2022	0.0028147
2034	0.00136714
2046	0.00297554
2058	0.00096504
2070	0.00209092
2082	0.00418184
2094	0.00176924
2106	0.00313638
2118	0.004021
2130	0.00193008
2142	0.00289512
2154	0.00209092
2166	0.00233218
2178	0.00313638
2190	0.00305596
2202	0.00184966
2214	0.0028147
2226	0.00289512
2238	0.00249302
2250	0.00369932
2262	0.0032168
2274	0.0012063
2286	0.00273428
2298	0.00627276
2310	0.00675528
2322	0.00699654
2334	0.00788116
2346	0.00152798
2358	0.0197029
2370	0.00193008
2382	0.00072378
2394	0.00707696
2406	0.00611192
2418	0.00498604
2430	0.00570982
2442	0.00377974
2454	0.00305596
2466	0.00410142
2478	0.0044231
2490	0.00498604
2502	0.00273428
2514	0.00530772
2526	0.00651402
2538	0.00418184
2550	0.00731822
2562	0.00329722
2574	0.00345806
2586	0.00796158
2598	0.00458394
2610	0.00780074
2622	0.0072378
2634	0.00587066
2646	0.00755948
2658	0.00554898
2670	0.00426226
2682	0.00369932
2694	0.00587066
2706	0.00828326
2718	0.00410142
2730	0.008042
2742	0.00852452
2754	0.00611192
2766	0.0106959
2778	0.00699654
2790	0.0052273
2802	0.0109371
2814	0.0115805
2826	0.0139931
2838	0.0157623
2850	0.0161644
2862	0.0260561
2874	0.052273
2886	0.0659444
2898	0.0596716
2910	0.0743885
2922	0.110497
2934	0.149501
2946	0.128592
2958	0.0745493
2970	0.128913
2982	0.288145
2994	0.282998
3006	0.0780074
3018	0.0387624
3030	0.0465632
3042	0.033133
3054	0.0394058
3066	0.119424
3078	0.209816
3090	0.111543
3102	0.0378778
3114	0.0156015
3126	0.0106154
3138	0.0103742
3150	0.0152798
3162	0.0106154
3174	0.010535
3186	0.0052273
3198	0.00329722
3210	0.0116609
3222	0.00490562
3234	0.00514688
3246	0.0076399
3258	0.0012063
3270	0.0088462
3282	0.0076399
3294	0.00184966
3306	0.0056294
3318	0.00313638
3330	0.00635318
3342	0.0056294
3354	0.00538814
3366	0.00587066
3378	0.00176924
3390	0.00989166
3402	0.00691612
3414	0.00297554
3426	0.00981124
3438	0.00554898
3450	0.00715738
3462	0.0107763
3474	0.00297554
3486	0.00635318
3498	0.010535
3510	0.00828326
3522	0.0102133
3534	0.008042
3546	0.00796158
3558	0.00900704
3570	0.0148777
3582	0.0127064
3594	0.0121434
3606	0.0212309
3618	0.0368324
3630	0.0613605
3642	0.111462
3654	0.141539
3666	0.0931264
3678	0.0410142
3690	0.024126
3702	0.0133497
3714	0.015119
3726	0.012063
3738	0.0160036
3750	0.0161644
3762	0.00916788
3774	0.00667486
3786	0.00772032
3798	0.0103742
3810	0.0076399
3822	0.0106154
3834	0.014556
3846	0.0124651
3858	0.0128672
3870	0.0158427
3882	0.00747906
3894	0.0148777
3906	0.0127064
3918	0.00755948
3930	0.0119826
3942	0.00836368
3954	0
3966	0.00088462
