Infrared Spectrum: 3-(Methylthio)propanoic acid methyl ester
Formula: C 5 H 10 O 2 S
CAS: 13532-18-8
Origin: Sadtler Research Labs Under US-EPA Contract
1/CM	ABSORBANCE
450	0.0141454
462	0.0174011
474	0.0067359
486	0.00999158
498	0.00785855
510	0.00617457
522	0.00482739
534	0
546	0.0067359
558	0.00527646
570	0.00920573
582	0.011002
594	0.0108897
606	0.0125737
618	0.00999158
630	0.0154926
642	0.0153803
654	0.0198709
666	0.033455
678	0.0362616
690	0.0147067
702	0.0106652
714	0.0116756
726	0.0113388
738	0.011451
750	0.0107774
762	0.0166152
774	0.0194218
786	0.0194218
798	0.0220039
810	0.0373842
822	0.0541117
834	0.0446815
846	0.0316587
858	0.029638
870	0.0286276
882	0.0287398
894	0.0281785
906	0.0249228
918	0.0223407
930	0.0271681
942	0.0327814
954	0.039405
966	0.0469268
978	0.0596127
990	0.0963234
1002	0.097446
1014	0.095762
1026	0.133371
1038	0.143362
1050	0.104856
1062	0.0571429
1074	0.0331182
1086	0.0325568
1098	0.0450183
1110	0.0744317
1122	0.134493
1134	0.272018
1146	0.490598
1158	0.546618
1170	0.557283
1182	0.480943
1194	0.472411
1206	0.537974
1218	0.591187
1230	0.554589
1242	0.620489
1254	0.515409
1266	0.270895
1278	0.188493
1290	0.179849
1302	0.159192
1314	0.146281
1326	0.177715
1338	0.220264
1350	0.331406
1362	0.316475
1374	0.133259
1386	0.0562448
1398	0.0456919
1410	0.0648892
1422	0.120909
1434	0.277519
1446	0.343868
1458	0.127309
1470	0.0735336
1482	0.0462532
1494	0.0312097
1506	0.0258209
1518	0.0218917
1530	0.0197586
1542	0.0218917
1554	0.0208813
1566	0.0205445
1578	0.019085
1590	0.0156048
1602	0.0135841
1614	0.0122369
1626	0.0125737
1638	0.0116756
1650	0.0135841
1662	0.0117878
1674	0.015268
1686	0.0200954
1698	0.0282908
1710	0.0473758
1722	0.0947517
1734	0.205557
1746	0.532136
1758	1.0508
1770	0.975246
1782	0.377323
1794	0.120011
1806	0.0464777
1818	0.0212181
1830	0.0133595
1842	0.00999158
1854	0.00785855
1866	0.00797081
1878	0.00662364
1890	0.00561325
1902	0.00460287
1914	0.00437833
1926	0.00493966
1938	0.00617457
1950	0.00752175
1962	0.00954252
1974	0.0104406
1986	0.0089812
1998	0.00909347
2010	0.0101038
2022	0.011451
2034	0.0125737
2046	0.0126859
2058	0.0116756
2070	0.00999158
2082	0.00785855
2094	0.00651137
2106	0.00561325
2118	0.00505192
2130	0.00505192
2142	0.00482739
2154	0.00404154
2166	0.00359248
2178	0.00258209
2190	0.0022453
2202	0.00157171
2214	0.00101038
2226	0.00157171
2238	0.00179624
2250	0.00202077
2262	0.00190851
2274	0.0022453
2286	0.00235756
2298	0.00258209
2310	0.00269436
2322	0.00213304
2334	0.00246983
2346	0.00516419
2358	0.00269436
2370	0.00516419
2382	0.0041538
2394	0.0022453
2406	0.00235756
2418	0.00145944
2430	0.00157171
2442	0.00134718
2454	0.00112265
2466	0.00101038
2478	0.00089812
2490	0.00067359
2502	0.000336795
2514	0.000336795
2526	0.000112265
2538	0
2550	0.00044906
2562	0.00101038
2574	0.00145944
2586	0.00202077
2598	0.00190851
2610	0.00258209
2622	0.00190851
2634	0.00190851
2646	0.00246983
2658	0.00280663
2670	0.00246983
2682	0.00190851
2694	0.00190851
2706	0.00190851
2718	0.00179624
2730	0.00190851
2742	0.00235756
2754	0.00314342
2766	0.00381701
2778	0.00404154
2790	0.00527646
2802	0.00662364
2814	0.0113388
2826	0.0217794
2838	0.0442324
2850	0.0884648
2862	0.0752175
2874	0.0489475
2886	0.0455796
2898	0.0615212
2910	0.11249
2922	0.227786
2934	0.280887
2946	0.211395
2958	0.299523
2970	0.283132
2982	0.156497
2994	0.159641
3006	0.131462
3018	0.0857705
3030	0.0715128
3042	0.0515296
3054	0.0310974
3066	0.0234634
3078	0.0205445
3090	0.0182992
3102	0.016952
3114	0.014819
3126	0.0113388
3138	0.0101038
3150	0.00841988
3162	0.00718496
3174	0.00471513
3186	0.00437833
3198	0.00471513
3210	0.00314342
3222	0.00258209
3234	0.00280663
3246	0.00213304
3258	0.00213304
3270	0.0022453
3282	0.00291889
3294	0.00280663
3306	0.00258209
3318	0.00235756
3330	0.00213304
3342	0.00235756
3354	0.00168397
3366	0.00157171
3378	0.0022453
3390	0.00190851
3402	0.00269436
3414	0.00168397
3426	0.00179624
3438	0.0022453
3450	0.00202077
3462	0.00235756
3474	0.00370474
3486	0.00538872
3498	0.00999158
3510	0.0105529
3522	0.00550098
3534	0.00190851
3546	0.000785855
3558	0.00067359
3570	0.00112265
3582	0.00157171
3594	0.00067359
3606	0.00168397
3618	0.00089812
3630	0.00123492
3642	0.0022453
3654	0.00123492
3666	0.00168397
3678	0.00134718
3690	0.00190851
3702	0.00145944
3714	0.00157171
3726	0.00145944
3738	0.00179624
3750	0.000561325
3762	0.00112265
3774	0.00134718
3786	0.00022453
3798	0.00258209
3810	0.00168397
3822	0.000561325
3834	0.00202077
3846	0.00179624
3858	0.00235756
3870	0
3882	0.00213304
3894	0.00101038
3906	0.00280663
3918	0.00112265
3930	0.000336795
3942	0.00179624
3954	0.00303115
3966	0.00101038
