Infrared Spectrum: N-(o-Tolyl)ethanolamine
Formula: C 9 H 13 N O
CAS: 136-80-1
Origin: Sadtler Research Labs Under US-EPA Contract
1/CM	ABSORBANCE
450	0.0300007
462	0.0250627
474	0.0264603
486	0.0159321
498	0.00577654
510	0.00810579
522	0.0149072
534	0.0210564
546	0.0134165
558	0.0103419
570	0.0115531
582	0.0169569
594	0.019752
606	0.00950334
618	0.00223608
630	0.00354046
642	0.00894432
654	0.0100624
666	0.010435
678	0.0133233
690	0.017516
702	0.0463987
714	0.130438
726	0.177489
738	0.398022
750	0.463055
762	0.155035
774	0.0288827
786	0.00484484
798	0.00130438
810	0.00354046
822	0.0009317
834	0.00102487
846	0.00754677
858	0.0215223
870	0.0368953
882	0.0464918
894	0.0604673
906	0.06466
918	0.0567405
930	0.0307461
942	0.0170501
954	0.0165843
966	0.0261808
978	0.0552498
990	0.0780765
1002	0.0753745
1014	0.111897
1026	0.209819
1038	0.411159
1050	0.586412
1062	0.438365
1074	0.329263
1086	0.198732
1098	0.117487
1110	0.0866481
1122	0.109754
1134	0.164072
1146	0.136308
1158	0.111431
1170	0.107332
1182	0.109754
1194	0.137612
1206	0.139289
1218	0.138078
1230	0.175346
1242	0.274199
1254	0.48467
1266	0.485602
1278	0.307461
1290	0.268795
1302	0.371282
1314	0.443769
1326	0.221372
1338	0.118978
1350	0.123916
1362	0.135283
1374	0.126898
1386	0.148886
1398	0.123171
1410	0.0954061
1422	0.09699
1434	0.166961
1446	0.362431
1458	0.411718
1470	0.388333
1482	0.359077
1494	0.443676
1506	0.837412
1518	0.770795
1530	0.222956
1542	0.0954061
1554	0.0762131
1566	0.0853437
1578	0.216807
1590	0.401749
1602	0.480291
1614	0.405662
1626	0.0930768
1638	0.0452806
1650	0.0287895
1662	0.0308393
1674	0.0253422
1686	0.0199384
1698	0.0236652
1710	0.0272056
1722	0.0187272
1734	0.0150004
1746	0.0208701
1758	0.023572
1770	0.0177955
1782	0.0200316
1794	0.018075
1806	0.0135096
1818	0.00968968
1830	0.00950334
1842	0.0117394
1854	0.0107145
1866	0.0165843
1878	0.0261808
1890	0.0168638
1902	0.0156526
1914	0.0233857
1926	0.0163047
1938	0.00922383
1950	0.00736043
1962	0.0065219
1974	0.00484484
1986	0.0037268
1998	0.00316778
2010	0.00204974
2022	0.00083853
2034	0.00111804
2046	0.00167706
2058	0.00270193
2070	0.00326095
2082	0.00251559
2094	0.00223608
2106	0.00260876
2118	0.00270193
2130	0.00307461
2142	0.00214291
2154	0.00139755
2166	0.00074536
2178	0
2190	0.00027951
2202	0.00083853
2214	0.00065219
2226	0.00037268
2238	0.00018634
2250	0.00027951
2262	0.0009317
2274	0.00121121
2286	0.00083853
2298	0.00111804
2310	0.00167706
2322	0.00354046
2334	0.0037268
2346	0.0037268
2358	0.00326095
2370	0.00242242
2382	0.00270193
2394	0.00260876
2406	0.00335412
2418	0.00381997
2430	0.00326095
2442	0.0027951
2454	0.0027951
2466	0.00298144
2478	0.00270193
2490	0.00251559
2502	0.00316778
2514	0.00400631
2526	0.00493801
2538	0.00680141
2550	0.00913066
2562	0.0112736
2574	0.0118326
2586	0.00987602
2598	0.0083853
2610	0.00819896
2622	0.00717409
2634	0.0055902
2646	0.00633556
2658	0.00773311
2670	0.0107145
2682	0.0150004
2694	0.0210564
2706	0.0237584
2718	0.0220813
2730	0.0264603
2742	0.0333549
2754	0.0321437
2766	0.0309324
2778	0.0351251
2790	0.0433241
2802	0.0558088
2814	0.0747223
2826	0.104257
2838	0.147022
2850	0.214198
2862	0.299262
2874	0.365226
2886	0.401376
2898	0.370164
2910	0.354046
2922	0.428209
2934	0.4979
2946	0.50582
2958	0.432681
2970	0.302057
2982	0.223888
2994	0.125127
3006	0.0987602
3018	0.183359
3030	0.214291
3042	0.175439
3054	0.195377
3066	0.232552
3078	0.234043
3090	0.151494
3102	0.0760267
3114	0.0423924
3126	0.0287895
3138	0.0156526
3150	0.00885115
3162	0.00642873
3174	0.00484484
3186	0.00400631
3198	0.0037268
3210	0.00214291
3222	0.00139755
3234	0.00111804
3246	0.00158389
3258	0.00121121
3270	0.0009317
3282	0.00046585
3294	0.0009317
3306	0.00083853
3318	0.0009317
3330	0.00055902
3342	0.00149072
3354	0.00177023
3366	0.00409948
3378	0.00586971
3390	0.00801262
3402	0.0129506
3414	0.0277647
3426	0.059722
3438	0.0698775
3450	0.0584176
3462	0.0488211
3474	0.0352183
3486	0.0226403
3498	0.0141618
3510	0.00959651
3522	0.00847847
3534	0.00885115
3546	0.00941017
3558	0.0107145
3570	0.0129506
3582	0.0174228
3594	0.0264603
3606	0.0358704
3618	0.0389451
3630	0.0359636
3642	0.0373612
3654	0.0572064
3666	0.0855301
3678	0.094288
3690	0.0555293
3702	0.0204042
3714	0.0117394
3726	0.00791945
3738	0.00549703
3750	0.0027951
3762	0.00214291
3774	0.0009317
3786	0.00102487
3798	0.00167706
3810	0.00027951
3822	0.00111804
3834	0.00195657
3846	0.00177023
3858	0.00428582
3870	0.00363363
3882	0.00409948
3894	0.00391314
3906	0.00223608
3918	0.00195657
3930	0.00251559
3942	0.00149072
3954	0.00223608
3966	0.00177023
