Infrared Spectrum: Benzoic acid, butyl ester
Formula: C 11 H 14 O 2
CAS: 136-60-7
Origin: Sadtler Research Labs Under US-EPA Contract
1/CM	ABSORBANCE
450	0.0149849
462	0.0154972
474	0.0138322
486	0.00806879
498	0.00525112
510	0.00832494
522	0.0131918
534	0.00358613
546	0.00922147
558	0.00832494
570	0.00832494
582	0.00512304
594	0.0146007
606	0.00896532
618	0.0096057
630	0.00832494
642	0.00806879
654	0.00922147
666	0.016778
678	0.0558411
690	0.0635257
702	0.177129
714	0.250132
726	0.0788948
738	0.0290733
750	0.0190833
762	0.0154972
774	0.0133199
786	0.0128076
798	0.0161376
810	0.0148568
822	0.0170341
834	0.0227975
846	0.0222852
858	0.0162657
870	0.013448
882	0.0129357
894	0.011783
906	0.013448
918	0.013448
930	0.0225414
942	0.037014
954	0.0339401
966	0.0352209
978	0.0245906
990	0.0238221
1002	0.0242064
1014	0.0285609
1026	0.130125
1038	0.0429055
1050	0.0352209
1062	0.0995151
1074	0.115012
1086	0.130766
1098	0.380258
1110	0.55649
1122	0.244753
1134	0.104638
1146	0.0764614
1158	0.0596834
1170	0.0815844
1182	0.144726
1194	0.0365017
1206	0.0309944
1218	0.0431616
1230	0.0981062
1242	0.215296
1254	0.295087
1266	1.00552
1278	0.975683
1290	0.222596
1302	0.104894
1314	0.128716
1326	0.0712103
1338	0.0443143
1350	0.0394474
1362	0.0335559
1374	0.0340682
1386	0.0586588
1398	0.0427774
1410	0.0217729
1422	0.0204922
1434	0.0272802
1446	0.0587869
1458	0.0874759
1470	0.0603238
1482	0.0381666
1494	0.0236941
1506	0.0153691
1518	0.0125514
1530	0.0105022
1542	0.0106303
1554	0.0135761
1566	0.0133199
1578	0.0186991
1590	0.0249748
1602	0.033684
1614	0.0231818
1626	0.0116549
1638	0.0126795
1650	0.011783
1662	0.0103742
1674	0.0113988
1686	0.0190833
1698	0.0266398
1710	0.0348367
1722	0.106943
1734	0.458512
1746	0.635129
1758	0.156637
1770	0.0581465
1782	0.0339401
1794	0.0244625
1806	0.0186991
1818	0.0160095
1830	0.00678803
1842	0.00537919
1854	0.00499496
1866	0.00409843
1878	0.00499496
1890	0.00614765
1902	0.00947762
1914	0.0115268
1926	0.00870917
1938	0.00653188
1950	0.0090934
1962	0.0096057
1974	0.00794071
1986	0.00358613
1998	0.00294575
2010	0.00294575
2022	0.00294575
2034	0.00384228
2046	0.00435458
2058	0.00512304
2070	0.00512304
2082	0.00499496
2094	0.00422651
2106	0.0037142
2118	0.00332998
2130	0.0026896
2142	0.00179306
2154	0.00166499
2166	0.00140884
2178	0.00153691
2190	0.00128076
2202	0.00153691
2214	0.00192114
2226	0.00192114
2238	0.00166499
2250	0.00179306
2262	0.00166499
2274	0.00140884
2286	0.00102461
2298	0.000896532
2310	0.000384228
2322	0.00217729
2334	0.00140884
2346	0.00179306
2358	0.00179306
2370	0.00332998
2382	0.00332998
2394	0.00243344
2406	0.00192114
2418	0.00192114
2430	0.00153691
2442	0.00128076
2454	0.00128076
2466	0.000512304
2478	0.00102461
2490	0.00102461
2502	0.00115268
2514	0.00115268
2526	0.00166499
2538	0.00179306
2550	0.00153691
2562	0.00140884
2574	0.00192114
2586	0.00217729
2598	0.00256152
2610	0.00204922
2622	0.00153691
2634	0.00153691
2646	0.00166499
2658	0.00192114
2670	0.00230537
2682	0.00256152
2694	0.00256152
2706	0.0032019
2718	0.00332998
2730	0.00435458
2742	0.00473881
2754	0.0058915
2766	0.00614765
2778	0.00563534
2790	0.00563534
2802	0.00653188
2814	0.00794071
2826	0.0107584
2838	0.0143445
2850	0.025359
2862	0.0412405
2874	0.0672399
2886	0.0983624
2898	0.0801756
2910	0.0844021
2922	0.108224
2934	0.135761
2946	0.185838
2958	0.193395
2970	0.278821
2982	0.170981
2994	0.0687768
3006	0.0357332
3018	0.0262556
3030	0.0258714
3042	0.0352209
3054	0.0377824
3066	0.0470039
3078	0.0767175
3090	0.0358613
3102	0.0306102
3114	0.0158814
3126	0.00653188
3138	0.00448266
3150	0.00397036
3162	0.00448266
3174	0.00473881
3186	0.00307382
3198	0.00294575
3210	0.00243344
3222	0.00179306
3234	0.00192114
3246	0.00166499
3258	0.000896532
3270	0.000768456
3282	0.00128076
3294	0.00102461
3306	0.00102461
3318	0.000896532
3330	0.00204922
3342	0.00140884
3354	0.00179306
3366	0.00153691
3378	0.00115268
3390	0.000896532
3402	0.00115268
3414	0.00166499
3426	0.00192114
3438	0.00140884
3450	0.00332998
3462	0.00576342
3474	0.00294575
3486	0.000768456
3498	0.000256152
3510	0.00115268
3522	0.00166499
3534	0.00128076
3546	0.00128076
3558	0.00102461
3570	0.00345805
3582	0.00794071
3594	0.00845302
3606	0.00217729
3618	0.00256152
3630	0.00179306
3642	0.00217729
3654	0.00294575
3666	0.00294575
3678	0.00345805
3690	0.00281767
3702	0.00230537
3714	0.00256152
3726	0.00230537
3738	0.00204922
3750	0.00153691
3762	0.00140884
3774	0.00102461
3786	0.00192114
3798	0.000768456
3810	0.00166499
3822	0
3834	0.00128076
3846	0.000896532
3858	0.000384228
3870	0.000768456
3882	0.000128076
3894	0.00115268
3906	0.00204922
3918	0.00115268
3930	0.00166499
3942	0.00102461
3954	0.00192114
3966	0.00192114
