Infrared Spectrum: Sulfone, 2-butynyl phenyl,
Formula: C 10 H 10 O 2 S
CAS: 13603-84-4
Origin: Sadtler Research Labs Under US-EPA Contract
1/CM	ABSORBANCE
450	0.0158829
462	0.00983613
474	0.00120936
486	0.00209622
498	0.00733678
510	0.0350714
522	0.260738
534	0.342007
546	0.0654667
558	0.252917
570	0.333461
582	0.0747384
594	0.144317
606	0.0415214
618	0.0077399
630	0.00290246
642	0.00733678
654	0.0140286
666	0.0279765
678	0.0879608
690	0.226957
702	0.105134
714	0.0941688
726	0.153024
738	0.351763
750	0.158426
762	0.15633
774	0.150686
786	0.0399089
798	0.020156
810	0.00919114
822	0.00540181
834	0.00927176
846	0.0148348
858	0.0418439
870	0.149558
882	0.0877189
894	0.00935238
906	0.00330558
918	0.00354746
930	0.00427307
942	0.00249934
954	0.00249934
966	0.00386995
978	0.00548243
990	0.0103199
1002	0.017576
1014	0.0161248
1026	0.0357164
1038	0.017576
1050	0.0170923
1062	0.036442
1074	0.061758
1086	0.2222
1098	0.149477
1110	0.0374095
1122	0.0564368
1134	0.266462
1146	0.407393
1158	0.332413
1170	0.751577
1182	0.466894
1194	0.0948138
1206	0.0389414
1218	0.030879
1230	0.0378933
1242	0.0783665
1254	0.132143
1266	0.0568399
1278	0.0499063
1290	0.052325
1302	0.0590168
1314	0.0927176
1326	0.154959
1338	0.246387
1350	0.663213
1362	0.592022
1374	0.135771
1386	0.068611
1398	0.0684498
1410	0.0632898
1422	0.0428113
1434	0.0463588
1446	0.122065
1458	0.0715941
1470	0.033459
1482	0.0404732
1494	0.0281378
1506	0.0232197
1518	0.0187854
1530	0.0179792
1542	0.0184629
1554	0.0134642
1566	0.0131417
1578	0.0183823
1590	0.0187854
1602	0.0112874
1614	0.0103199
1626	0.00854614
1638	0.00782053
1650	0.00894926
1662	0.00822365
1674	0.0106424
1686	0.0115292
1698	0.0117711
1710	0.0077399
1722	0.00741741
1734	0.0097555
1746	0.00854614
1758	0.0103199
1770	0.0134642
1782	0.00967488
1794	0.010078
1806	0.0163667
1818	0.0122548
1830	0.00741741
1842	0.00548243
1854	0.00475682
1866	0.00467619
1878	0.00507931
1890	0.00983613
1902	0.0114486
1914	0.0101586
1926	0.00524056
1938	0.0057243
1950	0.0116905
1962	0.0133836
1974	0.00967488
1986	0.00362808
1998	0.00112874
2010	0.00040312
2022	0.000483744
2034	0.000644992
2046	0.00120936
2058	0.00185435
2070	0.00040312
2082	8.0624e-05
2094	0.000322496
2106	0.000322496
2118	0.000483744
2130	8.0624e-05
2142	8.0624e-05
2154	0.000161248
2166	0.00153186
2178	0.00217685
2190	0.0020156
2202	0.00306371
2214	0.00612742
2226	0.0135448
2238	0.0253966
2250	0.0236228
2262	0.00951363
2274	0.00612742
2286	0.00532118
2298	0.00733678
2310	0.0124161
2322	0.0144317
2334	0.00644992
2346	0.00515994
2358	0.0037087
2370	0.00193498
2382	0.0037087
2394	0.00241872
2406	0.0023381
2418	0.00153186
2430	0.0020156
2442	0.00257997
2454	0.00209622
2466	0.00209622
2478	0.00306371
2490	0.00467619
2502	0.0037087
2514	0.00274122
2526	0.00282184
2538	0.0023381
2550	0.00080624
2562	0.000967488
2574	0.00120936
2586	0.000967488
2598	0.000564368
2610	0.00120936
2622	0.000564368
2634	0.00040312
2646	0.000886864
2658	0.00193498
2670	0.00217685
2682	0.00145123
2694	0.000322496
2706	0.000483744
2718	0.000644992
2730	0.00161248
2742	0.00451494
2754	0.00475682
2766	0.00225747
2778	0.0020156
2790	0.00249934
2802	0.0023381
2814	0.00225747
2826	0.00314434
2838	0.00524056
2850	0.00943301
2862	0.0208816
2874	0.0299921
2886	0.0200754
2898	0.0157217
2910	0.0206397
2922	0.0536956
2934	0.119888
2946	0.0545824
2958	0.0226553
2970	0.0207204
2982	0.0207204
2994	0.0170923
3006	0.0206397
3018	0.0234616
3030	0.0250741
3042	0.026364
3054	0.0296696
3066	0.0776409
3078	0.123838
3090	0.0513575
3102	0.0236228
3114	0.00741741
3126	0.00451494
3138	0.00338621
3150	0.00338621
3162	0.00467619
3174	0.00459557
3186	0.00217685
3198	0.00161248
3210	0.000725616
3222	0.00104811
3234	0.00120936
3246	0.00120936
3258	0.000886864
3270	0.000725616
3282	0.000644992
3294	0.00112874
3306	0.000483744
3318	0.00040312
3330	0.00104811
3342	0.00128998
3354	0.0016931
3366	0.00209622
3378	0.00145123
3390	0.000725616
3402	0.00104811
3414	0.000483744
3426	0.000725616
3438	0.000967488
3450	0.00080624
3462	0.00161248
3474	0.000967488
3486	0.00137061
3498	0.000886864
3510	0.000322496
3522	0.000483744
3534	0.00040312
3546	0.00040312
3558	0.00112874
3570	0.000564368
3582	0.00112874
3594	0.00080624
3606	0.000967488
3618	0.000886864
3630	0.00145123
3642	0.00153186
3654	0.00161248
3666	0.00040312
3678	0.00217685
3690	0.00177373
3702	0.00249934
3714	0.0023381
3726	0.00145123
3738	0.00153186
3750	0.00104811
3762	0.00225747
3774	0.00104811
3786	0.00290246
3798	0.00161248
3810	0.000967488
3822	0.00209622
3834	0.00120936
3846	0.00177373
3858	0.00249934
3870	0.000564368
3882	0.00185435
3894	0.00137061
3906	0.00177373
3918	0.00112874
3930	0.00225747
3942	0.0023381
3954	0.0020156
3966	0.0020156
