Infrared Spectrum: Ethanone, 1-(2,3,4-trichlorophenyl)-
Formula: C 8 H 5 Cl 3 O
CAS: 13608-87-2
Origin: Sadtler Research Labs Under US-EPA Contract
1/CM	ABSORBANCE
450	0.0102582
462	0.00338521
474	0.00441103
486	0.0153873
498	0.0604208
510	0.108327
522	0.139922
534	0.0598053
546	0.0173364
558	0.00923238
570	0.00964271
582	0.0174389
594	0.0202087
606	0.0680119
618	0.080014
630	0.0465722
642	0.0698583
654	0.0155925
666	0.00543685
678	0.00256455
690	0.00215422
702	0.00605234
714	0.000102582
726	0.00666783
738	0.0141563
750	0.0182596
762	0.123509
774	0.194701
786	0.0451361
798	0.0621647
810	0.245581
822	0.276048
834	0.267329
846	0.215114
858	0.05006
870	0.0271842
882	0.0160028
894	0.0104634
906	0.00974529
918	0.0062575
930	0.0108737
942	0.0211319
954	0.0474955
966	0.11879
978	0.0708842
990	0.0368269
1002	0.0310823
1014	0.0337495
1026	0.0378528
1038	0.0367244
1050	0.0339546
1062	0.0506755
1074	0.0745771
1086	0.0200035
1098	0.0455464
1110	0.110891
1122	0.0677041
1134	0.0523168
1146	0.0720126
1158	0.261994
1170	0.581435
1182	0.372167
1194	0.13787
1206	0.0820656
1218	0.0756029
1230	0.158592
1242	0.336674
1254	0.648934
1266	0.828863
1278	0.162387
1290	0.051291
1302	0.031903
1314	0.0341598
1326	0.0592924
1338	0.123098
1350	0.385401
1362	0.808654
1374	0.338726
1386	0.132639
1398	0.074372
1410	0.0671912
1422	0.102479
1434	0.230604
1446	0.152745
1458	0.0546762
1470	0.0378528
1482	0.0295436
1494	0.0235939
1506	0.0226706
1518	0.0282101
1530	0.0439051
1542	0.0714997
1554	0.100017
1566	0.266918
1578	0.332058
1590	0.0509833
1602	0.0300565
1614	0.0271842
1626	0.0335443
1638	0.0338521
1650	0.0337495
1662	0.0432896
1674	0.0793985
1686	0.147513
1698	0.207523
1710	0.567278
1722	1.01956
1734	0.308156
1746	0.150796
1758	0.0904773
1770	0.0485213
1782	0.0361089
1794	0.0216448
1806	0.00964271
1818	0.00471877
1830	0.00266713
1842	0.00328262
1854	0.00482135
1866	0.00779623
1878	0.0131305
1890	0.015695
1902	0.0108737
1914	0.00564201
1926	0.0051291
1938	0.00410328
1950	0.0028723
1962	0.00153873
1974	0.00164131
1986	0.00143615
1998	0.00194906
2010	0.00184648
2022	0.000923238
2034	0.000718074
2046	0.000615492
2058	0.000307746
2070	0.000923238
2082	0.00133357
2094	0.00123098
2106	0.000923238
2118	0.000410328
2130	0.000410328
2142	0.000102582
2154	0.000102582
2166	0.00051291
2178	0.00133357
2190	0.00194906
2202	0.00256455
2214	0.00194906
2226	0.000718074
2238	0.000410328
2250	0.000102582
2262	0.000102582
2274	0.000410328
2286	0.0011284
2298	0.00215422
2310	0.00359037
2322	0.00430844
2334	0.00276971
2346	0.00205164
2358	0.00153873
2370	0.000923238
2382	0.0022568
2394	0.00123098
2406	0.0011284
2418	0.00133357
2430	0.00133357
2442	0.0011284
2454	0.00153873
2466	0.00235939
2478	0.00359037
2490	0.00574459
2502	0.00687299
2514	0.00492394
2526	0.00256455
2538	0.0011284
2550	0.00102582
2562	0.000718074
2574	0.000820656
2586	0.00153873
2598	0.0022568
2610	0.00256455
2622	0.00256455
2634	0.00194906
2646	0.00184648
2658	0.00143615
2670	0.00153873
2682	0.00266713
2694	0.00164131
2706	0.00102582
2718	0.00051291
2730	0.00051291
2742	0.000410328
2754	0.000718074
2766	0.00102582
2778	0.00164131
2790	0.00205164
2802	0.00266713
2814	0.00297488
2826	0.00318004
2838	0.00369295
2850	0.00359037
2862	0.00348779
2874	0.00369295
2886	0.00410328
2898	0.00471877
2910	0.00636008
2922	0.010053
2934	0.0167209
2946	0.0141563
2958	0.0126176
2970	0.0157976
2982	0.0188751
2994	0.0212345
3006	0.0269791
3018	0.0324159
3030	0.0254403
3042	0.0180544
3054	0.0157976
3066	0.0163105
3078	0.0163105
3090	0.0148744
3102	0.00984787
3114	0.00697558
3126	0.00482135
3138	0.00369295
3150	0.00318004
3162	0.00235939
3174	0.00205164
3186	0.00184648
3198	0.00164131
3210	0.00123098
3222	0.00123098
3234	0.00123098
3246	0.00123098
3258	0.00133357
3270	0.00133357
3282	0.00123098
3294	0.00184648
3306	0.00143615
3318	0.00133357
3330	0.00143615
3342	0.00184648
3354	0.00194906
3366	0.00297488
3378	0.00410328
3390	0.00553943
3402	0.00861689
3414	0.0133357
3426	0.0115918
3438	0.00697558
3450	0.00471877
3462	0.00297488
3474	0.00164131
3486	0.00133357
3498	0.0011284
3510	0.000820656
3522	0.000615492
3534	0.00123098
3546	0.000718074
3558	0.000820656
3570	0.000820656
3582	0.00133357
3594	0.0011284
3606	0.000923238
3618	0.000923238
3630	0.000102582
3642	0.00102582
3654	0.000923238
3666	0.000820656
3678	0.00133357
3690	0.000718074
3702	0.000718074
3714	0.00153873
3726	0.000205164
3738	0.00133357
3750	0.000102582
3762	0.000102582
3774	0.000410328
3786	0.000718074
3798	0.000615492
3810	0.000923238
3822	0.000615492
3834	0.0011284
3846	0.00153873
3858	0.00102582
3870	0.000718074
3882	0.000307746
3894	0.000205164
3906	0.0022568
3918	0.000718074
3930	0.000102582
3942	0.0011284
3954	0.00205164
3966	0.00205164
