Infrared Spectrum: Propanamide, 2,2,3-trichloro-
Formula: C 3 H 4 Cl 3 N O
CAS: 13601-94-0
Origin: Sadtler Research Labs Under US-EPA Contract
1/CM	ABSORBANCE
450	0.0224282
462	0.0214374
474	0.0168437
486	0.0315255
498	0.0273822
510	0.0210771
522	0.041974
534	0.0564758
546	0.0491799
558	0.0262112
570	0.00369299
582	0.00288234
594	0
606	0.0165734
618	0.0487295
630	0.0436854
642	0.0702569
654	0.0765621
666	0.0856594
678	0.113222
690	0.129165
702	0.116645
714	0.064222
726	0.0508012
738	0.0683654
750	0.155646
762	0.161681
774	0.0837679
786	0.0860197
798	0.0569261
810	0.0405329
822	0.0389115
834	0.0499004
846	0.070347
858	0.113132
870	0.109709
882	0.0609794
894	0.044406
906	0.0372902
918	0.0341377
930	0.0391818
942	0.0520622
954	0.0733194
966	0.062961
978	0.0771926
990	0.0778231
1002	0.0264815
1014	0.0150422
1026	0.0139613
1038	0.0145918
1050	0.0174742
1062	0.0213473
1074	0.0214374
1086	0.0171139
1098	0.0163032
1110	0.0199061
1122	0.0152223
1134	0.0101782
1146	0.00810657
1158	0.00792642
1170	0.0107187
1182	0.0156727
1194	0.025941
1206	0.0381009
1218	0.033327
1230	0.0172039
1242	0.0131507
1254	0.0155826
1266	0.0229686
1278	0.0442258
1290	0.0479188
1302	0.0443159
1314	0.0675547
1326	0.121689
1338	0.22185
1350	0.257879
1362	0.149341
1374	0.0484593
1386	0.0233289
1398	0.0169337
1410	0.0342277
1422	0.0709775
1434	0.0399023
1446	0.0105385
1458	0.00243197
1470	0.00558453
1482	0.00711577
1494	0.00540438
1506	0.00342277
1518	0.0046838
1530	0.00963781
1542	0.0151323
1554	0.0390016
1566	0.126372
1578	0.293007
1590	0.275083
1602	0.133578
1614	0.0578269
1626	0.0302645
1638	0.018555
1650	0.0127904
1662	0.0138712
1674	0.0145018
1686	0.0214374
1698	0.0532331
1710	0.107817
1722	0.152404
1734	0.416858
1746	0.852001
1758	0.560074
1770	0.156997
1782	0.077733
1794	0.0579169
1806	0.0237793
1818	0.011079
1830	0.00891723
1842	0.00855693
1854	0.00837679
1866	0.0066654
1878	0.00594482
1890	0.00459372
1902	0.00441358
1914	0.00360292
1926	0.00423343
1938	0.00441358
1950	0.00351285
1962	0.00342277
1974	0.00324263
1986	0.00306248
1998	0.0033327
2010	0.00342277
2022	0.00297241
2034	0.00297241
2046	0.00243197
2058	0.00243197
2070	0.00252204
2082	0.00225183
2094	0.00216175
2106	0.00225183
2118	0.00162131
2130	0.00189153
2142	0.00144117
2154	0.00180146
2166	0.00207168
2178	0.00207168
2190	0.00252204
2202	0.00261212
2214	0.00216175
2226	0.00243197
2238	0.0023419
2250	0.00189153
2262	0.00216175
2274	0.00216175
2286	0.00189153
2298	0.00216175
2310	0.00171139
2322	0.00261212
2334	0.00288234
2346	0.000450365
2358	0.00378307
2370	0.000990803
2382	0.00279226
2394	0.00180146
2406	0.00180146
2418	0.00207168
2430	0.00180146
2442	0.00144117
2454	0.00144117
2466	0.00117095
2478	0.000990803
2490	0.000990803
2502	0.000450365
2514	0.000810657
2526	0.000810657
2538	0.000810657
2550	0.000720584
2562	0.000360292
2574	0.000180146
2586	9.0073e-05
2598	9.0073e-05
2610	9.0073e-05
2622	0.000270219
2634	0.000270219
2646	0.000450365
2658	0.000450365
2670	0.000990803
2682	0.000810657
2694	0.000990803
2706	0.000990803
2718	0.00090073
2730	0.000630511
2742	0.000360292
2754	0.000540438
2766	0.000270219
2778	0.000720584
2790	0.000990803
2802	0.00144117
2814	0.00216175
2826	0.00387314
2838	0.00414336
2850	0.00369299
2862	0.00252204
2874	0.00171139
2886	0.00171139
2898	0.00180146
2910	0.00297241
2922	0.00369299
2934	0.00387314
2946	0.00342277
2958	0.00342277
2970	0.0117996
2982	0.0217977
2994	0.00918745
3006	0.00288234
3018	0.00324263
3030	0.00396321
3042	0.00315256
3054	0.00216175
3066	0.00252204
3078	0.00297241
3090	0.00351285
3102	0.00306248
3114	0.0023419
3126	0.0023419
3138	0.00288234
3150	0.00261212
3162	0.00216175
3174	0.00117095
3186	0.00108088
3198	0.000810657
3210	0.000360292
3222	0.000810657
3234	0.000540438
3246	0.000720584
3258	0.00090073
3270	0.000810657
3282	0.000540438
3294	0.0013511
3306	0.00198161
3318	0.00225183
3330	0.00288234
3342	0.00306248
3354	0.00297241
3366	0.00351285
3378	0.00558453
3390	0.0117095
3402	0.0237793
3414	0.0444961
3426	0.0789039
3438	0.126733
3450	0.0846686
3462	0.0223381
3474	0.0145918
3486	0.0155826
3498	0.022158
3510	0.033327
3522	0.0580971
3534	0.0795345
3546	0.11052
3558	0.188253
3570	0.0931355
3582	0.0107187
3594	0.00378307
3606	0.0013511
3618	0.0013511
3630	0.00216175
3642	0.000270219
3654	0.00108088
3666	0.00180146
3678	0.000360292
3690	0.000990803
3702	0.00108088
3714	0.00108088
3726	0.00180146
3738	0.000990803
3750	0.00288234
3762	0.00198161
3774	0.00126102
3786	0.00171139
3798	0.000990803
3810	0.00108088
3822	0.00126102
3834	0.00153124
3846	0.00162131
3858	0.00144117
3870	0.00117095
3882	0.000810657
3894	0.00090073
3906	0.000630511
3918	0.000810657
3930	0.00117095
3942	0.00117095
3954	0.0013511
3966	0.0023419
