Infrared Spectrum: p-Toluidine, N-methyl-.alpha.-phenyl-thio-,
Formula: C 14 H 15 N S
CAS: 13641-21-9
Origin: Sadtler Research Labs Under US-EPA Contract
1/CM	ABSORBANCE
450	0.0343241
462	0.0531601
474	0.0438157
486	0.0303877
498	0.0247222
510	0.0221102
522	0.018652
534	0.0128762
546	0.00456184
558	0.00345817
570	0.00106688
582	0.00154514
594	0.00371569
606	0.00426752
618	0.00662202
630	0.00776248
642	0.0103009
654	0.0225517
666	0.0504377
678	0.0892501
690	0.188286
702	0.152785
714	0.17655
726	0.232212
738	0.253035
750	0.139246
762	0.0394746
774	0.01604
786	0.0157457
798	0.0352071
810	0.074277
822	0.0485615
834	0.00967551
846	0.00389963
858	0.00559193
870	0.00750496
882	0.00846147
894	0.0124715
906	0.0164447
918	0.0133912
930	0.00905009
942	0.00673239
954	0.00533441
966	0.00404679
978	0.00412037
990	0.00456184
1002	0.00893973
1014	0.0353174
1026	0.0654108
1038	0.0271871
1050	0.0151939
1062	0.032779
1074	0.0366786
1086	0.0646751
1098	0.0632403
1110	0.0500698
1122	0.0472739
1134	0.0310867
1146	0.0297623
1158	0.0345449
1170	0.0483775
1182	0.0639761
1194	0.0188728
1206	0.0216687
1218	0.0278861
1230	0.046906
1242	0.0512103
1254	0.0740195
1266	0.0920829
1278	0.047421
1290	0.0384445
1302	0.088919
1314	0.0996982
1326	0.0435214
1338	0.0193142
1350	0.0242072
1362	0.0194982
1374	0.0203811
1386	0.0191303
1398	0.0279964
1410	0.043411
1422	0.0556618
1434	0.0982266
1446	0.0871899
1458	0.0840997
1470	0.155066
1482	0.214885
1494	0.155029
1506	0.181811
1518	0.364873
1530	0.133397
1542	0.0378559
1554	0.0342873
1566	0.0647486
1578	0.133875
1590	0.143514
1602	0.140166
1614	0.159296
1626	0.0581634
1638	0.0213008
1650	0.0105217
1662	0.00820395
1674	0.00595982
1686	0.00665881
1698	0.0076889
1710	0.013943
1722	0.0144213
1734	0.0108895
1746	0.0104113
1758	0.00860863
1770	0.00956514
1782	0.0141638
1794	0.0136119
1806	0.0093812
1818	0.00673239
1830	0.00610697
1842	0.00912367
1854	0.0141638
1866	0.0163343
1878	0.0142373
1890	0.00765211
1902	0.00489294
1914	0.00607019
1926	0.0107424
1938	0.0142741
1950	0.0146788
1962	0.00842468
1974	0.00345817
1986	0.00257523
1998	0.0023545
2010	0.00239129
2022	0.00228092
2034	0.00213376
2046	0.00172908
2058	0.00209697
2070	0.00228092
2082	0.00228092
2094	0.00220734
2106	0.00239129
2118	0.00213376
2130	0.00158193
2142	0.00139798
2154	0.00154514
2166	0.00183945
2178	0.00180266
2190	0.00209697
2202	0.00191303
2214	0.00121404
2226	0.000625413
2238	0.00180266
2250	0.00264881
2262	0.00305349
2274	0.00345817
2286	0.00389963
2298	0.00507688
2310	0.00695312
2322	0.00706349
2334	0.00485615
2346	0.00595982
2358	0.00456184
2370	0.00305349
2382	0.0046722
2394	0.00297991
2406	0.0026856
2418	0.00283275
2430	0.00309028
2442	0.00253844
2454	0.00250165
2466	0.0023545
2478	0.00257523
2490	0.00242807
2502	0.00279596
2514	0.00294312
2526	0.00353174
2538	0.0036789
2550	0.00437789
2562	0.00577587
2574	0.00783606
2586	0.00890294
2598	0.00790963
2610	0.00618055
2622	0.00492973
2634	0.00441468
2646	0.00386285
2658	0.00441468
2670	0.00492973
2682	0.00492973
2694	0.00529762
2706	0.00577587
2718	0.00662202
2730	0.00710028
2742	0.00802
2754	0.00923404
2766	0.0110735
2778	0.0141638
2790	0.02005
2802	0.0325951
2814	0.0506217
2826	0.0452137
2838	0.0422338
2850	0.0470531
2862	0.0477521
2874	0.0571701
2886	0.0703038
2898	0.0776984
2910	0.0814876
2922	0.0905009
2934	0.0819659
2946	0.059451
2958	0.0464645
2970	0.0403575
2982	0.0470531
2994	0.0501802
3006	0.0565079
3018	0.0778087
3030	0.0852033
3042	0.0707085
3054	0.0828488
3066	0.158229
3078	0.180634
3090	0.12946
3102	0.057023
3114	0.0147156
3126	0.00599661
3138	0.00445147
3150	0.00470899
3162	0.00323743
3174	0.00161872
3186	0.000882936
3198	0.00103009
3210	0.000956514
3222	0.00139798
3234	0.00183945
3246	0.00217055
3258	0.00183945
3270	0.00228092
3282	0.00253844
3294	0.00290633
3306	0.00375248
3318	0.00470899
3330	0.00507688
3342	0.0063645
3354	0.00857184
3366	0.0103745
3378	0.0137959
3390	0.0205283
3402	0.0307556
3414	0.042197
3426	0.04411
3438	0.0312707
3450	0.0198661
3462	0.0105584
3474	0.00647486
3486	0.00474578
3498	0.00397321
3510	0.00349496
3522	0.00183945
3534	0.00117725
3546	0.0023545
3558	0.0013244
3570	0.00187624
3582	0.00117725
3594	0.00209697
3606	0.00147156
3618	0.00125083
3630	0.00217055
3642	0.00110367
3654	0.00128762
3666	0.000772569
3678	0.00209697
3690	0.00180266
3702	0.00198661
3714	0.00158193
3726	0.000956514
3738	0.000698991
3750	0.000220734
3762	0.000772569
3774	0.00106688
3786	0.000110367
3798	3.6789e-05
3810	0.000183945
3822	3.6789e-05
3834	3.6789e-05
3846	3.6789e-05
3858	0.000698991
3870	0.000441468
3882	0.000956514
3894	3.6789e-05
3906	0.0013244
3918	0.000662202
3930	3.6789e-05
3942	0.000110367
3954	0.000625413
3966	3.6789e-05
