Infrared Spectrum: Benzenesulfonic acid, o-chloro-phenyl ester
Formula: C 12 H 9 Cl O 3 S
CAS: 13659-19-3
Origin: Sadtler Research Labs Under US-EPA Contract
1/CM	ABSORBANCE
450	0.00196145
462	0.00351236
474	0.00100353
486	0.0015053
498	0.0009123
510	0.00287375
522	0.00766332
534	0.0120424
546	0.038271
558	0.195278
570	0.139764
582	0.1836
594	0.106693
606	0.036492
618	0.0465273
630	0.0604399
642	0.0113125
654	0.0172881
666	0.0535064
678	0.108564
690	0.103683
702	0.0746718
714	0.112623
726	0.0769069
738	0.228577
750	0.298413
762	0.295038
774	0.197513
786	0.0424219
798	0.0174705
810	0.0174249
822	0.0222145
834	0.0386359
846	0.0990758
858	0.304435
870	0.365239
882	0.10756
894	0.0555591
906	0.0406886
918	0.0297866
930	0.0196601
942	0.0266848
954	0.0127266
966	0.0110388
978	0.0122248
990	0.0159196
1002	0.0191127
1014	0.0203443
1026	0.0414184
1038	0.0481238
1050	0.0694716
1062	0.161295
1074	0.0599381
1086	0.0689243
1098	0.144007
1110	0.0546924
1122	0.0470291
1134	0.0526397
1146	0.0510888
1158	0.0708857
1170	0.109339
1182	0.321358
1194	0.427002
1206	0.251202
1218	0.316522
1230	0.0712506
1242	0.0369025
1254	0.0345762
1266	0.0532783
1278	0.0486712
1290	0.0459343
1302	0.0345306
1314	0.031748
1326	0.0304252
1338	0.0379973
1350	0.0361271
1362	0.0676014
1374	0.110343
1386	0.193818
1398	0.185151
1410	0.234507
1422	0.0494467
1434	0.049766
1446	0.138487
1458	0.090044
1470	0.186383
1482	0.213615
1494	0.0818333
1506	0.0252251
1518	0.0102634
1530	0.00351236
1542	0.00342113
1554	0.00328428
1566	0.0113581
1578	0.0420114
1590	0.0422395
1602	0.01706
1614	0.00857562
1626	0.00748086
1638	0.00980723
1650	0.00848439
1662	0.00679664
1674	0.0134564
1686	0.0136389
1698	0.00939669
1710	0.00497204
1722	0.00187022
1734	0.00337551
1746	0.0012316
1758	0.00173337
1770	0.00374043
1782	0.00250883
1794	0.00684225
1806	0.00707033
1818	0.00360359
1830	0.00415097
1842	0.0018246
1854	0.0009123
1866	0.00196145
1878	0.00319305
1890	0.00556503
1902	0.00707033
1914	0.00784578
1926	0.00323867
1938	0.00392289
1950	0.00478957
1962	0.00437904
1974	0.00374043
1986	0.00187022
1998	0.000684225
2010	0.00027369
2022	0.00036492
2034	0.000410535
2046	0.000501765
2058	0.00063861
2070	0.0009123
2082	0.00063861
2094	0.000501765
2106	4.5615e-05
2118	0.00045615
2130	0.00036492
2142	0.00027369
2154	0.000228075
2166	0.000136845
2178	0.000410535
2190	0.000775455
2202	0.00054738
2214	0.00027369
2226	0.00018246
2238	0.000410535
2250	0.000684225
2262	0.00100353
2274	0.00173337
2286	0.00250883
2298	0.00223514
2310	0.00319305
2322	0.00419658
2334	0.00314744
2346	0.00383166
2358	0.00145968
2370	0.00187022
2382	0.00196145
2394	0.00187022
2406	0.0018246
2418	0.00141407
2430	0.00214391
2442	0.00209829
2454	0.0018246
2466	0.00164214
2478	0.0015053
2490	0.00173337
2502	0.00200706
2514	0.00164214
2526	0.00200706
2538	0.00250883
2550	0.00264567
2562	0.00314744
2574	0.00319305
2586	0.0033299
2598	0.0036492
2610	0.00301059
2622	0.00269129
2634	0.00278252
2646	0.0027369
2658	0.00314744
2670	0.00383166
2682	0.00451588
2694	0.00415097
2706	0.0036492
2718	0.00419658
2730	0.00510888
2742	0.00561065
2754	0.00675102
2766	0.00766332
2778	0.00843878
2790	0.00998968
2802	0.0118143
2814	0.0130915
2826	0.0139582
2838	0.0166495
2850	0.0161933
2862	0.0157372
2874	0.0145512
2886	0.0161021
2898	0.0176074
2910	0.0171056
2922	0.0139582
2934	0.0208004
2946	0.0226707
2958	0.0205724
2970	0.0180179
2982	0.0131827
2994	0.0116774
3006	0.0131371
3018	0.0124073
3030	0.0125441
3042	0.0135933
3054	0.0174705
3066	0.0348042
3078	0.0725279
3090	0.0357165
3102	0.013867
3114	0.00629487
3126	0.00460712
3138	0.00415097
3150	0.00419658
3162	0.00469835
3174	0.00433343
3186	0.00314744
3198	0.00296498
3210	0.00250883
3222	0.0024176
3234	0.00237198
3246	0.00205268
3258	0.00255444
3270	0.00246321
3282	0.00209829
3294	0.00205268
3306	0.00223514
3318	0.00250883
3330	0.00214391
3342	0.00218952
3354	0.0024176
3366	0.0027369
3378	0.00278252
3390	0.0027369
3402	0.00269129
3414	0.00337551
3426	0.00310182
3438	0.00282813
3450	0.00255444
3462	0.00305621
3474	0.00360359
3486	0.00383166
3498	0.0042422
3510	0.00447027
3522	0.00538257
3534	0.00702471
3546	0.00711594
3558	0.00551942
3570	0.00734402
3582	0.00798263
3594	0.00401412
3606	0.00132284
3618	0.00196145
3630	0.00264567
3642	0.0018246
3654	0.00187022
3666	0.000501765
3678	0.00328428
3690	0.00214391
3702	0.00173337
3714	0.00173337
3726	0.00168776
3738	0.00136845
3750	0.00145968
3762	0.00177899
3774	0.00187022
3786	0.00104915
3798	0.00136845
3810	0.0009123
3822	0.00223514
3834	0.00260005
3846	0.00100353
3858	0.00187022
3870	0.00264567
3882	0.00246321
3894	0.00310182
3906	0.00250883
3918	0.00173337
3930	0.0024176
3942	0.0015053
3954	0.0024176
3966	0.00114038
