Infrared Spectrum: Benzenesulfonic acid, m-chloro-phenyl ester
Formula: C 12 H 9 Cl O 3 S
CAS: 13659-18-2
Origin: Sadtler Research Labs Under US-EPA Contract
1/CM	ABSORBANCE
450	0.0112006
462	0.00299253
474	0.00145352
486	0.00282153
498	0.00418955
510	0.00786609
522	0.0147917
534	0.0359959
546	0.0626722
558	0.353376
570	0.105252
582	0.311138
594	0.171857
606	0.0386465
618	0.0444605
630	0.0893485
642	0.0586537
654	0.0351409
666	0.0921701
678	0.243934
690	0.189043
702	0.0569437
714	0.0949061
726	0.088921
738	0.0850735
750	0.412457
762	0.34645
774	0.296004
786	0.44375
798	0.151337
810	0.040271
822	0.0198362
834	0.0207767
846	0.0296688
858	0.0543786
870	0.150396
882	0.204176
894	0.473248
906	0.85501
918	0.243592
930	0.0699398
942	0.0223158
954	0.00752409
966	0.00684008
978	0.00410405
990	0.00692558
1002	0.0258213
1014	0.0083791
1026	0.0172712
1038	0.0089776
1050	0.0134237
1062	0.0488211
1074	0.10585
1086	0.238548
1098	0.205202
1110	0.0476241
1122	0.0272748
1134	0.0268473
1146	0.0463415
1158	0.139281
1170	0.291558
1182	0.477523
1194	0.344313
1206	0.492315
1218	0.195712
1230	0.0523266
1242	0.0233418
1254	0.043691
1266	0.0489066
1278	0.0276168
1290	0.043691
1302	0.0259923
1314	0.0295833
1326	0.0289848
1338	0.0471966
1350	0.0369364
1362	0.0786609
1374	0.148173
1386	0.254023
1398	0.310283
1410	0.421007
1422	0.0864415
1434	0.089605
1446	0.115512
1458	0.135092
1470	0.323194
1482	0.14501
1494	0.0517281
1506	0.0289848
1518	0.0192377
1530	0.0207767
1542	0.0253938
1554	0.0318064
1566	0.0610477
1578	0.212555
1590	0.380821
1602	0.0759249
1614	0.0218028
1626	0.0135092
1638	0.00615607
1650	0.00675458
1662	0.00393305
1674	0.0114571
1686	0.0114571
1698	0.00803709
1710	0.00171002
1722	0.00333454
1734	0.00931961
1746	0.00743859
1758	0.00795159
1770	0.0111151
1782	0.00760959
1794	0.00769509
1806	0.00991812
1818	0.00581407
1830	0.00504456
1842	0.00444605
1854	0.00555756
1866	0.00589957
1878	0.00342004
1890	0.00649808
1902	0.00718208
1914	0.00760959
1926	0.00769509
1938	0.00547206
1950	0.00470255
1962	0.00752409
1974	0.00632707
1986	0.00376204
1998	0.00179552
2010	0.00136802
2022	0.00162452
2034	0.00145352
2046	0.00273603
2058	0.00324904
2070	0.00376204
2082	0.00359104
2094	0.00282153
2106	0.00222303
2118	0.00247953
2130	0.00179552
2142	0.00136802
2154	0.00162452
2166	0.00179552
2178	0.00188102
2190	0.00213752
2202	0.00196652
2214	0.00128251
2226	0.00145352
2238	0.00179552
2250	0.00247953
2262	0.00290703
2274	0.00367654
2286	0.00376204
2298	0.00504456
2310	0.00572857
2322	0.00666908
2334	0.00547206
2346	0.00615607
2358	0.00504456
2370	0.00521556
2382	0.00530106
2394	0.00342004
2406	0.00324904
2418	0.00307804
2430	0.00239403
2442	0.00230853
2454	0.00273603
2466	0.00282153
2478	0.00342004
2490	0.00342004
2502	0.00333454
2514	0.00247953
2526	0.00265053
2538	0.00247953
2550	0.00316354
2562	0.00384754
2574	0.00461705
2586	0.00555756
2598	0.00453155
2610	0.00401855
2622	0.00247953
2634	0.00247953
2646	0.00247953
2658	0.00324904
2670	0.00367654
2682	0.00436055
2694	0.00342004
2706	0.00265053
2718	0.00290703
2730	0.00299253
2742	0.00239403
2754	0.00265053
2766	0.00282153
2778	0.00273603
2790	0.00316354
2802	0.00247953
2814	0.00273603
2826	0.00316354
2838	0.00427505
2850	0.00342004
2862	0.00418955
2874	0.00436055
2886	0.00418955
2898	0.00401855
2910	0.00299253
2922	0
2934	0.00359104
2946	0.00521556
2958	0.00444605
2970	0.00470255
2982	0.00436055
2994	0.00470255
3006	0.00684008
3018	0.0089776
3030	0.0122266
3042	0.0126541
3054	0.0156467
3066	0.039929
3078	0.0772929
3090	0.0429215
3102	0.0200927
3114	0.0088066
3126	0.00572857
3138	0.00461705
3150	0.00436055
3162	0.00495906
3174	0.00470255
3186	0.00333454
3198	0.00273603
3210	0.00316354
3222	0.00247953
3234	0.00230853
3246	0.00239403
3258	0.00230853
3270	0.00213752
3282	0.00230853
3294	0.00222303
3306	0.00196652
3318	0.00188102
3330	0.00188102
3342	0.00179552
3354	0.00162452
3366	0.00222303
3378	0.00179552
3390	0.00179552
3402	0.00205202
3414	0.00171002
3426	0.00162452
3438	0.00188102
3450	0.00179552
3462	0.00205202
3474	0.00247953
3486	0.00239403
3498	0.00222303
3510	0.00290703
3522	0.00247953
3534	0.00307804
3546	0.00307804
3558	0.00265053
3570	0.00239403
3582	0.00196652
3594	0.00188102
3606	0.00265053
3618	0.00273603
3630	0.00290703
3642	0.00299253
3654	0.00307804
3666	0.00239403
3678	0.00247953
3690	0.00179552
3702	0.00299253
3714	0.00273603
3726	0.00273603
3738	0.00273603
3750	0.00222303
3762	0.00230853
3774	0.00247953
3786	0.00171002
3798	0.00205202
3810	0.00171002
3822	0.00230853
3834	0.00213752
3846	0.00179552
3858	0.00102601
3870	0.00162452
3882	0.00145352
3894	0.00153902
3906	0.00188102
3918	0.00136802
3930	0.00222303
3942	0.00205202
3954	0.00179552
3966	0.00188102
