Infrared Spectrum: Benzenesulfonic acid, 4-bromo-2-chlorophenyl ester
Formula: C 12 H 8 Br Cl O 3 S
CAS: 13659-13-7
Origin: Sadtler Research Labs Under US-EPA Contract
1/CM	ABSORBANCE
450	0.00756518
462	0.00270799
474	0.00477122
486	0.00335275
498	0.00829591
510	0.00872575
522	0.013497
534	0.0228675
546	0.0324959
558	0.0654646
570	0.141417
582	0.163984
594	0.241914
606	0.0398032
618	0.0174515
630	0.0301748
642	0.0415655
654	0.0271229
666	0.053644
678	0.13123
690	0.102474
702	0.0367513
714	0.0597048
726	0.0827012
738	0.088762
750	0.234779
762	0.260268
774	0.380623
786	0.0854522
798	0.0338714
810	0.0450902
822	0.129597
834	0.045692
846	0.0417804
858	0.153066
870	0.219605
882	0.0627996
894	0.0315073
906	0.0151304
918	0.0061897
930	0.00683446
942	0.00786607
954	0.00451332
966	0.00339574
978	0.00421243
990	0.00588881
1002	0.0103591
1014	0.00812398
1026	0.0185691
1038	0.0273808
1050	0.0648199
1062	0.0949517
1074	0.0908682
1086	0.147005
1098	0.0857531
1110	0.0217499
1122	0.0144426
1134	0.0153883
1146	0.0221797
1158	0.0384707
1170	0.102087
1182	0.25842
1194	0.332137
1206	0.165832
1218	0.218101
1230	0.0562661
1242	0.0270799
1254	0.0534721
1266	0.0281545
1278	0.0218359
1290	0.0168927
1302	0.0120785
1314	0.0181822
1326	0.0176234
1338	0.0284554
1350	0.0315503
1362	0.075265
1374	0.134282
1386	0.196566
1398	0.133723
1410	0.193729
1422	0.0370092
1434	0.0280686
1446	0.0792195
1458	0.109566
1470	0.37409
1482	0.0930604
1494	0.0284554
1506	0.0170646
1518	0.00760817
1530	0.00584582
1542	0.00661954
1554	0.00786607
1566	0.0218789
1578	0.0260483
1590	0.0110469
1602	0.00468526
1614	0.00275098
1626	0.00279396
1638	0.00382558
1650	0.00416945
1662	0.00262202
1674	0.00515808
1686	0.00554494
1698	0.00447034
1710	0.00326678
1722	0.00490018
1734	0.00812398
1746	0.00481421
1758	0.00545897
1770	0.00606074
1782	0.00378259
1794	0.00447034
1806	0.00704938
1818	0.0051151
1830	0.00408348
1842	0.00326678
1854	0.00292291
1866	0.00391154
1878	0.00520106
1890	0.00825293
1902	0.00683446
1914	0.005373
1926	0.00399751
1938	0.00292291
1950	0.00335275
1962	0.00494316
1974	0.00416945
1986	0.00309485
1998	0.00236412
2010	0.00206323
2022	0.0021492
2034	0.0021492
2046	0.00236412
2058	0.00257904
2070	0.00283694
2082	0.00279396
2094	0.00257904
2106	0.00232114
2118	0.00253606
2130	0.00227815
2142	0.00219218
2154	0.00180533
2166	0.0021492
2178	0.00245009
2190	0.00236412
2202	0.00236412
2214	0.00197726
2226	0.00197726
2238	0.0021492
2250	0.0024071
2262	0.00270799
2274	0.00343872
2286	0.00373961
2298	0.00412646
2310	0.00520106
2322	0.00520106
2334	0.00472824
2346	0.00464227
2358	0.00326678
2370	0.00352469
2382	0.00369662
2394	0.00283694
2406	0.00305186
2418	0.00262202
2430	0.00318082
2442	0.00287993
2454	0.00249307
2466	0.00253606
2478	0.00232114
2490	0.00232114
2502	0.0024071
2514	0.00223517
2526	0.00253606
2538	0.00279396
2550	0.00275098
2562	0.00283694
2574	0.00335275
2586	0.00335275
2598	0.00361066
2610	0.0029659
2622	0.00232114
2634	0.00270799
2646	0.00270799
2658	0.00287993
2670	0.00287993
2682	0.0029659
2694	0.00245009
2706	0.00275098
2718	0.00270799
2730	0.00236412
2742	0.00227815
2754	0.0024071
2766	0.00266501
2778	0.00270799
2790	0.00305186
2802	0.0032238
2814	0.00352469
2826	0.00361066
2838	0.00382558
2850	0.00339574
2862	0.00262202
2874	0.00313783
2886	0.00369662
2898	0.0032238
2910	0.00279396
2922	0.000257904
2934	0.00287993
2946	0.00438437
2958	0.00412646
2970	0.00447034
2982	0.00408348
2994	0.00412646
3006	0.00575986
3018	0.00649058
3030	0.00713534
3042	0.00773712
3054	0.0101872
3066	0.0212341
3078	0.0326249
3090	0.0186551
3102	0.0129382
3114	0.00661954
3126	0.00554494
3138	0.0051151
3150	0.00459929
3162	0.00425542
3174	0.00361066
3186	0.00330977
3198	0.00330977
3210	0.00257904
3222	0.0029659
3234	0.00236412
3246	0.00232114
3258	0.00245009
3270	0.00270799
3282	0.00210622
3294	0.00223517
3306	0.00266501
3318	0.00180533
3330	0.0021492
3342	0.00283694
3354	0.00202025
3366	0.00223517
3378	0.00236412
3390	0.00206323
3402	0.00262202
3414	0.00275098
3426	0.00292291
3438	0.0029659
3450	0.00275098
3462	0.00253606
3474	0.00318082
3486	0.00275098
3498	0.00287993
3510	0.00275098
3522	0.0034817
3534	0.00365364
3546	0.00391154
3558	0.00386856
3570	0.00485719
3582	0.00756518
3594	0.00378259
3606	0.00287993
3618	0.00352469
3630	0.0029659
3642	0.0032238
3654	0.00292291
3666	0.00361066
3678	0.00326678
3690	0.00279396
3702	0.00352469
3714	0.00391154
3726	0.00300888
3738	0.00318082
3750	0.00365364
3762	0.00313783
3774	0.00257904
3786	0.00326678
3798	0.00232114
3810	0.0032238
3822	0.00227815
3834	0.00395453
3846	0.00305186
3858	0.00326678
3870	0.00352469
3882	0.00408348
3894	0.00408348
3906	0.0051151
3918	0.00318082
3930	0.00442735
3942	0.00408348
3954	0.00515808
3966	0.00219218
