Infrared Spectrum: Benzenesulfonic acid, 2-bromo-4-chlorophenyl ester
Formula: C 12 H 8 Br Cl O 3 S
CAS: 13659-16-0
Origin: Sadtler Research Labs Under US-EPA Contract
1/CM	ABSORBANCE
450	0
462	0.0101335
474	0.0166047
486	0.0116268
498	0.0131557
510	0.0126935
522	0.0164269
534	0.027947
546	0.0294048
558	0.0561074
570	0.0918411
582	0.122384
594	0.140695
606	0.0977434
618	0.0205514
630	0.020338
642	0.0373694
654	0.0436628
666	0.08569
678	0.0606941
690	0.0755209
702	0.0363027
714	0.0453339
726	0.0754498
738	0.0626497
750	0.147913
762	0.139842
774	0.35556
786	0.115024
798	0.0356982
810	0.0384716
822	0.100766
834	0.0495295
846	0.0396094
858	0.146384
870	0.172624
882	0.0622941
894	0.0328182
906	0.0183469
918	0.0126579
930	0.0124446
942	0.0120535
954	0.0100623
966	0.009209
978	0.0100268
990	0.011449
1002	0.0156446
1014	0.0147913
1026	0.0221158
1038	0.0617252
1050	0.0620097
1062	0.023147
1074	0.0302582
1086	0.0973168
1098	0.128286
1110	0.0393605
1122	0.0237159
1134	0.0205514
1146	0.023787
1158	0.0382227
1170	0.0888189
1182	0.213336
1194	0.232536
1206	0.133833
1218	0.150117
1230	0.0363738
1242	0.0281248
1254	0.0422405
1266	0.0246759
1278	0.0209069
1290	0.0172802
1302	0.0139024
1314	0.0194136
1326	0.0192358
1338	0.0284448
1350	0.0302582
1362	0.0644986
1374	0.104855
1386	0.157549
1398	0.104392
1410	0.146882
1422	0.0343471
1434	0.0285159
1446	0.0688364
1458	0.108908
1470	0.260092
1482	0.0729254
1494	0.0304715
1506	0.0201603
1518	0.0157513
1530	0.0130135
1542	0.0150046
1554	0.0138313
1566	0.0267381
1578	0.0294404
1590	0.016498
1602	0.00999124
1614	0.00814232
1626	0.00885344
1638	0.0094579
1650	0.0113068
1662	0.00839122
1674	0.0114135
1686	0.0124802
1698	0.0122668
1710	0.00910234
1722	0.0105957
1734	0.014898
1746	0.0116624
1758	0.0115201
1770	0.0118401
1782	0.00999124
1794	0.0107024
1806	0.0120535
1818	0.0101335
1830	0.0102401
1842	0.00952901
1854	0.00871122
1866	0.0100268
1878	0.0107735
1890	0.0129068
1902	0.0113424
1914	0.0106668
1926	0.00917345
1938	0.00839122
1950	0.00871122
1962	0.0100623
1974	0.00931567
1986	0.00878233
1998	0.00775121
2010	0.00771565
2022	0.0080001
2034	0.00778676
2046	0.00814232
2058	0.00814232
2070	0.00810677
2082	0.00824899
2094	0.00824899
2106	0.00785788
2118	0.00810677
2130	0.00792899
2142	0.00764454
2154	0.00753787
2166	0.00782232
2178	0.00792899
2190	0.00782232
2202	0.00796454
2214	0.00778676
2226	0.00792899
2238	0.00803566
2250	0.00817788
2262	0.00867566
2274	0.00910234
2286	0.00896011
2298	0.00860455
2310	0.008569
2322	0.008889
2334	0.00956456
2346	0.0094579
2358	0.0083201
2370	0.00910234
2382	0.00917345
2394	0.008889
2406	0.00896011
2418	0.00860455
2430	0.00881789
2442	0.00871122
2454	0.00885344
2466	0.00860455
2478	0.00860455
2490	0.00835566
2502	0.00892456
2514	0.00896011
2526	0.00871122
2538	0.008889
2550	0.00896011
2562	0.00917345
2574	0.00956456
2586	0.00952901
2598	0.0094579
2610	0.00892456
2622	0.00878233
2634	0.00874678
2646	0.00864011
2658	0.00903122
2670	0.00949345
2682	0.00924456
2694	0.00899567
2706	0.00903122
2718	0.00892456
2730	0.00871122
2742	0.00864011
2754	0.00842677
2766	0.008569
2778	0.008889
2790	0.00903122
2802	0.00853344
2814	0.00878233
2826	0.00906678
2838	0.00913789
2850	0.00821344
2862	0.00828455
2874	0.00885344
2886	0.00896011
2898	0.00874678
2910	0.00764454
2922	0.00480006
2934	0.00771565
2946	0.0097779
2958	0.00974234
2970	0.00995568
2982	0.0100268
2994	0.0104535
3006	0.0112713
3018	0.0119113
3030	0.0122668
3042	0.012729
3054	0.0144357
3066	0.0229336
3078	0.0313959
3090	0.021618
3102	0.0170313
3114	0.0121246
3126	0.010809
3138	0.0103112
3150	0.0103824
3162	0.0104179
3174	0.00999124
3186	0.009209
3198	0.00885344
3210	0.00906678
3222	0.008569
3234	0.00853344
3246	0.00853344
3258	0.00853344
3270	0.00817788
3282	0.00810677
3294	0.00881789
3306	0.00835566
3318	0.00835566
3330	0.00817788
3342	0.00785788
3354	0.00835566
3366	0.00878233
3378	0.00828455
3390	0.00849788
3402	0.00878233
3414	0.00846233
3426	0.00835566
3438	0.00860455
3450	0.00860455
3462	0.008569
3474	0.00881789
3486	0.00917345
3498	0.00835566
3510	0.00892456
3522	0.008889
3534	0.00917345
3546	0.00942234
3558	0.0128713
3570	0.0115913
3582	0.00970679
3594	0.00885344
3606	0.008569
3618	0.00917345
3630	0.00867566
3642	0.00903122
3654	0.00860455
3666	0.00885344
3678	0.00899567
3690	0.00871122
3702	0.00903122
3714	0.00878233
3726	0.00878233
3738	0.00853344
3750	0.00828455
3762	0.00899567
3774	0.00860455
3786	0.00871122
3798	0.00892456
3810	0.00881789
3822	0.00885344
3834	0.00871122
3846	0.00874678
3858	0.00814232
3870	0.008889
3882	0.00910234
3894	0.00874678
3906	0.00931567
3918	0.008889
3930	0.008569
3942	0.0103468
3954	0.00881789
3966	0.00842677
