Infrared Spectrum: 3-Quinolinecarboxaldehyde
Formula: C 10 H 7 N O
CAS: 13669-42-6
Origin: Sadtler Research Labs Under US-EPA Contract
1/CM	ABSORBANCE
450	0.0126172
462	0.0217015
474	0.0383561
486	0.0180966
498	0.00915645
510	0.00475847
522	0.00684931
534	0.00663302
546	0.00324441
558	0.00324441
570	0.00620043
582	0.0211247
594	0.018385
606	0.0120404
618	0.00764239
630	0.0134823
642	0.00266763
654	7.2098e-05
666	0.00259553
678	0.00273972
690	0.00389329
702	0.00461427
714	0.00591204
726	0.0311463
738	0.12646
750	0.223648
762	0.128407
774	0.102379
786	0.0710165
798	0.0255227
810	0.00886805
822	0.00656092
834	0.00382119
846	0.00569574
858	0.0141312
870	0.013987
882	0.0159337
894	0.0302812
906	0.0607786
918	0.0342466
930	0.00670511
942	0.00576784
954	0.0126892
966	0.013266
978	0.0156453
990	0.0244412
1002	0.0205479
1014	0.0265321
1026	0.0173756
1038	0.00612833
1050	0.0037491
1062	0.00439798
1074	0.00497476
1086	0.00555155
1098	0.00829127
1110	0.0266763
1122	0.0813265
1134	0.0364095
1146	0.0471521
1158	0.142466
1170	0.061067
1182	0.0104542
1194	0.00894015
1206	0.0297765
1218	0.01031
1230	0.00771449
1242	0.007354
1254	0.0167988
1266	0.031651
1278	0.027253
1290	0.00519106
1302	0.00317231
1314	0.00382119
1326	0.00576784
1338	0.0198269
1350	0.0427541
1362	0.0800288
1374	0.0657534
1386	0.023576
1398	0.0297044
1410	0.0143475
1422	0.012473
1434	0.00930064
1446	0.00540735
1458	0.0180966
1470	0.0158616
1482	0.0189618
1494	0.0670511
1506	0.0486661
1518	0.016943
1530	0.0126892
1542	0.0171593
1554	0.0202595
1566	0.0685652
1578	0.0716654
1590	0.101442
1602	0.14261
1614	0.12235
1626	0.125739
1638	0.0263158
1650	0.0216294
1662	0.0136986
1674	0.0214131
1686	0.0335977
1698	0.0617159
1710	0.366907
1722	0.72098
1734	0.152199
1746	0.0377073
1758	0.0189618
1770	0.0136986
1782	0.00886805
1794	0.00937274
1806	0.00648882
1818	0.00612833
1830	0.00684931
1842	0.00894015
1854	0.00670511
1866	0.00576784
1878	0.00519106
1890	0.00930064
1902	0.00757029
1914	0.00555155
1926	0.00454217
1938	0.00490266
1950	0.00555155
1962	0.00648882
1974	0.00129776
1986	0.000144196
1998	0.000504686
2010	0.00072098
2022	0.00151406
2034	0.00100937
2046	0.00108147
2058	0.000216294
2070	0.000216294
2082	0.000432588
2094	0.00122567
2106	0.00100937
2118	0.00108147
2130	0.00129776
2142	0.00122567
2154	0.000576784
2166	0.000216294
2178	0.000288392
2190	0.000144196
2202	0.000216294
2214	7.2098e-05
2226	0.000432588
2238	0.000865176
2250	0.00180245
2262	0.00209084
2274	0.00245133
2286	0.00295602
2298	0.003677
2310	0.00519106
2322	0.00583994
2334	0.00634462
2346	0.00598413
2358	0.00605623
2370	0.00461427
2382	0.00389329
2394	0.00144196
2406	0.00129776
2418	0.000648882
2430	0.000648882
2442	0.000648882
2454	0.000865176
2466	0.00115357
2478	0.00122567
2490	0.00158616
2502	0.00151406
2514	0.00187455
2526	0.00187455
2538	0.00180245
2550	0.00216294
2562	0.00259553
2574	0.00288392
2586	0.003677
2598	0.0036049
2610	0.00331651
2622	0.00382119
2634	0.00382119
2646	0.00432588
2658	0.00569574
2670	0.00764239
2682	0.0122567
2694	0.0242249
2706	0.0408796
2718	0.0528478
2730	0.0593367
2742	0.0434751
2754	0.0340303
2766	0.0451333
2778	0.0374189
2790	0.0338861
2802	0.0604902
2814	0.0719538
2826	0.0648161
2838	0.0390771
2850	0.0152848
2862	0.00958903
2874	0.00742609
2886	0.0072819
2898	0.00684931
2910	0.00547945
2922	0.00461427
2934	0.00648882
2946	0.00857966
2958	0.00829127
2970	0.00771449
2982	0.00793078
2994	0.0113915
3006	0.0178803
3018	0.0208363
3030	0.0271809
3042	0.0327325
3054	0.033814
3066	0.0452775
3078	0.058111
3090	0.0431867
3102	0.0167267
3114	0.00641672
3126	0.00403749
3138	0.0037491
3150	0.00324441
3162	0.003677
3174	0.00295602
3186	0.0034607
3198	0.00310021
3210	0.00252343
3222	0.00252343
3234	0.00187455
3246	0.00209084
3258	0.00209084
3270	0.00173035
3282	0.00180245
3294	0.000937274
3306	0.00165825
3318	0.00129776
3330	0.00165825
3342	0.00158616
3354	0.00108147
3366	0.00201874
3378	0.00158616
3390	0.00151406
3402	0.00302812
3414	0.00958903
3426	0.0105984
3438	0.00151406
3450	0.000865176
3462	0.00144196
3474	0.00115357
3486	0.00122567
3498	0.00144196
3510	0.00136986
3522	0.00158616
3534	0.00115357
3546	0.00158616
3558	0.00165825
3570	0.00209084
3582	0.00158616
3594	0.00165825
3606	0.00187455
3618	0.00173035
3630	0.00151406
3642	0.00108147
3654	0.000504686
3666	0.00108147
3678	0.000648882
3690	0.000216294
3702	0.000793078
3714	0.000865176
3726	0.00151406
3738	0.00144196
3750	0.00108147
3762	0.00115357
3774	0.00122567
3786	0.000937274
3798	0.00165825
3810	0.00187455
3822	0.00136986
3834	0.00216294
3846	0.00122567
3858	0.000648882
3870	0.00122567
3882	0.00144196
3894	0.00129776
3906	0.00151406
3918	0.00173035
3930	0.00144196
3942	0.00194665
3954	0.00281182
3966	0.00129776
