Infrared Spectrum: 1-(2-Thienyl)-1-propanone
Formula: C 7 H 8 O S
CAS: 13679-75-9
Origin: Sadtler Research Labs Under US-EPA Contract
1/CM	ABSORBANCE
450	0.0102092
462	0.00967185
474	0.00902706
486	0.00558818
498	0.00741509
510	0.00526579
522	0.0085972
534	0.012251
546	0.0159048
558	0.0256841
570	0.0515832
582	0.0586759
594	0.0334216
606	0.0193437
618	0.0171944
630	0.0165496
642	0.0123585
654	0.0103166
666	0.00580311
678	0.00505085
690	0.0351411
702	0.241366
714	0.669614
726	0.331207
738	0.0626521
750	0.0319171
762	0.026114
774	0.0178392
786	0.0223527
798	0.0450278
810	0.0449204
822	0.0311649
834	0.0458876
846	0.14626
858	0.224279
870	0.063082
882	0.021493
894	0.0824257
906	0.152278
918	0.0616849
930	0.0816734
942	0.102199
954	0.0134331
966	0.00526579
978	0.0089196
990	0.0193437
1002	0.0310574
1014	0.0405143
1026	0.0959662
1038	0.130355
1050	0.132719
1062	0.120038
1074	0.0583535
1086	0.061255
1098	0.0324544
1110	0.0166571
1122	0.00977932
1134	0.0107465
1146	0.0162272
1158	0.0397621
1170	0.0854347
1182	0.128098
1194	0.172911
1206	0.199885
1218	0.423734
1230	0.623727
1242	0.430612
1254	0.151956
1266	0.125304
1278	0.105531
1290	0.0587834
1302	0.0533026
1314	0.070712
1326	0.0796316
1338	0.0724314
1350	0.144755
1362	0.248137
1374	0.166033
1386	0.082963
1398	0.0756554
1410	0.317022
1422	0.549469
1434	0.178177
1446	0.072109
1458	0.0701746
1470	0.0870467
1482	0.045995
1494	0.0260065
1506	0.0887661
1518	0.260495
1530	0.126164
1542	0.0300902
1554	0.0411591
1566	0.0265439
1578	0.0127883
1590	0.0116062
1602	0.0159048
1614	0.0246095
1626	0.0226751
1638	0.0260065
1650	0.0457801
1662	0.0890885
1674	0.272424
1686	0.835433
1698	1.06261
1710	0.37602
1722	0.0570639
1734	0.0309499
1746	0.0312723
1758	0.0270812
1770	0.0180541
1782	0.0102092
1794	0.013863
1806	0.0190213
1818	0.0113913
1830	0.00677029
1842	0.00666283
1854	0.00730762
1866	0.004621
1878	0.0061255
1890	0.00311649
1902	0.00515832
1914	0.00333141
1926	0.0018269
1938	0.00419114
1950	0.00376128
1962	0.00268663
1974	0.00354635
1986	0.00279409
1998	0.0021493
2010	0.00300902
2022	0.00150451
2034	0.00204184
2046	0.0021493
2058	0.00268663
2070	0.00333141
2082	0.00451353
2094	0.00397621
2106	0.00354635
2118	0.00279409
2130	0.0021493
2142	0.00247169
2154	0.00236423
2166	0.00365381
2178	0.00354635
2190	0.00150451
2202	0.00139704
2214	0.0018269
2226	0.00118212
2238	0.00150451
2250	0.00236423
2262	0.00268663
2274	0.00322395
2286	0.0018269
2298	0.000322395
2310	0.00042986
2322	0.00171944
2334	0.00042986
2346	0.00021493
2358	0.000322395
2370	0.000107465
2382	0.00107465
2394	0.0018269
2406	0.00279409
2418	0.00365381
2430	0.00451353
2442	0.004621
2454	0.00440606
2466	0.00365381
2478	0.00322395
2490	0.00128958
2502	0.000967185
2514	0.000967185
2526	0.00128958
2538	0.00118212
2550	0.00107465
2562	0.00150451
2574	0.0021493
2586	0.00257916
2598	0.00204184
2610	0.00290156
2622	0.00290156
2634	0.00365381
2646	0.00419114
2658	0.0021493
2670	0.0021493
2682	0.00290156
2694	0.00365381
2706	0.00354635
2718	0.00365381
2730	0.00440606
2742	0.0064479
2754	0.00763002
2766	0.00601804
2778	0.00472846
2790	0.00548071
2802	0.00709269
2814	0.0110689
2826	0.0179467
2838	0.0175168
2850	0.01526
2862	0.0193437
2874	0.0334216
2886	0.0678104
2898	0.0874765
2910	0.0994051
2922	0.1166
2934	0.0987603
2946	0.160768
2958	0.165604
2970	0.0984379
2982	0.196768
2994	0.224494
3006	0.0957513
3018	0.0381501
3030	0.024502
3042	0.0192362
3054	0.0141854
3066	0.0120361
3078	0.0289081
3090	0.0516907
3102	0.0325619
3114	0.0233199
3126	0.0142928
3138	0.00623297
3150	0.00483593
3162	0.00397621
3174	0.00354635
3186	0.00300902
3198	0.00300902
3210	0.00193437
3222	0.00171944
3234	0.0018269
3246	0.00107465
3258	0.00171944
3270	0.0021493
3282	0.00161198
3294	0.00171944
3306	0.00193437
3318	0.0021493
3330	0.00300902
3342	0.00666283
3354	0.0110689
3366	0.01526
3378	0.0128958
3390	0.00773748
3402	0.0021493
3414	0.000322395
3426	0.00161198
3438	0.00193437
3450	0.0018269
3462	0.00150451
3474	0.00171944
3486	0.00139704
3498	0.000537325
3510	0.00171944
3522	0.00118212
3534	0.00107465
3546	0.00204184
3558	0.00139704
3570	0.0021493
3582	0.00247169
3594	0.00107465
3606	0.00193437
3618	0.00118212
3630	0.0018269
3642	0.000967185
3654	0.00107465
3666	0.00139704
3678	0.00247169
3690	0.00064479
3702	0.00171944
3714	0.00247169
3726	0.00171944
3738	0.00236423
3750	0.00311649
3762	0.00204184
3774	0.00193437
3786	0.0021493
3798	0.00128958
3810	0.00268663
3822	0.00257916
3834	0.00354635
3846	0.0061255
3858	0.00354635
3870	0.0021493
3882	0.00139704
3894	0.000537325
3906	0.00107465
3918	0.00150451
3930	0.00139704
3942	0.00376128
3954	0.00419114
3966	0.00408367
