Infrared Spectrum: Salicylic acid, 4-nitro-, methyl
Formula: C 8 H 7 N O 5
CAS: 13684-28-1
Origin: Sadtler Research Labs Under US-EPA Contract
1/CM	ABSORBANCE
450	0.0301531
462	0.031018
474	0.0208752
486	0.00943512
498	0.025121
510	0.0121477
522	0.0167867
534	0.0147817
546	0.0246099
558	0.0202069
570	0.0447775
582	0.0299565
594	0
606	0.0171405
618	0.0195386
630	0.00184771
642	0.0178088
654	0.0176515
666	0.0171798
678	0.0308607
690	0.0524042
702	0.0524435
714	0.0517752
726	0.0519718
738	0.0922283
750	0.0338092
762	0.0207573
774	0.0240596
786	0.0601489
798	0.0524042
810	0.105084
822	0.155286
834	0.034792
846	0.0163542
858	0.0174943
870	0.0174157
882	0.0332195
894	0.0407283
906	0.0194599
918	0.0114008
930	0.0297993
942	0.0415932
954	0.0207573
966	0.027126
978	0.0257107
990	0.0150176
1002	0.0155286
1014	0.0194206
1026	0.0188702
1038	0.0203248
1050	0.0235092
1062	0.0575935
1074	0.0934077
1086	0.0613676
1098	0.0859775
1110	0.0543306
1122	0.0544878
1134	0.0897909
1146	0.146677
1158	0.0596378
1170	0.0574756
1182	0.0711172
1194	0.151591
1206	0.339114
1218	0.238315
1230	0.121281
1242	0.121084
1254	0.197941
1266	0.218148
1278	0.27067
1290	0.232615
1302	0.102803
1314	0.14192
1326	0.331566
1338	0.311752
1350	0.197391
1362	0.171326
1374	0.0944691
1386	0.094076
1398	0.0839726
1410	0.0539767
1422	0.0411607
1434	0.0523256
1446	0.16767
1458	0.0792157
1470	0.0618
1482	0.080002
1494	0.080002
1506	0.0597558
1518	0.0686798
1530	0.127649
1542	0.334436
1554	0.371351
1566	0.140583
1578	0.0780363
1590	0.0654561
1602	0.0647485
1614	0.0824394
1626	0.0511069
1638	0.036168
1650	0.0358928
1662	0.0307035
1674	0.0549989
1686	0.100956
1698	0.276842
1710	0.317256
1722	0.0947836
1734	0.0331409
1746	0.0281874
1758	0.0443844
1770	0.0279122
1782	0.0166294
1794	0.0141527
1806	0.00982825
1818	0.00809848
1830	0.00774466
1842	0.00459962
1854	0.00546451
1866	0.00601489
1878	0.00345954
1890	0.0057397
1902	0.00727291
1914	0.00833436
1926	0.00656527
1938	0.00515
1950	0.0042458
1962	0.00381336
1974	0.00397061
1986	0.00373474
1998	0.0039313
2010	0.00369542
2022	0.00389199
2034	0.00471756
2046	0.00408855
2058	0.00400993
2070	0.00459962
2082	0.00353817
2094	0.00275191
2106	0.00275191
2118	0.00247672
2130	0.00231947
2142	0.00259466
2154	0.00267328
2166	0.00298779
2178	0.00263397
2190	0.00204428
2202	0.00224084
2214	0.00208359
2226	0.00228015
2238	0.0018084
2250	0.00200496
2262	0.00224084
2274	0.00322367
2286	0.00412787
2298	0.00593626
2310	0.00676184
2322	0.00487481
2334	0.00188702
2346	0.0066439
2358	0.00263397
2370	0.00373474
2382	0.00428512
2394	0.00153321
2406	0.00204428
2418	0.0018084
2430	0.00176909
2442	0.00133664
2454	0.000904199
2466	0.000982825
2478	0.00114008
2490	0.00161183
2502	0.00184771
2514	0.00251603
2526	0.00279122
2538	0.00263397
2550	0.00200496
2562	0.00196565
2574	0.00216221
2586	0.00255535
2598	0.00283054
2610	0.0030271
2622	0.00243741
2634	0.00239809
2646	0.00345954
2658	0.00404924
2670	0.00479619
2682	0.00511069
2694	0.00534657
2706	0.00562176
2718	0.0048355
2730	0.00404924
2742	0.00369542
2754	0.0036168
2766	0.00353817
2778	0.0036168
2790	0.0039313
2802	0.00459962
2814	0.00538588
2826	0.00629008
2838	0.00739084
2850	0.0104179
2862	0.0172584
2874	0.0126981
2886	0.0123443
2898	0.0137989
2910	0.0145851
2922	0.0138382
2934	0.0119118
2946	0.012934
2958	0.0305069
2970	0.0654168
2982	0.0175729
2994	0.0138382
3006	0.0159611
3018	0.0173763
3030	0.0160397
3042	0.0158038
3054	0.0139954
3066	0.0143492
3078	0.0144279
3090	0.0172191
3102	0.0209145
3114	0.0163935
3126	0.0141527
3138	0.0118725
3150	0.0119512
3162	0.0132092
3174	0.0152928
3186	0.0200103
3198	0.0276764
3210	0.0399027
3222	0.0556672
3234	0.066439
3246	0.0673825
3258	0.06066
3270	0.0538195
3282	0.0488267
3294	0.0427332
3306	0.0371901
3318	0.0343202
3330	0.033534
3342	0.0310966
3354	0.0282267
3366	0.0261825
3378	0.0220939
3390	0.0202462
3402	0.0202855
3414	0.0152928
3426	0.0143886
3438	0.0127374
3450	0.0136416
3462	0.0162756
3474	0.0254355
3486	0.0235092
3498	0.016197
3510	0.0136416
3522	0.0115973
3534	0.00888474
3546	0.00727291
3558	0.00640802
3570	0.00680115
3582	0.00534657
3594	0.00743016
3606	0.00475687
3618	0.00554313
3630	0.00955306
3642	0.00322367
3654	0.0102214
3666	0.00275191
3678	0.00778397
3690	0.00982825
3702	0.00511069
3714	0.00805917
3726	0.00192634
3738	0.00660458
3750	0.0165508
3762	0.00522863
3774	0.00538588
3786	0.00570039
3798	0.00770535
3810	0.0048355
3822	0.0147817
3834	0.00931718
3846	0.0101034
3858	0.0118332
3870	0.0114008
3882	0.00872749
3894	0.00758741
3906	0.0118332
3918	0.00703703
3930	0.00731222
3942	0.0075481
3954	0.011047
3966	0.00994619
