Infrared Spectrum: Benzenemethanol, 2,4-dichloro-.alpha.-(chloromethyl)-
Formula: C 8 H 7 Cl 3 O
CAS: 13692-14-3
Origin: Sadtler Research Labs Under US-EPA Contract
1/CM	ABSORBANCE
450	0.0611935
462	0.0243043
474	0.0477665
486	0.0183393
498	0.0108071
510	0.00694742
522	0
534	0.00902931
546	0.032702
558	0.0297312
570	0.0213803
582	0.000725152
594	0.00795328
606	0.0147604
618	0.00755562
630	0.00371933
642	0.00404682
654	0.0109708
666	0.00912288
678	0.0117194
690	0.0333336
702	0.0649596
714	0.0420354
726	0.0511817
738	0.0320704
750	0.0509478
762	0.0447021
774	0.141709
786	0.194528
798	0.0694041
810	0.120095
822	0.23392
834	0.137685
846	0.0943867
858	0.0719772
870	0.116305
882	0.03986
894	0.0253335
906	0.023275
918	0.0222926
930	0.0347137
942	0.0408892
954	0.0499887
966	0.0640941
978	0.0607724
990	0.0629713
1002	0.072445
1014	0.103744
1026	0.105545
1038	0.127369
1050	0.175627
1062	0.143182
1074	0.191347
1086	0.168493
1098	0.11048
1110	0.119486
1122	0.0697316
1134	0.0832287
1146	0.0705035
1158	0.0480472
1170	0.0669479
1182	0.108001
1194	0.0938955
1206	0.0750649
1218	0.0572168
1230	0.045474
1242	0.0487957
1254	0.0730298
1266	0.0696146
1278	0.0450764
1290	0.0437898
1302	0.0341055
1314	0.0284915
1326	0.0339652
1338	0.0448425
1350	0.042667
1362	0.0517899
1374	0.0823632
1386	0.109755
1398	0.060328
1410	0.0326318
1422	0.043977
1434	0.0899188
1446	0.0509712
1458	0.0676263
1470	0.185709
1482	0.150247
1494	0.0364915
1506	0.021661
1518	0.0215908
1530	0.016468
1542	0.0218715
1554	0.0587841
1566	0.084796
1578	0.0777784
1590	0.174668
1602	0.0811702
1614	0.0214972
1626	0.0143159
1638	0.0120703
1650	0.00984803
1662	0.0090527
1674	0.0052632
1686	0.00650298
1698	0.00481875
1710	0.00891235
1722	0.0107837
1734	0.0166785
1746	0.0123042
1758	0.00792989
1770	0.00844451
1782	0.00631584
1794	0.00746205
1806	0.00587139
1818	0.00488893
1830	0.00477197
1842	0.00243277
1854	0.002924
1866	0.0035088
1878	0.0032281
1890	0.00549712
1902	0.00764918
1914	0.00559069
1926	0.00435091
1938	0.00465501
1950	0.00194154
1962	0.00411699
1974	0.00315792
1986	0.00353219
1998	0.00346202
2010	0.00294739
2022	0.00240938
2034	0.00142691
2046	0.00334506
2058	0.00271347
2070	0.0032281
2082	0.00376611
2094	0.00371933
2106	0.00400003
2118	0.00271347
2130	0.00198832
2142	0.00219885
2154	0.00348541
2166	0.00559069
2178	0.00416378
2190	0.00329827
2202	0.00318131
2214	0.00346202
2226	0.00390646
2238	0.00631584
2250	0.00587139
2262	0.00472518
2274	0.00598835
2286	0.00706438
2298	0.00720474
2310	0.00624566
2322	0.00535677
2334	0.00250294
2346	0.00542694
2358	0.00299418
2370	0.00212867
2382	0.0043977
2394	0.00247955
2406	0.00217546
2418	0.00247955
2430	0.00224563
2442	0.00240938
2454	0.00121638
2466	0.000771936
2478	0.00121638
2490	0.00191814
2502	0.00163744
2514	0.00226902
2526	0.00191814
2538	0.0014737
2550	0.00168422
2562	0.00210528
2574	0.00243277
2586	0.00161405
2598	0.00219885
2610	0.00201171
2622	0.00259651
2634	0.00271347
2646	0.00271347
2658	0.0032047
2670	0.00304096
2682	0.00392986
2694	0.00423395
2706	0.00315792
2718	0.00395325
2730	0.00367254
2742	0.00271347
2754	0.0026199
2766	0.00283043
2778	0.00245616
2790	0.00168422
2802	0.00308774
2814	0.00280704
2826	0.00383629
2838	0.00418717
2850	0.00547373
2862	0.00587139
2874	0.00582461
2886	0.00647958
2898	0.00900592
2910	0.0131229
2922	0.0181054
2934	0.0179183
2946	0.015275
2958	0.0251932
2970	0.0497314
2982	0.022082
2994	0.0106901
3006	0.0109708
3018	0.0159533
3030	0.010386
3042	0.00891235
3054	0.00968429
3066	0.0127486
3078	0.0137779
3090	0.0145498
3102	0.00692403
3114	0.00626906
3126	0.00547373
3138	0.00428074
3150	0.00425734
3162	0.00362576
3174	0.00421056
3186	0.00285382
3198	0.00343862
3210	0.0043977
3222	0.0037895
3234	0.00290061
3246	0.00334506
3258	0.00318131
3270	0.00283043
3282	0.0038129
3294	0.00285382
3306	0.00367254
3318	0.00432752
3330	0.00273686
3342	0.00236259
3354	0.00301757
3366	0.00287722
3378	0.00243277
3390	0.00311114
3402	0.00229242
3414	0.0026433
3426	0.00306435
3438	0.00271347
3450	0.00168422
3462	0.0017544
3474	0.00128656
3486	0.00133334
3498	0.00212867
3510	0.00285382
3522	0.00180118
3534	0.00369594
3546	0.00425734
3558	0.00138013
3570	0.00727491
3582	0.0107837
3594	0.0171463
3606	0.0267838
3618	0.0881644
3630	0.0455676
3642	0.0409594
3654	0.0286318
3666	0.0111112
3678	0.00722813
3690	0.00530998
3702	0.00549712
3714	0.00530998
3726	0.0043977
3738	0.00486554
3750	0.00687725
3762	0.00194154
3774	0.00348541
3786	0.00297078
3798	0.00374272
3810	0.00355558
3822	0.00273686
3834	0.00500589
3846	0.00364915
3858	0.00568426
3870	0.00166083
3882	0.00512285
3894	0.0035088
3906	0.00416378
3918	0.00638602
3930	0.00608192
3942	0.00523981
3954	0.00400003
3966	0.00654976
