Infrared Spectrum: Benzenethiol, 2-amino-
Formula: C 6 H 7 N S
CAS: 137-07-5
Origin: Sadtler Research Labs Under US-EPA Contract
1/CM	ABSORBANCE
450	0.093058
462	0.0822428
474	0.0659606
486	0.075825
498	0.0917507
510	0.0872939
522	0.0956132
534	0.0932363
546	0.0816486
558	0.0685753
570	0.0931174
582	0.0883041
594	0.0827182
606	0.0704174
618	0.0804007
630	0.0708334
642	0.0702392
654	0.0715465
666	0.0721407
678	0.064475
690	0.064891
702	0.0837878
714	0.0817674
726	0.184393
738	0.371578
750	0.328734
762	0.136438
774	0.0666737
786	0.0528874
798	0.0475392
810	0.0417156
822	0.0503321
834	0.0419533
846	0.0237696
858	0.0283452
870	0.0234725
882	0.0224028
894	0.0216303
906	0.0433201
918	0.0371994
930	0.0221652
942	0.0172924
954	0.0149748
966	0.0112906
978	0.0115877
990	0.00986438
1002	0.00552643
1014	0.019907
1026	0.0459348
1038	0.0369617
1050	0.0155691
1062	0.0139052
1074	0.0221652
1086	0.046529
1098	0.0565716
1110	0.0363081
1122	0.0184214
1134	0.0257306
1146	0.0481334
1158	0.053957
1170	0.0262654
1182	0.00279293
1194	0.00291178
1206	0.00154502
1218	0.00207984
1230	0.00665549
1242	0.0331586
1254	0.0536599
1266	0.0495596
1278	0.0443897
1290	0.145826
1302	0.207152
1314	0.117006
1326	0.0427853
1338	0.00724973
1350	0.00516989
1362	0.00790339
1374	0.01444
1386	0.0091513
1398	0.00671491
1410	0.0106369
1422	0.0146777
1434	0.0467073
1446	0.145292
1458	0.140181
1470	0.175182
1482	0.328496
1494	0.268656
1506	0.0991192
1518	0.0283452
1530	0.0197882
1542	0.00998323
1554	0.0319107
1566	0.0568688
1578	0.0827776
1590	0.126633
1602	0.310669
1614	0.59424
1626	0.482285
1638	0.151709
1650	0.0518177
1662	0.0377937
1674	0.0263843
1686	0.0120631
1698	0.0115877
1710	0.0161633
1722	0.0114094
1734	0.00713088
1746	0.0142023
1758	0.0158068
1770	0.0180649
1782	0.0170547
1794	0.0136675
1806	0.0128356
1818	0.0127167
1830	0.0119442
1842	0.0162822
1854	0.0154502
1866	0.0165793
1878	0.0178866
1890	0.0185997
1902	0.0193128
1914	0.0209767
1926	0.0201447
1938	0.0106369
1950	0.00950784
1962	0.00956726
1974	0.010518
1986	0.00950784
1998	0.00986438
2010	0.00837878
2022	0.00790339
2034	0.0091513
2046	0.00968611
2058	0.00820051
2070	0.00760627
2082	0.0101615
2094	0.00873533
2106	0.00938899
2118	0.00927014
2130	0.010518
2142	0.00784397
2154	0.00921072
2166	0.0106963
2178	0.00932957
2190	0.00808166
2202	0.00772512
2214	0.00790339
2226	0.00629894
2238	0.00796282
2250	0.00820051
2262	0.00778454
2274	0.00564528
2286	0.00903245
2298	0.00950784
2310	0.00903245
2322	0.00380314
2334	0.00196099
2346	0.000713088
2358	0.000713088
2370	0.000713088
2382	0.00338717
2394	0.00754685
2406	0.00623952
2418	0.00873533
2430	0.0076657
2442	0.00849763
2454	0.0091513
2466	0.00873533
2478	0.00612067
2490	0.00647722
2502	0.00974554
2514	0.00802224
2526	0.00820051
2538	0.0103398
2550	0.0172924
2562	0.0234131
2574	0.0200853
2586	0.0120036
2598	0.0116471
2610	0.0109934
2622	0.0103398
2634	0.0106369
2646	0.0071903
2658	0.00707146
2670	0.00695261
2682	0.00772512
2694	0.00653664
2706	0.00932957
2718	0.00897302
2730	0.007428
2742	0.00647722
2754	0.0086759
2766	0.00873533
2778	0.0071903
2790	0.00736858
2802	0.00683376
2814	0.00600182
2826	0.00398141
2838	0.0102209
2850	0.00974554
2862	0.00927014
2874	0.00944842
2886	0.0127762
2898	0.00968611
2910	0.0105775
2922	0.0132516
2934	0.0102209
2946	0.00701203
2958	0.00772512
2970	0.0103992
2982	0.0061801
2994	0.0091513
3006	0.0215709
3018	0.066852
3030	0.0847386
3042	0.0655447
3054	0.0620387
3066	0.107082
3078	0.148857
3090	0.105002
3102	0.0300685
3114	0.0117065
3126	0.0112906
3138	0.00974554
3150	0.0110529
3162	0.0100427
3174	0.0147372
3186	0.0139052
3198	0.00986438
3210	0.0108746
3222	0.0106369
3234	0.0091513
3246	0.0071903
3258	0.00992381
3270	0.0076657
3282	0.00671491
3294	0.00796282
3306	0.0136081
3318	0.0102804
3330	0.0102804
3342	0.0127167
3354	0.0153908
3366	0.0200259
3378	0.0480146
3390	0.0979308
3402	0.079747
3414	0.0296526
3426	0.0170547
3438	0.0176489
3450	0.0136081
3462	0.0229971
3474	0.0482523
3486	0.10524
3498	0.10316
3510	0.0483711
3522	0.0212738
3534	0.00909187
3546	0.00861648
3558	0.00938899
3570	0.0059424
3582	0.00558586
3594	0.0104586
3606	0.00796282
3618	0.00511046
3630	0.00166387
3642	0.00986438
3654	0.00647722
3666	0.00612067
3678	0.00160445
3690	0.00225811
3702	0.00576413
3714	0.00207984
3726	0.00808166
3738	0.00106963
3750	0.000713088
3762	0.00724973
3774	0.00944842
3786	0.00784397
3798	0.00576413
3810	0.00784397
3822	0.0032089
3834	0.0061801
3846	0.00879475
3858	0.00986438
3870	0.00279293
3882	0.00558586
3894	0.00837878
3906	0.00808166
3918	0.00427853
3930	0.00962669
3942	0.0137269
3954	0
3966	0.000713088
