Infrared Spectrum: 2-n-Heptylcyclopentanone
Formula: C 12 H 22 O
CAS: 137-03-1
Origin: Sadtler Research Labs Under US-EPA Contract
1/CM	ABSORBANCE
450	0.00410805
462	0
474	0.0161388
486	0.0178994
498	0.0272892
510	0.0235479
522	0.0159187
534	0.0200267
546	0.0202468
558	0.0186329
570	0.0130577
582	0.0233278
594	0.0165056
606	0.0205402
618	0.0176059
630	0.0220808
642	0.0160654
654	0.0136446
666	0.0156253
678	0.0153318
690	0.0109303
702	0.0199534
714	0.0233278
726	0.0249417
738	0.0308837
750	0.0206136
762	0.0200267
774	0.016799
786	0.0199534
798	0.0212738
810	0.0272158
822	0.02971
834	0.0259687
846	0.0169457
858	0.0212005
870	0.0164322
882	0.0156986
894	0.0171658
906	0.0225209
918	0.0283895
930	0.0311038
942	0.0217873
954	0.0194399
966	0.018853
978	0.0233278
990	0.0270691
1002	0.0267757
1014	0.0272892
1026	0.026849
1038	0.0315439
1050	0.0344783
1062	0.0334512
1074	0.0379994
1086	0.040787
1098	0.0538448
1110	0.0561922
1122	0.0672693
1134	0.0889833
1146	0.137326
1158	0.143562
1170	0.0751919
1182	0.045702
1194	0.0358721
1206	0.0344049
1218	0.0311038
1230	0.035652
1242	0.0384396
1254	0.0341848
1266	0.0402735
1278	0.0374859
1290	0.0275092
1302	0.0313972
1314	0.0360921
1326	0.0406403
1338	0.0418141
1350	0.045702
1362	0.0450418
1374	0.03954
1386	0.0384396
1398	0.0283895
1410	0.0406403
1422	0.0523043
1434	0.0311772
1446	0.0530378
1458	0.0892033
1470	0.0845084
1482	0.0383662
1494	0.0182661
1506	0.0158453
1518	0.0145249
1530	0.0125442
1542	0.0102701
1554	0.00843617
1566	0.00931647
1578	0.0109303
1590	0.00689565
1602	0.00828945
1614	0.0112971
1626	0.00924311
1638	0.0109303
1650	0.011884
1662	0.0101968
1674	0.0136446
1686	0.0184862
1698	0.0245016
1710	0.0365323
1722	0.0662423
1734	0.113998
1746	0.2781
1758	0.530085
1770	0.282428
1782	0.114805
1794	0.0557521
1806	0.0312505
1818	0.0204669
1830	0.0154785
1842	0.0114438
1854	0.00814274
1866	0.00740916
1878	0.00726244
1890	0.00682229
1902	0.00638215
1914	0.00557521
1926	0.00579528
1938	0.00623543
1950	0.00586864
1962	0.00601536
1974	0.00557521
1986	0.00557521
1998	0.00564857
2010	0.00520842
2022	0.00528178
2034	0.00484163
2046	0.00484163
2058	0.00469491
2070	0.00469491
2082	0.00425476
2094	0.00381462
2106	0.00410805
2118	0.00388797
2130	0.00381462
2142	0.00352118
2154	0.00374126
2166	0.00396133
2178	0.00381462
2190	0.00396133
2202	0.0036679
2214	0.00352118
2226	0.00330111
2238	0.00381462
2250	0.00344783
2262	0.00330111
2274	0.00300768
2286	0.0027876
2298	0.00264089
2310	0.00293432
2322	0.00344783
2334	0.00388797
2346	0.00286096
2358	0.00425476
2370	0.00308104
2382	0.00205402
2394	0.00154052
2406	0.00176059
2418	0.00183395
2430	0.00132044
2442	0.00168723
2454	0.00132044
2466	0.00110037
2478	0.000953654
2490	0.000953654
2502	0.00161388
2514	0.00124709
2526	0.00154052
2538	0.00168723
2550	0.00234746
2562	0.00256753
2574	0.00300768
2586	0.00315439
2598	0.00315439
2610	0.00396133
2622	0.00388797
2634	0.00403469
2646	0.0050617
2658	0.00564857
2670	0.00616207
2682	0.00704237
2694	0.00718908
2706	0.00696901
2718	0.0064555
2730	0.00755587
2742	0.00909639
2754	0.00968326
2766	0.00953654
2778	0.0111504
2790	0.0141581
2802	0.0181928
2814	0.0254552
2826	0.0331578
2838	0.0481228
2850	0.111651
2862	0.292845
2874	0.308324
2886	0.263502
2898	0.212151
2910	0.272158
2922	0.478954
2934	0.73358
2946	0.585323
2958	0.416087
2970	0.56493
2982	0.243328
2994	0.0773193
3006	0.0424743
3018	0.0294899
3030	0.0231078
3042	0.0167256
3054	0.0132044
3066	0.0101234
3078	0.0087296
3090	0.00762923
3102	0.00704237
3114	0.00696901
3126	0.00557521
3138	0.00535513
3150	0.00579528
3162	0.00535513
3174	0.00498834
3186	0.00447484
3198	0.00388797
3210	0.0036679
3222	0.00264089
3234	0.00286096
3246	0.00220074
3258	0.00249417
3270	0.00212738
3282	0.00264089
3294	0.00212738
3306	0.00242081
3318	0.00293432
3330	0.00242081
3342	0.00256753
3354	0.00249417
3366	0.00315439
3378	0.00242081
3390	0.00308104
3402	0.00249417
3414	0.00271425
3426	0.00352118
3438	0.00344783
3450	0.00330111
3462	0.00322775
3474	0.00564857
3486	0.00894968
3498	0.00982997
3510	0.00652886
3522	0.00440148
3534	0.0045482
3546	0.00374126
3558	0.00403469
3570	0.0123975
3582	0.0151117
3594	0.00462155
3606	0.00190731
3618	0.00352118
3630	0.00586864
3642	0.00198067
3654	0.00667558
3666	0.000660222
3678	0.00381462
3690	0.0050617
3702	0.00337447
3714	0.0036679
3726	0.00440148
3738	0.00550185
3750	0.00652886
3762	0.00330111
3774	0.00469491
3786	0.00381462
3798	0.00535513
3810	0.00205402
3822	0.00674894
3834	0.00388797
3846	0.00293432
3858	0.00388797
3870	0.00572192
3882	0.00388797
3894	0.00601536
3906	0.00469491
3918	0.00220074
3930	0.0073358
3942	0.00359454
3954	0.00476827
3966	0.00168723
