Infrared Spectrum: 1-Butanol, 2-methyl-
Formula: C 5 H 12 O
CAS: 137-32-6
Origin: Sadtler Research Labs Under US-EPA Contract
1/CM	ABSORBANCE
450	0.0133129
462	0.00993397
474	0.0151375
486	0.0231793
498	0.0161511
510	0.0118937
522	0.00804178
534	0.010407
546	0.00912303
558	0.00783905
570	0.00310859
582	0.00195976
594	0.00905545
606	0.00973123
618	0.00979881
630	0.00608202
642	0.00527108
654	0.0012164
666	0.00182461
678	0.00756874
690	0.00689296
702	0.00351406
714	0.00439257
726	0.00371679
738	0.00750116
750	0.0120965
762	0.0172324
774	0.0147996
786	0.012164
798	0.010407
810	0.012975
822	0.0185839
834	0.0183136
846	0.0150699
858	0.0133129
870	0.0138535
882	0.0225035
894	0.0321671
906	0.033316
918	0.0308156
930	0.0348702
942	0.0456827
954	0.0593335
966	0.0708893
978	0.0804854
990	0.0959608
1002	0.129344
1014	0.163471
1026	0.194895
1038	0.260581
1050	0.291667
1062	0.199152
1074	0.0899463
1086	0.0710245
1098	0.0713624
1110	0.0712948
1122	0.0675104
1134	0.0668346
1146	0.06501
1158	0.0568331
1170	0.0468991
1182	0.0410874
1194	0.0433175
1206	0.0532515
1218	0.0607526
1230	0.0623745
1242	0.0608202
1254	0.0568331
1266	0.0523054
1278	0.0477776
1290	0.0439933
1302	0.0406144
1314	0.0403441
1326	0.0413577
1338	0.047237
1350	0.0527784
1362	0.0734573
1374	0.104881
1386	0.124006
1398	0.0984611
1410	0.0525081
1422	0.032505
1434	0.0345324
1446	0.0607526
1458	0.104273
1470	0.110963
1482	0.0773092
1494	0.0366273
1506	0.0185164
1518	0.0120965
1530	0.00885272
1542	0.0108125
1554	0.00702811
1566	0.00533866
1578	0.0061496
1590	0.00479804
1602	0.00479804
1614	0.00378437
1626	0.00371679
1638	0.00479804
1650	0.00452773
1662	0.00473046
1674	0.00533866
1686	0.00581171
1698	0.00405468
1710	0.00250039
1722	0.00243281
1734	0.00574413
1746	0.00290585
1758	0.00250039
1770	0.00297343
1782	0.00162187
1794	0.00270312
1806	0.00195976
1818	0.00195976
1830	0.00202734
1842	0.000946092
1854	0.000878514
1866	0.00135156
1878	0.00162187
1890	0.00182461
1902	0.00101367
1914	0.00067578
1926	0.00108125
1938	0.00141914
1950	0.0021625
1962	0.00155429
1974	0.000540624
1986	0.000473046
1998	0.000743358
2010	0.00195976
2022	0.00189218
2034	0.00243281
2046	0.00182461
2058	0.00202734
2070	0.00243281
2082	0.00229765
2094	0.00236523
2106	0.00135156
2118	0.00067578
2130	0.000270312
2142	0.00114883
2154	0.00128398
2166	0.0012164
2178	0.000540624
2190	0.00067578
2202	0.000540624
2214	0.00101367
2226	0.00101367
2238	0.00108125
2250	0.00114883
2262	0.00108125
2274	0.00114883
2286	0.00162187
2298	0.00202734
2310	0.00168945
2322	0.00128398
2334	0.000608202
2346	0.00155429
2358	0.00297343
2370	0.00229765
2382	0.00209492
2394	0.00250039
2406	0.00256796
2418	0.00290585
2430	0.00331132
2442	0.00304101
2454	0.00250039
2466	0.00209492
2478	0.00168945
2490	0.00175703
2502	0.00209492
2514	0.00209492
2526	0.00162187
2538	0.00148672
2550	0.00202734
2562	0.00304101
2574	0.0039871
2586	0.00466288
2598	0.00493319
2610	0.00486562
2622	0.00601444
2634	0.00729842
2646	0.00770389
2658	0.0079742
2670	0.00837967
2682	0.00898787
2694	0.0102719
2706	0.0119613
2718	0.0147996
2730	0.0183136
2742	0.0210168
2754	0.0227738
2766	0.0234496
2778	0.0256121
2790	0.0287206
2802	0.0314238
2814	0.0357488
2826	0.0455476
2838	0.0665643
2850	0.111031
2862	0.198139
2874	0.332889
2886	0.410874
2898	0.39594
2910	0.398034
2922	0.460409
2934	0.503456
2946	0.486156
2958	0.549004
2970	0.67578
2982	0.521364
2994	0.206316
3006	0.0612257
3018	0.0295316
3030	0.0213546
3042	0.019057
3054	0.0173675
3066	0.0162863
3078	0.0133804
3090	0.0112179
3102	0.0100015
3114	0.00878514
3126	0.00831209
3138	0.00804178
3150	0.00831209
3162	0.00790663
3174	0.00729842
3186	0.007366
3198	0.00621718
3210	0.00486562
3222	0.00351406
3234	0.0012164
3246	0.000743358
3258	0.00067578
3270	0.00108125
3282	0.00162187
3294	0.00101367
3306	0.000202734
3318	0.000135156
3330	0.00141914
3342	0.00195976
3354	0.00182461
3366	0.000878514
3378	0.000540624
3390	0.00101367
3402	0.00236523
3414	0.00324374
3426	0.00243281
3438	0.00155429
3450	0.00135156
3462	0.0027707
3474	0.00351406
3486	0.0039871
3498	0.00310859
3510	0.00243281
3522	0.00148672
3534	0.0021625
3546	0.00405468
3558	0.00263554
3570	0.00351406
3582	0.00155429
3594	0.00250039
3606	0.00391952
3618	0.00716327
3630	0.0143265
3642	0.0248687
3654	0.0494671
3666	0.0717678
3678	0.0654831
3690	0.0366949
3702	0.0125019
3714	0.00641991
3726	0.0039871
3738	0.00533866
3750	0.00452773
3762	0.00344648
3774	0.00263554
3786	0.00229765
3798	0.00256796
3810	0.00263554
3822	0.00405468
3834	0.00473046
3846	0.00391952
3858	0.00412226
3870	0.00405468
3882	0.00432499
3894	0.00439257
3906	0.00412226
3918	0.00243281
3930	0.00155429
3942	0.000946092
3954	6.7578e-05
3966	0.000135156
