Infrared Spectrum: Propanoic acid, 3-[(4-methylphenyl)thio]-
Formula: C 10 H 12 O 2 S
CAS: 13739-35-0
Origin: Sadtler Research Labs Under US-EPA Contract
1/CM	ABSORBANCE
450	0.00985804
462	0.0146067
474	0.0218199
486	0.0450224
498	0.0800665
510	0.0715309
522	0.0462246
534	0.0443011
546	0.0528968
558	0.0522957
570	0.0664817
582	0.0682249
594	0.0820502
606	0.100804
618	0.0898043
630	0.0768807
642	0.055181
654	0.0358256
666	0.0289129
678	0.0259675
690	0.0213992
702	0.0173117
714	0.00931705
726	0.00492902
738	0.00504924
750	0.00799463
762	0.0135849
774	0.0286124
786	0.0544597
798	0.0824108
810	0.130499
822	0.0401535
834	0.0132843
846	0.00336616
858	0.00054099
870	0.0018033
882	0.00396726
894	0.00655199
906	0.0117214
918	0.01094
930	0.0110602
942	0.0161095
954	0.0138854
966	0.0135849
978	0.0194155
990	0.0193554
1002	0.0209183
1014	0.0572247
1026	0.047006
1038	0.031137
1050	0.0281315
1062	0.0316179
1074	0.0516946
1086	0.10369
1098	0.220964
1110	0.392759
1122	0.413437
1134	0.235812
1146	0.155204
1158	0.118717
1170	0.12028
1182	0.123286
1194	0.0911869
1206	0.078143
1218	0.0848152
1230	0.0556619
1242	0.0477273
1254	0.0469459
1266	0.0470661
1278	0.0474869
1290	0.0372682
1302	0.0320987
1314	0.0323392
1326	0.0357654
1338	0.0445415
1350	0.0614324
1362	0.0889027
1374	0.117275
1386	0.100504
1398	0.066121
1410	0.0529569
1422	0.0578258
1434	0.0631155
1446	0.039913
1458	0.0236833
1470	0.0253664
1482	0.0590881
1494	0.144504
1506	0.0488694
1518	0.0143062
1530	0.00703287
1542	0.00534979
1554	0.00408748
1566	0.00553012
1578	0.0054099
1590	0.0066121
1602	0.00787441
1614	0.0078143
1626	0.0105192
1638	0.0119619
1650	0.00829518
1662	0.00547001
1674	0.00685254
1686	0.0108799
1698	0.0188144
1710	0.0309566
1722	0.0550608
1734	0.0911869
1746	0.142461
1758	0.22974
1770	0.404841
1782	0.6011
1794	0.308485
1806	0.143663
1818	0.0659407
1830	0.0286124
1842	0.0139455
1854	0.00871595
1866	0.00733342
1878	0.00793452
1890	0.0106395
1902	0.00979793
1914	0.00456836
1926	0.00234429
1938	0.00168308
1950	0.0018033
1962	0.00150275
1974	0.00150275
1986	0.00168308
1998	0.00192352
2010	0.00204374
2022	0.00138253
2034	0.00096176
2046	0.00066121
2058	0.00066121
2070	0.00066121
2082	0.00048088
2094	0.00048088
2106	0.00036066
2118	0.00072132
2130	0.00042077
2142	0.00054099
2154	0.00042077
2166	0.00078143
2178	0.00084154
2190	0.00102187
2202	0.00102187
2214	0.00126231
2226	0.00162297
2238	0.00132242
2250	0.00096176
2262	0.00048088
2274	0.00090165
2286	0.00234429
2298	0.00444814
2310	0.00613122
2322	0.00510935
2334	0.00414759
2346	0.00583067
2358	0.0054099
2370	0.0054099
2382	0.00504924
2394	0.00186341
2406	0.00204374
2418	0.00174319
2430	0.00108198
2442	0.00084154
2454	0.00132242
2466	0.00114209
2478	0.00126231
2490	0.00132242
2502	0.00084154
2514	0.00096176
2526	0.00090165
2538	0.0006011
2550	0.00096176
2562	0.00126231
2574	0.00174319
2586	0.0024044
2598	0.00150275
2610	0.00138253
2622	0.00156286
2634	0.00114209
2646	0.00132242
2658	0.00102187
2670	0.00162297
2682	0.00198363
2694	0.0024044
2706	0.00234429
2718	0.00198363
2730	0.00258473
2742	0.00486891
2754	0.00348638
2766	0.00210385
2778	0.00246451
2790	0.00306561
2802	0.00402737
2814	0.00516946
2826	0.00685254
2838	0.0100985
2850	0.0148472
2862	0.0236833
2874	0.0375086
2886	0.0400333
2898	0.0356452
2910	0.0412956
2922	0.0661811
2934	0.112586
2946	0.0921486
2958	0.0503722
2970	0.041536
2982	0.0435798
2994	0.0427983
3006	0.0421371
3018	0.0582466
3030	0.084154
3042	0.0533777
3054	0.0447218
3066	0.0424978
3078	0.0447218
3090	0.0292135
3102	0.0180931
3114	0.00997826
3126	0.00583067
3138	0.00438803
3150	0.00384704
3162	0.00306561
3174	0.00318583
3186	0.00210385
3198	0.00246451
3210	0.00234429
3222	0.00162297
3234	0.00168308
3246	0.00126231
3258	0.00102187
3270	0.00102187
3282	0.00198363
3294	0.0012022
3306	0.00156286
3318	0.00138253
3330	0.00102187
3342	0.00174319
3354	0.00138253
3366	0.00156286
3378	0.00132242
3390	0.00138253
3402	0.00144264
3414	0.0018033
3426	0.00132242
3438	0.00144264
3450	0.00150275
3462	0.00096176
3474	0.0006011
3486	0.00102187
3498	0.00168308
3510	0.00198363
3522	0.00294539
3534	0.00534979
3546	0.0102187
3558	0.0269293
3570	0.179849
3582	0.188565
3594	0.0312572
3606	0.0107597
3618	0.00631155
3630	0.00739353
3642	0.00132242
3654	0.00282517
3666	0.00144264
3678	0.00342627
3690	0.00288528
3702	0.00162297
3714	0.00348638
3726	0.0030055
3738	0.00366671
3750	0.00565034
3762	0.00030055
3774	0.00024044
3786	0.00024044
3798	0.00024044
3810	0.00066121
3822	0.00348638
3834	0.00090165
3846	0.00072132
3858	0.00162297
3870	0.00252462
3882	0.00336616
3894	0.00216396
3906	0.00270495
3918	0.00036066
3930	0.00042077
3942	0.00144264
3954	0.00024044
3966	0.00024044
