Infrared Spectrum: 1H-Imidazole-2-carboxaldehyde, 1-methyl-
Formula: C 5 H 6 N 2 O
CAS: 13750-81-7
Origin: Sadtler Research Labs Under US-EPA Contract
1/CM	ABSORBANCE
450	0.00753301
462	0.0119179
474	0.0125925
486	0.0157406
498	0.0197882
510	0.0200131
522	0.0172022
534	0.0141666
546	0.0100065
558	0.00888221
570	0.00472219
582	0.00247353
594	0.00505948
606	0.00427245
618	0.0016865
630	0.00179893
642	0.00247353
654	0.00393516
666	0.0105687
678	0.0299072
690	0.0414878
702	0.0399137
714	0.0174271
726	0.0178768
738	0.065436
750	0.160554
762	0.50831
774	0.528435
786	0.322795
798	0.0526186
810	0.0209125
822	0.00944437
834	0.013492
846	0.0239482
858	0.0541927
870	0.0350791
882	0.0281083
894	0.0273212
906	0.038677
918	0.0363159
930	0.0242855
942	0.00809518
954	0.00652111
966	0.00697085
978	0.00753301
990	0.00640868
1002	0.00618381
1014	0.00843248
1026	0.0122552
1038	0.0133795
1050	0.0121428
1062	0.0113557
1074	0.0177644
1086	0.0332802
1098	0.0310315
1110	0.0239482
1122	0.0152909
1134	0.0239482
1146	0.0668976
1158	0.0615009
1170	0.0246228
1182	0.0102314
1194	0.0103438
1206	0.0194509
1218	0.0385645
1230	0.0403634
1242	0.0282207
1254	0.0294574
1266	0.0630749
1278	0.124014
1290	0.122327
1302	0.0699333
1314	0.0215871
1326	0.0507073
1338	0.0582403
1350	0.0445235
1362	0.0475592
1374	0.0733063
1386	0.0927572
1398	0.237009
1410	0.459626
1422	0.439051
1434	0.160554
1446	0.0715074
1458	0.0782534
1470	0.144589
1482	0.175171
1494	0.162691
1506	0.108048
1518	0.0775788
1530	0.0491332
1542	0.0216996
1554	0.0169774
1566	0.0103438
1578	0.0106811
1590	0.0138293
1602	0.0240607
1614	0.0275461
1626	0.0222617
1638	0.00978167
1650	0.00865734
1662	0.031931
1674	0.0845496
1686	0.300871
1698	0.943313
1710	1.02561
1722	0.390817
1734	0.0634122
1746	0.0163028
1758	0.00899464
1770	0.00505948
1782	0.00382272
1794	0.00416002
1806	0.00607138
1818	0.00876977
1830	0.00505948
1842	0.00326056
1854	0.00337299
1866	0.00258596
1878	0.00348542
1890	0.00438489
1902	0.00674598
1914	0.00730815
1926	0.00595895
1938	0.00371029
1950	0.00191136
1962	0.00247353
1974	0.00337299
1986	0.00472219
1998	0.00472219
2010	0.00326056
2022	0.0010119
2034	0.000899464
2046	0.000787031
2058	0.0013492
2070	0.00146163
2082	0.0016865
2094	0.00213623
2106	0.00269839
2118	0.00269839
2130	0.00258596
2142	0.00348542
2154	0.00438489
2166	0.00517192
2178	0.00854491
2190	0.0107936
2202	0.00775788
2214	0.00382272
2226	0.00247353
2238	0.00224866
2250	0.00191136
2262	0.00247353
2274	0.00236109
2286	0.00146163
2298	0.00123676
2310	0.00123676
2322	0.000674598
2334	0.000787031
2346	0.00359786
2358	0.000674598
2370	0.00371029
2382	0.00202379
2394	0
2406	0.000449732
2418	0.000562165
2430	0.0016865
2442	0.00303569
2454	0.00292326
2466	0.00213623
2478	0.0016865
2490	0.00157406
2502	0.000674598
2514	0.000787031
2526	0.00146163
2538	0.00258596
2550	0.00404759
2562	0.00618381
2574	0.00550922
2586	0.00337299
2598	0.00191136
2610	0.00146163
2622	0.0016865
2634	0.00213623
2646	0.00326056
2658	0.00652111
2670	0.00742058
2682	0.00652111
2694	0.00787031
2706	0.00820761
2718	0.00764544
2730	0.0113557
2742	0.0177644
2754	0.0178768
2766	0.0133795
2778	0.0159655
2790	0.0208001
2802	0.0249601
2814	0.0355288
2826	0.0722944
2838	0.157631
2850	0.198219
2862	0.156057
2874	0.0739809
2886	0.0395764
2898	0.0303569
2910	0.0254099
2922	0.0274337
2934	0.0350791
2946	0.0528435
2958	0.0803896
2970	0.0810642
2982	0.0540803
2994	0.0267591
3006	0.0186639
3018	0.0159655
3030	0.0152909
3042	0.0131547
3054	0.0124801
3066	0.010906
3078	0.0098941
3090	0.00854491
3102	0.0114682
3114	0.0242855
3126	0.0305818
3138	0.0257472
3150	0.0157406
3162	0.00517192
3174	0.00314812
3186	0.00303569
3198	0.00258596
3210	0.00202379
3222	0.00179893
3234	0.0013492
3246	0.00157406
3258	0.00179893
3270	0.0016865
3282	0.00191136
3294	0.00191136
3306	0.00236109
3318	0.00258596
3330	0.00269839
3342	0.00236109
3354	0.00292326
3366	0.00539678
3378	0.0107936
3390	0.0147287
3402	0.0103438
3414	0.00337299
3426	0.00146163
3438	0.00157406
3450	0.00179893
3462	0.00202379
3474	0.00213623
3486	0.00112433
3498	0.00157406
3510	0.00123676
3522	0.00123676
3534	0.000899464
3546	0.00123676
3558	0.000899464
3570	0.00213623
3582	0.00112433
3594	0.00112433
3606	0.000787031
3618	0.000562165
3630	0.00236109
3642	0.00146163
3654	0.000449732
3666	0.00123676
3678	0.0016865
3690	0.00179893
3702	0.000674598
3714	0.000787031
3726	0.00112433
3738	0.00258596
3750	0.000449732
3762	0.0010119
3774	0
3786	0.00191136
3798	0.00146163
3810	0.0013492
3822	0.00202379
3834	0.00202379
3846	0.0013492
3858	0.00179893
3870	0.00224866
3882	0.00191136
3894	0.00269839
3906	0.00281082
3918	0.00269839
3930	0.00123676
3942	0.00371029
3954	0.00202379
3966	0.00281082
