Infrared Spectrum: Propanoic acid, 2-hydroxy-, butyl ester
Formula: C 7 H 14 O 3
CAS: 138-22-7
Origin: Sadtler Research Labs Under US-EPA Contract
1/CM	ABSORBANCE
450	0.0142736
462	0.0116964
474	0
486	0.0151657
498	0.0148187
510	0.0141744
522	0.0238884
534	0.0208652
546	0.00887142
558	0.0139266
570	0.0198244
582	0.0161073
594	0.0177428
606	0.0269116
618	0.0138771
630	0.0226494
642	0.0212617
654	0.0334041
666	0.0132328
678	0.0202209
690	0.0128363
702	0.00931747
714	0.012985
726	0.0207165
738	0.0184863
750	0.0283985
762	0.0308269
774	0.0190314
786	0.0165534
798	0.0183376
810	0.0143727
822	0.017495
834	0.0233928
846	0.026416
858	0.0165038
870	0.0200226
882	0.0119442
894	0.0172472
906	0.0214599
918	0.0261682
930	0.0275064
942	0.0501062
954	0.0555083
966	0.0557066
978	0.0425729
990	0.0377655
1002	0.0482724
1014	0.0553101
1026	0.0798923
1038	0.118352
1050	0.11741
1062	0.109827
1074	0.110918
1086	0.125488
1098	0.1581
1110	0.201812
1122	0.296177
1134	0.49561
1146	0.341872
1158	0.153788
1170	0.124596
1182	0.153044
1194	0.247161
1206	0.398371
1218	0.461562
1230	0.293153
1242	0.224164
1254	0.288495
1266	0.313721
1278	0.247954
1290	0.142884
1302	0.0940668
1314	0.0708227
1326	0.0614061
1338	0.0533772
1350	0.0530303
1362	0.0529311
1374	0.073945
1386	0.0804871
1398	0.0598201
1410	0.0419782
1422	0.0352874
1434	0.0384593
1446	0.0538232
1458	0.0802888
1470	0.0784055
1482	0.0454474
1494	0.0241362
1506	0.0127372
1518	0.0127372
1530	0.0104078
1542	0.0078802
1554	0.00708722
1566	0.0096644
1578	0.00599688
1590	0.00728547
1602	0.00768196
1614	0.0069881
1626	0.00515434
1638	0.00515434
1650	0.00624469
1662	0.0069881
1674	0.0112503
1686	0.0135302
1698	0.0184367
1710	0.031273
1722	0.0572925
1734	0.161767
1746	0.410266
1758	0.4516
1770	0.236109
1782	0.109976
1794	0.0590272
1806	0.0371708
1818	0.0200226
1830	0.0121424
1842	0.00872274
1854	0.00594732
1866	0.00589776
1878	0.00564995
1890	0.00460917
1902	0.00421268
1914	0.00530303
1926	0.00480742
1938	0.0031719
1950	0.00555083
1962	0.00416312
1974	0.00515434
1986	0.00431181
1998	0.00505522
2010	0.00173463
2022	0.00361795
2034	0.00401444
2046	0.00426225
2058	0.0049561
2070	0.00436137
2082	0.00346927
2094	0.00386576
2106	0.00465873
2118	0.00351883
2130	0.00341971
2142	0.00351883
2154	0.00277542
2166	0.00346927
2178	0.00287454
2190	0.0038162
2202	0.00188332
2214	0.00366751
2226	0.00232937
2238	0.00272586
2250	0.00218068
2262	0.00322147
2274	0.00322147
2286	0.00247805
2298	0.00411356
2310	0.00421268
2322	0.00436137
2334	0.00728547
2346	0.00703766
2358	0.0067403
2370	0.00515434
2382	0.00426225
2394	0.00109034
2406	0.00346927
2418	0.00223025
2430	0.00297366
2442	0.00247805
2454	0.00337015
2466	0.0011399
2478	0.00128859
2490	0.00272586
2502	0.00282498
2514	0.00277542
2526	0.002032
2538	0.00237893
2550	0.00148683
2562	0.00168507
2574	0.00322147
2586	0.00138771
2598	0.00346927
2610	0.00337015
2622	0.00436137
2634	0.0017842
2646	0.00431181
2658	0.0029241
2670	0.00351883
2682	0.00391532
2694	0.0047083
2706	0.00262673
2718	0.00366751
2730	0.00664117
2742	0.00624469
2754	0.00887142
2766	0.00887142
2778	0.00723591
2790	0.0100609
2802	0.0118451
2814	0.0148683
2826	0.0164543
2838	0.0251274
2850	0.0362787
2862	0.058482
2874	0.0926295
2886	0.133567
2898	0.12187
2910	0.125092
2922	0.144223
2934	0.177825
2946	0.228575
2958	0.230409
2970	0.298655
2982	0.243345
2994	0.169251
3006	0.0976847
3018	0.0283489
3030	0.0192297
3042	0.013431
3054	0.00986264
3066	0.00639337
3078	0.00763239
3090	0.00247805
3102	0.00505522
3114	0.00555083
3126	0.0031719
3138	0.00371708
3150	0.00465873
3162	0.0038162
3174	0.00361795
3186	0.00574908
3198	0.0049561
3210	0.00386576
3222	0.00391532
3234	0.00257717
3246	0.00272586
3258	0.0017842
3270	0.00490654
3282	0.00188332
3294	0.00386576
3306	0.0029241
3318	0.00327103
3330	0.00257717
3342	0.00302322
3354	0.00312234
3366	0.00128859
3378	0.00232937
3390	0.00272586
3402	0.00213112
3414	0.00262673
3426	0.00376664
3438	0.00242849
3450	0.0031719
3462	0.00728547
3474	0.00302322
3486	0.0069881
3498	0.00644293
3510	0.006096
3522	0.00530303
3534	0.00723591
3546	0.0110521
3558	0.0323138
3570	0.0730034
3582	0.0782073
3594	0.0506018
3606	0.0243345
3618	0.0160578
3630	0.01581
3642	0.0254248
3654	0.0147692
3666	0.0102591
3678	0.00783064
3690	0.00564995
3702	0.006096
3714	0.00158595
3726	0.00341971
3738	0.00272586
3750	0.00143727
3762	0.00322147
3774	0.00341971
3786	0.00168507
3798	0.000396488
3810	0.0047083
3822	0.00104078
3834	0.00257717
3846	0.0058482
3858	0.00361795
3870	0.00446049
3882	0.00480742
3894	0.00421268
3906	0.000297366
3918	0.00366751
3930	0.0029241
3942	0.0011399
3954	0.000247805
3966	0.000297366
