Infrared Spectrum: Limonene
Formula: C 10 H 16
CAS: 138-86-3
Origin: Sadtler Research Labs Under US-EPA Contract
1/CM	ABSORBANCE
450	0.0034603
462	0.00988656
474	0.0223271
486	0.00922746
498	0.00560238
510	0.0202674
522	0.0243045
534	0.0237277
546	0.0332024
558	0.00922746
570	0.0201851
582	0.0145003
594	0.00700298
606	0.00741492
618	0.00914507
630	0.00972178
642	0.0120286
654	0.00930984
666	0.0088979
678	0.0104633
690	0.00840358
702	0.0109576
714	0.00922746
726	0.0108752
738	0.0114519
750	0.0159009
762	0.018043
774	0.018043
786	0.0459725
798	0.0870841
810	0.053717
822	0.0182077
834	0.0147475
846	0.0192788
858	0.0224919
870	0.0479498
882	0.164117
894	0.257133
906	0.13248
918	0.0692883
930	0.0392991
942	0.026117
954	0.0284239
966	0.0243045
978	0.0179606
990	0.0212561
1002	0.025046
1014	0.0336143
1026	0.0292477
1038	0.0262818
1050	0.0357564
1062	0.0283415
1074	0.0205146
1086	0.0189492
1098	0.0213385
1110	0.0269409
1122	0.0191964
1134	0.0192788
1146	0.04968
1158	0.0594841
1170	0.0245516
1182	0.0189492
1194	0.0257051
1206	0.0293301
1218	0.0233158
1230	0.0352621
1242	0.0352621
1254	0.0260346
1266	0.0224919
1278	0.0236454
1290	0.0299892
1302	0.0279295
1314	0.0299068
1326	0.0272704
1338	0.0267761
1350	0.0255403
1362	0.0393815
1374	0.0970531
1386	0.118474
1398	0.0481146
1410	0.0369922
1422	0.0566829
1434	0.123417
1446	0.183478
1458	0.182737
1470	0.0992775
1482	0.0406173
1494	0.0238925
1506	0.0193612
1518	0.0171367
1530	0.014006
1542	0.0133469
1554	0.0144179
1566	0.0164776
1578	0.0211737
1590	0.0252931
1602	0.0269409
1614	0.0292477
1626	0.0458901
1638	0.106363
1650	0.137835
1662	0.0549528
1674	0.0238101
1686	0.017631
1698	0.0133469
1710	0.0129349
1722	0.0107928
1734	0.00898029
1746	0.00996895
1758	0.0112048
1770	0.012111
1782	0.0199379
1794	0.0221624
1806	0.0122758
1818	0.00782686
1830	0.00708537
1842	0.00650865
1854	0.00642626
1866	0.00692059
1878	0.00659104
1890	0.00593194
1902	0.0061791
1914	0.00650865
1926	0.00593194
1938	0.00667343
1950	0.0068382
1962	0.00609671
1974	0.00502567
1986	0.00453134
1998	0.00436656
2010	0.00428418
2022	0.00428418
2034	0.00337791
2046	0.00313074
2058	0.00486089
2070	0.0041194
2082	0.00387224
2094	0.00486089
2106	0.00395462
2118	0.00337791
2130	0.00378985
2142	0.00370746
2154	0.00329552
2166	0.00403701
2178	0.00387224
2190	0.00337791
2202	0.00337791
2214	0.0041194
2226	0.00370746
2238	0.0041194
2250	0.00469612
2262	0.00453134
2274	0.00370746
2286	0.00444895
2298	0.00700298
2310	0.00988656
2322	0.0107104
2334	0.00650865
2346	0.00304836
2358	0.0133469
2370	0.00197731
2382	0.00197731
2394	0.00304836
2406	0.0041194
2418	0.00329552
2430	0.00288358
2442	0.00263642
2454	0.00329552
2466	0.00378985
2478	0.00453134
2490	0.00370746
2502	0.00230686
2514	0.00280119
2526	0.00288358
2538	0.00263642
2550	0.00247164
2562	0.00304836
2574	0.00296597
2586	0.00288358
2598	0.00354268
2610	0.00444895
2622	0.00510806
2634	0.00403701
2646	0.00444895
2658	0.00840358
2670	0.00955701
2682	0.00807402
2694	0.0088979
2706	0.00906268
2718	0.0119463
2730	0.0207618
2742	0.0247164
2754	0.0154889
2766	0.0134292
2778	0.0141707
2790	0.0164776
2802	0.025046
2814	0.0400406
2826	0.0767856
2838	0.212643
2850	0.324773
2862	0.356163
2874	0.379397
2886	0.404937
2898	0.499271
2910	0.627961
2922	0.785982
2934	0.792078
2946	0.57408
2958	0.362178
2970	0.443083
2982	0.397522
2994	0.183643
3006	0.16148
3018	0.160409
3030	0.104056
3042	0.0777743
3054	0.0762089
3066	0.0756322
3078	0.126713
3090	0.135281
3102	0.0613791
3114	0.0217504
3126	0.0147475
3138	0.0102985
3150	0.00856835
3162	0.00782686
3174	0.00601432
3186	0.00568477
3198	0.00510806
3210	0.00560238
3222	0.00510806
3234	0.00519044
3246	0.00502567
3258	0.00560238
3270	0.00601432
3282	0.00288358
3294	0.00436656
3306	0.00601432
3318	0.00642626
3330	0.0047785
3342	0.00601432
3354	0.0034603
3366	0.00494328
3378	0.00576716
3390	0.00436656
3402	0.00469612
3414	0.00527283
3426	0.00741492
3438	0.00543761
3450	0.00469612
3462	0.00510806
3474	0.00436656
3486	0.00296597
3498	0.00568477
3510	0.00420179
3522	0.00453134
3534	0.00403701
3546	0.00329552
3558	0.00461373
3570	0.00337791
3582	0.00510806
3594	0.00428418
3606	0.0068382
3618	0.00675582
3630	0.00840358
3642	0.00593194
3654	0.0047785
3666	0.0068382
3678	0.00576716
3690	0.00914507
3702	0.00832119
3714	0.00568477
3726	0.00552
3738	0.00659104
3750	0.00560238
3762	0.00527283
3774	0.00650865
3786	0.0061791
3798	0.00576716
3810	0.00428418
3822	0.00642626
3834	0.00395462
3846	0.00692059
3858	0.00535522
3870	0.00914507
3882	0.0061791
3894	0.0108752
3906	0.00626149
3918	0.00708537
3930	0.00601432
3942	0.0107928
3954	0.00692059
3966	0.00996895
