Infrared Spectrum: 4-Chloro-.alpha.-ethylbenzyl alcohol
Formula: C 9 H 11 Cl O
CAS: 13856-85-4
Origin: Sadtler Research Labs Under US-EPA Contract
1/CM	ABSORBANCE
450	0.0412418
462	0.0353564
474	0.0151527
486	0.0109803
498	0.0175684
510	0.0474347
522	0.0830107
534	0.0575365
546	0.0445359
558	0.0227072
570	0.0165143
582	0.0107606
594	0.00294271
606	0.000527052
618	0.00175684
630	0.00592933
642	0.00597326
654	0.00601718
666	0.00645639
678	0.00917949
690	0.0134398
702	0.0117708
714	0.00939909
726	0.0180515
738	0.013352
750	0.0121661
762	0.0254303
774	0.0309643
786	0.042252
798	0.0492794
810	0.080639
822	0.18034
834	0.204496
846	0.0876224
858	0.0292075
870	0.0237613
882	0.0208625
894	0.0369815
906	0.0351807
918	0.0162508
930	0.0150649
942	0.0217409
954	0.031667
966	0.0809464
978	0.129128
990	0.0877102
1002	0.0977242
1014	0.272178
1026	0.11806
1038	0.104225
1050	0.0918827
1062	0.0669795
1074	0.0877102
1086	0.211743
1098	0.43921
1110	0.127634
1122	0.0653105
1134	0.0308325
1146	0.0253424
1158	0.0311839
1170	0.0463367
1182	0.0530566
1194	0.0456339
1206	0.046117
1218	0.0643882
1230	0.0803315
1242	0.065047
1254	0.0698344
1266	0.0700101
1278	0.0554283
1290	0.0711081
1302	0.0787943
1314	0.0644321
1326	0.051124
1338	0.0604792
1350	0.0852507
1362	0.0853385
1374	0.0827032
1386	0.0809464
1398	0.0706689
1410	0.0711081
1422	0.0502456
1434	0.0340827
1446	0.0437453
1458	0.0675944
1470	0.0909604
1482	0.125087
1494	0.299937
1506	0.0999203
1518	0.0290318
1530	0.0453704
1542	0.0365862
1554	0.0170853
1566	0.0152406
1578	0.023366
1590	0.0336874
1602	0.0658815
1614	0.026133
1626	0.0151967
1638	0.0174806
1650	0.0195448
1662	0.0115073
1674	0.00882812
1686	0.00759833
1698	0.00926733
1710	0.00979438
1722	0.0119904
1734	0.0160751
1746	0.0131324
1758	0.0134398
1770	0.0185347
1782	0.0170413
1794	0.00641247
1806	0.00206429
1818	8.7842e-05
1830	0.000790578
1842	0.000614894
1854	0.000307447
1866	0.00197645
1878	0.00395289
1890	0.0100579
1902	0.0129567
1914	0.00619286
1926	0.00285487
1938	0.00162508
1950	0.00136155
1962	0.00149331
1974	0.000834499
1986	0.000746657
1998	0.000834499
2010	0.000658815
2022	0.00114195
2034	0.00122979
2046	0.00153724
2058	0.00087842
2070	0.000834499
2082	0.000834499
2094	0.000834499
2106	0.000395289
2118	0.00043921
2130	0.000263526
2142	0.000570973
2154	0.000175684
2166	4.3921e-05
2178	4.3921e-05
2190	0
2202	0.000527052
2214	0.000702736
2226	0.000702736
2238	0.00101018
2250	0.0010541
2262	0.00171292
2274	0.00228389
2286	0.0025035
2298	0.00241566
2310	0.00202037
2322	0.00232781
2334	0.00294271
2346	0.00232781
2358	0.00311839
2370	0.00294271
2382	0.00219605
2394	0.0027231
2406	0.00320623
2418	0.0035576
2430	0.00307447
2442	0.0027231
2454	0.00259134
2466	0.0027231
2478	0.00254742
2490	0.00254742
2502	0.00245958
2514	0.00245958
2526	0.00285487
2538	0.00325015
2550	0.00377721
2562	0.00412857
2574	0.00496307
2586	0.00562189
2598	0.00527052
2610	0.00447994
2622	0.0043921
2634	0.00368936
2646	0.00377721
2658	0.0046117
2670	0.00527052
2682	0.00575365
2694	0.00614894
2706	0.00588541
2718	0.00566581
2730	0.00619286
2742	0.00764225
2754	0.00856459
2766	0.00803754
2778	0.00852067
2790	0.00948694
2802	0.00975046
2814	0.011683
2826	0.0154163
2838	0.0214774
2850	0.0343023
2862	0.0712399
2874	0.1221
2886	0.166812
2898	0.106728
2910	0.0732602
2922	0.0939031
2934	0.156974
2946	0.195844
2958	0.128381
2970	0.193999
2982	0.247583
2994	0.0818687
3006	0.0342584
3018	0.0252546
3030	0.0414175
3042	0.0426912
3054	0.0307008
3066	0.023893
3078	0.0252546
3090	0.0376403
3102	0.0299541
3114	0.0143182
3126	0.00592933
3138	0.00531444
3150	0.00509484
3162	0.00377721
3174	0.00307447
3186	0.00228389
3198	0.00228389
3210	0.00197645
3222	0.00153724
3234	0.000790578
3246	0.000834499
3258	0.00136155
3270	0.0010541
3282	0.000483131
3294	0.000658815
3306	0.000527052
3318	0.00087842
3330	0.001669
3342	0.001669
3354	0.00245958
3366	0.0027231
3378	0.00276702
3390	0.00311839
3402	0.00364544
3414	0.00364544
3426	0.00364544
3438	0.00404073
3450	0.00351368
3462	0.0035576
3474	0.00346976
3486	0.00329408
3498	0.00298663
3510	0.00351368
3522	0.00320623
3534	0.00298663
3546	0.00307447
3558	0.00316231
3570	0.00351368
3582	0.00474347
3594	0.00452386
3606	0.00456778
3618	0.00553405
3630	0.0131763
3642	0.0498064
3654	0.0818248
3666	0.0384748
3678	0.00909165
3690	0.00601718
3702	0.00412857
3714	0.00276702
3726	0.00263526
3738	0.00215213
3750	0.000790578
3762	0.00149331
3774	0.00162508
3786	0.00131763
3798	0.000658815
3810	0.000790578
3822	0.00162508
3834	0.00285487
3846	0.00136155
3858	0.00329408
3870	0.00342584
3882	0.00114195
3894	0.00373329
3906	0.00144939
3918	0.00276702
3930	0.00219605
3942	0.00127371
3954	0.00144939
3966	0.00122979
