Infrared Spectrum: Sulfide, phenethyl phenyl,
Formula: C 14 H 14 S
CAS: 13865-49-1
Origin: Sadtler Research Labs Under US-EPA Contract
1/CM	ABSORBANCE
450	0.0466556
462	0.0807781
474	0.134064
486	0.135762
498	0.116356
510	0.054499
522	0.022964
534	0.024096
546	0.0268452
558	0.0381654
570	0.0300795
582	0.00638786
594	0.00897535
606	0.00784332
618	0.00743903
630	0.0112394
642	0.0261983
654	0.0580568
666	0.147325
678	0.299502
690	0.720535
702	0.711883
714	0.489278
726	0.54499
738	0.755627
750	0.479009
762	0.198509
774	0.0742286
786	0.0323436
798	0.019487
810	0.00978394
822	0.0181933
834	0.0106734
846	0.00590271
858	0.0123714
870	0.0244194
882	0.0261175
894	0.0319393
906	0.0536095
918	0.0454428
930	0.0321819
942	0.0244194
954	0.022964
966	0.0258749
978	0.0208616
990	0.0221554
1002	0.0376803
1014	0.0572482
1026	0.246539
1038	0.061372
1050	0.0301604
1062	0.0692962
1074	0.0924218
1086	0.138592
1098	0.0957371
1110	0.0464939
1122	0.0349311
1134	0.0316967
1146	0.0261175
1158	0.0186784
1170	0.020619
1182	0.0327479
1194	0.0403486
1206	0.0313733
1218	0.0527201
1230	0.0674364
1242	0.0338799
1254	0.033233
1266	0.0684876
1278	0.114254
1290	0.0709133
1302	0.0601591
1314	0.0698622
1326	0.0702665
1338	0.0454428
1350	0.024662
1362	0.0173847
1374	0.0168187
1386	0.0186784
1398	0.018921
1410	0.0362248
1422	0.0829613
1434	0.17789
1446	0.243547
1458	0.189533
1470	0.207484
1482	0.403325
1494	0.291092
1506	0.119752
1518	0.0280581
1530	0.0237725
1542	0.019487
1554	0.0364674
1566	0.0830422
1578	0.216055
1590	0.270635
1602	0.176434
1614	0.0834465
1626	0.0266835
1638	0.0169804
1650	0.0173847
1662	0.0135035
1674	0.0080859
1686	0.00161718
1698	0.00921793
1710	0.0157675
1722	0.0147972
1734	0.0160101
1746	0.0184359
1758	0.014312
1770	0.017789
1782	0.0340416
1794	0.0580568
1806	0.029837
1818	0.0181124
1830	0.0122097
1842	0.019487
1854	0.0253089
1866	0.0371951
1878	0.0385697
1890	0.0231257
1902	0.0129374
1914	0.0173038
1926	0.0310499
1938	0.0514263
1950	0.0558736
1962	0.0282198
1974	0.00768161
1986	0.00606443
1998	0.00242577
2010	0.00501326
2022	0.0049324
2034	0.00485154
2046	0.00412381
2058	0.00436639
2070	0.00283007
2082	0.00274921
2094	0.00363866
2106	0.00331522
2118	0.00291092
2130	0.00202148
2142	0.00347694
2154	0.00234491
2166	0.00291092
2178	0.00258749
2190	0.00347694
2202	0.00396209
2214	0.00258749
2226	0.00291092
2238	0.00388123
2250	0.0049324
2262	0.00436639
2274	0.00468982
2286	0.00517498
2298	0.00776246
2310	0.0147163
2322	0.0187593
2334	0.019487
2346	0.0179507
2358	0.016657
2370	0.0140695
2382	0.00816676
2394	0.0049324
2406	0.00388123
2418	0.0049324
2430	0.00460896
2442	0.00323436
2454	0.00218319
2466	0.00258749
2478	0.00250663
2490	0.00258749
2502	0.00250663
2514	0.00307264
2526	0.00428553
2538	0.00331522
2550	0.00371951
2562	0.00412381
2574	0.00428553
2586	0.00509412
2598	0.006307
2610	0.00784332
2622	0.00582185
2634	0.00768161
2646	0.0080859
2658	0.00792418
2670	0.00703473
2682	0.00590271
2694	0.00428553
2706	0.00396209
2718	0.00347694
2730	0.00299178
2742	0.00347694
2754	0.00638786
2766	0.00792418
2778	0.00954136
2790	0.0111585
2802	0.00962222
2814	0.0123714
2826	0.0219128
2838	0.0371143
2850	0.0638786
2862	0.0844977
2874	0.0632317
2886	0.0513455
2898	0.0692962
2910	0.117569
2922	0.180639
2934	0.307022
2946	0.229478
2958	0.186461
2970	0.175868
2982	0.0738243
2994	0.0644446
3006	0.117488
3018	0.20336
3030	0.418769
3042	0.361844
3054	0.26829
3066	0.632883
3078	0.651158
3090	0.394592
3102	0.179184
3114	0.0861957
3126	0.0329096
3138	0.0218319
3150	0.018355
3162	0.0138269
3174	0.00913707
3186	0.00695387
3198	0.00574099
3210	0.00412381
3222	0.00234491
3234	0.00323436
3246	0.00396209
3258	0.00646872
3270	0.00234491
3282	0.00396209
3294	0.00557927
3306	0.00339608
3318	0.00412381
3330	0.00347694
3342	0.00283007
3354	0.00525584
3366	0.00331522
3378	0.00396209
3390	0.00428553
3402	0.00363866
3414	0.00258749
3426	0.0035578
3438	0.00873277
3450	0.00800504
3462	0.0045281
3474	0.00436639
3486	0.00727731
3498	0.0045281
3510	0.006307
3522	0.00760075
3534	0.0049324
3546	0.00331522
3558	0.0035578
3570	0.00420467
3582	0.00574099
3594	0.00347694
3606	0.00468982
3618	0.00743903
3630	0.00638786
3642	0.00905621
3654	0.00711559
3666	0.00857105
3678	0.00654958
3690	0.00873277
3702	0.0118054
3714	0.00622614
3726	0.00727731
3738	0.00566013
3750	0.00307264
3762	0.00978394
3774	0.00606443
3786	0.00687302
3798	0.00420467
3810	0.00428553
3822	0.00388123
3834	0.00428553
3846	0.00331522
3858	0.00436639
3870	0.00388123
3882	0.00380037
3894	0.00654958
3906	0.00687302
3918	0.00857105
3930	0.00711559
3942	0.00533669
3954	0
3966	0.000646872
