Infrared Spectrum: Dodecanoic acid, dodecyl ester
Formula: C 24 H 48 O 2
CAS: 13945-76-1
Origin: Sadtler Research Labs Under US-EPA Contract
1/CM	ABSORBANCE
450	0
462	0.00869748
474	0.00768277
486	0.00463866
498	0.00782773
510	0.00876996
522	0.00616071
534	0.0068855
546	0.00558088
558	0.00507353
570	0.0106544
582	0.00992962
594	0.00949475
606	0.0103645
618	0.0105819
630	0.00913235
642	0.0103645
654	0.00992962
666	0.0107994
678	0.012104
690	0.0158004
702	0.0214538
714	0.0352248
726	0.0376166
738	0.0282668
750	0.0236282
762	0.0234832
774	0.0210914
786	0.0191345
798	0.0176849
810	0.0184097
822	0.0184821
834	0.0180473
846	0.018917
858	0.0217437
870	0.0228309
882	0.0239905
894	0.0255126
906	0.0248603
918	0.0244979
930	0.0263824
942	0.0285567
954	0.032833
966	0.0384139
978	0.0427626
990	0.0470389
1002	0.0537069
1014	0.0546492
1026	0.053417
1038	0.0548666
1050	0.0634916
1062	0.0712469
1074	0.070667
1086	0.0650137
1098	0.0725515
1110	0.0967595
1122	0.0877721
1134	0.0942227
1146	0.154308
1158	0.200404
1170	0.196708
1182	0.172065
1194	0.136985
1206	0.120605
1218	0.124519
1230	0.13742
1242	0.13771
1254	0.121837
1266	0.0961072
1278	0.0831334
1290	0.0761754
1302	0.0745809
1314	0.0685651
1326	0.0613897
1338	0.070667
1350	0.0815389
1362	0.0721891
1374	0.0588529
1386	0.0599401
1398	0.0379065
1410	0.0315284
1422	0.0451544
1434	0.0635641
1446	0.0943677
1458	0.142131
1470	0.111183
1482	0.0376891
1494	0.0189895
1506	0.0126113
1518	0.00934979
1530	0.00717542
1542	0.00616071
1554	0.00703046
1566	0.00637815
1578	0.00782773
1590	0.00753782
1602	0.00819013
1614	0.00884244
1626	0.00963971
1638	0.0110168
1650	0.012249
1662	0.0138435
1674	0.0169601
1686	0.0237731
1698	0.0368918
1710	0.0542868
1722	0.0987889
1734	0.220916
1746	0.291148
1758	0.169673
1770	0.0646513
1782	0.0333403
1794	0.0195693
1806	0.0126838
1818	0.0089874
1830	0.00594328
1842	0.00514601
1854	0.00485609
1866	0.0044937
1878	0.00405882
1890	0.00369643
1902	0.00362395
1914	0.00347899
1926	0.00333403
1938	0.00369643
1950	0.00376891
1962	0.00376891
1974	0.00376891
1986	0.00369643
1998	0.00384139
2010	0.0041313
2022	0.00442122
2034	0.00442122
2046	0.00478361
2058	0.00456618
2070	0.00427626
2082	0.00427626
2094	0.00333403
2106	0.00289916
2118	0.00282668
2130	0.00304412
2142	0.00282668
2154	0.00289916
2166	0.00326155
2178	0.0031166
2190	0.00297164
2202	0.00304412
2214	0.00297164
2226	0.00326155
2238	0.00347899
2250	0.00362395
2262	0.00376891
2274	0.00405882
2286	0.00471113
2298	0.00594328
2310	0.00681303
2322	0.00623319
2334	0.00507353
2346	0.00601576
2358	0.00565336
2370	0.00666807
2382	0.00717542
2394	0.00485609
2406	0.00485609
2418	0.0044937
2430	0.00427626
2442	0.00427626
2454	0.00463866
2466	0.00478361
2478	0.00471113
2490	0.00500105
2502	0.00572584
2514	0.00608824
2526	0.0068855
2538	0.00768277
2550	0.00804517
2562	0.00876996
2574	0.00905988
2586	0.00971219
2598	0.0115966
2610	0.0124664
2622	0.0135536
2634	0.0148582
2646	0.0163078
2658	0.0184097
2670	0.0205116
2682	0.0218887
2694	0.0211639
2706	0.0206565
2718	0.0215987
2730	0.0234107
2742	0.0250777
2754	0.0264548
2766	0.029209
2778	0.0342826
2790	0.0416754
2802	0.0524023
2814	0.0678403
2826	0.0918309
2838	0.141479
2850	0.278609
2862	0.392184
2874	0.302382
2886	0.251647
2898	0.290786
2910	0.393271
2922	0.574758
2934	0.72479
2946	0.504816
2958	0.367469
2970	0.295352
2982	0.153293
2994	0.0819737
3006	0.0495756
3018	0.0342826
3030	0.0251502
3042	0.0193519
3054	0.0153655
3066	0.0136261
3078	0.0107994
3090	0.00992962
3102	0.0089874
3114	0.00797269
3126	0.00746534
3138	0.00710294
3150	0.00659559
3162	0.00674055
3174	0.00703046
3186	0.00630567
3198	0.00652311
3210	0.00608824
3222	0.00492857
3234	0.00485609
3246	0.00485609
3258	0.00478361
3270	0.00442122
3282	0.00492857
3294	0.00521849
3306	0.00427626
3318	0.00471113
3330	0.0055084
3342	0.00492857
3354	0.00579832
3366	0.00558088
3378	0.00630567
3390	0.00579832
3402	0.00558088
3414	0.00529097
3426	0.00645063
3438	0.00579832
3450	0.00710294
3462	0.00833508
3474	0.00768277
3486	0.00572584
3498	0.00529097
3510	0.00471113
3522	0.00362395
3534	0.00420378
3546	0.00492857
3558	0.00456618
3570	0.00594328
3582	0.00514601
3594	0.00500105
3606	0.00652311
3618	0.00565336
3630	0.00666807
3642	0.00681303
3654	0.00659559
3666	0.00601576
3678	0.00732038
3690	0.00608824
3702	0.00442122
3714	0.00674055
3726	0.00579832
3738	0.00674055
3750	0.00536345
3762	0.00645063
3774	0.00529097
3786	0.00717542
3798	0.00717542
3810	0.0058708
3822	0.00594328
3834	0.00703046
3846	0.00572584
3858	0.00645063
3870	0.00674055
3882	0.00717542
3894	0.00645063
3906	0.00782773
3918	0.00637815
3930	0.00775525
3942	0.00674055
3954	0.00797269
3966	0.00703046
