Infrared Spectrum: 2-Propenoic acid, ethyl ester
Formula: C 5 H 8 O 2
CAS: 140-88-5
Origin: Sadtler Research Labs Under US-EPA Contract
1/CM	ABSORBANCE
450	0.00342889
462	9.0234e-05
474	0.00216562
486	0.00388006
498	0.00992574
510	0.0112793
522	0.00776012
534	0.00857223
546	0.00442147
558	0.00766989
570	0.0138058
582	0.0132644
594	0.0147984
606	0.0116402
618	0.0166933
630	0.0140765
642	0.0148886
654	0.018137
666	0.015791
678	0.0135351
690	0.0121816
702	0.0125425
714	0.012723
726	0.0118207
738	0.0117304
750	0.0117304
762	0.013896
774	0.0210245
786	0.0327549
798	0.0545916
810	0.0715556
822	0.0542306
834	0.0370862
846	0.0297772
858	0.0326647
870	0.0275214
882	0.0215659
894	0.0240022
906	0.0260776
918	0.0242729
930	0.0220171
942	0.0315819
954	0.0582912
966	0.0908656
978	0.0951066
990	0.0865344
1002	0.0550427
1014	0.046651
1026	0.0825641
1038	0.110085
1050	0.126147
1062	0.186423
1074	0.176678
1086	0.092941
1098	0.0789548
1110	0.0656001
1122	0.040876
1134	0.0333866
1146	0.0407858
1158	0.0735407
1170	0.198786
1182	0.600327
1194	0.90234
1206	0.484918
1218	0.13481
1230	0.0753454
1242	0.0877074
1254	0.186965
1266	0.345416
1278	0.313383
1290	0.186243
1302	0.178754
1314	0.0923094
1326	0.0384397
1338	0.0221976
1350	0.0216562
1362	0.0272507
1374	0.0392518
1386	0.0668634
1398	0.133637
1410	0.195447
1422	0.138599
1434	0.0461998
1446	0.0402444
1458	0.0370862
1470	0.0464705
1482	0.0389811
1494	0.0255362
1506	0.0139863
1518	0.0110988
1530	0.0110988
1542	0.00252655
1554	0.0092941
1566	0.0112793
1578	0.0090234
1590	0.0131742
1602	0.0173249
1614	0.0287846
1626	0.0397932
1638	0.0504408
1650	0.0415076
1662	0.013896
1674	0.0117304
1686	0.0113695
1698	0.0188589
1710	0.0406053
1722	0.112161
1734	0.31997
1746	0.464434
1758	0.430867
1770	0.149157
1782	0.0399737
1794	0.0166031
1806	0.0147984
1818	0.0132644
1830	0.0106476
1842	0.00947457
1854	0.0092941
1866	0.00748942
1878	0.00893317
1890	0.00965504
1902	0.0106476
1914	0.0136253
1926	0.0163324
1938	0.0153398
1950	0.00983551
1962	0.00803083
1974	0.00739919
1986	0.00586521
1998	0.00532381
2010	0.00595544
2022	0.00658708
2034	0.008482
2046	0.0102867
2058	0.0107378
2070	0.00830153
2082	0.00721872
2094	0.00785036
2106	0.00685778
2118	0.00649685
2130	0.00586521
2142	0.00532381
2154	0.00487264
2166	0.00460193
2178	0.00415076
2190	0.00351913
2202	0.00342889
2214	0.00378983
2226	0.00369959
2238	0.00433123
2250	0.00315819
2262	0.00333866
2274	0.00351913
2286	0.00342889
2298	0.0039703
2310	0.00351913
2322	0.00415076
2334	0.00577498
2346	0.0050531
2358	0.00794059
2370	0.0113695
2382	0.00613591
2394	0.00324842
2406	0.00315819
2418	0.00324842
2430	0.00288749
2442	0.00288749
2454	0.00207538
2466	0.00234608
2478	0.00306796
2490	0.00306796
2502	0.00360936
2514	0.00252655
2526	0.00198515
2538	0.00234608
2550	0.00225585
2562	0.00234608
2574	0.00135351
2586	0.00117304
2598	0.00108281
2610	0.00144374
2622	0.00198515
2634	0.00135351
2646	0.00171445
2658	0.00135351
2670	0.00189491
2682	0.00252655
2694	0.00288749
2706	0.00378983
2718	0.00252655
2730	0.00243632
2742	0.00315819
2754	0.00288749
2766	0.004241
2778	0.00306796
2790	0.00270702
2802	0.00315819
2814	0.00415076
2826	0.00568474
2838	0.00577498
2850	0.00586521
2862	0.00794059
2874	0.0132644
2886	0.0230999
2898	0.0286042
2910	0.0325745
2922	0.0330256
2934	0.0430416
2946	0.0594642
2958	0.0617201
2970	0.0712849
2982	0.116582
2994	0.132734
3006	0.0831957
3018	0.045117
3030	0.0250851
3042	0.0221976
3054	0.0187687
3066	0.0109183
3078	0.0101964
3090	0.0120914
3102	0.0141667
3114	0.0173249
3126	0.0122718
3138	0.00568474
3150	0.00595544
3162	0.00568474
3174	0.00568474
3186	0.00469217
3198	0.00351913
3210	0.00460193
3222	0.00342889
3234	0.004241
3246	0.00306796
3258	0.00297772
3270	0.00351913
3282	0.00360936
3294	0.00487264
3306	0.0047824
3318	0.0039703
3330	0.00460193
3342	0.00487264
3354	0.00613591
3366	0.00550427
3378	0.00586521
3390	0.00442147
3402	0.00415076
3414	0.00433123
3426	0.00442147
3438	0.00496287
3450	0.00369959
3462	0.00613591
3474	0.00938434
3486	0.0101964
3498	0.00794059
3510	0.0045117
3522	0.00378983
3534	0.00469217
3546	0.0047824
3558	0.00577498
3570	0.00415076
3582	0.0050531
3594	0.0039703
3606	0.00351913
3618	0.00306796
3630	0.000631638
3642	0.00369959
3654	0.00270702
3666	0.00369959
3678	0.00198515
3690	0.00243632
3702	0.00333866
3714	0.00243632
3726	0.00243632
3738	0.00162421
3750	0.00117304
3762	0.0045117
3774	0.00406053
3786	0.00433123
3798	0.00288749
3810	0.00297772
3822	0.00279725
3834	0.00216562
3846	0.00297772
3858	0.00243632
3870	0.00126328
3882	0.00378983
3894	0.00324842
3906	0.00406053
3918	0.00388006
3930	0.00532381
3942	0.00550427
3954	0
3966	0.000360936
