Infrared Spectrum: Acetic acid, phenylmethyl ester
Formula: C 9 H 10 O 2
CAS: 140-11-4
Origin: Sadtler Research Labs Under US-EPA Contract
1/CM	ABSORBANCE
450	0.00871957
462	0.0106003
474	0.0170117
486	0.0291507
498	0.0295782
510	0.00897603
522	0.00247909
534	0.00188069
546	0.00265007
558	0.00572756
570	0.0103438
582	0.0127374
594	0.0126519
606	0.0176101
618	0.0173537
630	0.00948895
642	0.00658242
654	0.00495819
666	0.00615499
678	0.0278684
690	0.064371
702	0.0662516
714	0.0424011
726	0.0473592
738	0.0689017
750	0.061208
762	0.0194053
774	0.00256458
786	0.000256458
798	0.00299201
810	0.00598402
822	0.0128229
834	0.0183795
846	0.012139
858	0.00632596
870	0.00512916
882	0.00709534
894	0.0137632
906	0.0186359
918	0.0233377
930	0.0164133
942	0.0102583
954	0.0178666
966	0.0371009
978	0.0345363
990	0.0318863
1002	0.0631742
1014	0.116346
1026	0.180632
1038	0.150626
1050	0.0877941
1062	0.0571046
1074	0.0488125
1086	0.0403494
1098	0.0255603
1110	0.0142762
1122	0.00837763
1134	0.00624048
1146	0.00675339
1158	0.00983089
1170	0.0157294
1182	0.0329121
1194	0.0566772
1206	0.145754
1218	0.480688
1230	0.85486
1242	0.488125
1254	0.189608
1266	0.127802
1278	0.0676194
1290	0.0327411
1302	0.0201747
1314	0.0165843
1326	0.0144471
1338	0.0139342
1350	0.024278
1362	0.100446
1374	0.103609
1386	0.0967702
1398	0.0434269
1410	0.0173537
1422	0.0138487
1434	0.0191489
1446	0.0310314
1458	0.0400929
1470	0.0321427
1482	0.0182085
1494	0.0255603
1506	0.0257313
1518	0.009147
1530	0.0079502
1542	0.00666791
1554	0.00572756
1566	0.00512916
1578	0.00572756
1590	0.00615499
1602	0.00777923
1614	0.00846311
1626	0.00504367
1638	0.00444527
1650	0.00530013
1662	0.00589853
1674	0.00624048
1686	0.00803568
1698	0.0117116
1710	0.0170972
1722	0.0311169
1734	0.0562498
1746	0.13011
1758	0.342371
1770	0.429738
1782	0.173964
1794	0.0616354
1806	0.0288088
1818	0.0147036
1830	0.0108567
1842	0.00889054
1854	0.00700985
1866	0.00675339
1878	0.00649694
1890	0.00504367
1902	0.00333395
1914	0.00282104
1926	0.00384687
1938	0.0048727
1950	0.00615499
1962	0.00581305
1974	0.00230812
1986	0.00188069
1998	0.00188069
2010	0.00136778
2022	0.00145326
2034	0.00188069
2046	0.00247909
2058	0.0030775
2070	0.00196618
2082	0.00162423
2094	0.00162423
2106	0.00102583
2118	0.00111132
2130	0.00162423
2142	0.00170972
2154	0.00170972
2166	0.00111132
2178	0.000769374
2190	0.000769374
2202	0.00128229
2214	0.00102583
2226	0.000769374
2238	0.000769374
2250	0.000341944
2262	0.000940346
2274	0.00085486
2286	0.00085486
2298	0.000769374
2310	0.000341944
2322	0.00085486
2334	0.000769374
2346	0.00145326
2358	0.000170972
2370	0.00188069
2382	0.00136778
2394	0.000512916
2406	0.000940346
2418	0.00102583
2430	0.00102583
2442	0.00145326
2454	0.00205166
2466	0.00196618
2478	0.00153875
2490	0.00102583
2502	0.000683888
2514	0.000683888
2526	0.000598402
2538	0.00042743
2550	0.000170972
2562	0.000598402
2574	0.000683888
2586	0.0011968
2598	0.00162423
2610	0.00111132
2622	0.0011968
2634	0.0011968
2646	0.0011968
2658	0.00102583
2670	0.00128229
2682	0.00170972
2694	0.000940346
2706	0.00102583
2718	0.00128229
2730	0.00170972
2742	0.00128229
2754	0.00111132
2766	0.00085486
2778	0.00085486
2790	0.00136778
2802	0.00136778
2814	0.00230812
2826	0.00333395
2838	0.00384687
2850	0.00435979
2862	0.00555659
2874	0.00760825
2886	0.0106858
2898	0.0137632
2910	0.0135923
2922	0.0122245
2934	0.0174391
2946	0.0299201
2958	0.0414607
2970	0.0392381
2982	0.0256458
2994	0.0182085
3006	0.0132503
3018	0.0171827
3030	0.0366735
3042	0.0647129
3054	0.0478722
3066	0.0445382
3078	0.061208
3090	0.0347073
3102	0.0245345
3114	0.0156439
3126	0.0079502
3138	0.00299201
3150	0.00205166
3162	0.00162423
3174	0.00196618
3186	0.00153875
3198	0.00145326
3210	0.00111132
3222	0.00102583
3234	8.5486e-05
3246	0.00042743
3258	0.00153875
3270	0.00111132
3282	0.00111132
3294	0.00085486
3306	0.000256458
3318	0.00111132
3330	0.000598402
3342	0.000769374
3354	0.000341944
3366	0.00111132
3378	0.000256458
3390	0.000170972
3402	0.00145326
3414	0.000683888
3426	0.0011968
3438	0.000598402
3450	0.00128229
3462	0.00085486
3474	0.00085486
3486	0.0011968
3498	0.00376138
3510	0.00478722
3522	0.00418881
3534	0.00205166
3546	0.00213715
3558	0.00111132
3570	0.00170972
3582	0.00085486
3594	0.00170972
3606	0.000769374
3618	0.00111132
3630	0.00162423
3642	0.00179521
3654	0.00265007
3666	0.00136778
3678	0.00222264
3690	0.00188069
3702	0.00222264
3714	0.000256458
3726	0.000512916
3738	0.000598402
3750	0.000170972
3762	0.00111132
3774	0.000256458
3786	0.00042743
3798	0.000170972
3810	0.00111132
3822	0.000598402
3834	0.000170972
3846	0.000170972
3858	0.000683888
3870	0.000598402
3882	0.000170972
3894	0.000170972
3906	0.00042743
3918	0.000598402
3930	0.000170972
3942	0.00111132
3954	0.000940346
3966	0.000170972
