Infrared Spectrum: Benzenemethanamine, 4-fluoro-
Formula: C 7 H 8 F N
CAS: 140-75-0
Origin: Sadtler Research Labs Under US-EPA Contract
1/CM	ABSORBANCE
450	0.0317296
462	0.0131057
474	0.0333851
486	0.0593206
498	0.0509054
510	0.0485602
522	0.0609761
534	0.106363
546	0.120711
558	0.0819453
570	0.0379376
582	0.0209692
594	0.0129678
606	0.0162787
618	0.0202794
630	0.0222108
642	0.030764
654	0.0401449
666	0.055044
678	0.0873255
690	0.154096
702	0.221694
714	0.222383
726	0.252458
738	0.225418
750	0.158648
762	0.179893
774	0.270806
786	0.326815
798	0.301294
810	0.351095
822	0.478566
834	0.501053
846	0.428212
858	0.269564
870	0.154372
882	0.0819453
894	0.0515952
906	0.0375238
918	0.0289705
930	0.0256596
942	0.0237283
954	0.0299362
966	0.033799
978	0.0313158
990	0.0289705
1002	0.0377997
1014	0.0833248
1026	0.0804278
1038	0.0976721
1050	0.0746337
1062	0.0477324
1074	0.0482842
1086	0.0539404
1098	0.0481463
1110	0.0320056
1122	0.0223487
1134	0.0201414
1146	0.0742198
1158	0.212451
1170	0.0634593
1182	0.0269012
1194	0.0418004
1206	0.0968444
1218	0.309157
1230	1.01811
1242	1.31719
1254	0.20169
1266	0.0627695
1278	0.0449733
1290	0.0466288
1302	0.045939
1314	0.0411106
1326	0.0484222
1338	0.0473186
1350	0.0624936
1362	0.0682877
1374	0.102087
1386	0.117952
1398	0.067322
1410	0.0576652
1422	0.0546302
1434	0.0343508
1446	0.0438697
1458	0.0387654
1470	0.0728402
1482	0.0731161
1494	0.120711
1506	0.863046
1518	1.15703
1530	0.173547
1542	0.0314537
1554	0.030626
1566	0.0418004
1578	0.0696673
1590	0.155337
1602	0.400897
1614	0.393586
1626	0.18348
1638	0.109674
1650	0.0743577
1662	0.0604243
1674	0.0190378
1686	0.00689775
1698	0.00055182
1710	0.015451
1722	0.0146232
1734	0.00137955
1746	0.0135196
1758	0.0271771
1770	0.0179341
1782	0.0129678
1794	0.00800139
1806	0.0148991
1818	0.015313
1830	0.00744957
1842	0.0097948
1854	0.0195896
1866	0.0246939
1878	0.0401449
1890	0.0360063
1902	0.0238662
1914	0.0135196
1926	0.0117262
1938	0.0126919
1950	0.0126919
1962	0.01214
1974	0.0113123
1986	0.0104846
1998	0.0108984
2010	0.0103466
2022	0.00800139
2034	0.00910503
2046	0.00924298
2058	0.00924298
2070	0.00758752
2082	0.00882912
2094	0.00841525
2106	0.00634593
2118	0.00482842
2130	0.00441456
2142	0.00400069
2154	0.00386274
2166	0.00455252
2178	0.00441456
2190	0.00400069
2202	0.00358683
2214	0.00413865
2226	0.00413865
2238	0.00565615
2250	0.00648388
2262	0.00579411
2274	0.00469047
2286	0.00248319
2298	0.00110364
2310	0.00082773
2322	0.00082773
2334	0.0027591
2346	0.00579411
2358	0.00179341
2370	0.00772548
2382	0.00758752
2394	0.0070357
2406	0.00510433
2418	0.0042766
2430	0.00538024
2442	0.00758752
2454	0.0106225
2466	0.0128298
2478	0.00882912
2490	0.00469047
2502	0.00441456
2514	0.00386274
2526	0.00413865
2538	0.00400069
2550	0.0042766
2562	0.00413865
2574	0.00524229
2586	0.00524229
2598	0.00469047
2610	0.0055182
2622	0.00772548
2634	0.00772548
2646	0.00772548
2658	0.0097948
2670	0.00896707
2682	0.00620797
2694	0.00607002
2706	0.00869116
2718	0.0106225
2730	0.0137955
2742	0.0171064
2754	0.0187619
2766	0.018348
2778	0.0193137
2790	0.0238662
2802	0.0302121
2814	0.0380756
2826	0.0558718
2838	0.0856701
2850	0.122228
2862	0.161683
2874	0.169961
2886	0.143473
2898	0.132989
2910	0.137679
2922	0.124849
2934	0.121124
2946	0.122228
2958	0.088843
2970	0.0500777
2982	0.0310399
2994	0.027729
3006	0.0442836
3018	0.0488361
3030	0.0611141
3042	0.115606
3054	0.102363
3066	0.0561477
3078	0.0605622
3090	0.0463529
3102	0.0229005
3114	0.0229005
3126	0.0216589
3138	0.0136575
3150	0.00800139
3162	0.00496638
3174	0.00386274
3186	0.00607002
3198	0.00524229
3210	0.00496638
3222	0.00482842
3234	0.00441456
3246	0.00482842
3258	0.00386274
3270	0.0015175
3282	0.000965685
3294	0.00179341
3306	0.00248319
3318	0.00344887
3330	0.00731161
3342	0.0102087
3354	0.0124159
3366	0.00593206
3378	0.00400069
3390	0.0042766
3402	0.00469047
3414	0.00469047
3426	0.00634593
3438	0.00358683
3450	0.00262114
3462	0.00413865
3474	0.00137955
3486	0.00220728
3498	0.00331092
3510	0.00303501
3522	0.00303501
3534	0.00234523
3546	0.00262114
3558	0.00082773
3570	0.00386274
3582	0.00455252
3594	0.00593206
3606	0.00289705
3618	0.00579411
3630	0.0082773
3642	0.00689775
3654	0.00593206
3666	0.00593206
3678	0.00689775
3690	0.00510433
3702	0.00579411
3714	0.00634593
3726	0.00565615
3738	0.00620797
3750	0.00524229
3762	0.00455252
3774	0.00331092
3786	0.00469047
3798	0.00317296
3810	0.00344887
3822	0.00303501
3834	0.00358683
3846	0.00358683
3858	0.00344887
3870	0.00744957
3882	0.00482842
3894	0.00262114
3906	0.00413865
3918	0.00372478
3930	0.00593206
3942	0.00206932
3954	0.00331092
3966	0.00303501
