Infrared Spectrum: Butyric acid, 4-hydroxy-2-mercapto-, .gamma.-lactone
Formula: C 4 H 6 O 2 S
CAS: 14032-62-3
Origin: Sadtler Research Labs Under US-EPA Contract
1/CM	ABSORBANCE
450	0.00307635
462	0.0099237
474	0.0115115
486	0.0123054
498	0.00932828
510	0.00813743
522	0.00972523
534	0.00783972
546	0.00317558
558	0.00198474
570	0.00327482
582	0.00099237
594	0.00148855
606	0.00446566
618	0.00555727
630	0.00635117
642	0.0109161
654	0.0145878
666	0.0144886
678	0.0207405
690	0.0191527
702	0.00843514
714	0.00129008
726	0.000694659
738	0.00148855
750	0.00645041
762	0.0108168
774	0.00754201
786	0.00387024
798	0.00337406
810	0.00476338
822	0.00416795
834	0.00466414
846	0.00615269
858	0.0105191
870	0.0243131
882	0.0503132
894	0.0615269
906	0.0527941
918	0.0512063
930	0.0478322
942	0.0383055
954	0.0311604
966	0.023023
978	0.0160764
990	0.030565
1002	0.0738323
1014	0.111741
1026	0.176245
1038	0.25226
1050	0.256329
1062	0.134665
1074	0.0730384
1086	0.0639086
1098	0.0617254
1110	0.0747255
1122	0.138039
1134	0.330658
1146	0.543124
1158	0.50462
1170	0.258215
1182	0.109855
1194	0.122062
1206	0.145779
1218	0.111443
1230	0.0592445
1242	0.0366185
1254	0.0262978
1266	0.026794
1278	0.0229237
1290	0.0147863
1302	0.01171
1314	0.0140917
1326	0.00942751
1338	0.0103206
1350	0.0236184
1362	0.0784965
1374	0.102115
1386	0.0543819
1398	0.0115115
1410	0.00446566
1422	0.00664888
1434	0.00893133
1446	0.0218321
1458	0.032649
1470	0.0201451
1482	0.0166718
1494	0.0165726
1506	0.0108168
1518	0.00396948
1530	0.00129008
1542	0.00307635
1554	0.000893133
1566	0
1578	0.00198474
1590	0.000893133
1602	0.00377101
1614	0.00516032
1626	0.00476338
1638	0.00516032
1650	0.00476338
1662	0.00793896
1674	0.00962599
1686	0.0110153
1698	0.0124046
1710	0.0181604
1722	0.0240154
1734	0.0281833
1746	0.0359238
1758	0.0634124
1770	0.10668
1782	0.201352
1794	0.485567
1806	0.929851
1818	0.973713
1830	0.500948
1842	0.168802
1854	0.0610308
1866	0.0291757
1878	0.0183588
1890	0.0135955
1902	0.0106184
1914	0.00903057
1926	0.00754201
1938	0.00525956
1950	0.00387024
1962	0.00367177
1974	0.00347329
1986	0.00347329
1998	0.00357253
2010	0.00416795
2022	0.00525956
2034	0.00714506
2046	0.00883209
2058	0.00813743
2070	0.00764125
2082	0.00476338
2094	0.00218321
2106	0.00148855
2118	0.00109161
2130	0.00099237
2142	0.000893133
2154	0.000893133
2166	0.00099237
2178	0.000595422
2190	0.000793896
2202	0.00138932
2214	0.00168703
2226	0.00218321
2238	0.00307635
2250	0.00436643
2262	0.00555727
2274	0.00654964
2286	0.00694659
2298	0.0080382
2310	0.00863362
2322	0.00635117
2334	0.00466414
2346	0.00843514
2358	0.00565651
2370	0.00774049
2382	0.00645041
2394	0.00099237
2406	0.000893133
2418	0.000198474
2430	0
2442	0.00099237
2454	0.00158779
2466	0.00168703
2478	0.0018855
2490	0.00218321
2502	0.00258016
2514	0.00258016
2526	0.00208398
2538	0.0018855
2550	0.0018855
2562	0.00377101
2574	0.00793896
2586	0.00903057
2598	0.00645041
2610	0.00148855
2622	0.000893133
2634	0.00099237
2646	0.00099237
2658	0.00119084
2670	0.00148855
2682	0.00178627
2694	0.00158779
2706	0.00238169
2718	0.00347329
2730	0.00416795
2742	0.00357253
2754	0.00277864
2766	0.00297711
2778	0.00297711
2790	0.0026794
2802	0.0026794
2814	0.00277864
2826	0.00277864
2838	0.00357253
2850	0.00525956
2862	0.00774049
2874	0.0144886
2886	0.0238169
2898	0.0424734
2910	0.0938782
2922	0.105687
2934	0.0624201
2946	0.0481299
2958	0.0489238
2970	0.0550765
2982	0.0877255
2994	0.131886
3006	0.115214
3018	0.0570613
3030	0.0143894
3042	0.00734354
3054	0.00506109
3066	0.00337406
3078	0.00337406
3090	0.0026794
3102	0.00287787
3114	0.00228245
3126	0.00218321
3138	0.00168703
3150	0.00148855
3162	0.00138932
3174	0.00168703
3186	0.00178627
3198	0.0018855
3210	0.00109161
3222	0.00138932
3234	0.00148855
3246	0.00099237
3258	0.00099237
3270	0.000893133
3282	0.00129008
3294	0.00129008
3306	0.00099237
3318	0.00129008
3330	0.000893133
3342	0.00138932
3354	0.000793896
3366	0.00129008
3378	0.00148855
3390	0.00148855
3402	0.00148855
3414	0.00158779
3426	0.00178627
3438	0.00148855
3450	0.0018855
3462	0.00218321
3474	0.00178627
3486	0.00099237
3498	0.000595422
3510	0.00138932
3522	0.00129008
3534	0.00129008
3546	0.00238169
3558	0.00148855
3570	0.0045649
3582	0.00645041
3594	0.00922904
3606	0.0091298
3618	0.00625193
3630	0.00476338
3642	0.00099237
3654	0
3666	0.000893133
3678	0.00208398
3690	0.00258016
3702	0.00198474
3714	0.00208398
3726	0.00228245
3738	0.00436643
3750	0.00148855
3762	0.000793896
3774	0.00228245
3786	0.000496185
3798	0.000793896
3810	0.00168703
3822	0.00258016
3834	0.00148855
3846	0.00198474
3858	0.00248093
3870	0.00198474
3882	0.00198474
3894	0.00148855
3906	0.00208398
3918	0.00277864
3930	0.00119084
3942	0.00208398
3954	0.00138932
3966	0.000297711
