Infrared Spectrum: 4-Methoxyphenylacetic acid ethyl ester
Formula: C 11 H 14 O 3
CAS: 14062-18-1
Origin: Sadtler Research Labs Under US-EPA Contract
1/CM	ABSORBANCE
450	0.0068979
462	0.0172447
474	0.00800156
486	0.0068979
498	0.0151754
510	0.0382144
522	0.0412494
534	0.0464918
546	0.0340756
558	0.0205557
570	0.0148995
582	0.0125542
594	0.0144856
606	0.0244186
618	0.0251084
630	0.0106228
642	0.00455261
654	0.00151754
666	0.00151754
678	0.00648403
690	0.0183484
702	0.0194521
714	0.0157272
726	0.0213835
738	0.0168309
750	0.0194521
762	0.0293851
774	0.0597358
786	0.0892588
798	0.0867756
810	0.102779
822	0.135199
834	0.107331
846	0.0608395
858	0.0386282
870	0.026212
882	0.019728
894	0.0140717
906	0.0191762
918	0.0335238
930	0.0387662
942	0.0369727
954	0.0299369
966	0.0235908
978	0.0248324
990	0.0324201
1002	0.0488371
1014	0.116023
1026	0.272605
1038	0.516515
1050	0.343929
1062	0.162515
1074	0.117954
1086	0.0954669
1098	0.162652
1110	0.220319
1122	0.34255
1134	0.604808
1146	0.847476
1158	0.632813
1170	0.503409
1182	0.433878
1194	0.241151
1206	0.259499
1218	0.388766
1230	0.647161
1242	1.19389
1254	1.24231
1266	0.697792
1278	0.477059
1290	0.457193
1302	0.381316
1314	0.241702
1326	0.199349
1338	0.16348
1350	0.0939494
1362	0.0827748
1374	0.113677
1386	0.0662198
1398	0.052562
1410	0.0536657
1422	0.075463
1434	0.102227
1446	0.140993
1458	0.134095
1470	0.190658
1482	0.111746
1494	0.114229
1506	0.468505
1518	0.834232
1530	0.115057
1542	0.0324201
1554	0.0251084
1566	0.0282814
1578	0.0496649
1590	0.0768426
1602	0.112574
1614	0.193831
1626	0.0891209
1638	0.0313165
1650	0.0184864
1662	0.0179345
1674	0.0143476
1686	0.01959
1698	0.0337997
1710	0.0669096
1722	0.11823
1734	0.280055
1746	0.757527
1758	0.891898
1770	0.4405
1782	0.139613
1794	0.0535277
1806	0.0303508
1818	0.0184864
1830	0.013106
1842	0.0120023
1854	0.0144856
1866	0.0160031
1878	0.0171068
1890	0.0139338
1902	0.0129681
1914	0.00827748
1926	0.00662198
1938	0.00731177
1950	0.00827748
1962	0.0106228
1974	0.0111746
1986	0.00979502
1998	0.00882931
2010	0.0095191
2022	0.0102089
2034	0.0114505
2046	0.0113126
2058	0.0139338
2070	0.0160031
2082	0.0158652
2094	0.0110366
2106	0.00620811
2118	0.00317303
2130	0.00234529
2142	0.00110366
2154	0.000551832
2166	0.000275916
2178	0.000137958
2190	0.000413874
2202	0.000551832
2214	0.00124162
2226	0.00193141
2238	0.00206937
2250	0.0016555
2262	0.00193141
2274	0.00317303
2286	0.00441466
2298	0.00455261
2310	0.00344895
2322	0.00289712
2334	0.00358691
2346	0.00413874
2358	0.00220733
2370	0.00303508
2382	0.00303508
2394	0.00289712
2406	0.00275916
2418	0.00317303
2430	0.00358691
2442	0.00248324
2454	0.00220733
2466	0.00317303
2478	0.00413874
2490	0.00565628
2502	0.0052424
2514	0.00455261
2526	0.00551832
2538	0.00703586
2550	0.00772565
2562	0.00482853
2574	0.00344895
2586	0.00386282
2598	0.0042767
2610	0.00400078
2622	0.00386282
2634	0.00400078
2646	0.00386282
2658	0.00275916
2670	0.00303508
2682	0.00344895
2694	0.0042767
2706	0.0042767
2718	0.0052424
2730	0.00717382
2742	0.00813952
2754	0.00910523
2766	0.0102089
2778	0.0115885
2790	0.0136578
2802	0.0175207
2814	0.0259361
2826	0.0415254
2838	0.0928457
2850	0.124852
2862	0.0809813
2874	0.085534
2886	0.102641
2898	0.114367
2910	0.166239
2922	0.212041
2934	0.260741
2946	0.336893
2958	0.283642
2970	0.286539
2982	0.296334
2994	0.276192
3006	0.269846
3018	0.14996
3030	0.0967086
3042	0.11009
3054	0.0648403
3066	0.0550452
3078	0.0652541
3090	0.0408356
3102	0.0365589
3114	0.0292471
3126	0.0208317
3138	0.0160031
3150	0.0107607
3162	0.00965706
3174	0.00800156
3186	0.0068979
3198	0.00538036
3210	0.00400078
3222	0.00372487
3234	0.00317303
3246	0.00317303
3258	0.00206937
3270	0.00248324
3282	0.00220733
3294	0.00220733
3306	0.00137958
3318	0.00234529
3330	0.00234529
3342	0.00248324
3354	0.00248324
3366	0.0026212
3378	0.00193141
3390	0.0026212
3402	0.00220733
3414	0.00193141
3426	0.00275916
3438	0.00248324
3450	0.00317303
3462	0.00317303
3474	0.00496649
3486	0.00703586
3498	0.00620811
3510	0.00317303
3522	0.00124162
3534	0.00124162
3546	0.00110366
3558	0.00151754
3570	0.0026212
3582	0.00220733
3594	0.00289712
3606	0.00151754
3618	0.0016555
3630	0.00234529
3642	0.00220733
3654	0.0026212
3666	0.0016555
3678	0.00303508
3690	0.00206937
3702	0.00248324
3714	0.0026212
3726	0.00234529
3738	0.0026212
3750	0.00137958
3762	0.00289712
3774	0.00289712
3786	0.00193141
3798	0.00331099
3810	0.00151754
3822	0.00220733
3834	0.0026212
3846	0.00179345
3858	0.00275916
3870	0.00303508
3882	0.00469057
3894	0.00400078
3906	0.00234529
3918	0.00317303
3930	0.00317303
3942	0.00124162
3954	0.00275916
3966	0.0042767
