Infrared Spectrum: Hexanedioic acid, bis(2-methylpropyl) ester
Formula: C 14 H 26 O 4
CAS: 141-04-8
Origin: Sadtler Research Labs Under US-EPA Contract
1/CM	ABSORBANCE
450	0.00122684
462	0.0034079
474	0.00354422
486	0.00381685
498	0.00456659
510	0.00408948
522	0.00218106
534	0.00109053
546	0.001295
558	0.00177211
570	0.00299895
582	0.00354422
594	0.00463474
606	0.00538448
618	0.00490738
630	0.00429395
642	0.00286264
654	0.00156763
666	0
678	0.000817896
690	0.00272632
702	0.00252185
714	0.00374869
726	0.00436211
738	0.00545264
750	0.00797449
762	0.00961028
774	0.00920133
786	0.00933765
798	0.00756554
810	0.00926949
822	0.0121321
834	0.0111098
846	0.0111098
858	0.0107008
870	0.0107008
882	0.0115869
894	0.0141087
906	0.0177892
918	0.0230374
930	0.0286945
942	0.0326477
954	0.031489
966	0.0339427
978	0.0463474
990	0.076337
1002	0.12507
1014	0.142995
1026	0.0993744
1038	0.0749056
1050	0.0796767
1062	0.091468
1074	0.0860154
1086	0.0703391
1098	0.0614785
1110	0.0826075
1122	0.144154
1134	0.265884
1146	0.370439
1158	0.384275
1170	0.354422
1182	0.306915
1194	0.268134
1206	0.246936
1218	0.251571
1230	0.264453
1242	0.252048
1254	0.207405
1266	0.157786
1278	0.137815
1290	0.130795
1302	0.099647
1314	0.0878557
1326	0.0747693
1338	0.0882646
1350	0.105849
1362	0.0961709
1374	0.117436
1386	0.118868
1398	0.0588204
1410	0.0368053
1422	0.0390545
1434	0.0519364
1446	0.0540493
1458	0.0767459
1470	0.0848567
1482	0.0511867
1494	0.0226966
1506	0.0132908
1518	0.00933765
1530	0.00790633
1542	0.00408948
1554	0.00558896
1566	0.0055208
1578	0.00429395
1590	0.00538448
1602	0.00579343
1614	0.0059979
1626	0.0059979
1638	0.00565711
1650	0.00817896
1662	0.00886054
1674	0.0115187
1686	0.0139724
1698	0.0248095
1710	0.0450524
1722	0.0787906
1734	0.168282
1746	0.467291
1758	0.626508
1770	0.2224
1782	0.0789951
1794	0.0373506
1806	0.0205837
1818	0.0134271
1830	0.00906501
1842	0.00722475
1854	0.00572527
1866	0.00545264
1878	0.00463474
1890	0.00388501
1902	0.00388501
1914	0.00388501
1926	0.00347606
1938	0.00374869
1950	0.00429395
1962	0.00429395
1974	0.00429395
1986	0.00415764
1998	0.00429395
2010	0.00490738
2022	0.00483922
2034	0.00627054
2046	0.00722475
2058	0.00667948
2070	0.00620238
2082	0.00627054
2094	0.00518001
2106	0.00347606
2118	0.00333974
2130	0.00279448
2142	0.00279448
2154	0.00265816
2166	0.00265816
2178	0.00238553
2190	0.00231737
2202	0.00190842
2214	0.00184027
2226	0.00184027
2238	0.00184027
2250	0.00190842
2262	0.00238553
2274	0.00238553
2286	0.00293079
2298	0.00415764
2310	0.00477106
2322	0.00415764
2334	0.00293079
2346	0.00197658
2358	0.00320343
2370	0.000886054
2382	0.00245369
2394	0.00231737
2406	0.00238553
2418	0.00245369
2430	0.00245369
2442	0.00184027
2454	0.00190842
2466	0.00184027
2478	0.00184027
2490	0.0021129
2502	0.00190842
2514	0.00184027
2526	0.00184027
2538	0.00218106
2550	0.00170395
2562	0.00184027
2574	0.00231737
2586	0.00136316
2598	0.000954212
2610	0.000408948
2622	0.000477106
2634	0.00143132
2646	0
2658	0.000749738
2670	0.00231737
2682	0.00238553
2694	0.00299895
2706	0.00483922
2718	0.00565711
2730	0.00729291
2742	0.00824712
2754	0.00770185
2766	0.00736106
2778	0.0076337
2790	0.00920133
2802	0.0100192
2814	0.011655
2826	0.0149266
2838	0.0188798
2850	0.0256956
2862	0.0417809
2874	0.0836299
2886	0.134271
2898	0.123434
2910	0.116482
2922	0.142723
2934	0.189275
2946	0.248231
2958	0.290421
2970	0.381208
2982	0.292125
2994	0.0860154
3006	0.0341472
3018	0.0199021
3030	0.0138361
3042	0.0115869
3054	0.00954212
3066	0.00797449
3078	0.00797449
3090	0.00824712
3102	0.00695212
3114	0.00654317
3126	0.00654317
3138	0.00627054
3150	0.00688396
3162	0.00695212
3174	0.00851975
3186	0.00756554
3198	0.00667948
3210	0.0059979
3222	0.00545264
3234	0.00518001
3246	0.00497553
3258	0.0059979
3270	0.0059979
3282	0.00524817
3294	0.00333974
3306	0.00265816
3318	0.00293079
3330	0.00299895
3342	0.00224921
3354	0.00163579
3366	0.00354422
3378	0.00149948
3390	0.00293079
3402	0.00313527
3414	0.00177211
3426	0.00197658
3438	0.00190842
3450	0.00306711
3462	0.00354422
3474	0.0042258
3486	0.00688396
3498	0.00483922
3510	0.00265816
3522	0.00177211
3534	0.00102237
3546	0.00109053
3558	0.000613422
3570	0.00224921
3582	0.00170395
3594	0.000545264
3606	0.00143132
3618	0.00143132
3630	0.00122684
3642	0.00136316
3654	0.00170395
3666	0.00238553
3678	0.00149948
3690	0.00272632
3702	0.00252185
3714	0.00238553
3726	0.00299895
3738	0.00238553
3750	0.00231737
3762	0.00218106
3774	0.00245369
3786	0.00272632
3798	0.00265816
3810	0.00252185
3822	0.00238553
3834	0.00299895
3846	0.00293079
3858	0.00231737
3870	0.00197658
3882	0.00204474
3894	0.000954212
3906	0.00068158
3918	0.000749738
3930	0.00156763
3942	0.00102237
3954	0.000817896
3966	0.00170395
