Infrared Spectrum: 2-Butenedioic acid (E)-, bis(2-ethylhexyl) ester
Formula: C 20 H 36 O 4
CAS: 141-02-6
Origin: Sadtler Research Labs Under US-EPA Contract
1/CM	ABSORBANCE
450	0
462	0.0324702
474	0.0961618
486	0.0617081
498	0.0554638
510	0.0704501
522	0.06854
534	0.0586961
546	0.0610469
558	0.0587696
570	0.0625896
582	0.0595042
594	0.0564923
606	0.0586227
618	0.0621489
630	0.0532599
642	0.0603123
654	0.0680993
666	0.0803674
678	0.0660423
690	0.0556107
702	0.0535538
714	0.05708
726	0.0581084
738	0.0593573
750	0.0594308
762	0.0658954
774	0.0821305
786	0.0730212
798	0.0616346
810	0.0518642
822	0.0600919
834	0.0591369
846	0.0600919
858	0.0631773
870	0.0591369
882	0.0627365
894	0.0642058
906	0.0683197
918	0.0705235
930	0.0713316
942	0.0752985
954	0.0891829
966	0.114674
978	0.177631
990	0.158531
1002	0.172856
1014	0.213113
1026	0.219725
1038	0.165877
1050	0.111956
1062	0.0939579
1074	0.0873463
1086	0.0817632
1098	0.080294
1110	0.0891829
1122	0.102186
1134	0.1445
1146	0.351589
1158	0.413077
1170	0.395519
1182	0.187989
1194	0.133334
1206	0.160882
1218	0.310671
1230	0.260276
1242	0.395813
1254	0.618183
1266	0.398017
1278	0.324849
1290	0.53451
1302	0.381488
1314	0.191589
1326	0.121139
1338	0.103214
1350	0.0911663
1362	0.0888156
1374	0.0974106
1386	0.137227
1398	0.0957944
1410	0.0705235
1422	0.0663362
1434	0.0694951
1446	0.0816897
1458	0.119302
1470	0.138917
1482	0.0868321
1494	0.0620019
1506	0.05708
1518	0.0536273
1530	0.0523049
1542	0.0517172
1554	0.0489257
1566	0.0481911
1578	0.0476768
1590	0.0478972
1602	0.0474565
1614	0.0495868
1626	0.054215
1638	0.0673647
1650	0.0761801
1662	0.0587696
1674	0.0567861
1686	0.0617815
1698	0.0745639
1710	0.0937375
1722	0.146336
1734	0.406171
1746	0.639927
1758	0.184683
1770	0.0989533
1782	0.0750047
1794	0.0606796
1806	0.0513499
1818	0.0479707
1830	0.0456934
1842	0.0442241
1854	0.0447384
1866	0.0441507
1878	0.0425345
1890	0.042461
1902	0.0419468
1914	0.0417999
1926	0.042461
1938	0.0412856
1950	0.0411387
1962	0.040551
1974	0.0395226
1986	0.0397429
1998	0.0393756
2010	0.0388614
2022	0.0398899
2034	0.0397429
2046	0.0398164
2058	0.0398899
2070	0.0404041
2082	0.0402572
2094	0.0403306
2106	0.0404041
2118	0.0406979
2130	0.0399633
2142	0.0398899
2154	0.0394491
2166	0.039596
2178	0.0389349
2190	0.0385675
2202	0.0383472
2214	0.0381268
2226	0.0382737
2238	0.0373922
2250	0.0377595
2262	0.0374656
2274	0.0383472
2286	0.0404041
2298	0.043416
2310	0.0448853
2322	0.0417264
2334	0.0384206
2346	0.0403306
2358	0.0389349
2370	0.0388614
2382	0.0420203
2394	0.0362168
2406	0.0358495
2418	0.0359229
2430	0.0349679
2442	0.0346006
2454	0.0355556
2466	0.0353352
2478	0.0354821
2490	0.0356291
2502	0.0354821
2514	0.0354821
2526	0.0359964
2538	0.0354821
2550	0.0354087
2562	0.0357025
2574	0.0364372
2586	0.0368779
2598	0.0372452
2610	0.0376125
2622	0.0379064
2634	0.0373922
2646	0.0379799
2658	0.038641
2670	0.0390818
2682	0.0401837
2694	0.0404041
2706	0.0401103
2718	0.040551
2730	0.0415795
2742	0.0429018
2754	0.0440772
2766	0.0429018
2778	0.0437834
2790	0.0449587
2802	0.0482645
2814	0.0519376
2826	0.0561984
2838	0.0650139
2850	0.0863179
2862	0.146116
2874	0.21686
2886	0.22472
2898	0.194601
2910	0.216786
2922	0.289587
2934	0.409551
2946	0.406318
2958	0.342186
2970	0.497411
2982	0.258072
2994	0.123122
3006	0.078237
3018	0.061855
3030	0.054215
3042	0.0509826
3054	0.0472361
3066	0.0459137
3078	0.0452526
3090	0.0431957
3102	0.0423141
3114	0.0420203
3126	0.0417264
3138	0.0400368
3150	0.0402572
3162	0.0393022
3174	0.0395226
3186	0.038641
3198	0.0382737
3210	0.0374656
3222	0.0369514
3234	0.0355556
3246	0.0359964
3258	0.0354821
3270	0.0360698
3282	0.0368779
3294	0.0357025
3306	0.0352618
3318	0.0352618
3330	0.0359229
3342	0.035776
3354	0.0360698
3366	0.0362902
3378	0.0359229
3390	0.0362902
3402	0.0368045
3414	0.0354821
3426	0.0356291
3438	0.0365841
3450	0.0363637
3462	0.0390818
3474	0.0404041
3486	0.0378329
3498	0.0343802
3510	0.0359229
3522	0.0352618
3534	0.0362168
3546	0.0353352
3558	0.0354821
3570	0.0375391
3582	0.0359229
3594	0.0354821
3606	0.0363637
3618	0.0362168
3630	0.0389349
3642	0.0359229
3654	0.0363637
3666	0.0375391
3678	0.0398164
3690	0.0378329
3702	0.0377595
3714	0.0388614
3726	0.0370248
3738	0.040551
3750	0.0385675
3762	0.0373187
3774	0.0381268
3786	0.0375391
3798	0.0379799
3810	0.0365841
3822	0.0398899
3834	0.0382002
3846	0.037686
3858	0.0399633
3870	0.0401837
3882	0.0373187
3894	0.0384206
3906	0.0397429
3918	0.0374656
3930	0.0368045
3942	0.0387145
3954	0.0392287
3966	0.0370983
