Infrared Spectrum: Benzene, 1,3-diethyl-
Formula: C 10 H 14
CAS: 141-93-5
Origin: Sadtler Research Labs Under US-EPA Contract
1/CM	ABSORBANCE
450	0.018418
462	0.0138503
474	0.00861962
486	0.00780923
498	0.00655681
510	0.00891431
522	0.009209
534	0.0103878
546	0.0128926
558	0.00943002
570	0.0103141
582	0.00243118
594	0.00876697
606	0.00707251
618	0.0068515
630	0.00692517
642	0.0068515
654	0.00957736
666	0.0119349
678	0.0236487
690	0.0817759
702	0.151985
714	0.0797868
726	0.0299108
738	0.0273323
750	0.0353626
762	0.0387515
774	0.0693254
786	0.119643
798	0.0836177
810	0.0358046
822	0.0192284
834	0.0127453
846	0.0144397
858	0.0400776
870	0.0515704
882	0.0478131
894	0.0373517
906	0.0127453
918	0.0068515
930	0.00861962
942	0.0086933
954	0.0117138
966	0.0138503
978	0.0104614
990	0.00891431
1002	0.0115665
1014	0.0136293
1026	0.0166499
1038	0.0225436
1050	0.031679
1062	0.046266
1074	0.0326367
1086	0.0163552
1098	0.0198914
1110	0.0200388
1122	0.0114192
1134	0.00935634
1146	0.00884064
1158	0.0128926
1170	0.00994572
1182	0.00744087
1194	0.00692517
1206	0.00773556
1218	0.00817759
1230	0.0097247
1242	0.0108298
1254	0.0120085
1266	0.0117138
1278	0.0149554
1290	0.0173129
1302	0.0223226
1314	0.0432455
1326	0.0504653
1338	0.0297635
1350	0.0166499
1362	0.0160605
1374	0.0262272
1386	0.0334471
1398	0.0247538
1410	0.0266693
1422	0.0317526
1434	0.055033
1446	0.0839861
1458	0.111392
1470	0.10594
1482	0.102183
1494	0.0952579
1506	0.0371307
1518	0.018418
1530	0.013482
1542	0.0100931
1554	0.0112718
1566	0.0129663
1578	0.0284374
1590	0.0635053
1602	0.110582
1614	0.120601
1626	0.032784
1638	0.00935634
1650	0.0103141
1662	0.00861962
1674	0.0122296
1686	0.0108298
1698	0.00884064
1710	0.00692517
1722	0.00574642
1734	0.00596743
1746	0.00721986
1758	0.0102404
1770	0.014145
1782	0.0127453
1794	0.0102404
1806	0.00626212
1818	0.00449399
1830	0.00442032
1842	0.00663048
1854	0.0158395
1866	0.0159868
1878	0.00464134
1890	0.0036836
1902	0.00383094
1914	0.00677782
1926	0.0128189
1938	0.0111981
1950	0.00471501
1962	0.00390462
1974	0.00331524
1986	0.0031679
1998	0.00257852
2010	0.00272586
2022	0.00375727
2034	0.00353626
2046	0.00375727
2058	0.00250485
2070	0.00162078
2082	0.00257852
2094	0.00243118
2106	0.00228383
2118	0.0023575
2130	0.00279954
2142	0.00331524
2154	0.00272586
2166	0.00331524
2178	0.00279954
2190	0.00265219
2202	0.00250485
2214	0.00228383
2226	0.0023575
2238	0.00302055
2250	0.00346258
2262	0.00221016
2274	0.00243118
2286	0.0018418
2298	0.00324157
2310	0.00353626
2322	0.00434665
2334	0.00442032
2346	0.00442032
2358	0.0036836
2370	7.3672e-05
2382	0.00169446
2394	0.00206282
2406	0.00198914
2418	0.0023575
2430	0.00272586
2442	0.00287321
2454	0.00176813
2466	0.00125242
2478	0.00198914
2490	0.0018418
2502	0.00117875
2514	0.00103141
2526	0.000957736
2538	0.000515704
2550	0.000663048
2562	0.00103141
2574	0.00147344
2586	0.00117875
2598	0.00228383
2610	0.00302055
2622	0.00456766
2634	0.00464134
2646	0.00338891
2658	0.00375727
2670	0.00324157
2682	0.00279954
2694	0.00456766
2706	0.0041993
2718	0.00471501
2730	0.00655681
2742	0.00950369
2754	0.00825126
2766	0.00994572
2778	0.0121559
2790	0.0130399
2802	0.014145
2814	0.0164289
2826	0.0242381
2838	0.0371307
2850	0.0551067
2862	0.104909
2874	0.187569
2886	0.244075
2898	0.217995
2910	0.193021
2922	0.188674
2934	0.315685
2946	0.400997
2958	0.303823
2970	0.677267
2982	0.56919
2994	0.154122
3006	0.1262
3018	0.153901
3030	0.183738
3042	0.146239
3054	0.124506
3066	0.126937
3078	0.0709461
3090	0.0355099
3102	0.0336681
3114	0.0275533
3126	0.0161342
3138	0.0127453
3150	0.0120085
3162	0.0129663
3174	0.0102404
3186	0.00891431
3198	0.00803025
3210	0.00478868
3222	0.00545173
3234	0.00493602
3246	0.00471501
3258	0.00523071
3270	0.00567274
3282	0.00567274
3294	0.00442032
3306	0.0036836
3318	0.00567274
3330	0.00523071
3342	0.0050097
3354	0.00449399
3366	0.00397829
3378	0.00449399
3390	0.00434665
3402	0.00412563
3414	0.00478868
3426	0.00427298
3438	0.0036836
3450	0.00346258
3462	0.00405196
3474	0.00427298
3486	0.00442032
3498	0.00346258
3510	0.00309422
3522	0.00243118
3534	0.00353626
3546	0.00375727
3558	0.00375727
3570	0.00331524
3582	0.00397829
3594	0.00338891
3606	0.00405196
3618	0.00412563
3630	0.00198914
3642	0.00397829
3654	0.00169446
3666	0.0041993
3678	0.00257852
3690	0.00405196
3702	0.00434665
3714	0.00390462
3726	0.00471501
3738	0.00309422
3750	0.00478868
3762	0.0050097
3774	0.00530438
3786	0.00493602
3798	0.00582009
3810	0.0031679
3822	0.00272586
3834	0.00250485
3846	0.00537806
3858	0.00493602
3870	0.0050097
3882	0.00486235
3894	0.00434665
3906	0.00574642
3918	0.00596743
3930	0.00515704
3942	0.00677782
3954	0.00817759
3966	0.00906166
