Infrared Spectrum: 2-Propenoic acid, butyl ester
Formula: C 7 H 12 O 2
CAS: 141-32-2
Origin: Sadtler Research Labs Under US-EPA Contract
1/CM	ABSORBANCE
450	0.0063286
462	0.0163278
474	0.0167075
486	0.0305039
498	0.0403765
510	0.0340479
522	0.0135432
534	0.0174669
546	0.0155684
558	0.0193655
570	0.00886004
582	0.00582231
594	0.0130369
606	0.0131635
618	0.0120243
630	0.0103789
642	0.00873347
654	0.0156949
666	0.0216438
678	0.0131635
690	0.0111383
702	0.00683489
714	0.0132901
726	0.0124041
738	0.00822718
750	0.0179732
762	0.0105055
774	0.00734118
786	0.0208844
798	0.0549322
810	0.0920178
822	0.0693615
834	0.0398702
846	0.0330353
858	0.0359464
870	0.0234158
882	0.0293647
894	0.0217704
906	0.0226564
918	0.0287318
930	0.0262004
942	0.0502491
954	0.103916
966	0.147203
978	0.146191
990	0.136318
1002	0.0893598
1014	0.0699943
1026	0.0569574
1038	0.0767026
1050	0.141254
1062	0.226437
1074	0.242512
1086	0.116067
1098	0.0513882
1110	0.038731
1122	0.0460722
1134	0.0403765
1146	0.0563245
1158	0.0989793
1170	0.227576
1182	0.836514
1194	1.26572
1206	0.480214
1218	0.150114
1230	0.0961947
1242	0.125433
1254	0.262257
1266	0.504769
1278	0.411612
1290	0.250233
1302	0.263649
1314	0.102903
1326	0.0522742
1338	0.0340479
1350	0.0268333
1362	0.026327
1374	0.034301
1386	0.0670832
1398	0.109358
1410	0.331872
1422	0.156443
1434	0.0467051
1446	0.0498694
1458	0.072146
1470	0.0823984
1482	0.0559448
1494	0.024555
1506	0.0145558
1518	0.0101258
1530	0.0115181
1542	0.0040503
1554	0.00430345
1566	0.00607546
1578	0.00556917
1590	0.00987262
1602	0.0144292
1614	0.0297444
1626	0.0493631
1638	0.068602
1650	0.0399968
1662	0.0149355
1674	0.0103789
1686	0.0124041
1698	0.0249347
1710	0.0510085
1722	0.114548
1734	0.367692
1746	0.752091
1758	0.529577
1770	0.150368
1782	0.0483505
1794	0.0248081
1806	0.0182264
1818	0.0141761
1830	0.00886004
1842	0.00784746
1854	0.00670832
1866	0.0054426
1878	0.00594888
1890	0.00582231
1902	0.00759432
1914	0.00961947
1926	0.0164544
1938	0.0139229
1950	0.00784746
1962	0.00556917
1974	0.00468316
1986	0.0040503
1998	0.00455659
2010	0.00556917
2022	0.0072146
2034	0.00683489
2046	0.00708803
2058	0.0063286
2070	0.00607546
2082	0.00531602
2094	0.00493631
2106	0.00531602
2118	0.00455659
2130	0.00367059
2142	0.00379716
2154	0.00341744
2166	0.00329087
2178	0.00265801
2190	0.0022783
2202	0.0022783
2214	0.00215172
2226	0.00240487
2238	0.00202515
2250	0.00164544
2262	0.00177201
2274	0.00202515
2286	0.0022783
2298	0.00341744
2310	0.00291116
2322	0.00151886
2334	0.000126572
2346	0.00202515
2358	0.00113915
2370	0.0040503
2382	0.00582231
2394	0.00379716
2406	0.00291116
2418	0.0022783
2430	0.00253144
2442	0.00202515
2454	0.00240487
2466	0.00215172
2478	0.00303773
2490	0.00240487
2502	0.00265801
2514	0.00265801
2526	0.00303773
2538	0.00341744
2550	0.00303773
2562	0.00329087
2574	0.00354402
2586	0.0040503
2598	0.0040503
2610	0.0040503
2622	0.0040503
2634	0.00443002
2646	0.00417688
2658	0.00518945
2670	0.0054426
2682	0.00594888
2694	0.00620203
2706	0.00708803
2718	0.00670832
2730	0.00696146
2742	0.00797404
2754	0.0086069
2766	0.00797404
2778	0.00746775
2790	0.00797404
2802	0.00961947
2814	0.0110118
2826	0.0135432
2838	0.0179732
2850	0.0318961
2862	0.0536665
2874	0.0926507
2886	0.14657
2898	0.119231
2910	0.114927
2922	0.146064
2934	0.191757
2946	0.26694
2958	0.296811
2970	0.422371
2982	0.296052
2994	0.112902
3006	0.0540462
3018	0.0296178
3030	0.0270864
3042	0.0335416
3054	0.0279724
3066	0.0146824
3078	0.0148089
3090	0.0132901
3102	0.0146824
3114	0.0267067
3126	0.0105055
3138	0.00594888
3150	0.00645517
3162	0.00607546
3174	0.00556917
3186	0.00556917
3198	0.00582231
3210	0.00493631
3222	0.00468316
3234	0.00455659
3246	0.00430345
3258	0.0040503
3270	0.00341744
3282	0.00480974
3294	0.00341744
3306	0.00379716
3318	0.00379716
3330	0.00430345
3342	0.00392373
3354	0.00480974
3366	0.00430345
3378	0.00607546
3390	0.00455659
3402	0.00493631
3414	0.00480974
3426	0.00468316
3438	0.00569574
3450	0.0054426
3462	0.00873347
3474	0.0117712
3486	0.0112649
3498	0.00645517
3510	0.0040503
3522	0.00455659
3534	0.00468316
3546	0.00582231
3558	0.00569574
3570	0.0063286
3582	0.0054426
3594	0.00430345
3606	0.00443002
3618	0.0054426
3630	0.00253144
3642	0.00556917
3654	0.00126572
3666	0.00556917
3678	0.00303773
3690	0.00329087
3702	0.00480974
3714	0.0040503
3726	0.00620203
3738	0.00607546
3750	0.00126572
3762	0.00620203
3774	0.00556917
3786	0.00569574
3798	0.00354402
3810	0.00873347
3822	0.00202515
3834	0.00329087
3846	0.00784746
3858	0.00430345
3870	0.00582231
3882	0.00886004
3894	0.00696146
3906	0.00746775
3918	0.00835375
3930	0.00772089
3942	0.00873347
3954	0.00607546
3966	0.00708803
