Infrared Spectrum: di(Butoxyethyl)adipate
Formula: C 18 H 34 O 6
CAS: 141-18-4
Origin: Sadtler Research Labs Under US-EPA Contract
1/CM	ABSORBANCE
450	0.00689186
462	0.00748471
474	0.0098561
486	0.00422404
498	0.00518742
510	0.00963378
522	0.00414994
534	0.0152658
546	0.00970789
558	0.00755881
570	0.00296424
582	0.00941146
594	0.00800345
606	0.00911504
618	0.00807755
630	0.00518742
642	0.00377941
654	0.00340888
666	0
678	0.00392762
690	0.00518742
702	0.00600259
714	0.00711418
726	0.00689186
738	0.0117087
750	0.0162292
762	0.0170444
774	0.0142284
786	0.0157105
798	0.0166739
810	0.0180819
822	0.0214166
834	0.0257148
846	0.0282344
858	0.0285308
870	0.0303835
882	0.0317915
894	0.0353486
906	0.0372012
918	0.0424627
930	0.0455752
942	0.0456493
954	0.0521706
966	0.0618044
978	0.0704007
990	0.0715123
1002	0.0818871
1014	0.102859
1026	0.1202
1038	0.128426
1050	0.151399
1062	0.182894
1074	0.192083
1086	0.200605
1098	0.258852
1110	0.38335
1122	0.594775
1134	0.721422
1146	0.546013
1158	0.44471
1170	0.415438
1182	0.382165
1194	0.280195
1206	0.255962
1218	0.269227
1230	0.294053
1242	0.29672
1254	0.262558
1266	0.211721
1278	0.185636
1290	0.169258
1302	0.132798
1314	0.10612
1326	0.0918914
1338	0.115457
1350	0.13591
1362	0.132798
1374	0.126499
1386	0.13843
1398	0.0717346
1410	0.0486135
1422	0.0546902
1434	0.0779595
1446	0.0914468
1458	0.113753
1470	0.08248
1482	0.0490582
1494	0.0248255
1506	0.0154882
1518	0.0108195
1530	0.00822577
1542	0.00770702
1554	0.00696596
1566	0.00600259
1578	0.00518742
1590	0.00518742
1602	0.00526153
1614	0.00452047
1626	0.00444636
1638	0.00533563
1650	0.00555795
1662	0.0074106
1674	0.0103007
1686	0.0153399
1698	0.0243809
1710	0.04476
1722	0.0770702
1734	0.163552
1746	0.443154
1758	0.722533
1770	0.28679
1782	0.12435
1794	0.0589143
1806	0.030087
1818	0.0162292
1830	0.0100043
1842	0.00696596
1854	0.00637312
1866	0.00511331
1878	0.00503921
1890	0.00511331
1902	0.00511331
1914	0.00526153
1926	0.00578027
1938	0.00644722
1950	0.00592848
1962	0.00637312
1974	0.00681775
1986	0.0062249
1998	0.0061508
2010	0.00585437
2022	0.00681775
2034	0.00681775
2046	0.00570616
2058	0.00526153
2070	0.00540974
2082	0.00377941
2094	0.00429815
2106	0.00452047
2118	0.00348298
2130	0.00340888
2142	0.00296424
2154	0.00274192
2166	0.00303835
2178	0.00296424
2190	0.00237139
2202	0.00296424
2214	0.00207497
2226	0.00185265
2238	0.00237139
2250	0.00192676
2262	0.00185265
2274	0.0024455
2286	0.00289013
2298	0.00303835
2310	0.00400172
2322	0.00303835
2334	0.00177854
2346	0.00311245
2358	0.00222318
2370	0.00422404
2382	0.00333477
2394	0.00185265
2406	0.00140801
2418	0.000963378
2430	0.0011857
2442	0.000963378
2454	0.000444636
2466	0.000889272
2478	0.000889272
2490	0.000889272
2502	0.000963378
2514	0.000444636
2526	7.4106e-05
2538	0.000444636
2550	0.000889272
2562	0.000518742
2574	0.00111159
2586	0.00192676
2598	0.00303835
2610	0.0037053
2622	0.00266782
2634	0.00348298
2646	0.00481689
2658	0.004891
2670	0.00429815
2682	0.00652133
2694	0.00896683
2706	0.0122275
2718	0.0148953
2730	0.0185265
2742	0.0205274
2754	0.0204533
2766	0.0220095
2778	0.024455
2790	0.0297165
2802	0.0364602
2814	0.0449082
2826	0.0546161
2838	0.0815166
2850	0.14547
2862	0.248626
2874	0.315914
2886	0.301019
2898	0.236398
2910	0.229877
2922	0.281306
2934	0.357265
2946	0.436484
2958	0.446637
2970	0.419292
2982	0.243438
2994	0.124424
3006	0.0629901
3018	0.0341629
3030	0.0220836
3042	0.0154882
3054	0.0120052
3066	0.00896683
3078	0.00763292
3090	0.00600259
3102	0.00555795
3114	0.00466868
3126	0.00533563
3138	0.00540974
3150	0.00437225
3162	0.00385351
3174	0.00474278
3186	0.00348298
3198	0.00466868
3210	0.00444636
3222	0.00392762
3234	0.00400172
3246	0.00289013
3258	0.00303835
3270	0.00311245
3282	0.00259371
3294	0.00148212
3306	0.00163033
3318	0.000666954
3330	0.0012598
3342	0.000296424
3354	0.00103748
3366	0.000666954
3378	0.000889272
3390	0.00170444
3402	0.00111159
3414	0.00140801
3426	0.00155623
3438	0.00266782
3450	0.00192676
3462	0.00348298
3474	0.00407583
3486	0.00578027
3498	0.00666954
3510	0.00533563
3522	0.0025196
3534	0.0024455
3546	0.00289013
3558	0.00377941
3570	0.00852219
3582	0.00829987
3594	0.00444636
3606	0.00296424
3618	0.00377941
3630	0.00437225
3642	0.00407583
3654	0.00466868
3666	0.00578027
3678	0.00281603
3690	0.00414994
3702	0.00392762
3714	0.00407583
3726	0.00363119
3738	0.00281603
3750	0.00289013
3762	0.00192676
3774	0.0037053
3786	0.0037053
3798	0.00289013
3810	0.00155623
3822	0.00333477
3834	0.00281603
3846	0.00363119
3858	0.00311245
3870	0.00207497
3882	0.00333477
3894	0.00148212
3906	0.00229729
3918	0.00259371
3930	0.00266782
3942	0.00185265
3954	0.00237139
3966	0.00311245
