Infrared Spectrum: Hexanedioic acid, diethyl ester
Formula: C 10 H 18 O 4
CAS: 141-28-6
Origin: Sadtler Research Labs Under US-EPA Contract
1/CM	ABSORBANCE
450	0.000789846
462	0.0204044
474	0.0134274
486	0.00105313
498	0.0109262
510	0.0114528
522	0.0175083
534	0.011716
546	0.0144805
558	0.017245
570	0.0123743
582	0.0190879
594	0.022379
606	0.0204044
618	0.0252751
630	0.0264598
642	0.0235637
654	0.0194829
666	0.0140856
678	0.0113211
690	0.0188247
702	0.0161918
714	0.0204044
726	0.0211942
738	0.0211942
750	0.0302774
762	0.037386
774	0.035938
786	0.0413353
798	0.0368595
810	0.032252
822	0.0294876
834	0.0329103
846	0.0376493
858	0.0455478
870	0.0406771
882	0.0344899
894	0.034095
906	0.0405454
918	0.0580537
930	0.0498919
942	0.0369911
954	0.030804
966	0.0273813
978	0.0254067
990	0.0323837
1002	0.0471275
1014	0.0785897
1026	0.165604
1038	0.273945
1050	0.246695
1062	0.228397
1074	0.206676
1086	0.181928
1098	0.216418
1110	0.196672
1122	0.226949
1134	0.390579
1146	0.621477
1158	0.695328
1170	0.735478
1182	0.715074
1194	0.618713
1206	0.531566
1218	0.492864
1230	0.50379
1242	0.506818
1254	0.453635
1266	0.335816
1278	0.253014
1290	0.227081
1302	0.213522
1314	0.204833
1326	0.152704
1338	0.161524
1350	0.193644
1362	0.160339
1374	0.277631
1386	0.163498
1398	0.0991257
1410	0.0714811
1422	0.0813541
1434	0.110447
1446	0.110578
1458	0.12835
1470	0.123348
1482	0.0720076
1494	0.0383075
1506	0.0246169
1518	0.0192196
1530	0.0167184
1542	0.0165868
1554	0.0148754
1566	0.0134274
1578	0.0142172
1590	0.0129008
1602	0.0123743
1614	0.0127692
1626	0.0123743
1638	0.0140856
1650	0.0160602
1662	0.0157969
1674	0.020536
1686	0.0269864
1698	0.0409404
1710	0.0726658
1722	0.125849
1734	0.288952
1746	0.857246
1758	1.29206
1770	0.551576
1782	0.167711
1794	0.0704279
1806	0.039229
1818	0.0254067
1830	0.0192196
1842	0.0156653
1854	0.0134274
1866	0.012111
1878	0.0125059
1890	0.0123743
1902	0.0119793
1914	0.0115844
1926	0.0103996
1938	0.0103996
1950	0.010268
1962	0.00947815
1974	0.00908323
1986	0.0100047
1998	0.00987308
2010	0.0103996
2022	0.0115844
2034	0.0115844
2046	0.0106629
2058	0.0109262
2070	0.0115844
2082	0.0101364
2094	0.00763518
2106	0.00645041
2118	0.0057922
2130	0.00487072
2142	0.00342267
2154	0.00381759
2166	0.00368595
2178	0.00329102
2190	0.00408087
2202	0.00342267
2214	0.00381759
2226	0.00408087
2238	0.00394923
2250	0.00368595
2262	0.00434415
2274	0.00355431
2286	0.00342267
2298	0.0028961
2310	0.00157969
2322	0.000263282
2334	0.00197461
2346	0.0028961
2358	0.000131641
2370	0.00710861
2382	0.00724026
2394	0.00566056
2406	0.00500236
2418	0.00447579
2430	0.00552892
2442	0.00460744
2454	0.00408087
2466	0.005134
2478	0.00487072
2490	0.00487072
2502	0.00487072
2514	0.00447579
2526	0.00473908
2538	0.00473908
2550	0.00447579
2562	0.005134
2574	0.00500236
2586	0.00552892
2598	0.0057922
2610	0.00473908
2622	0.00329102
2634	0.00368595
2646	0.00381759
2658	0.00302774
2670	0.00539728
2682	0.00908323
2694	0.00908323
2706	0.00881995
2718	0.00855666
2730	0.00895159
2742	0.00934651
2754	0.00895159
2766	0.0106629
2778	0.0129008
2790	0.012111
2802	0.0127692
2814	0.0157969
2826	0.0190879
2838	0.0235637
2850	0.0296192
2862	0.0446263
2874	0.083592
2886	0.104391
2898	0.087278
2910	0.110578
2922	0.153493
2934	0.210889
2946	0.298957
2958	0.277763
2970	0.27355
2982	0.348717
2994	0.314227
3006	0.167974
3018	0.0831971
3030	0.0423884
3042	0.0258016
3054	0.018693
3066	0.0146122
3078	0.0126375
3090	0.0113211
3102	0.00987308
3114	0.0101364
3126	0.0100047
3138	0.00868831
3150	0.00908323
3162	0.00658205
3174	0.00539728
3186	0.0080301
3198	0.00526564
3210	0.00645041
3222	0.0057922
3234	0.00487072
3246	0.00526564
3258	0.00473908
3270	0.00421251
3282	0.00460744
3294	0.00368595
3306	0.00355431
3318	0.00618713
3330	0.00526564
3342	0.00566056
3354	0.0057922
3366	0.00526564
3378	0.00605549
3390	0.00487072
3402	0.00460744
3414	0.00368595
3426	0.005134
3438	0.00539728
3450	0.00710861
3462	0.00658205
3474	0.00724026
3486	0.0142172
3498	0.0134274
3510	0.00710861
3522	0.00473908
3534	0.00487072
3546	0.00329102
3558	0.00342267
3570	0.00157969
3582	0.0022379
3594	0.00210626
3606	0.00302774
3618	0.00236954
3630	0.00210626
3642	0.00315938
3654	0.00131641
3666	0.00276446
3678	0.00276446
3690	0.00421251
3702	0.00355431
3714	0.00171133
3726	0.000131641
3738	0.00434415
3750	0.00447579
3762	0.00197461
3774	0.00487072
3786	0.00394923
3798	0.00460744
3810	0.00566056
3822	0.00355431
3834	0.005134
3846	0.00381759
3858	0.00526564
3870	0.00408087
3882	0.00500236
3894	0.00329102
3906	0.00500236
3918	0.00329102
3930	0.00315938
3942	0.00487072
3954	0.00539728
3966	0.00105313
