Infrared Spectrum: 2-Butenedioic acid (Z)-, diethyl ester
Formula: C 8 H 12 O 4
CAS: 141-05-9
Origin: Sadtler Research Labs Under US-EPA Contract
1/CM	ABSORBANCE
450	0.0099625
462	0.00342461
474	0.00490342
486	0.0056039
498	0.00140098
510	0.00661572
522	0.00451426
534	0.00498125
546	0.00459209
558	0.00692705
570	0.00910634
582	0.0110521
594	0.0165782
606	0.0129979
618	0.0133093
630	0.00840586
642	0.00653789
654	0.00926201
666	0.00723838
678	0.00832802
690	0.0128423
702	0.0104295
714	0.0124531
726	0.0140876
738	0.0148659
750	0.0129979
762	0.0140876
774	0.0186018
786	0.0254511
798	0.0400056
810	0.050513
822	0.0466992
834	0.0519918
846	0.0551829
858	0.0576735
870	0.0471662
882	0.0252954
894	0.020392
906	0.0231939
918	0.020392
930	0.016656
942	0.0192245
954	0.0287978
966	0.0439751
978	0.0300432
990	0.0214038
1002	0.02872
1014	0.0644449
1026	0.167572
1038	0.240423
1050	0.119783
1062	0.0553386
1074	0.03985
1086	0.0489563
1098	0.0775207
1110	0.0732399
1122	0.0718389
1134	0.098691
1146	0.210691
1158	0.530892
1170	0.537741
1182	0.370325
1194	0.404104
1206	0.545447
1218	0.449402
1230	0.318022
1242	0.263695
1254	0.233185
1266	0.203686
1278	0.216295
1290	0.219875
1302	0.159945
1314	0.0931649
1326	0.0478667
1338	0.0317555
1350	0.0327673
1362	0.0565839
1374	0.0815679
1386	0.154341
1398	0.136984
1410	0.129668
1422	0.0596971
1434	0.0397722
1446	0.041718
1458	0.0438194
1470	0.0559612
1482	0.0431189
1494	0.0229604
1506	0.0143211
1518	0.0117526
1530	0.0099625
1542	0.00747187
1554	0.0094955
1566	0.010196
1578	0.00980683
1590	0.0118305
1602	0.0137763
1614	0.0196137
1626	0.0344796
1638	0.0628883
1650	0.0670134
1662	0.0405505
1674	0.0259181
1686	0.026385
1698	0.0375929
1710	0.056506
1722	0.0907521
1734	0.257624
1746	0.715198
1758	0.66702
1770	0.240423
1782	0.0791551
1794	0.0452982
1806	0.0328451
1818	0.0224934
1830	0.0137763
1842	0.0108186
1854	0.00910634
1866	0.00809453
1878	0.0080167
1890	0.00848369
1902	0.00848369
1914	0.00793886
1926	0.00739404
1938	0.00723838
1950	0.00575957
1962	0.00529258
1974	0.00529258
1986	0.00529258
1998	0.00521474
2010	0.00552607
2022	0.0056039
2034	0.00614873
2046	0.00599306
2058	0.0060709
2070	0.00591523
2082	0.00591523
2094	0.00544824
2106	0.00498125
2118	0.00490342
2130	0.00435859
2142	0.00373594
2154	0.00319111
2166	0.00319111
2178	0.00264629
2190	0.00264629
2202	0.00264629
2214	0.00256846
2226	0.00241279
2238	0.00249062
2250	0.00241279
2262	0.00225713
2274	0.00186797
2286	0.00186797
2298	0.00179014
2310	0.000856152
2322	0.00038916
2334	0.00038916
2346	0.00038916
2358	0.00038916
2370	0.000622656
2382	0.00311328
2394	0.0038916
2406	0.0038916
2418	0.0038916
2430	0.0036581
2442	0.00287978
2454	0.00287978
2466	0.00241279
2478	0.00249062
2490	0.00241279
2502	0.00210146
2514	0.00202363
2526	0.0019458
2538	0.00233496
2550	0.00210146
2562	0.00202363
2574	0.00210146
2586	0.0019458
2598	0.00241279
2610	0.00303545
2622	0.00256846
2634	0.00210146
2646	0.00249062
2658	0.00272412
2670	0.00264629
2682	0.0021793
2694	0.00233496
2706	0.00233496
2718	0.00272412
2730	0.00373594
2742	0.0038916
2754	0.00396943
2766	0.00482558
2778	0.00435859
2790	0.00482558
2802	0.00474775
2814	0.0058374
2826	0.00630439
2838	0.00677138
2850	0.00793886
2862	0.0105852
2874	0.0176679
2886	0.0302766
2898	0.031989
2910	0.0403948
2922	0.0417958
2934	0.049579
2946	0.0807118
2958	0.0698931
2970	0.080167
2982	0.135428
2994	0.159166
3006	0.0922309
3018	0.0466992
3030	0.0221821
3042	0.0126088
3054	0.0108965
3066	0.0119083
3078	0.00941767
3090	0.00677138
3102	0.00552607
3114	0.00513691
3126	0.00474775
3138	0.0041251
3150	0.00420293
3162	0.00428076
3174	0.00474775
3186	0.0041251
3198	0.00428076
3210	0.00381377
3222	0.00272412
3234	0.00280195
3246	0.00233496
3258	0.00272412
3270	0.0019458
3282	0.0019458
3294	0.00210146
3306	0.0017123
3318	0.0019458
3330	0.0019458
3342	0.00202363
3354	0.00147881
3366	0.00202363
3378	0.0019458
3390	0.00202363
3402	0.00210146
3414	0.00210146
3426	0.00202363
3438	0.00210146
3450	0.00210146
3462	0.00326894
3474	0.00622656
3486	0.00700488
3498	0.00505908
3510	0.00249062
3522	0.0019458
3534	0.00116748
3546	0.00116748
3558	0.00124531
3570	0.0019458
3582	0.00264629
3594	0.00179014
3606	0.00124531
3618	0.000622656
3630	0.00077832
3642	0.00179014
3654	0.00186797
3666	0.00179014
3678	0.00155664
3690	0.00179014
3702	0.00186797
3714	0.00140098
3726	0.00202363
3738	0.0017123
3750	0.00186797
3762	0.00249062
3774	0.00342461
3786	0.00319111
3798	0.00311328
3810	0.00342461
3822	0.0038916
3834	0.00420293
3846	0.00474775
3858	0.00435859
3870	0.00498125
3882	0.00505908
3894	0.00466992
3906	0.00505908
3918	0.0041251
3930	0.00513691
3942	0.00513691
3954	0
3966	0.00038916
