Infrared Spectrum: 2-Octene, 1-chloro-5,5,7,7-tetramethyl
Formula: C 12 H 23 Cl
CAS: 141-64-0
Origin: Sadtler Research Labs Under US-EPA Contract
1/CM	ABSORBANCE
450	0.0152185
462	0.0323225
474	0.0339386
486	0.0414805
498	0.0294943
510	0.0544095
522	0.0397297
534	0.0394604
546	0.0328612
558	0.0422886
570	0.0568337
582	0.0409418
594	0.0363628
606	0.0373055
618	0.0381136
630	0.0317838
642	0.0371709
654	0.0410765
666	0.0540055
678	0.0940045
690	0.135485
702	0.120671
714	0.0703014
726	0.0593926
738	0.0560256
750	0.0536014
762	0.0619514
774	0.0484837
786	0.0464636
798	0.0464636
810	0.0371709
822	0.0370362
834	0.0290902
846	0.0347467
858	0.0383829
870	0.0360934
882	0.0348813
894	0.0389217
906	0.0443087
918	0.0541402
930	0.0449821
942	0.0530627
954	0.0841731
966	0.204305
978	0.13333
990	0.0635675
1002	0.0421539
1014	0.0358241
1026	0.0339386
1038	0.0325918
1050	0.0285515
1062	0.0323225
1074	0.0393257
1086	0.0319184
1098	0.0269354
1110	0.0288209
1122	0.0339386
1134	0.030841
1146	0.0414805
1158	0.0577764
1170	0.0502345
1182	0.0451168
1194	0.0584498
1206	0.0804022
1218	0.0969674
1230	0.124576
1242	0.169962
1254	0.187874
1266	0.105856
1278	0.0628942
1290	0.0569684
1302	0.0456555
1314	0.0401337
1326	0.0487531
1338	0.0511773
1350	0.0762272
1362	0.126058
1374	0.228682
1386	0.104913
1398	0.13764
1410	0.0537361
1422	0.0420192
1434	0.069224
1446	0.105721
1458	0.122556
1470	0.203093
1482	0.226661
1494	0.0886175
1506	0.0313797
1518	0.021683
1530	0.0185854
1542	0.0156225
1554	0.0148145
1566	0.0145451
1578	0.0141411
1590	0.0145451
1602	0.0148145
1614	0.0148145
1626	0.0165653
1638	0.0184507
1650	0.0219524
1662	0.0323225
1674	0.0232991
1686	0.0153532
1698	0.0149491
1710	0.0166999
1722	0.0168346
1734	0.0161612
1746	0.0162959
1758	0.0165653
1770	0.0154879
1782	0.0148145
1794	0.0131983
1806	0.0123903
1818	0.0119863
1830	0.0118516
1842	0.0115822
1854	0.0118516
1866	0.0119863
1878	0.0109088
1890	0.0106395
1902	0.00969674
1914	0.00956207
1926	0.00888868
1938	0.00888868
1950	0.00929271
1962	0.00929271
1974	0.00942739
1986	0.00929271
1998	0.00848465
2010	0.00794594
2022	0.0082153
2034	0.00794594
2046	0.00808062
2058	0.00754191
2070	0.0070032
2082	0.00713788
2094	0.00740724
2106	0.00834997
2118	0.00794594
2130	0.00713788
2142	0.00754191
2154	0.0082153
2166	0.00740724
2178	0.0070032
2190	0.00686853
2202	0.00592579
2214	0.00579111
2226	0.00592579
2238	0.00592579
2250	0.0052524
2262	0.00498305
2274	0.00565643
2286	0.00457902
2298	0.00377096
2310	0.0035016
2322	0.00444434
2334	0.0052524
2346	0.00619514
2358	0.00606047
2370	0.00686853
2382	0.0064645
2394	0.00606047
2406	0.00565643
2418	0.0047137
2430	0.00430966
2442	0.00444434
2454	0.00417499
2466	0.00417499
2478	0.00484837
2490	0.00457902
2502	0.00511773
2514	0.00565643
2526	0.00511773
2538	0.00498305
2550	0.00579111
2562	0.00592579
2574	0.00659917
2586	0.00727256
2598	0.00754191
2610	0.00794594
2622	0.00740724
2634	0.00808062
2646	0.00915804
2658	0.0103701
2670	0.0115822
2682	0.0140064
2694	0.0161612
2706	0.0149491
2718	0.0191241
2730	0.0204709
2742	0.0192588
2754	0.0184507
2766	0.0180467
2778	0.0185854
2790	0.0226257
2802	0.0274741
2814	0.0377096
2826	0.0523894
2838	0.0809409
2850	0.129694
2862	0.155956
2874	0.31905
2886	0.432044
2898	0.481605
2910	0.53588
2922	0.494803
2934	0.43999
2946	0.633925
2958	1.18974
2970	1.04132
2982	0.5212
2994	0.423829
3006	0.183026
3018	0.078786
3030	0.0685506
3042	0.0843078
3054	0.039191
3066	0.0224911
3078	0.0199322
3090	0.0184507
3102	0.0162959
3114	0.0140064
3126	0.0130637
3138	0.0141411
3150	0.0131983
3162	0.0134677
3174	0.0148145
3186	0.0161612
3198	0.0156225
3210	0.0146798
3222	0.0146798
3234	0.0142758
3246	0.013333
3258	0.0126596
3270	0.0118516
3282	0.0105048
3294	0.00956207
3306	0.0101008
3318	0.0099661
3330	0.0101008
3342	0.00969674
3354	0.0103701
3366	0.00861933
3378	0.0099661
3390	0.00983142
3402	0.00915804
3414	0.00808062
3426	0.00915804
3438	0.00781127
3450	0.00754191
3462	0.00727256
3474	0.00740724
3486	0.00834997
3498	0.00390563
3510	0.00794594
3522	0.00781127
3534	0.00565643
3546	0.00565643
3558	0.00834997
3570	0.00727256
3582	0.00767659
3594	0.00592579
3606	0.00632982
3618	0.00619514
3630	0.00538708
3642	0.0082153
3654	0.00888868
3666	0.0052524
3678	0.00754191
3690	0.00430966
3702	0.00754191
3714	0.00686853
3726	0.0070032
3738	0.00956207
3750	0.0064645
3762	0.00929271
3774	0.00430966
3786	0.00673385
3798	0.00511773
3810	0.00969674
3822	0.00713788
3834	0.0103701
3846	0.00727256
3858	0.00861933
3870	0.0102355
3882	0.00740724
3894	0.00942739
3906	0.0115822
3918	0.00498305
3930	0.00740724
3942	0.0117169
3954	0.00484837
3966	0.00781127
