Infrared Spectrum: n-Nonadecylamine
Formula: C 19 H 41 N
CAS: 14130-05-3
Origin: Sadtler Research Labs Under US-EPA Contract
1/CM	ABSORBANCE
450	0.000141926
462	0.00411585
474	0.00738015
486	0.0032643
498	0.00908326
510	0.0070963
522	0.00723823
534	0.00667052
546	0.00681245
558	0.0100767
570	0.0070963
582	0.00659956
594	0.00596089
606	0.00631571
618	0.00624474
630	0.00716726
642	0.00787689
654	0.00879941
666	0.00823171
678	0.00908326
690	0.0127024
702	0.0160376
714	0.0243403
726	0.0283142
738	0.02874
750	0.0342042
762	0.0406618
774	0.0449196
786	0.0417262
798	0.0303722
810	0.026895
822	0.0213599
834	0.0168892
846	0.0146184
858	0.0124895
870	0.0109993
882	0.00958001
894	0.00929615
906	0.00823171
918	0.007664
930	0.00801882
942	0.00681245
954	0.00723823
966	0.00808978
978	0.00659956
990	0.00730919
1002	0.00872845
1014	0.0103606
1026	0.0119927
1038	0.0110702
1050	0.0125605
1062	0.015257
1074	0.0184504
1086	0.0178117
1098	0.017244
1110	0.0139797
1122	0.0119927
1134	0.0101477
1146	0.00702534
1158	0.00631571
1170	0.00560608
1182	0.00532223
1194	0.00539319
1206	0.00567704
1218	0.00553511
1230	0.00631571
1242	0.00688341
1254	0.00794786
1266	0.00993482
1278	0.00908326
1290	0.0107864
1302	0.0137668
1314	0.0137668
1326	0.011567
1338	0.0149732
1350	0.0222824
1362	0.0239855
1374	0.0212179
1386	0.0189471
1398	0.0126314
1410	0.0100058
1422	0.0111412
1434	0.0186633
1446	0.0366879
1458	0.061383
1470	0.0514482
1482	0.0180956
1494	0.011567
1506	0.00936712
1518	0.00745112
1530	0.00532223
1542	0.00482548
1554	0.00581897
1566	0.00546415
1578	0.00716726
1590	0.00816075
1602	0.0100767
1614	0.013341
1626	0.0143345
1638	0.00887037
1650	0.00496741
1662	0.00361911
1674	0.00439971
1686	0.0046126
1698	0.00333526
1710	0.00212889
1722	0.00312237
1734	0.00298045
1746	0.000780593
1758	0.000851556
1770	0.00120637
1782	0.00163215
1794	0.00106445
1806	0.000922519
1818	0.00113541
1830	0.00070963
1842	0.00120637
1854	0.000922519
1866	0.000780593
1878	0.000780593
1890	0.000638667
1902	0.000496741
1914	0.000496741
1926	0.000496741
1938	0.000638667
1950	0.000496741
1962	0.00070963
1974	0.000638667
1986	0.000780593
1998	0.000922519
2010	0.00106445
2022	0.0013483
2034	0.0013483
2046	0.00156119
2058	0.00120637
2070	0.000993482
2082	0.00106445
2094	0.000638667
2106	0.000638667
2118	0.000780593
2130	0.000425778
2142	0.000780593
2154	0.000638667
2166	0.00070963
2178	0.000354815
2190	0.000141926
2202	0.000212889
2214	0.000425778
2226	0.000354815
2238	0.000212889
2250	0.000425778
2262	0.000425778
2274	0.000638667
2286	0.00127733
2298	0.00305141
2310	0.00454163
2322	0.00482548
2334	0.00333526
2346	0.003832
2358	0.00283852
2370	0.00149022
2382	0.00227082
2394	0.000425778
2406	0.000567704
2418	0.000425778
2430	0.000425778
2442	0.000567704
2454	0.000922519
2466	0.000780593
2478	0.00113541
2490	0.00106445
2502	0.00120637
2514	0.001916
2526	0.00219985
2538	0.00276756
2550	0.00283852
2562	0.0032643
2574	0.00369008
2586	0.00397393
2598	0.00447067
2610	0.0051803
2622	0.00560608
2634	0.00638667
2646	0.00702534
2658	0.00787689
2670	0.0090123
2682	0.0102896
2694	0.00986386
2706	0.00936712
2718	0.00943808
2730	0.0108573
2742	0.0121347
2754	0.0127024
2766	0.0137668
2778	0.0154699
2790	0.019231
2802	0.0242693
2814	0.0328559
2826	0.0478291
2838	0.0781303
2850	0.183297
2862	0.31394
2874	0.192594
2886	0.140649
2898	0.171092
2910	0.272569
2922	0.493973
2934	0.70963
2946	0.353892
2958	0.171021
2970	0.123972
2982	0.0563446
2994	0.0313656
3006	0.0205083
3018	0.0147603
3030	0.0117089
3042	0.00915423
3054	0.00730919
3066	0.00603186
3078	0.00503837
3090	0.00454163
3102	0.00354815
3114	0.00340622
3126	0.00276756
3138	0.00241274
3150	0.00234178
3162	0.00219985
3174	0.001916
3186	0.00156119
3198	0.00149022
3210	0.00113541
3222	0.000567704
3234	0.000425778
3246	0.000567704
3258	0.000496741
3270	0.000638667
3282	0.00070963
3294	0.00113541
3306	0.00070963
3318	0.000638667
3330	0.000851556
3342	0.00163215
3354	0.00141926
3366	0.0013483
3378	0.00113541
3390	0.00156119
3402	0.000993482
3414	0.00120637
3426	0.00070963
3438	0.00113541
3450	0.000638667
3462	0.000993482
3474	0.000638667
3486	0.000993482
3498	0.000425778
3510	0.00070963
3522	0.000993482
3534	0.000567704
3546	0.00127733
3558	0.00170311
3570	0.00241274
3582	0.00156119
3594	0.00170311
3606	0.00205793
3618	0.00283852
3630	0.00269659
3642	0.00290948
3654	0.00212889
3666	0.00177408
3678	0.00283852
3690	0.00276756
3702	0.00156119
3714	0.00170311
3726	0.00269659
3738	0.00205793
3750	0.00120637
3762	0.00149022
3774	0.00177408
3786	0.00106445
3798	0.00149022
3810	0
3822	0.00113541
3834	0.000780593
3846	0.000212889
3858	0.00156119
3870	0.00120637
3882	0.00149022
3894	0.00113541
3906	0.00156119
3918	0.000780593
3930	0.000922519
3942	0.00163215
3954	0.00156119
3966	0.00255467
