Infrared Spectrum: Hexanoic acid
Formula: C 6 H 12 O 2
CAS: 142-62-1
Origin: Sadtler Research Labs Under US-EPA Contract
1/CM	ABSORBANCE
450	0.105864
462	0.0707397
474	0.0789681
486	0.0808103
498	0.099969
510	0.127356
522	0.115075
534	0.126742
546	0.153147
558	0.19306
570	0.198096
582	0.19171
594	0.217254
606	0.223272
618	0.213939
630	0.218851
642	0.159042
654	0.0894071
666	0.0681607
678	0.0567391
690	0.0505985
702	0.047037
714	0.0491248
726	0.0569848
738	0.0583357
750	0.0342645
762	0.0200184
774	0.0198955
786	0.00700028
798	0.00577216
810	0.00233343
822	0.00245624
834	0.00724591
846	0.0108075
858	0.0114215
870	0.0108075
882	0.00908809
894	0.0108075
906	0.0141234
918	0.0122812
930	0.0111759
942	0.0173165
954	0.0212465
966	0.0272643
978	0.0356155
990	0.0358611
1002	0.0316855
1014	0.0316855
1026	0.038563
1038	0.0571076
1050	0.094074
1062	0.157322
1074	0.266993
1086	0.439421
1098	0.539267
1110	0.408718
1122	0.385752
1134	0.547005
1146	0.584585
1158	0.417929
1170	0.285784
1182	0.198587
1194	0.156708
1206	0.153269
1218	0.135093
1230	0.106724
1242	0.0964074
1254	0.0890387
1266	0.0849859
1278	0.0846175
1290	0.0830209
1302	0.0783541
1314	0.06988
1326	0.0695116
1338	0.0892843
1350	0.115198
1362	0.133497
1374	0.168252
1386	0.19699
1398	0.142093
1410	0.0774944
1422	0.0711081
1434	0.0766347
1446	0.0830209
1458	0.107338
1470	0.103776
1482	0.0563707
1494	0.0230887
1506	0.0100706
1518	0.00577216
1530	0.00282468
1542	0.00196499
1554	0.000491248
1566	0.000122812
1578	0.000245624
1590	0.000245624
1602	0.00110531
1614	0.00147374
1626	0.00171937
1638	0.00233343
1650	0.00294749
1662	0.00466686
1674	0.00736872
1686	0.0125268
1698	0.0196499
1710	0.0379489
1722	0.0794594
1734	0.146392
1746	0.266134
1758	0.528337
1770	0.997847
1782	1.22812
1794	0.780225
1806	0.336259
1818	0.131777
1830	0.0524407
1842	0.0254221
1854	0.0149831
1866	0.0109303
1878	0.00798278
1890	0.00638622
1902	0.00589498
1914	0.0051581
1926	0.00491248
1938	0.00503529
1950	0.00429842
1962	0.00454404
1974	0.00478967
1986	0.00392998
1998	0.00454404
2010	0.00429842
2022	0.00466686
2034	0.0051581
2046	0.00392998
2058	0.00380717
2070	0.00319311
2082	0.000859684
2094	0.000982496
2106	0.00282468
2118	0.00294749
2130	0.00343874
2142	0.00343874
2154	0.0040528
2166	0.00417561
2178	0.00466686
2190	0.00564935
2202	0.00564935
2214	0.00589498
2226	0.00626341
2238	0.00675466
2250	0.00589498
2262	0.00503529
2274	0.0051581
2286	0.00417561
2298	0.00270186
2310	0.00159656
2322	0
2334	0.00147374
2346	0.00466686
2358	0
2370	0.0092109
2382	0.00773716
2394	0.00528092
2406	0.00552654
2418	0.00528092
2430	0.0051581
2442	0.0051581
2454	0.0051581
2466	0.00478967
2478	0.00491248
2490	0.00491248
2502	0.00577216
2514	0.00626341
2526	0.00700028
2538	0.0071231
2550	0.00700028
2562	0.00773716
2574	0.00761434
2586	0.00847403
2598	0.00736872
2610	0.00896528
2622	0.00945652
2634	0.00945652
2646	0.0101934
2658	0.0100706
2670	0.00970215
2682	0.01179
2694	0.0111759
2706	0.0103162
2718	0.0110531
2730	0.0120356
2742	0.0142462
2754	0.0152287
2766	0.0132637
2778	0.0141234
2790	0.0171937
2802	0.0212465
2814	0.0257905
2826	0.0347558
2838	0.0517039
2850	0.090144
2862	0.181762
2874	0.271169
2886	0.288854
2898	0.222044
2910	0.236904
2922	0.366962
2934	0.545899
2946	0.627938
2958	0.582252
2970	0.629657
2982	0.39742
2994	0.15155
3006	0.075775
3018	0.0487564
3030	0.0373348
3042	0.0305802
3054	0.0237027
3066	0.0221062
3078	0.0190359
3090	0.0181762
3102	0.0165796
3114	0.0169481
3126	0.0153515
3138	0.0152287
3150	0.0131409
3162	0.0119128
3174	0.0127724
3186	0.0106846
3198	0.0109303
3210	0.0101934
3222	0.00847403
3234	0.00773716
3246	0.00442123
3258	0.00319311
3270	0.00589498
3282	0.00687747
3294	0.00577216
3306	0.00343874
3318	0.00319311
3330	0.00319311
3342	0.0040528
3354	0.00282468
3366	0.00233343
3378	0.00343874
3390	0.00257905
3402	0.00282468
3414	0.00196499
3426	0.00331592
3438	0.00282468
3450	0.0020878
3462	0.00184218
3474	0.00171937
3486	0.00294749
3498	0.00491248
3510	0.00859684
3522	0.010439
3534	0.0170709
3546	0.0272643
3558	0.0584585
3570	0.331101
3582	0.44765
3594	0.0865825
3606	0.0229658
3618	0.0131409
3630	0.0128953
3642	0.00675466
3654	0.0092109
3666	0.00245624
3678	0.0110531
3690	0.00859684
3702	0.00601779
3714	0.0109303
3726	0.0108075
3738	0.012404
3750	0.014369
3762	0.00908809
3774	0.00749153
3786	0.00810559
3798	0.00773716
3810	0.00650904
3822	0.0100706
3834	0.00835122
3846	0.00785997
3858	0.0108075
3870	0.00736872
3882	0.00528092
3894	0.00761434
3906	0.014369
3918	0.00650904
3930	0.00663185
3942	0.00798278
3954	0.00466686
3966	0.00663185
