Infrared Spectrum: n-Butyl ether
Formula: C 8 H 18 O
CAS: 142-96-1
Origin: Sadtler Research Labs Under US-EPA Contract
1/CM	ABSORBANCE
450	0.115205
462	0.046726
474	0.0156078
486	0.0747225
498	0.0601877
510	0.0252652
522	0.0484819
534	0.0429216
546	0.0445799
558	0.0171686
570	0.0586269
582	0.0389221
594	0.0307279
606	0.0334593
618	0.034825
630	0.0296549
642	0.030923
654	0.0314108
666	0.0322887
678	0.0331667
690	0.0306304
702	0.0315083
714	0.0355078
726	0.0375564
738	0.0448725
750	0.0494573
762	0.043897
774	0.0420436
786	0.0340446
798	0.0368735
810	0.0444823
822	0.0479941
834	0.0520912
846	0.0490671
858	0.0426289
870	0.043702
882	0.0411657
894	0.0415559
906	0.0446774
918	0.0405804
930	0.0437995
942	0.0520912
954	0.0644799
966	0.0728691
978	0.0789171
990	0.0749176
1002	0.0720887
1014	0.0704304
1026	0.0670162
1038	0.0932568
1050	0.109255
1062	0.108962
1074	0.125643
1086	0.191586
1098	0.377807
1110	0.538178
1122	0.713083
1134	0.753176
1146	0.354591
1158	0.185148
1170	0.112084
1182	0.0747225
1194	0.0584319
1206	0.0531642
1218	0.0551152
1230	0.0722838
1242	0.0789171
1254	0.0727716
1266	0.0692598
1278	0.056676
1290	0.0545299
1302	0.0692598
1314	0.0603828
1326	0.0542372
1338	0.0715034
1350	0.0921838
1362	0.162809
1374	0.199585
1386	0.127692
1398	0.0703328
1410	0.0543348
1422	0.0519936
1434	0.0704304
1446	0.0922814
1458	0.130228
1470	0.162712
1482	0.107694
1494	0.0572613
1506	0.0359956
1518	0.0292647
1530	0.025948
1542	0.0232167
1554	0.022924
1566	0.0212657
1578	0.0206804
1590	0.0197049
1602	0.0193147
1614	0.0196073
1626	0.0189245
1638	0.0181441
1650	0.0192172
1662	0.018827
1674	0.0183392
1686	0.0182417
1698	0.0173637
1710	0.0166809
1722	0.0165833
1734	0.016876
1746	0.0175588
1758	0.0176564
1770	0.0154127
1782	0.0154127
1794	0.0151201
1806	0.0146323
1818	0.0147299
1830	0.0137544
1842	0.0145348
1854	0.0145348
1866	0.0142422
1878	0.0141446
1890	0.0131691
1902	0.0132667
1914	0.0143397
1926	0.0147299
1938	0.0161931
1950	0.0164858
1962	0.0158029
1974	0.0151201
1986	0.0133642
1998	0.012974
2010	0.0134618
2022	0.0137544
2034	0.0151201
2046	0.0161931
2058	0.015998
2070	0.0163882
2082	0.0164858
2094	0.0164858
2106	0.0151201
2118	0.013852
2130	0.0121936
2142	0.0112181
2154	0.0101451
2166	0.00995
2178	0.0097549
2190	0.0106328
2202	0.0104377
2214	0.0101451
2226	0.00897451
2238	0.00916961
2250	0.00916961
2262	0.0095598
2274	0.00887696
2286	0.00887696
2298	0.00907206
2310	0.00965735
2322	0.00809657
2334	0.00712108
2346	0.00731617
2358	0.00780392
2370	0.00653578
2382	0.00653578
2394	0.00692598
2406	0.00731617
2418	0.00643823
2430	0.00653578
2442	0.00663333
2454	0.00604804
2466	0.00575539
2478	0.00487745
2490	0.00487745
2502	0.00614559
2514	0.00643823
2526	0.00643823
2538	0.00712108
2550	0.00790147
2562	0.0097549
2574	0.0102426
2586	0.0126814
2598	0.0135593
2610	0.0136569
2622	0.0132667
2634	0.0132667
2646	0.0130716
2658	0.0158029
2670	0.0197049
2682	0.0231191
2694	0.0293622
2706	0.0344348
2718	0.037849
2730	0.0435069
2742	0.0485794
2754	0.0462382
2766	0.0476039
2778	0.0603828
2790	0.0846725
2802	0.102914
2814	0.098622
2826	0.115791
2838	0.197147
2850	0.405219
2862	0.669771
2874	0.751908
2886	0.639921
2898	0.418388
2910	0.460236
2922	0.625484
2934	0.817363
2946	0.935202
2958	0.833264
2970	0.97549
2982	0.494281
2994	0.181051
3006	0.0938421
3018	0.0636019
3030	0.0489696
3042	0.0383368
3054	0.0306304
3066	0.0250701
3078	0.0217534
3090	0.0195098
3102	0.0190221
3114	0.0174613
3126	0.0163882
3138	0.014925
3150	0.0140471
3162	0.0145348
3174	0.0148274
3186	0.0139495
3198	0.0136569
3210	0.0103402
3222	0.00858431
3234	0.00780392
3246	0.00838921
3258	0.00741372
3270	0.00799902
3282	0.00760882
3294	0.00702353
3306	0.00702353
3318	0.00916961
3330	0.00770637
3342	0.00712108
3354	0.00877941
3366	0.00848676
3378	0.0051701
3390	0.00829167
3402	0.00877941
3414	0.00848676
3426	0.0114132
3438	0.0100475
3450	0.00916961
3462	0.00760882
3474	0.00907206
3486	0.00760882
3498	0.00751127
3510	0.00770637
3522	0.00858431
3534	0.00848676
3546	0.00916961
3558	0.00565784
3570	0.00653578
3582	0.00926715
3594	0.00643823
3606	0.0103402
3618	0.00829167
3630	0.00760882
3642	0.0095598
3654	0.0115108
3666	0.0113157
3678	0.0104377
3690	0.014925
3702	0.013852
3714	0.0109255
3726	0.0117059
3738	0.0151201
3750	0.0156078
3762	0.0124863
3774	0.0134618
3786	0.0158029
3798	0.0122912
3810	0.0106328
3822	0.0100475
3834	0.0152176
3846	0.0203877
3858	0.0223387
3870	0.0162907
3882	0.0148274
3894	0.0167784
3906	0.0112181
3918	0.018827
3930	0.0170711
3942	0.0199975
3954	0.0136569
3966	0.0224363
