Infrared Spectrum: Acetic acid, hexyl ester
Formula: C 8 H 16 O 2
CAS: 142-92-7
Origin: Sadtler Research Labs Under US-EPA Contract
1/CM	ABSORBANCE
450	0.0460088
462	0.0118405
474	0.00828835
486	0.0104873
498	0.0150543
510	0.0098107
522	0.0091341
534	0.0140394
546	0.00524365
558	0.0108256
570	0.0115022
582	0.0137011
594	0.00355215
606	0.0356906
618	0.0297704
630	0.0407651
642	0.0358598
654	0.0221586
666	0.00930325
678	0.0074426
690	0.0037213
702	0.00456705
714	0.00592025
726	0.014716
738	0.0118405
750	0.006766
762	0.00828835
774	0.011333
786	0.0057511
798	0.0104873
810	0.0137011
822	0.0131937
834	0.0153926
846	0.0199597
858	0.0194522
870	0.0208054
882	0.0253725
894	0.0311236
906	0.027064
918	0.021482
930	0.0284172
942	0.0444864
954	0.0389045
966	0.0390737
978	0.0453322
990	0.0448247
1002	0.0669834
1014	0.138026
1026	0.232074
1038	0.27064
1050	0.27064
1062	0.241546
1074	0.183866
1086	0.140056
1098	0.0838984
1110	0.054128
1122	0.0426258
1134	0.0351832
1146	0.0343374
1158	0.0390737
1170	0.0475311
1182	0.0627546
1194	0.0974304
1206	0.203995
1218	0.516922
1230	1.37417
1242	1.50933
1254	0.616552
1266	0.311743
1278	0.190125
1290	0.118067
1302	0.081192
1314	0.0583567
1326	0.0424566
1338	0.0409343
1350	0.0588642
1362	0.198075
1374	0.293475
1386	0.182175
1398	0.144285
1410	0.0610631
1422	0.0448247
1434	0.0544663
1446	0.0752717
1458	0.111808
1470	0.12145
1482	0.0747643
1494	0.0377204
1506	0.0280789
1518	0.0240193
1530	0.0187756
1542	0.0174224
1554	0.0131937
1566	0.0116713
1578	0.0109947
1590	0.00930325
1602	0.0084575
1614	0.0091341
1626	0.00964155
1638	0.0111639
1650	0.0137011
1662	0.0137011
1674	0.0170841
1686	0.0204671
1698	0.0272331
1710	0.0434715
1722	0.0788239
1734	0.15528
1746	0.370269
1758	0.933201
1770	0.829173
1782	0.311405
1794	0.137519
1806	0.081192
1818	0.0385662
1830	0.0201289
1842	0.0133628
1854	0.00964155
1866	0.0103181
1878	0.0087958
1890	0.0084575
1902	0.0074426
1914	0.00659685
1926	0.0060894
1938	0.0054128
1950	0.0043979
1962	0.0047362
1974	0.0043979
1986	0.00456705
1998	0.0050745
2010	0.00558195
2022	0.0057511
2034	0.00558195
2046	0.00592025
2058	0.00524365
2070	0.00592025
2082	0.00659685
2094	0.00659685
2106	0.00592025
2118	0.00558195
2130	0.00592025
2142	0.00490535
2154	0.0037213
2166	0.003383
2178	0.0023681
2190	0.0020298
2202	0.0023681
2214	0.00219895
2226	0.00253725
2238	0.00253725
2250	0.0023681
2262	0.0027064
2274	0.00253725
2286	0.00152235
2298	0.00084575
2310	0.0003383
2322	0.0003383
2334	0.00016915
2346	0.00016915
2358	0.00152235
2370	0.00016915
2382	0.00016915
2394	0.00118405
2406	0.00186065
2418	0.0023681
2430	0.0020298
2442	0.0030447
2454	0.00321385
2466	0.00389045
2478	0.00389045
2490	0.00287555
2502	0.0020298
2514	0.0020298
2526	0.00118405
2538	0.00118405
2550	0.00152235
2562	0.0013532
2574	0.0013532
2586	0.00219895
2598	0.0027064
2610	0.003383
2622	0.0037213
2634	0.0040596
2646	0.0040596
2658	0.0050745
2670	0.0060894
2682	0.0057511
2694	0.00659685
2706	0.00558195
2718	0.0057511
2730	0.00795005
2742	0.010149
2754	0.010149
2766	0.00930325
2778	0.0103181
2790	0.0125171
2802	0.0155618
2814	0.0199597
2826	0.0279097
2838	0.0424566
2850	0.0886346
2862	0.202134
2874	0.269118
2886	0.253048
2898	0.203826
2910	0.253556
2922	0.390229
2934	0.603696
2946	0.633298
2958	0.520305
2970	0.613507
2982	0.335255
2994	0.132106
3006	0.06766
3018	0.0455013
3030	0.0367055
3042	0.0302778
3054	0.0262182
3066	0.0228352
3078	0.0187756
3090	0.0155618
3102	0.0118405
3114	0.0111639
3126	0.00997985
3138	0.0074426
3150	0.00625855
3162	0.0057511
3174	0.00456705
3186	0.00456705
3198	0.00456705
3210	0.0037213
3222	0.0027064
3234	0.00219895
3246	0.00186065
3258	0.00219895
3270	0.0030447
3282	0.0016915
3294	0.00253725
3306	0.0020298
3318	0.00186065
3330	0.00084575
3342	0.0016915
3354	0.00186065
3366	0.0023681
3378	0.0010149
3390	0.0023681
3402	0.00118405
3414	0.0013532
3426	0.00186065
3438	0.0023681
3450	0.00084575
3462	0.0027064
3474	0.00321385
3486	0.00524365
3498	0.00896495
3510	0.0121788
3522	0.0040596
3534	0.00219895
3546	0.0016915
3558	0.0047362
3570	0.00862665
3582	0.0128554
3594	0.0064277
3606	0.0071043
3618	0.00389045
3630	0.00186065
3642	0.00389045
3654	0.00422875
3666	0.00389045
3678	0.00558195
3690	0.0040596
3702	0.00287555
3714	0.0023681
3726	0.0030447
3738	0.0043979
3750	0.00287555
3762	0.00355215
3774	0.00321385
3786	0.003383
3798	0.0023681
3810	0.00016915
3822	0.0060894
3834	0.00219895
3846	0.003383
3858	0.00321385
3870	0.00321385
3882	0.0013532
3894	0.00152235
3906	0.00490535
3918	0.0023681
3930	0.0037213
3942	0.0050745
3954	0.0006766
3966	0.0016915
