Infrared Spectrum: 2-Hydroxypyridine
Formula: C 5 H 5 N O
CAS: 142-08-5
Origin: Sadtler Research Labs Under US-EPA Contract
1/CM	ABSORBANCE
450	0.299071
462	0.204717
474	0.27544
486	0.15403
498	0.0851063
510	0.0450361
522	0.0396421
534	0.0472622
546	0.046406
558	0.0327068
570	0
582	0.0025686
594	0.00821952
606	0.0130142
618	0.0155828
630	0.00821952
642	0.0334774
654	0.0607046
666	0.0611327
678	0.0767155
690	0.0469198
702	0.0500021
714	0.0396421
726	0.0661843
738	0.0952951
750	0.135793
762	0.219958
774	0.228691
786	0.160709
798	0.119611
810	0.0873324
822	0.0600196
834	0.0875893
846	0.0881886
858	0.0621601
870	0.0295389
882	0.0269703
894	0.0466629
906	0.0183227
918	0.0180658
930	0.0208057
942	0.0198638
954	0.0492315
966	0.0540262
978	0.0660986
990	0.10634
1002	0.0809965
1014	0.0504302
1026	0.0535981
1038	0.0686672
1050	0.0723489
1062	0.0871612
1074	0.124149
1086	0.158911
1098	0.101545
1110	0.0357035
1122	0.0917846
1134	0.152061
1146	0.163449
1158	0.191104
1170	0.241962
1182	0.307119
1194	0.258144
1206	0.177661
1218	0.180744
1230	0.191104
1242	0.20583
1254	0.138019
1266	0.100603
1278	0.0902435
1290	0.191446
1302	0.235626
1314	0.176292
1326	0.0693522
1338	0.0767155
1350	0.0830514
1362	0.0662699
1374	0.0553961
1386	0.0494027
1398	0.0625882
1410	0.0565948
1422	0.061732
1434	0.0870755
1446	0.148636
1458	0.260028
1470	0.443083
1482	0.41911
1494	0.322359
1506	0.0559955
1518	0.0368166
1530	0.062417
1542	0.112762
1554	0.124577
1566	0.175521
1578	0.275525
1590	0.423733
1602	0.390941
1614	0.327668
1626	0.174494
1638	0.12355
1650	0.13879
1662	0.140331
1674	0.190076
1686	0.243246
1698	0.486322
1710	0.801489
1722	0.780769
1734	0.42536
1746	0.22792
1758	0.239822
1770	0.228605
1782	0.172952
1794	0.0905003
1806	0.0629307
1818	0.0674686
1830	0.0591634
1842	0.0393852
1854	0.018922
1866	0.00753456
1878	0.00308232
1890	0.00154116
1902	0.00162678
1914	0.00196926
1926	0.00154116
1938	0.00196926
1950	0.00573654
1962	0.00547968
1974	0.00607902
1986	0.00368166
1998	0.00393852
2010	0.0034248
2022	0.0038529
2034	0.00282546
2046	0.00188364
2058	0.00051372
2070	0.00111306
2082	0.0017124
2094	0.00196926
2106	0.00119868
2118	0.0021405
2130	0.00282546
2142	0.0034248
2154	0.00231174
2166	0.00102744
2178	0.00077058
2190	0.00025686
2202	0.00094182
2214	0.00154116
2226	0.00282546
2238	0.00239736
2250	0.00154116
2262	0.00222612
2274	0.00231174
2286	0.00333918
2298	0.00282546
2310	0.0025686
2322	0.00119868
2334	0.00025686
2346	0.0004281
2358	0.00034248
2370	0.00025686
2382	0.0034248
2394	0.00410976
2406	0.00530844
2418	0.00830514
2430	0.0105313
2442	0.012158
2454	0.0108737
2466	0.0104456
2478	0.0089901
2490	0.00787704
2502	0.00736332
2514	0.00753456
2526	0.00787704
2538	0.00744894
2550	0.00693522
2562	0.00693522
2574	0.00744894
2586	0.00873324
2598	0.00924696
2610	0.00890448
2622	0.0077058
2634	0.00762018
2646	0.00796266
2658	0.00804828
2670	0.00830514
2682	0.00907572
2694	0.0098463
2706	0.0105313
2718	0.0108737
2730	0.0116443
2742	0.0130999
2754	0.013528
2766	0.015326
2778	0.0150691
2790	0.0161822
2802	0.0176377
2814	0.0193501
2826	0.0223468
2838	0.025001
2850	0.0291964
2862	0.0359604
2874	0.0409264
2886	0.0422963
2898	0.0445224
2910	0.0492315
2922	0.0561667
2934	0.0589922
2946	0.0543687
2958	0.0521426
2970	0.0486322
2982	0.0425531
2994	0.0389571
3006	0.0409264
3018	0.0547968
3030	0.0743182
3042	0.081339
3054	0.0845069
3066	0.0781711
3078	0.079541
3090	0.0839932
3102	0.0780854
3114	0.0595059
3126	0.0437518
3138	0.0404126
3150	0.0405839
3162	0.0399845
3174	0.0404126
3186	0.0388715
3198	0.0358748
3210	0.0355323
3222	0.0363029
3234	0.037844
3246	0.0397277
3258	0.041012
3270	0.0411832
3282	0.0410976
3294	0.0416113
3306	0.0411832
3318	0.0414401
3330	0.0405839
3342	0.0399845
3354	0.0381865
3366	0.0361316
3378	0.0356179
3390	0.034933
3402	0.0363885
3414	0.0458067
3426	0.081339
3438	0.106939
3450	0.101203
3462	0.0540262
3474	0.0202919
3486	0.0115587
3498	0.008562
3510	0.00539406
3522	0.00565092
3534	0.0034248
3546	0.00590778
3558	0.00650712
3570	0.029282
3582	0.136478
3594	0.183312
3606	0.191874
3618	0.0511151
3630	0.00881886
3642	0.0059934
3654	0.00736332
3666	0.00393852
3678	0.0055653
3690	0.00590778
3702	0.00351042
3714	0.00282546
3726	0.0055653
3738	0.00419538
3750	0.00119868
3762	0.00222612
3774	0.00316794
3786	0.00205488
3798	0.00419538
3810	0.0017124
3822	0.00393852
3834	0.0017124
3846	0.00333918
3858	0.0034248
3870	0.00530844
3882	0.00496596
3894	0.0051372
3906	0.00530844
3918	0.00402414
3930	0.004281
3942	0.00333918
3954	0.0034248
3966	0.00565092
