Infrared Spectrum: (Z)-9-Octadecenoic acid butyl ester
Formula: C 22 H 42 O 2
CAS: 142-77-8
Origin: Sadtler Research Labs Under US-EPA Contract
1/CM	ABSORBANCE
450	0.00722294
462	0.00738169
474	0.00420677
486	0.00428614
498	0.0041274
510	0.00849291
522	0.00365116
534	0.00214307
546	0.000555611
558	0.00357179
570	0.00507987
582	0.00603235
594	0.00817542
606	0.00627047
618	0.00515924
630	0.00460363
642	0.00349241
654	0.00452426
666	0.00484175
678	0.0119853
690	0.0184939
702	0.0242881
714	0.0292886
726	0.0276218
738	0.0213513
750	0.0157159
762	0.011906
774	0.00904852
786	0.00523862
798	0.00754043
810	0.00873103
822	0.00920727
834	0.010636
846	0.0104772
858	0.0088104
870	0.00865166
882	0.00968351
894	0.0105566
906	0.0108741
918	0.0111916
930	0.0116678
942	0.0168271
954	0.0252406
966	0.0299236
978	0.0262725
990	0.0230182
1002	0.0307967
1014	0.043417
1026	0.045322
1038	0.034686
1050	0.0339716
1062	0.0513543
1074	0.0613553
1086	0.062784
1098	0.0605616
1110	0.0633397
1122	0.0770712
1134	0.103502
1146	0.153111
1158	0.187479
1170	0.205576
1182	0.183907
1194	0.146046
1206	0.124139
1218	0.123822
1230	0.134696
1242	0.139538
1254	0.116599
1266	0.0915964
1278	0.0783412
1290	0.065959
1302	0.0641334
1314	0.0614347
1326	0.0544499
1338	0.060641
1350	0.0730232
1362	0.0622284
1374	0.0438933
1386	0.045322
1398	0.0361941
1410	0.0265106
1422	0.0260343
1434	0.0423852
1446	0.0630222
1458	0.0889771
1470	0.0763568
1482	0.0326223
1494	0.0142871
1506	0.00785793
1518	0.00460363
1530	0.00396865
1542	0.00182558
1554	0.00190495
1566	0.00190495
1578	0.00182558
1590	0.00246056
1602	0.00253994
1614	0.00238119
1626	0.00317492
1638	0.00452426
1650	0.00634984
1662	0.00603235
1674	0.00642921
1686	0.00841354
1698	0.0138109
1710	0.0262725
1722	0.0438139
1734	0.0916758
1746	0.258677
1758	0.294077
1770	0.0958826
1782	0.036591
1794	0.0167477
1806	0.00992162
1818	0.0058736
1830	0.00333367
1842	0.00253994
1854	0.0020637
1866	0.00126997
1878	0.00166683
1890	0.00134934
1902	0.00111122
1914	0.00126997
1926	0.000873103
1938	0.000873103
1950	0.000952476
1962	0.00134934
1974	0.00198432
1986	0.00150809
1998	0.00142871
2010	0.00253994
2022	0.00349241
2034	0.00460363
2046	0.00365116
2058	0.00325429
2070	0.00365116
2082	0.00230182
2094	0.00142871
2106	0.00190495
2118	0.00134934
2130	0.00190495
2142	0.00150809
2154	0.00198432
2166	0.00182558
2178	0.00150809
2190	0.0011906
2202	0.000952476
2214	0.0011906
2226	0.00174621
2238	0.000873103
2250	0.00126997
2262	0.00150809
2274	0.00222244
2286	0.00198432
2298	0.00166683
2310	0.00150809
2322	0.000238119
2334	0.00238119
2346	0.00468301
2358	0.00134934
2370	0.00801667
2382	0.00619109
2394	0.00325429
2406	0.00174621
2418	0.00230182
2430	0.00182558
2442	0.00230182
2454	0.00246056
2466	0.00246056
2478	0.0020637
2490	0.00246056
2502	0.00301617
2514	0.00253994
2526	0.00301617
2538	0.00253994
2550	0.00301617
2562	0.00325429
2574	0.00269868
2586	0.00357179
2598	0.00357179
2610	0.0038099
2622	0.00333367
2634	0.00388928
2646	0.00349241
2658	0.00341304
2670	0.00603235
2682	0.0079373
2694	0.00833416
2706	0.00888978
2718	0.00873103
2730	0.0091279
2742	0.0122234
2754	0.0121441
2766	0.0133347
2778	0.0142078
2790	0.0178589
2802	0.0229388
2814	0.0284155
2826	0.0392896
2838	0.0605616
2850	0.126521
2862	0.294394
2874	0.264471
2886	0.2101
2898	0.200337
2910	0.288283
2922	0.494732
2934	0.79373
2946	0.594901
2958	0.386705
2970	0.378371
2982	0.204782
2994	0.101597
3006	0.0886596
3018	0.0996925
3030	0.0428614
3042	0.0254787
3054	0.0192083
3066	0.0167477
3078	0.0146046
3090	0.0117472
3102	0.0115885
3114	0.0109535
3126	0.0100804
3138	0.00849291
3150	0.00960413
3162	0.00976288
3174	0.00896915
3186	0.00825479
3198	0.0079373
3210	0.00833416
3222	0.00801667
3234	0.00722294
3246	0.00698482
3258	0.00555611
3270	0.00730232
3282	0.00555611
3294	0.00627047
3306	0.00436552
3318	0.00547674
3330	0.00365116
3342	0.00436552
3354	0.00523862
3366	0.00563548
3378	0.00515924
3390	0.00333367
3402	0.00468301
3414	0.0041274
3426	0.00301617
3438	0.00452426
3450	0.00373053
3462	0.00452426
3474	0.00444489
3486	0.00484175
3498	0.00539736
3510	0.00396865
3522	0.00365116
3534	0.00238119
3546	0.00373053
3558	0.0038099
3570	0.00444489
3582	0.00333367
3594	0.0029368
3606	0.00261931
3618	0.00309555
3630	0.00325429
3642	0.00365116
3654	0.00428614
3666	0.00166683
3678	0.0029368
3690	0.00357179
3702	0.00396865
3714	0.00341304
3726	0.00253994
3738	0.00142871
3750	0.00126997
3762	0.00126997
3774	0.000952476
3786	0.00103185
3798	7.9373e-05
3810	0.00158746
3822	0.00150809
3834	7.9373e-05
3846	0.00134934
3858	0.00325429
3870	0.00182558
3882	0.000555611
3894	7.9373e-05
3906	0.00174621
3918	0.00182558
3930	0
3942	0
3954	0.00269868
3966	0.00174621
