Infrared Spectrum: Heptane
Formula: C 7 H 16
CAS: 142-82-5
Origin: Sadtler Research Labs Under US-EPA Contract
1/CM	ABSORBANCE
450	0.0138132
462	0.0166659
474	0.00735701
486	0.00705672
498	0.00585558
510	0.00900858
522	0.00300286
534	0.00960915
546	0.00465443
558	0.00780744
570	0.00960915
582	0.0103599
594	0.0123117
606	0.00720686
618	0.0103599
630	0.0153146
642	0.00630601
654	0.00735701
666	0.00810772
678	0.0139633
690	0.0192183
702	0.0183174
714	0.0286773
726	0.0478956
738	0.0313799
750	0.0202693
762	0.0135129
774	0.0145639
786	0.0117112
798	0.0127622
810	0.00795758
822	0.0100596
834	0.0112607
846	0.0109604
858	0.012612
870	0.0156149
882	0.0150143
894	0.013663
906	0.0144137
918	0.0144137
930	0.0138132
942	0.0144137
954	0.016816
966	0.0208699
978	0.0184676
990	0.0139633
1002	0.0124619
1014	0.013663
1026	0.0130624
1038	0.0123117
1050	0.0111106
1062	0.012612
1074	0.0142636
1086	0.0135129
1098	0.0120114
1110	0.0102097
1122	0.0108103
1134	0.0127622
1146	0.0133627
1158	0.0124619
1170	0.0108103
1182	0.00930887
1194	0.00810772
1206	0.00990944
1218	0.00990944
1230	0.0106602
1242	0.0138132
1254	0.0160653
1266	0.0175667
1278	0.0175667
1290	0.0169662
1302	0.0184676
1314	0.0180172
1326	0.0183174
1338	0.0253742
1350	0.0321306
1362	0.0397879
1374	0.0644113
1386	0.0792755
1398	0.0454933
1410	0.0219209
1422	0.0219209
1434	0.0435415
1446	0.104199
1458	0.169061
1470	0.15705
1482	0.0908365
1494	0.0415896
1506	0.0226716
1518	0.0130624
1530	0.00960915
1542	0.00960915
1554	0.00780744
1566	0.00690658
1578	0.00675643
1590	0.00735701
1602	0.00840801
1614	0.00885844
1626	0.00690658
1638	0.00615586
1650	0.005255
1662	0.005255
1674	0.00555529
1686	0.00615586
1698	0.00570543
1710	0.00405386
1722	0.004204
1734	0.004204
1746	0.00300286
1758	0.00345329
1770	0.00300286
1782	0.00330315
1794	0.00300286
1806	0.00300286
1818	0.00270257
1830	0.00225214
1842	0.00240229
1854	0.00255243
1866	0.00285272
1878	0.00240229
1890	0.00240229
1902	0.00225214
1914	0.00180172
1926	0.00255243
1938	0.00285272
1950	0.00255243
1962	0.00195186
1974	0.00135129
1986	0.00180172
1998	0.00180172
2010	0.00195186
2022	0.00165157
2034	0.00135129
2046	0.00150143
2058	0.000750715
2070	0.000150143
2082	0.000600572
2094	0.000750715
2106	0.00120114
2118	0.00150143
2130	0.00135129
2142	0.001051
2154	0.00150143
2166	0.00180172
2178	0.00180172
2190	0.00195186
2202	0.00165157
2214	0.00225214
2226	0.00225214
2238	0.00165157
2250	0.00150143
2262	0.000900858
2274	0.00165157
2286	0.00150143
2298	0.00150143
2310	0.00135129
2322	0.00165157
2334	0.00150143
2346	0.00255243
2358	0.002102
2370	0.00330315
2382	0.00300286
2394	0.00330315
2406	0.00300286
2418	0.00345329
2430	0.00270257
2442	0.00240229
2454	0.002102
2466	0.00225214
2478	0.00255243
2490	0.002102
2502	0.00270257
2514	0.00330315
2526	0.00435415
2538	0.00465443
2550	0.004204
2562	0.005255
2574	0.00645615
2586	0.00855815
2598	0.0118613
2610	0.0124619
2622	0.0124619
2634	0.0132126
2646	0.0150143
2658	0.0166659
2670	0.0186177
2682	0.0154647
2694	0.0139633
2706	0.0129123
2718	0.0154647
2730	0.0186177
2742	0.0213203
2754	0.0190682
2766	0.0177169
2778	0.0207197
2790	0.0279266
2802	0.0351335
2814	0.0436916
2826	0.0603575
2838	0.119063
2850	0.287974
2862	0.515891
2874	0.638108
2886	0.590663
2898	0.508384
2910	0.694411
2922	1.12427
2934	1.50143
2946	1.31991
2958	1.23718
2970	1.09364
2982	0.513489
2994	0.149693
3006	0.0735701
3018	0.0573546
3030	0.0537512
3042	0.047295
3054	0.0402383
3066	0.033632
3078	0.0339323
3090	0.0289776
3102	0.0234223
3114	0.0201192
3126	0.0172664
3138	0.0162154
3150	0.0172664
3162	0.0166659
3174	0.0162154
3186	0.0133627
3198	0.00990944
3210	0.0100596
3222	0.00810772
3234	0.00600572
3246	0.00705672
3258	0.00570543
3270	0.00615586
3282	0.00720686
3294	0.00510486
3306	0.00450429
3318	0.00510486
3330	0.00600572
3342	0.00570543
3354	0.00480458
3366	0.00795758
3378	0.00375357
3390	0.00600572
3402	0.00570543
3414	0.00645615
3426	0.00660629
3438	0.00405386
3450	0.00570543
3462	0.00570543
3474	0.005255
3486	0.00450429
3498	0.00375357
3510	0.004204
3522	0.00360343
3534	0.003153
3546	0.00375357
3558	0.00285272
3570	0.00330315
3582	0.00285272
3594	0.00585558
3606	0.00195186
3618	0.00165157
3630	0.00480458
3642	0.00660629
3654	0.00135129
3666	0.00240229
3678	0.00510486
3690	0.00705672
3702	0.00360343
3714	0.00240229
3726	0.00360343
3738	0.00345329
3750	0.00300286
3762	0.00300286
3774	0.00180172
3786	0.00390372
3798	0.00690658
3810	0.00375357
3822	0.00555529
3834	0.00480458
3846	0.00285272
3858	0.00405386
3870	0.00630601
3882	0.00600572
3894	0.00555529
3906	0.004204
3918	0.00660629
3930	0.00285272
3942	0.01051
3954	0.00510486
3966	0.00855815
