Infrared Spectrum: Stannane, dichlorodiisobutyl-,
Formula: C 8 H 18 Cl 2 N
CAS: 14208-78-7
Origin: Sadtler Research Labs Under US-EPA Contract
1/CM	ABSORBANCE
450	0
462	0.0345006
474	0.0336847
486	0.0141033
498	0.0229615
510	0.0221456
522	0.0138702
534	0.0159682
546	0.0164344
558	0.0206304
570	0.0199311
582	0.0448741
594	0.0435919
606	0.0537323
618	0.0526833
630	0.0282066
642	0.0188821
654	0.0215629
666	0.0310039
678	0.0278569
690	0.0421933
702	0.0646886
714	0.107465
726	0.157933
738	0.172736
750	0.100122
762	0.0370648
774	0.0265748
786	0.023894
798	0.0201642
810	0.0361324
822	0.0287893
834	0.016551
846	0.0176
858	0.0169006
870	0.0166675
882	0.0164344
894	0.0177165
906	0.0176
918	0.0203973
930	0.02809
942	0.0236609
954	0.027041
966	0.0245933
978	0.0201642
990	0.0221456
1002	0.0286728
1014	0.0507019
1026	0.090564
1038	0.0799574
1050	0.053033
1062	0.0483707
1074	0.0595601
1086	0.0913799
1098	0.05618
1110	0.0362489
1122	0.0328688
1134	0.0437085
1146	0.0820554
1158	0.186023
1170	0.147676
1182	0.082172
1194	0.0610753
1206	0.0575787
1218	0.0431257
1230	0.0336847
1242	0.0268079
1254	0.0226119
1266	0.0227284
1278	0.0240105
1290	0.0310039
1302	0.0559469
1314	0.123782
1326	0.088466
1338	0.082172
1350	0.0465058
1362	0.0600263
1374	0.12658
1386	0.139518
1398	0.0899812
1410	0.0587442
1422	0.0445244
1434	0.0479045
1446	0.0688846
1458	0.128095
1470	0.191268
1482	0.0859018
1494	0.037531
1506	0.0251761
1518	0.0210966
1530	0.0178331
1542	0.0158516
1554	0.0157351
1566	0.0152688
1578	0.0152688
1590	0.0158516
1602	0.0150357
1614	0.0157351
1626	0.0159682
1638	0.0146861
1650	0.0146861
1662	0.0169006
1674	0.0178331
1686	0.0199311
1698	0.0177165
1710	0.0181827
1722	0.0202807
1734	0.0221456
1746	0.0222622
1758	0.0205139
1770	0.0193483
1782	0.0179496
1794	0.0159682
1806	0.0145695
1818	0.0130543
1830	0.0109563
1842	0.0108397
1854	0.0106066
1866	0.0107232
1878	0.0107232
1890	0.0109563
1902	0.0116556
1914	0.0117722
1926	0.0117722
1938	0.0117722
1950	0.0109563
1962	0.0106066
1974	0.0109563
1986	0.0121218
1998	0.0118887
2010	0.0114225
2022	0.0114225
2034	0.0109563
2046	0.0106066
2058	0.01049
2070	0.0109563
2082	0.01049
2094	0.0106066
2106	0.0113059
2118	0.0116556
2130	0.0124715
2142	0.0122384
2154	0.0116556
2166	0.0120053
2178	0.0121218
2190	0.0117722
2202	0.0109563
2214	0.0111894
2226	0.0113059
2238	0.0116556
2250	0.0122384
2262	0.0120053
2274	0.011539
2286	0.01049
2298	0.00967415
2310	0.0087417
2322	0.00862514
2334	0.0106066
2346	0.0110728
2358	0.0108397
2370	0.0162013
2382	0.0136371
2394	0.0132874
2406	0.0130543
2418	0.0134039
2430	0.012588
2442	0.0129377
2454	0.0134039
2466	0.0142198
2478	0.0137536
2490	0.0139867
2502	0.0138702
2514	0.0131708
2526	0.012588
2538	0.0132874
2550	0.0136371
2562	0.0148026
2574	0.0156185
2586	0.0163178
2598	0.0179496
2610	0.0201642
2622	0.0195814
2634	0.0178331
2646	0.0176
2658	0.0173668
2670	0.0166675
2682	0.0156185
2694	0.0159682
2706	0.0170172
2718	0.0191152
2730	0.0272741
2742	0.0273907
2754	0.0247099
2766	0.0252927
2778	0.0283231
2790	0.0283231
2802	0.030188
2814	0.0349668
2826	0.0412608
2838	0.046739
2850	0.0643389
2862	0.11271
2874	0.300132
2886	0.334049
2898	0.269477
2910	0.30934
2922	0.317848
2934	0.460513
2946	0.497228
2958	0.73034
2970	1.16556
2982	0.373096
2994	0.108747
3006	0.0534992
3018	0.0348502
3030	0.0257589
3042	0.0206304
3054	0.0198145
3066	0.019698
3078	0.0193483
3090	0.0179496
3102	0.0173668
3114	0.016551
3126	0.0157351
3138	0.0156185
3150	0.0159682
3162	0.0158516
3174	0.0178331
3186	0.0192317
3198	0.0182993
3210	0.0163178
3222	0.0134039
3234	0.0110728
3246	0.0106066
3258	0.0114225
3270	0.0107232
3282	0.0107232
3294	0.0108397
3306	0.0124715
3318	0.0124715
3330	0.0134039
3342	0.0135205
3354	0.0138702
3366	0.0141033
3378	0.0143364
3390	0.0128212
3402	0.0108397
3414	0.0103735
3426	0.0097907
3438	0.0101404
3450	0.00967415
3462	0.00955759
3474	0.0097907
3486	0.00967415
3498	0.0108397
3510	0.0107232
3522	0.00990726
3534	0.0100238
3546	0.0107232
3558	0.01049
3570	0.0113059
3582	0.0102569
3594	0.01049
3606	0.0107232
3618	0.00932448
3630	0.0113059
3642	0.0103735
3654	0.0111894
3666	0.011539
3678	0.0111894
3690	0.00990726
3702	0.00909137
3714	0.00920792
3726	0.00909137
3738	0.0100238
3750	0.00885826
3762	0.0109563
3774	0.0108397
3786	0.00990726
3798	0.0097907
3810	0.00990726
3822	0.00920792
3834	0.0113059
3846	0.0118887
3858	0.0116556
3870	0.0116556
3882	0.0100238
3894	0.0102569
3906	0.0121218
3918	0.0102569
3930	0.0120053
3942	0.0103735
3954	0.012588
3966	0.01049
