Infrared Spectrum: Pyrrolidine, 1-(cyanoacetyl)-
Formula: C 7 H 10 N 2 O
CAS: 14227-95-3
Origin: Sadtler Research Labs Under US-EPA Contract
1/CM	ABSORBANCE
450	0
462	0.00793722
474	0.0124389
486	0.015519
498	0.0213239
510	0.027958
522	0.0335259
534	0.0322228
546	0.0285503
558	0.0289057
570	0.0415816
582	0.0534282
594	0.0475049
606	0.0337628
618	0.0289057
630	0.0265364
642	0.0271287
654	0.0246409
666	0.0313935
678	0.0281949
690	0.0356583
702	0.0408708
714	0.0453725
726	0.0443063
738	0.0343551
750	0.0278395
762	0.0273656
774	0.0248779
786	0.0257071
798	0.0235747
810	0.0255887
822	0.0220347
834	0.0238117
846	0.0302088
858	0.0351844
870	0.0345921
882	0.029735
894	0.0308012
906	0.0418185
918	0.0395676
930	0.0324597
942	0.0321043
954	0.0303273
966	0.0313935
978	0.0280764
990	0.0228639
1002	0.02085
1014	0.0183622
1026	0.0185992
1038	0.0267733
1050	0.0276026
1062	0.0234563
1074	0.022627
1086	0.0225085
1098	0.0254702
1110	0.0322228
1122	0.0358952
1134	0.0337628
1146	0.0403969
1158	0.0620762
1170	0.101644
1182	0.130194
1194	0.132682
1206	0.073212
1218	0.0604177
1230	0.0921665
1242	0.0784245
1254	0.0659856
1266	0.0631424
1278	0.0671702
1290	0.0601807
1302	0.0543759
1314	0.0546128
1326	0.0601807
1338	0.0802015
1350	0.0921665
1362	0.0900342
1374	0.131853
1386	0.247831
1398	0.471495
1410	0.667556
1422	0.504191
1434	0.251385
1446	0.147016
1458	0.0929958
1470	0.0754628
1482	0.0580483
1494	0.0446617
1506	0.0293796
1518	0.0220347
1530	0.0199023
1542	0.0152821
1554	0.0183622
1566	0.0201392
1578	0.0209685
1590	0.0235747
1602	0.0291426
1614	0.0367245
1626	0.0499927
1638	0.0736859
1650	0.104132
1662	0.139316
1674	0.253754
1686	0.821799
1698	1.18466
1710	0.606664
1722	0.155664
1734	0.0540205
1746	0.0407523
1758	0.0345921
1770	0.027721
1782	0.0215608
1794	0.0148083
1806	0.0131497
1818	0.0129128
1830	0.0103065
1842	0.0100696
1854	0.0105435
1866	0.00876648
1878	0.00935881
1890	0.00947728
1902	0.0103065
1914	0.0112543
1926	0.012202
1938	0.0103065
1950	0.00864802
1962	0.00758182
1974	0.00758182
1986	0.00722643
1998	0.00675256
2010	0.00639716
2022	0.0059233
2034	0.0059233
2046	0.00580483
2058	0.0062787
2070	0.00580483
2082	0.00568637
2094	0.00568637
2106	0.00544944
2118	0.00509404
2130	0.00544944
2142	0.00544944
2154	0.00580483
2166	0.0062787
2178	0.00604177
2190	0.0062787
2202	0.00651563
2214	0.00687103
2226	0.00604177
2238	0.00604177
2250	0.012202
2262	0.0140975
2274	0.00687103
2286	0.0059233
2298	0.00852955
2310	0.0108989
2322	0.0105435
2334	0.00829262
2346	0.0101881
2358	0.00935881
2370	0.00722643
2382	0.00770029
2394	0.00260625
2406	0.00272472
2418	0.00165852
2430	0.00154006
2442	0.00130313
2454	0.000947728
2466	0.000947728
2478	0.000710796
2490	0.000710796
2502	0.00106619
2514	0.00118466
2526	0.00165852
2538	0.00272472
2550	0.00236932
2562	0.00189546
2574	0.00236932
2586	0.00272472
2598	0.00319858
2610	0.00272472
2622	0.00236932
2634	0.00225085
2646	0.00272472
2658	0.00296165
2670	0.00355398
2682	0.00390938
2694	0.00367245
2706	0.00331705
2718	0.00260625
2730	0.00296165
2742	0.00355398
2754	0.00450171
2766	0.00485711
2778	0.00604177
2790	0.00710796
2802	0.00912188
2814	0.0124389
2826	0.0158744
2838	0.0195469
2850	0.0254702
2862	0.0446617
2874	0.0925219
2886	0.15057
2898	0.149149
2910	0.0863617
2922	0.066104
2934	0.0811492
2946	0.10579
2958	0.133393
2970	0.183978
2982	0.26181
2994	0.169762
3006	0.0496373
3018	0.0212054
3030	0.015756
3042	0.0126759
3054	0.00864802
3066	0.00651563
3078	0.0059233
3090	0.00651563
3102	0.0062787
3114	0.00616023
3126	0.00462017
3138	0.00390938
3150	0.00284318
3162	0.00260625
3174	0.00296165
3186	0.00284318
3198	0.00379091
3210	0.00308012
3222	0.00236932
3234	0.00165852
3246	0.00213239
3258	0.00165852
3270	0.00189546
3282	0.00130313
3294	0.00189546
3306	0.00213239
3318	0.00165852
3330	0.00236932
3342	0.00225085
3354	0.00355398
3366	0.00770029
3378	0.00710796
3390	0.0055679
3402	0.00189546
3414	0.000947728
3426	0.000947728
3438	0.00059233
3450	0.00154006
3462	0.00154006
3474	0.00106619
3486	0.00201392
3498	0.00154006
3510	0.000947728
3522	0.000829262
3534	0.00142159
3546	0.00213239
3558	0.00142159
3570	0.00130313
3582	0.00118466
3594	0.00236932
3606	0.00154006
3618	0.000710796
3630	0.00201392
3642	0.00106619
3654	0.000947728
3666	0.00142159
3678	0.00142159
3690	0.00130313
3702	0.00201392
3714	0.00213239
3726	0.00296165
3738	0.00236932
3750	0.000710796
3762	0.000710796
3774	0.00118466
3786	0.00106619
3798	0.000473864
3810	0.000710796
3822	0.000473864
3834	0.00189546
3846	0.00106619
3858	0.000829262
3870	0.00213239
3882	0.00260625
3894	0.00213239
3906	0.00260625
3918	0.00343551
3930	0.00201392
3942	0.00343551
3954	0.00189546
3966	0.00308012
