Infrared Spectrum: 1,3-Benzodioxol-5-amine
Formula: C 7 H 7 N O 2
CAS: 14268-66-7
Origin: Sadtler Research Labs Under US-EPA Contract
1/CM	ABSORBANCE
450	0.0360828
462	0.0605624
474	0.06693
486	0.0557514
498	0.0342432
510	0.0209421
522	0.0166971
534	0.00891456
546	0.00905606
558	0.0191026
570	0.0343847
582	0.0524969
594	0.070043
606	0.10839
618	0.0820706
630	0.0294322
642	0.0515064
654	0.119427
666	0.151972
678	0.102871
690	0.068628
702	0.0520724
714	0.0428748
726	0.0318377
738	0.0263192
750	0.0328282
762	0.0459878
774	0.0795236
786	0.169518
798	0.157491
810	0.164
822	0.143199
834	0.140793
846	0.0761275
858	0.0208006
870	0.00325452
882	0
894	0.00254702
906	0.0171216
918	0.0810801
930	0.196969
942	0.273521
954	0.198667
966	0.0775425
978	0.0124521
990	0.00551854
1002	0.0165556
1014	0.0527799
1026	0.136831
1038	0.30918
1050	0.432852
1062	0.302954
1074	0.153387
1086	0.107541
1098	0.127634
1110	0.160321
1122	0.159047
1134	0.106975
1146	0.0447143
1158	0.0311302
1170	0.0520724
1182	0.270974
1194	1.08305
1206	1.14333
1218	0.328282
1230	0.126785
1242	0.176169
1254	0.390967
1266	0.433135
1278	0.157066
1290	0.0588644
1302	0.0249042
1314	0.0188196
1326	0.0108956
1338	0.0104711
1350	0.0130181
1362	0.0243382
1374	0.0158481
1386	0.0130181
1398	0.0233477
1410	0.0271682
1422	0.0667885
1434	0.11971
1446	0.137114
1458	0.25173
1470	0.271682
1482	0.717835
1494	1.39817
1506	0.900937
1518	0.330263
1530	0.0665055
1542	0.0407523
1554	0.0257532
1566	0.0380638
1578	0.0571664
1590	0.0524969
1602	0.0793821
1614	0.197394
1626	0.308331
1638	0.254985
1650	0.122681
1662	0.0417428
1674	0.0411768
1686	0.0346677
1698	0.0237722
1710	0.0123106
1722	0.0209421
1734	0.0558929
1746	0.0341017
1758	0.0178291
1770	0.0191026
1782	0.0154236
1794	0.0226402
1806	0.0185366
1818	0.00764105
1830	0.00834856
1842	0.00834856
1854	0.00990507
1866	0.0178291
1878	0.0195271
1890	0.0157066
1902	0.00721655
1914	0.00325452
1926	0.00226402
1938	0.00254702
1950	0.00268852
1962	0.00325452
1974	0.00466953
1986	0.00353753
1998	0.00466953
2010	0.00537704
2022	0.00594304
2034	0.00466953
2046	0.00537704
2058	0.00650905
2070	0.00749955
2082	0.00594304
2094	0.00452803
2106	0.00382053
2118	0.00311302
2130	0.00212252
2142	0.000990507
2154	0.00183951
2166	0.00311302
2178	0.00226402
2190	0.00155651
2202	0.00283002
2214	0.00509404
2226	0.00495254
2238	0.00353753
2250	0.00452803
2262	0.00580154
2274	0.00863156
2286	0.0117446
2298	0.0142916
2310	0.0172631
2322	0.0127351
2334	0.00877306
2346	0.0100466
2358	0.00905606
2370	0.00849006
2382	0.0131596
2394	0.00749955
2406	0.00537704
2418	0.00268852
2430	0.00113201
2442	0.000990507
2454	0.00212252
2466	0.00254702
2478	0.00127351
2490	0.000141501
2502	0
2514	0.000141501
2526	0.00155651
2538	0.00382053
2550	0.00665055
2562	0.00806556
2574	0.00636755
2586	0.00382053
2598	0.00283002
2610	0.00254702
2622	0.00382053
2634	0.00424503
2646	0.00438653
2658	0.00608454
2670	0.00580154
2682	0.00608454
2694	0.00650905
2706	0.00749955
2718	0.00905606
2730	0.0113201
2742	0.0147161
2754	0.0240552
2766	0.0532044
2778	0.0602794
2790	0.0270267
2802	0.0213667
2814	0.0267437
2826	0.0352337
2838	0.0530629
2850	0.0911266
2862	0.146171
2874	0.208714
2886	0.197818
2898	0.151265
2910	0.145888
2922	0.137397
2934	0.115748
2946	0.0991922
2958	0.0849006
2970	0.070609
2982	0.0591474
2994	0.0561759
3006	0.064383
3018	0.0789576
3030	0.0778256
3042	0.0996167
3054	0.0956547
3066	0.0486763
3078	0.0288662
3090	0.0222157
3102	0.0172631
3114	0.0131596
3126	0.00919757
3138	0.00523554
3150	0.00226402
3162	0.00127351
3174	0.00113201
3186	0.00141501
3198	0.00183951
3210	0.00297152
3222	0.00452803
3234	0.00325452
3246	0.00353753
3258	0.00438653
3270	0.00495254
3282	0.00311302
3294	0.00198101
3306	0.000707505
3318	0.000566004
3330	0.00113201
3342	0.00155651
3354	0.00169801
3366	0.00396203
3378	0.00778256
3390	0.0191026
3402	0.0341017
3414	0.0267437
3426	0.0130181
3438	0.00962207
3450	0.00976357
3462	0.0158481
3474	0.0277342
3486	0.0322622
3498	0.0219327
3510	0.0101881
3522	0.00665055
3534	0.00353753
3546	0.00410353
3558	0.00198101
3570	0.00297152
3582	0.00113201
3594	0.00268852
3606	0.000566004
3618	0.000849006
3630	0.00325452
3642	0.00141501
3654	0.00155651
3666	0.00113201
3678	0.00325452
3690	0.00183951
3702	0.000849006
3714	0.00169801
3726	0.00268852
3738	0.00198101
3750	0
3762	0
3774	0.000424503
3786	0.000141501
3798	0.000424503
3810	0.00127351
3822	0.00339602
3834	0.00127351
3846	0.00155651
3858	0.00311302
3870	0.00297152
3882	0.00410353
3894	0.00495254
3906	0.00806556
3918	0.00580154
3930	0.00509404
3942	0.00297152
3954	0.00452803
3966	0.00311302
