Infrared Spectrum: Dodecane, 1-bromo-
Formula: C 12 H 25 Br
CAS: 143-15-7
Origin: Sadtler Research Labs Under US-EPA Contract
1/CM	ABSORBANCE
450	0.0379893
462	0.0166027
474	0.00576874
486	0.0106933
498	0.0196981
510	0.0132259
522	0.00619084
534	0.00942697
546	0.0101305
558	0.0174469
570	0.0378486
582	0.0220901
594	0.0142108
606	0.0105526
618	0.0140701
630	0.0171655
642	0.0298286
654	0.039537
666	0.0195574
678	0.0144922
690	0.0166027
702	0.0202609
714	0.0320798
726	0.036723
738	0.0302507
750	0.0265925
762	0.0234971
774	0.0202609
786	0.0153364
798	0.0156178
810	0.0168841
822	0.0154771
834	0.0130852
846	0.0140701
858	0.0123817
870	0.0135073
882	0.0135073
894	0.0137887
906	0.0143515
918	0.0142108
930	0.0132259
942	0.0126631
954	0.0130852
966	0.0143515
978	0.0123817
990	0.0113968
1002	0.012241
1014	0.0126631
1026	0.0132259
1038	0.0151957
1050	0.013648
1062	0.0135073
1074	0.0130852
1086	0.0115375
1098	0.0115375
1110	0.010834
1122	0.0105526
1134	0.0104119
1146	0.0105526
1158	0.0111154
1170	0.0142108
1182	0.021668
1194	0.0298286
1206	0.036723
1218	0.0464313
1230	0.0520594
1242	0.0575467
1254	0.0665516
1266	0.065426
1278	0.0544513
1290	0.0474162
1302	0.0436173
1314	0.035316
1326	0.0278588
1338	0.0340496
1350	0.0461499
1362	0.0436173
1374	0.0347531
1386	0.0308135
1398	0.0196981
1410	0.0171655
1422	0.0218087
1434	0.042351
1446	0.0825915
1458	0.113405
1470	0.0990535
1482	0.0399591
1494	0.017869
1506	0.0116782
1518	0.00844206
1530	0.00689435
1542	0.00576874
1554	0.00436173
1566	0.00436173
1578	0.00393963
1590	0.00393963
1602	0.00351752
1614	0.00337682
1626	0.00337682
1638	0.00422103
1650	0.00309542
1662	0.00295472
1674	0.00267332
1686	0.00351752
1698	0.00337682
1710	0.00365823
1722	0.00436173
1734	0.00393963
1746	0.00408033
1758	0.00436173
1770	0.00281402
1782	0.00267332
1794	0.00182911
1806	0.00196981
1818	0.00182911
1830	0.00126631
1842	0.00126631
1854	0.00126631
1866	0.00112561
1878	0.00140701
1890	0.00168841
1902	0.00126631
1914	0.00154771
1926	0.00140701
1938	0.00112561
1950	0.00126631
1962	0.00154771
1974	0.00168841
1986	0.00168841
1998	0.00196981
2010	0.00253262
2022	0.00267332
2034	0.00295472
2046	0.00281402
2058	0.00196981
2070	0.00182911
2082	0.00239192
2094	0.00239192
2106	0.00295472
2118	0.00323612
2130	0.00253262
2142	0.00225122
2154	0.00225122
2166	0.00239192
2178	0.00225122
2190	0.00295472
2202	0.00351752
2214	0.00365823
2226	0.00365823
2238	0.00365823
2250	0.00295472
2262	0.00337682
2274	0.00351752
2286	0.00309542
2298	0.00281402
2310	0.00154771
2322	0.000422103
2334	0.00281402
2346	0.00830136
2358	0.000703505
2370	0.0130852
2382	0.00998977
2394	0.00492453
2406	0.00365823
2418	0.00365823
2430	0.00365823
2442	0.00365823
2454	0.00379893
2466	0.00393963
2478	0.00408033
2490	0.00464313
2502	0.00534664
2514	0.00534664
2526	0.00661295
2538	0.00590944
2550	0.00619084
2562	0.00267332
2574	0.000422103
2586	0.00239192
2598	0.00534664
2610	0.00675365
2622	0.00548734
2634	0.00422103
2646	0.00562804
2658	0.00858276
2670	0.0116782
2682	0.0125224
2694	0.0151957
2706	0.0151957
2718	0.0149143
2730	0.0161806
2742	0.0177283
2754	0.0182911
2766	0.0195574
2778	0.0223715
2790	0.0271553
2802	0.0340496
2814	0.0441801
2826	0.0606421
2838	0.0931441
2850	0.20064
2862	0.510041
2874	0.423791
2886	0.297161
2898	0.284075
2910	0.420977
2922	0.77878
2934	1.40701
2946	0.957048
2958	0.477117
2970	0.445178
2982	0.215273
2994	0.1044
3006	0.0755564
3018	0.0693656
3030	0.039537
3042	0.0292658
3054	0.0213866
3066	0.0187132
3078	0.015055
3090	0.0142108
3102	0.0119596
3114	0.0118189
3126	0.0105526
3138	0.010834
3150	0.0142108
3162	0.0147736
3174	0.0112561
3186	0.0115375
3198	0.010834
3210	0.0135073
3222	0.0144922
3234	0.015055
3246	0.0129445
3258	0.0113968
3270	0.0102712
3282	0.00647225
3294	0.00534664
3306	0.00605014
3318	0.00562804
3330	0.00408033
3342	0.00436173
3354	0.00351752
3366	0.00309542
3378	0.00450243
3390	0.00450243
3402	0.00351752
3414	0.00337682
3426	0.00422103
3438	0.00295472
3450	0.00393963
3462	0.00323612
3474	0.00309542
3486	0.00323612
3498	0.00309542
3510	0.00379893
3522	0.00309542
3534	0.00182911
3546	0.00239192
3558	0.00365823
3570	0.00323612
3582	0.00211051
3594	0.00337682
3606	0.00281402
3618	0.00337682
3630	0.00422103
3642	0.00393963
3654	0.00450243
3666	0.000984907
3678	0.00408033
3690	0.00211051
3702	0.00211051
3714	0.00281402
3726	0.00211051
3738	0.00281402
3750	0.00253262
3762	0.00309542
3774	0.00267332
3786	0.00309542
3798	0.00323612
3810	0.00112561
3822	0.00239192
3834	0.00239192
3846	0.00422103
3858	0.00520594
3870	0.00168841
3882	0.00337682
3894	0.00436173
3906	0.00211051
3918	0.00196981
3930	0.00253262
3942	0.00478383
3954	0.00140701
3966	0.00393963
