Infrared Spectrum: Oleyl Alcohol
Formula: C 18 H 36 O
CAS: 143-28-2
Origin: Sadtler Research Labs Under US-EPA Contract
1/CM	ABSORBANCE
450	0.0586965
462	0.0684157
474	0.00190573
486	0.0350654
498	0.00743235
510	0.0251556
522	0.00838521
534	0.0192479
546	0.0219159
558	0.0171516
570	0.0158176
582	0.0171516
594	0.0173421
606	0.0148647
618	0.0121967
630	0.0137213
642	0.0158176
654	0.0188667
666	0.019629
678	0.0303011
690	0.040592
702	0.052217
714	0.0674628
726	0.0672723
738	0.0487867
750	0.0348749
762	0.0276331
774	0.0268708
786	0.0221065
798	0.0194384
810	0.0261085
822	0.0221065
834	0.0192479
846	0.0238216
858	0.0270614
870	0.0243933
882	0.0276331
894	0.0291577
906	0.0295388
918	0.0316351
930	0.033922
942	0.0400203
954	0.0512641
966	0.0739423
978	0.0676534
990	0.0676534
1002	0.0777538
1014	0.102719
1026	0.138356
1038	0.174565
1050	0.182188
1062	0.151506
1074	0.110151
1086	0.0796595
1098	0.0537416
1110	0.0411638
1122	0.0350654
1134	0.0314445
1146	0.0297294
1158	0.0293482
1170	0.0316351
1182	0.0337314
1194	0.0381146
1206	0.037924
1218	0.0383052
1230	0.0396392
1242	0.0424978
1254	0.0447847
1266	0.0478338
1278	0.0497396
1290	0.0525981
1302	0.0566002
1314	0.0585059
1326	0.0552662
1338	0.0626985
1350	0.0811841
1362	0.0733706
1374	0.0707026
1386	0.0769915
1398	0.0655571
1410	0.0529793
1422	0.0407826
1434	0.0585059
1446	0.10653
1458	0.15284
1470	0.12654
1482	0.0596493
1494	0.0287765
1506	0.0179139
1518	0.012959
1530	0.00971922
1542	0.00876636
1554	0.00838521
1566	0.00724177
1578	0.00724177
1590	0.00686063
1602	0.00800407
1614	0.00762292
1626	0.00800407
1638	0.0091475
1650	0.0131495
1662	0.0102909
1674	0.00952865
1686	0.00819464
1698	0.00762292
1710	0.00647948
1722	0.00609834
1734	0.00590776
1746	0.00609834
1758	0.00533604
1770	0.00438318
1782	0.00400203
1794	0.00419261
1806	0.00419261
1818	0.00400203
1830	0.00381146
1842	0.00362089
1854	0.00362089
1866	0.00304917
1878	0.00323974
1890	0.00343031
1902	0.00381146
1914	0.00323974
1926	0.00381146
1938	0.00381146
1950	0.00304917
1962	0.00304917
1974	0.00304917
1986	0.0028586
1998	0.00343031
2010	0.00419261
2022	0.0049549
2034	0.00590776
2046	0.00590776
2058	0.00590776
2070	0.00476432
2082	0.0049549
2094	0.00381146
2106	0.00381146
2118	0.00323974
2130	0.00343031
2142	0.00304917
2154	0.00323974
2166	0.00343031
2178	0.00343031
2190	0.00381146
2202	0.00381146
2214	0.00304917
2226	0.00343031
2238	0.00323974
2250	0.00304917
2262	0.00323974
2274	0.00419261
2286	0.00419261
2298	0.00514547
2310	0.00609834
2322	0.00571719
2334	0.00457375
2346	0.00457375
2358	0.00362089
2370	0.00362089
2382	0.0049549
2394	0.00419261
2406	0.00457375
2418	0.00438318
2430	0.00533604
2442	0.00476432
2454	0.00476432
2466	0.00476432
2478	0.00552662
2490	0.00628891
2502	0.00609834
2514	0.00686063
2526	0.00762292
2538	0.00762292
2550	0.00819464
2562	0.00857579
2574	0.0091475
2586	0.00971922
2598	0.0108627
2610	0.0112438
2622	0.012959
2634	0.015627
2646	0.0163893
2658	0.0188667
2670	0.0207725
2682	0.0232499
2694	0.0236311
2706	0.0230593
2718	0.0230593
2730	0.0242028
2742	0.0272519
2754	0.0297294
2766	0.0322068
2778	0.03659
2790	0.0453564
2802	0.0556473
2814	0.0729895
2826	0.100241
2838	0.161034
2850	0.34265
2862	0.763245
2874	0.634036
2886	0.482721
2898	0.482721
2910	0.717317
2922	1.24806
2934	1.90573
2946	1.25016
2958	0.663956
2970	0.517406
2982	0.247364
2994	0.142358
3006	0.161225
3018	0.185999
3030	0.0752763
3042	0.0434506
3054	0.0320163
3066	0.0280142
3078	0.0221065
3090	0.0179139
3102	0.0152458
3114	0.0150553
3126	0.012959
3138	0.0118155
3150	0.0108627
3162	0.0108627
3174	0.00952865
3186	0.00933808
3198	0.00857579
3210	0.00762292
3222	0.00647948
3234	0.00667006
3246	0.00628891
3258	0.00571719
3270	0.00628891
3282	0.00647948
3294	0.00514547
3306	0.00571719
3318	0.00609834
3330	0.00362089
3342	0.00457375
3354	0.00533604
3366	0.0049549
3378	0.00419261
3390	0.00571719
3402	0.00438318
3414	0.0049549
3426	0.00781349
3438	0.0070512
3450	0.00667006
3462	0.00609834
3474	0.00724177
3486	0.00590776
3498	0.00876636
3510	0.00686063
3522	0.00762292
3534	0.00609834
3546	0.00800407
3558	0.00628891
3570	0.00857579
3582	0.00743235
3594	0.0099098
3606	0.0101004
3618	0.0133401
3630	0.0167704
3642	0.020963
3654	0.0377335
3666	0.0516453
3678	0.0447847
3690	0.0232499
3702	0.0137213
3714	0.0106721
3726	0.00724177
3738	0.00952865
3750	0.0112438
3762	0.00781349
3774	0.0091475
3786	0.011625
3798	0.0102909
3810	0.0112438
3822	0.00895693
3834	0.0118155
3846	0.0114344
3858	0.0139118
3870	0.0131495
3882	0.0131495
3894	0.00971922
3906	0.0120061
3918	0.00838521
3930	0.014293
3942	0.012959
3954	0.0114344
3966	0.0146741
