Infrared Spectrum: Dodecanoic acid
Formula: C 12 H 24 O 2
CAS: 143-07-7
Origin: Sadtler Research Labs Under US-EPA Contract
1/CM	ABSORBANCE
450	0.000608248
462	0.00228093
474	0.0107204
486	0.00904769
498	0.0158144
510	0.0228853
522	0.0243299
534	0.0305645
546	0.0377874
558	0.0508647
570	0.0512449
582	0.0570233
594	0.0620413
606	0.0653106
618	0.0615091
630	0.0591521
642	0.0418171
654	0.0253944
666	0.0208325
678	0.017259
690	0.0185516
702	0.0187797
714	0.0250902
726	0.0252423
738	0.0218969
750	0.0158905
762	0.0119369
774	0.00988403
786	0.00547423
798	0.00174871
810	0.00281315
822	0.0031933
834	0.00357346
846	0.00395361
858	0.00517011
870	0.00623454
882	0.00699485
894	0.00517011
906	0.00577836
918	0.00532217
930	0.00509408
942	0.00646264
954	0.00562629
966	0.00615851
978	0.00821135
990	0.0104162
1002	0.0135335
1014	0.0167268
1026	0.0224291
1038	0.0309446
1050	0.0455426
1062	0.0621173
1074	0.0802127
1086	0.110929
1098	0.16704
1110	0.19502
1122	0.176012
1134	0.19692
1146	0.156092
1158	0.11207
1170	0.0935942
1182	0.0802887
1194	0.0656148
1206	0.053906
1218	0.0449343
1230	0.0370271
1242	0.0333776
1254	0.03429
1266	0.0355065
1278	0.0352024
1290	0.0349743
1302	0.0345941
1314	0.0329975
1326	0.0321611
1338	0.0395361
1350	0.0536019
1362	0.0626495
1374	0.0684279
1386	0.073522
1398	0.0436418
1410	0.0288157
1422	0.0279034
1434	0.0358866
1446	0.044174
1458	0.0671354
1470	0.0643983
1482	0.0284356
1494	0.0119369
1506	0.00836341
1518	0.0066147
1530	0.0066147
1542	0.00395361
1554	0.00646264
1566	0.00456186
1578	0.00600645
1590	0.00593042
1602	0.00456186
1614	0.00433377
1626	0.00737501
1638	0.00266109
1650	0.00889563
1662	0.00631057
1674	0.00387758
1686	0.00745104
1698	0.0088196
1710	0.0170309
1722	0.0323892
1734	0.051549
1746	0.102946
1758	0.18544
1770	0.322752
1782	0.442652
1794	0.22528
1806	0.118684
1818	0.0508647
1830	0.0201482
1842	0.0133815
1854	0.009808
1866	0.00669073
1878	0.00714691
1890	0.00478995
1902	0.00433377
1914	0.00425774
1926	0.00395361
1938	0.00357346
1950	0.00402964
1962	0.0031933
1974	0.00349743
1986	0.00364949
1998	0.00258505
2010	0.00402964
2022	0.00334536
2034	0.00326933
2046	0.0041817
2058	0.0034214
2070	0.00311727
2082	0.00364949
2094	0.00311727
2106	0.00281315
2118	0.00311727
2130	0.00273712
2142	0.00304124
2154	0.0031933
2166	0.00281315
2178	0.00326933
2190	0.00304124
2202	0.00273712
2214	0.00326933
2226	0.00288918
2238	0.00281315
2250	0.00288918
2262	0.00235696
2274	0.00243299
2286	0.00228093
2298	0.00250902
2310	0.00273712
2322	0.00288918
2334	0.0022049
2346	0.000988403
2358	0.00190078
2370	0.000608248
2382	0.00281315
2394	0.0022049
2406	0.00182474
2418	0.00190078
2430	0.00136856
2442	0.0012165
2454	0.00106443
2466	0.000608248
2478	0.000684279
2490	0.0012165
2502	0.00106443
2514	0.00129253
2526	0.00159665
2538	0.00167268
2550	0.00159665
2562	0.00197681
2574	0.0022049
2586	0.00288918
2598	0.00349743
2610	0.00372552
2622	0.0044098
2634	0.00456186
2646	0.00524614
2658	0.00585439
2670	0.00699485
2682	0.00767913
2694	0.00798325
2706	0.00745104
2718	0.00737501
2730	0.00752707
2742	0.00805929
2754	0.00843944
2766	0.00874357
2778	0.00965594
2790	0.0117088
2802	0.0160425
2814	0.0210606
2826	0.0292719
2838	0.0439459
2850	0.0973957
2862	0.273484
2874	0.243451
2886	0.1659
2898	0.144535
2910	0.224748
2922	0.43619
2934	0.76031
2946	0.532369
2958	0.297585
2970	0.267173
2982	0.119597
2994	0.0580117
3006	0.0348222
3018	0.0241018
3030	0.0177152
3042	0.0138376
3054	0.0105683
3066	0.00935181
3078	0.00790722
3090	0.00699485
3102	0.00570233
3114	0.00547423
3126	0.00509408
3138	0.00509408
3150	0.00433377
3162	0.00517011
3174	0.00387758
3186	0.00334536
3198	0.00387758
3210	0.00364949
3222	0.00296521
3234	0.00266109
3246	0.00273712
3258	0.00205284
3270	0.00250902
3282	0.0022049
3294	0.00205284
3306	0.00190078
3318	0.00243299
3330	0.00258505
3342	0.00296521
3354	0.00182474
3366	0.00243299
3378	0.00266109
3390	0.00205284
3402	0.00235696
3414	0.00152062
3426	0.00182474
3438	0.00266109
3450	0.00212887
3462	0.00235696
3474	0.00228093
3486	0.0022049
3498	0.00182474
3510	0.00349743
3522	0.00570233
3534	0.0063866
3546	0.0104162
3558	0.0183995
3570	0.101273
3582	0.14826
3594	0.0268389
3606	0.00950388
3618	0.00889563
3630	0.00897166
3642	0.00433377
3654	0.0041817
3666	0.00684279
3678	0.00471392
3690	0.0041817
3702	0.00402964
3714	0.00623454
3726	0.00783119
3738	0.00410567
3750	0.0106443
3762	0.00562629
3774	0.00235696
3786	0.00380155
3798	0.00235696
3810	0.00669073
3822	0.00311727
3834	0.00372552
3846	0.00676676
3858	0.00615851
3870	0.00478995
3882	0.00805929
3894	0.000608248
3906	0.0101121
3918	0.00471392
3930	0.00501805
3942	0.00471392
3954	0.00190078
3966	0.00593042
