Infrared Spectrum: Acetic acid, nonyl ester
Formula: C 11 H 22 O 2
CAS: 143-13-5
Origin: Sadtler Research Labs Under US-EPA Contract
1/CM	ABSORBANCE
450	0.00657647
462	0.00837635
474	0.0102454
486	0.00913783
498	0.00872248
510	0.00685337
522	0.00588421
534	0.00865325
546	0.00823789
558	0.00221523
570	0.00429201
582	0.00761486
594	0.0126684
606	0.0159912
618	0.0146067
630	0.0179988
642	0.0108685
654	0.00623034
666	0
678	0.00560731
690	0.00297672
702	0.00401511
714	0.0100378
726	0.00983009
738	0.00477659
750	0.00747641
762	0.00809944
774	0.00463814
786	0.0053304
798	0.00768409
810	0.00747641
822	0.00920706
834	0.0114223
846	0.0118376
858	0.0120453
870	0.0121145
882	0.0108685
894	0.0121145
906	0.01073
918	0.0119761
930	0.0137067
942	0.0172373
954	0.0151605
966	0.0184141
978	0.0200063
990	0.020214
1002	0.0310825
1014	0.0528887
1026	0.0823789
1038	0.113946
1050	0.116161
1062	0.0919321
1074	0.0758717
1086	0.0553808
1098	0.0336438
1110	0.020837
1122	0.017445
1134	0.014399
1146	0.0121145
1158	0.0121145
1170	0.0157835
1182	0.02236
1194	0.0380743
1206	0.0836942
1218	0.218962
1230	0.59209
1242	0.583437
1254	0.245268
1266	0.127237
1278	0.0754563
1290	0.0481813
1302	0.0364129
1314	0.026652
1326	0.0199371
1338	0.0206986
1350	0.0315671
1362	0.0861171
1374	0.119623
1386	0.0744872
1398	0.0553808
1410	0.0240214
1422	0.0206293
1434	0.0255444
1446	0.0377282
1458	0.0590498
1470	0.0610573
1482	0.0331593
1494	0.0173065
1506	0.0135683
1518	0.0114915
1530	0.00872248
1542	0.00920706
1554	0.0071995
1566	0.00629957
1578	0.00595344
1590	0.0050535
1602	0.00526118
1614	0.0050535
1626	0.00588421
1638	0.0053304
1650	0.00623034
1662	0.0066457
1674	0.00823789
1686	0.00955319
1698	0.0132222
1710	0.0187602
1722	0.0332977
1734	0.062788
1746	0.146205
1758	0.376728
1770	0.303556
1782	0.110346
1794	0.0458968
1806	0.02236
1818	0.0121838
1830	0.00844557
1842	0.00560731
1854	0.00498427
1866	0.0050535
1878	0.00436124
1890	0.0031844
1902	0.0037382
1914	0.00353053
1926	0.00297672
1938	0.00297672
1950	0.00256136
1962	0.00297672
1974	0.00242291
1986	0.00235368
1998	0.00297672
2010	0.00380743
2022	0.00498427
2034	0.00477659
2046	0.00408433
2058	0.00401511
2070	0.00449969
2082	0.00443046
2094	0.00353053
2106	0.00263059
2118	0.00256136
2130	0.00242291
2142	0.00256136
2154	0.00256136
2166	0.00228446
2178	0.00249214
2190	0.00249214
2202	0.00249214
2214	0.00221523
2226	0.00228446
2238	0.00256136
2250	0.00297672
2262	0.00221523
2274	0.00235368
2286	0.00207678
2298	0.00110762
2310	0.000623034
2322	0.000207678
2334	0
2346	0.00214601
2358	0.000207678
2370	0.00422279
2382	0.00256136
2394	0.00276904
2406	0.00263059
2418	0.00256136
2430	0.00339207
2442	0.00311517
2454	0.0031844
2466	0.00311517
2478	0.00353053
2490	0.00256136
2502	0.00276904
2514	0.00366898
2526	0.0037382
2538	0.00429201
2550	0.0034613
2562	0.00359975
2574	0.00526118
2586	0.00498427
2598	0.00526118
2610	0.00498427
2622	0.0037382
2634	0.00526118
2646	0.00546885
2658	0.00470737
2670	0.00768409
2682	0.00768409
2694	0.00754563
2706	0.00706105
2718	0.0071995
2730	0.00775331
2742	0.00989932
2754	0.00969164
2766	0.00920706
2778	0.00886093
2790	0.0110069
2802	0.0133606
2814	0.0157143
2826	0.0197294
2838	0.0307363
2850	0.0654878
2862	0.180265
2874	0.174173
2886	0.12433
2898	0.107439
2910	0.161781
2922	0.28438
2934	0.493443
2946	0.385589
2958	0.246652
2970	0.268943
2982	0.126337
2994	0.0593267
3006	0.0337823
3018	0.0235368
3030	0.0211832
3042	0.0190372
3054	0.0141913
3066	0.0139837
3078	0.0123915
3090	0.0105224
3102	0.0087917
3114	0.00809944
3126	0.00595344
3138	0.0053304
3150	0.00470737
3162	0.00629957
3174	0.00366898
3186	0.00359975
3198	0.00685337
3210	0.00366898
3222	0.00283827
3234	0.00408433
3246	0.00546885
3258	0.00283827
3270	0.00484582
3282	0.00436124
3294	0.00443046
3306	0.0053304
3318	0.00470737
3330	0.0053304
3342	0.0053304
3354	0.00539963
3366	0.00616111
3378	0.00553808
3390	0.00581498
3402	0.00332285
3414	0.00657647
3426	0.00491505
3438	0.00595344
3450	0.00706105
3462	0.00678415
3474	0.00491505
3486	0.00546885
3498	0.00740718
3510	0.00775331
3522	0.00456892
3534	0.00380743
3546	0.00415356
3558	0.00325362
3570	0.0050535
3582	0.00353053
3594	0.0037382
3606	0.00214601
3618	0.00256136
3630	0.00283827
3642	0.00366898
3654	0.0018691
3666	0.000138452
3678	0.00228446
3690	0.000623034
3702	0.00173065
3714	0.000761486
3726	0.000553808
3738	0.000899938
3750	0.000761486
3762	0.00117684
3774	0.000553808
3786	0.000138452
3798	0.000830712
3810	0.00145375
3822	0
3834	0.00124607
3846	0.000969164
3858	0.00145375
3870	0.00138452
3882	0.000207678
3894	0
3906	0.000899938
3918	0.000761486
3930	0.000830712
3942	0.00242291
3954	0.00207678
3966	0.00276904
