Infrared Spectrum: 1-Nonanol
Formula: C 9 H 20 O
CAS: 143-08-8
Origin: Sadtler Research Labs Under US-EPA Contract
1/CM	ABSORBANCE
450	0.0313118
462	0.0264698
474	0.0216277
486	0.0363152
498	0.0234031
510	0.0264698
522	0.0361538
534	0.0403503
546	0
558	0.0251786
570	0.0195295
582	0.0229189
594	0.0217891
606	0.0216277
618	0.0198523
630	0.0217891
642	0.0206593
654	0.0196909
666	0.0204979
678	0.0229189
690	0.0230803
702	0.0282452
714	0.0405117
726	0.0385748
738	0.037445
750	0.0319574
762	0.0363152
774	0.00419643
786	0.0258242
798	0.024533
810	0.0256628
822	0.0272768
834	0.0292136
846	0.0296978
858	0.0313118
870	0.0348626
882	0.036638
894	0.0400274
906	0.0476133
918	0.0510027
930	0.0501957
942	0.0497115
954	0.0516483
966	0.0598798
978	0.0721462
990	0.0887706
1002	0.107977
1014	0.127668
1026	0.186741
1038	0.253722
1050	0.28681
1062	0.26615
1074	0.186095
1086	0.119275
1098	0.0790865
1110	0.0631078
1122	0.0513255
1134	0.0437397
1146	0.0422871
1158	0.0439011
1170	0.0456765
1182	0.0468063
1194	0.0497115
1206	0.0543921
1218	0.0581044
1230	0.0602026
1242	0.0598798
1254	0.060364
1266	0.0610096
1278	0.060364
1290	0.0610096
1302	0.0613324
1314	0.0576202
1326	0.0550377
1338	0.0656902
1350	0.0776339
1362	0.0789251
1374	0.0918372
1386	0.119437
1398	0.089739
1410	0.0561675
1422	0.0458379
1434	0.0551991
1446	0.0837671
1458	0.132833
1470	0.136868
1482	0.0819917
1494	0.0361538
1506	0.0229189
1518	0.0182383
1530	0.0163015
1542	0.0124279
1554	0.0127507
1566	0.0121051
1578	0.0111367
1590	0.0109753
1602	0.0106525
1614	0.00936126
1626	0.00984546
1638	0.00839285
1650	0.00936126
1662	0.00984546
1674	0.00855425
1686	0.00726305
1698	0.00807005
1710	0.00823145
1722	0.00807005
1734	0.00774725
1746	0.00758585
1758	0.00839285
1770	0.00726305
1782	0.00677884
1794	0.00645604
1806	0.00661744
1818	0.00726305
1830	0.00645604
1842	0.00694024
1854	0.00677884
1866	0.00710164
1878	0.00661744
1890	0.00710164
1902	0.00677884
1914	0.00629464
1926	0.00629464
1938	0.00613324
1950	0.00629464
1962	0.00564904
1974	0.00597184
1986	0.00581044
1998	0.00581044
2010	0.00629464
2022	0.00807005
2034	0.00855425
2046	0.00823145
2058	0.00758585
2070	0.00661744
2082	0.00516483
2094	0.00500343
2106	0.00435783
2118	0.00468063
2130	0.00468063
2142	0.00468063
2154	0.00419643
2166	0.00451923
2178	0.00403503
2190	0.00403503
2202	0.00371222
2214	0.00419643
2226	0.00403503
2238	0.00371222
2250	0.00355082
2262	0.00355082
2274	0.00355082
2286	0.00355082
2298	0.00290522
2310	0.00371222
2322	0.00451923
2334	0.00274382
2346	0.00258242
2358	0.00371222
2370	0.000645604
2382	0.00129121
2394	0.00306662
2406	0.00322802
2418	0.00306662
2430	0.00242102
2442	0.00242102
2454	0.00177541
2466	0.00129121
2478	0.000645604
2490	0.000807005
2502	0.00112981
2514	0.00145261
2526	0.00145261
2538	0.00193681
2550	0.00290522
2562	0.00290522
2574	0.00387362
2586	0.00500343
2598	0.00613324
2610	0.00710164
2622	0.00871565
2634	0.00952266
2646	0.0108139
2658	0.0129121
2670	0.0143647
2682	0.0174313
2694	0.0179155
2706	0.0172699
2718	0.0188839
2730	0.0216277
2742	0.0250172
2754	0.0266312
2766	0.0275996
2778	0.0303434
2790	0.0376064
2802	0.0451923
2814	0.0563289
2826	0.0756971
2838	0.116209
2850	0.266957
2862	0.613969
2874	0.653351
2886	0.536174
2898	0.4424
2910	0.600573
2922	1.06831
2934	1.61401
2946	1.23585
2958	0.709842
2970	0.675786
2982	0.284066
2994	0.111367
3006	0.0679498
3018	0.0468063
3030	0.0347012
3042	0.02534
3054	0.0195295
3066	0.0156559
3078	0.0132349
3090	0.0117823
3102	0.00903846
3114	0.00790865
3126	0.00758585
3138	0.00710164
3150	0.00597184
3162	0.00581044
3174	0.00564904
3186	0.00516483
3198	0.00435783
3210	0.00371222
3222	0.00225961
3234	0.00145261
3246	0.00258242
3258	0.00193681
3270	0.00129121
3282	0.00129121
3294	0.00225961
3306	0.00112981
3318	0.00177541
3330	0.00129121
3342	0.00145261
3354	0.00193681
3366	0.000807005
3378	0.00161401
3390	0.00129121
3402	0.00129121
3414	0.00177541
3426	0.00161401
3438	0.00209821
3450	0.00193681
3462	0.00322802
3474	0.00290522
3486	0.00274382
3498	0.00225961
3510	0.00193681
3522	0.00306662
3534	0.000968406
3546	0.00145261
3558	0.00193681
3570	0.00225961
3582	0.00242102
3594	0.00355082
3606	0.00419643
3618	0.00839285
3630	0.0104911
3642	0.0200137
3654	0.0464835
3666	0.0765041
3678	0.070048
3690	0.026147
3702	0.0127507
3714	0.00839285
3726	0.00661744
3738	0.00677884
3750	0.00387362
3762	0.00532623
3774	0.00484203
3786	0.00516483
3798	0.00887706
3810	0.00887706
3822	0.00581044
3834	0.0117823
3846	0.00597184
3858	0.00564904
3870	0.00952266
3882	0.00855425
3894	0.00984546
3906	0.00661744
3918	0.00451923
3930	0.00645604
3942	0.00677884
3954	0.00661744
3966	0.00500343
