Infrared Spectrum: 1-Hexanamine, N-hexyl-
Formula: C 12 H 27 N
CAS: 143-16-8
Origin: Sadtler Research Labs Under US-EPA Contract
1/CM	ABSORBANCE
450	0
462	0.00653443
474	0.00417478
486	0.0101647
498	0.0265008
510	0.0154285
522	0.0221445
534	0.0165176
546	0.0154285
558	0.0143394
570	0.0134319
582	0.00980165
594	0.0103462
606	0.015247
618	0.0188772
630	0.0185142
642	0.0254117
654	0.0294049
666	0.0419293
678	0.0475561
690	0.0586284
702	0.0533645
714	0.0675225
726	0.0595359
738	0.0464671
750	0.0355764
762	0.030494
774	0.0257747
786	0.0127058
798	0.0170621
810	0.0117983
822	0.0130689
834	0.00834955
846	0.0090756
858	0.0090756
870	0.014521
882	0.00980165
894	0.0121613
906	0.00780502
918	0.0105277
930	0.0108907
942	0.0105277
954	0.0114353
966	0.0110722
978	0.0117983
990	0.0114353
1002	0.0114353
1014	0.0147025
1026	0.0197848
1038	0.0225075
1050	0.0252302
1062	0.0266823
1074	0.0283159
1086	0.0290419
1098	0.0462856
1110	0.0693376
1122	0.102917
1134	0.160457
1146	0.105277
1158	0.0519124
1170	0.0346688
1182	0.0303125
1194	0.0303125
1206	0.0270453
1218	0.0241411
1230	0.0250487
1242	0.0279528
1254	0.0265008
1266	0.0254117
1278	0.0315831
1290	0.0326722
1302	0.0422923
1314	0.0401142
1326	0.0417478
1338	0.0667964
1350	0.0849476
1362	0.0858552
1374	0.0729678
1386	0.0637107
1398	0.037573
1410	0.0323091
1422	0.0377545
1434	0.0700636
1446	0.130144
1458	0.203293
1470	0.186413
1482	0.083314
1494	0.037573
1506	0.0201478
1518	0.0130689
1530	0.0107092
1542	0.00580838
1554	0.0059899
1566	0.00816804
1578	0.00580838
1590	0.00562687
1602	0.00508234
1614	0.00635292
1626	0.00689746
1638	0.00580838
1650	0.00381175
1662	0.00962014
1674	0.00816804
1686	0.00671594
1698	0.0130689
1710	0.0186957
1722	0.00889409
1734	0.00707897
1746	0.0076235
1758	0.00635292
1770	0.00834955
1782	0.00816804
1794	0.00744199
1806	0.00490082
1818	0.00526385
1830	0.00344873
1842	0.00363024
1854	0.0045378
1866	0.00199663
1878	0.00254117
1890	0.00399326
1902	0.00326722
1914	0.00272268
1926	0.00435629
1938	0.0030857
1950	0.00181512
1962	0.00417478
1974	0.00344873
1986	0.00090756
1998	0.00399326
2010	0.00508234
2022	0.00290419
2034	0.00399326
2046	0.00508234
2058	0.00344873
2070	0.00181512
2082	0.00363024
2094	0.00363024
2106	0.00290419
2118	0.0030857
2130	0.00363024
2142	0.00344873
2154	0.0030857
2166	0.00381175
2178	0.00363024
2190	0.00344873
2202	0.00344873
2214	0.00290419
2226	0.00290419
2238	0.0030857
2250	0.00363024
2262	0.00344873
2274	0.00381175
2286	0.00435629
2298	0.00417478
2310	0.00344873
2322	0.00272268
2334	0.00127058
2346	0.00526385
2358	0.00090756
2370	0.00217814
2382	0.00526385
2394	0.0045378
2406	0.00580838
2418	0.00544536
2430	0.00580838
2442	0.00544536
2454	0.00471931
2466	0.00526385
2478	0.00562687
2490	0.00653443
2502	0.00635292
2514	0.00689746
2526	0.00707897
2538	0.0090756
2550	0.00943862
2562	0.0101647
2574	0.0110722
2586	0.0128874
2598	0.0139764
2610	0.0161546
2622	0.0172436
2634	0.0199663
2646	0.022689
2658	0.0270453
2670	0.0310386
2682	0.0339427
2694	0.0363024
2706	0.03721
2718	0.0390251
2730	0.0435629
2742	0.0513679
2754	0.0562687
2766	0.0608065
2778	0.0709712
2790	0.103462
2802	0.162635
2814	0.232698
2826	0.237418
2838	0.230157
2850	0.349592
2862	0.692287
2874	0.587917
2886	0.489356
2898	0.473746
2910	0.683574
2922	1.17765
2934	1.81512
2946	1.18473
2958	0.683211
2970	0.666512
2982	0.284611
2994	0.132685
3006	0.0820434
3018	0.0568133
3030	0.0433814
3042	0.0332167
3054	0.0266823
3066	0.0212369
3078	0.0188772
3090	0.0165176
3102	0.014521
3114	0.0123428
3126	0.0110722
3138	0.0103462
3150	0.00962014
3162	0.00925711
3174	0.00889409
3186	0.00816804
3198	0.00671594
3210	0.00580838
3222	0.0045378
3234	0.00381175
3246	0.00290419
3258	0.00344873
3270	0.00199663
3282	0.00381175
3294	0.0030857
3306	0.00199663
3318	0.00363024
3330	0.0030857
3342	0.00381175
3354	0.0030857
3366	0.00526385
3378	0.0030857
3390	0.00490082
3402	0.00381175
3414	0.00344873
3426	0.00381175
3438	0.00417478
3450	0.00399326
3462	0.00417478
3474	0.00399326
3486	0.00417478
3498	0.0030857
3510	0.00399326
3522	0.00399326
3534	0.0045378
3546	0.00399326
3558	0.00435629
3570	0.00635292
3582	0.00653443
3594	0.0045378
3606	0.00617141
3618	0.00544536
3630	0.00580838
3642	0.00726048
3654	0.00744199
3666	0.0059899
3678	0.0045378
3690	0.00399326
3702	0.00726048
3714	0.00508234
3726	0.00780502
3738	0.00562687
3750	0.00254117
3762	0.00580838
3774	0.00490082
3786	0.00707897
3798	0.00490082
3810	0.00653443
3822	0.00544536
3834	0.00508234
3846	0.00671594
3858	0.00254117
3870	0.00272268
3882	0.00562687
3894	0.00580838
3906	0.00780502
3918	0.00744199
3930	0.00726048
3942	0.00744199
3954	0.00816804
3966	0.00435629
