Infrared Spectrum: 1-Decanethiol
Formula: C 10 H 22 S
CAS: 143-10-2
Origin: Sadtler Research Labs Under US-EPA Contract
1/CM	ABSORBANCE
450	0
462	0.0108857
474	0.00660479
486	0.00684942
498	0.00905101
510	0.00917332
522	0.00636017
534	0.00648248
546	0.00843946
558	0.00856177
570	0.00880639
582	0.0078279
594	0.00990719
606	0.0116195
618	0.00770559
630	0.0101518
642	0.00978488
654	0.0114972
666	0.011008
678	0.0113749
690	0.0124757
702	0.0194474
714	0.0303331
726	0.0314339
738	0.0265415
750	0.0204259
762	0.0177351
774	0.0156558
786	0.0128427
798	0.0134542
810	0.0122311
822	0.0116195
834	0.0130873
846	0.0121088
858	0.0114972
870	0.0127203
882	0.0149219
894	0.0174905
906	0.0192028
918	0.0140658
930	0.012965
942	0.0127203
954	0.0121088
966	0.0136988
978	0.0116195
990	0.0116195
1002	0.0121088
1014	0.011008
1026	0.0117419
1038	0.0121088
1050	0.0139435
1062	0.0146773
1074	0.0141881
1086	0.0132096
1098	0.0143104
1110	0.0177351
1122	0.0162674
1134	0.0132096
1146	0.0130873
1158	0.0135765
1170	0.014555
1182	0.014555
1194	0.0176128
1206	0.018102
1218	0.0206706
1230	0.0247068
1242	0.0269084
1254	0.0325347
1266	0.0354702
1278	0.0425642
1290	0.0446435
1302	0.0441543
1314	0.0374272
1326	0.0264192
1338	0.0282538
1350	0.0396288
1362	0.0377941
1374	0.0348586
1386	0.0341248
1398	0.020059
1410	0.0185913
1422	0.0233614
1434	0.0430535
1446	0.0702065
1458	0.101518
1470	0.0956472
1482	0.0388949
1494	0.0177351
1506	0.0130873
1518	0.00929564
1530	0.00843946
1542	0.00746097
1554	0.00684942
1566	0.00684942
1578	0.00721635
1590	0.00660479
1602	0.00721635
1614	0.00819484
1626	0.0100295
1638	0.00831715
1650	0.00684942
1662	0.00574862
1674	0.00587093
1686	0.00562631
1698	0.00599324
1710	0.00599324
1722	0.0067271
1734	0.00684942
1746	0.00697173
1758	0.0067271
1770	0.00611555
1782	0.00562631
1794	0.00562631
1806	0.00513706
1818	0.00513706
1830	0.00501475
1842	0.00464782
1854	0.00489244
1866	0.00452551
1878	0.0044032
1890	0.00452551
1902	0.00452551
1914	0.00452551
1926	0.00428088
1938	0.00464782
1950	0.00452551
1962	0.0044032
1974	0.00477013
1986	0.00464782
1998	0.00464782
2010	0.00538168
2022	0.00538168
2034	0.00574862
2046	0.005504
2058	0.00538168
2070	0.00525937
2082	0.00525937
2094	0.00501475
2106	0.00489244
2118	0.00489244
2130	0.00477013
2142	0.00513706
2154	0.00538168
2166	0.00538168
2178	0.00489244
2190	0.00513706
2202	0.00525937
2214	0.00489244
2226	0.00525937
2238	0.00464782
2250	0.00464782
2262	0.00464782
2274	0.00477013
2286	0.00464782
2298	0.00318009
2310	0.00293546
2322	0.00391395
2334	0.005504
2346	0.00513706
2358	0.00452551
2370	0.00525937
2382	0.00464782
2394	0.00525937
2406	0.00538168
2418	0.00525937
2430	0.00525937
2442	0.00525937
2454	0.005504
2466	0.00525937
2478	0.00525937
2490	0.005504
2502	0.005504
2514	0.00611555
2526	0.0067271
2538	0.00684942
2550	0.00721635
2562	0.00770559
2574	0.00880639
2586	0.0134542
2598	0.0154112
2610	0.0118642
2622	0.011008
2634	0.0111303
2646	0.0117419
2658	0.0133319
2670	0.0143104
2682	0.0157781
2694	0.0154112
2706	0.0139435
2718	0.0139435
2730	0.0146773
2742	0.016512
2754	0.016512
2766	0.0163897
2778	0.0182243
2790	0.0222606
2802	0.0284985
2814	0.0359594
2826	0.0485575
2838	0.0742428
2850	0.17784
2862	0.462458
2874	0.388582
2886	0.261012
2898	0.231168
2910	0.354824
2922	0.693503
2934	1.22311
2946	0.834161
2958	0.431146
2970	0.488388
2982	0.182855
2994	0.0760774
3006	0.0467228
3018	0.0332686
3030	0.0260522
3042	0.0207929
3054	0.0163897
3066	0.0135765
3078	0.0122311
3090	0.0107634
3102	0.0101518
3114	0.00966257
3126	0.00807253
3138	0.00807253
3150	0.00795022
3162	0.00831715
3174	0.00746097
3186	0.00697173
3198	0.0067271
3210	0.00636017
3222	0.00489244
3234	0.0044032
3246	0.00464782
3258	0.00489244
3270	0.00366933
3282	0.0044032
3294	0.00428088
3306	0.00452551
3318	0.00428088
3330	0.00391395
3342	0.0044032
3354	0.00428088
3366	0.00415857
3378	0.00489244
3390	0.00525937
3402	0.00428088
3414	0.00428088
3426	0.00415857
3438	0.00415857
3450	0.0044032
3462	0.00366933
3474	0.0044032
3486	0.00305777
3498	0.00403626
3510	0.00403626
3522	0.00354702
3534	0.00428088
3546	0.00391395
3558	0.00366933
3570	0.0033024
3582	0.0044032
3594	0.00464782
3606	0.00464782
3618	0.00525937
3630	0.00562631
3642	0.00513706
3654	0.00525937
3666	0.00513706
3678	0.00489244
3690	0.00623786
3702	0.00660479
3714	0.005504
3726	0.00403626
3738	0.00489244
3750	0.00452551
3762	0.00403626
3774	0.00403626
3786	0.00354702
3798	0.0067271
3810	0.00403626
3822	0.0044032
3834	0.00415857
3846	0.00415857
3858	0.0044032
3870	0.00415857
3882	0.00391395
3894	0.00428088
3906	0.00574862
3918	0.0044032
3930	0.00379164
3942	0.00281315
3954	0.00464782
3966	0.00403626
