Infrared Spectrum: Benzenemethanamine, N-ethyl-
Formula: C 9 H 13 N
CAS: 14321-27-8
Origin: Sadtler Research Labs Under US-EPA Contract
1/CM	ABSORBANCE
450	0
462	0.0153571
474	0.0158806
486	0.0143536
498	0.0214213
510	0.0124776
522	0.0129575
534	0.0176693
546	0.0222067
558	0.035775
570	0.0459839
582	0.0623008
594	0.0619081
606	0.0426246
618	0.0366475
630	0.0394397
642	0.0454604
654	0.0687141
666	0.0985993
678	0.159809
690	0.301557
702	0.379825
714	0.305876
726	0.280964
738	0.305614
750	0.196195
762	0.0923605
774	0.043977
786	0.0403995
798	0.0474236
810	0.0431917
822	0.0378691
834	0.0256969
846	0.0181929
858	0.0183238
870	0.0174948
882	0.0181056
894	0.0235155
906	0.0339862
918	0.0236464
930	0.0172767
942	0.0159678
954	0.0193708
966	0.0300161
978	0.0398324
990	0.0325901
1002	0.0331573
1014	0.043279
1026	0.0802755
1038	0.0524409
1050	0.0278347
1062	0.0497359
1074	0.065093
1086	0.054186
1098	0.0730769
1110	0.122856
1122	0.228349
1134	0.279088
1146	0.19253
1158	0.0980757
1170	0.0582434
1182	0.0414466
1194	0.0512193
1206	0.0548404
1218	0.0411848
1230	0.0338117
1242	0.0362985
1254	0.0389162
1266	0.0431045
1278	0.0453731
1290	0.0469437
1302	0.0556257
1314	0.0710264
1326	0.0927968
1338	0.100606
1350	0.104751
1362	0.102308
1374	0.105143
1386	0.114262
1398	0.0585924
1410	0.041403
1422	0.0474236
1434	0.0872996
1446	0.204441
1458	0.272195
1470	0.19192
1482	0.088434
1494	0.111251
1506	0.0691504
1518	0.0232974
1530	0.020636
1542	0.0208978
1554	0.0178002
1566	0.0174948
1578	0.0233846
1590	0.0321538
1602	0.0475981
1614	0.039876
1626	0.0194581
1638	0.0186728
1650	0.0266131
1662	0.0224248
1674	0.0152698
1686	0.0169277
1698	0.016186
1710	0.0164041
1722	0.0162296
1734	0.0178002
1746	0.0172331
1758	0.0160115
1770	0.016884
1782	0.0178875
1794	0.0267876
1806	0.0312813
1818	0.0208978
1830	0.0182365
1842	0.0175821
1854	0.0196762
1866	0.0235155
1878	0.0244753
1890	0.019938
1902	0.0152698
1914	0.0142664
1926	0.0190218
1938	0.0267003
1950	0.0313685
1962	0.0244317
1974	0.0147463
1986	0.0140918
1998	0.0140046
2010	0.0135247
2022	0.0130884
2034	0.0124776
2046	0.0119977
2058	0.011605
2070	0.0104271
2082	0.0105143
2094	0.0119104
2106	0.0125212
2118	0.0128266
2130	0.0130011
2142	0.0126085
2154	0.0117359
2166	0.0117796
2178	0.0113869
2190	0.0109506
2202	0.0115178
2214	0.0106889
2226	0.0103835
2238	0.0114305
2250	0.0116923
2262	0.0118668
2274	0.0115614
2286	0.011605
2298	0.0117796
2310	0.0130448
2322	0.0123031
2334	0.0128266
2346	0.0151389
2358	0.0104707
2370	0.0191527
2382	0.0160551
2394	0.0121722
2406	0.0118232
2418	0.0121722
2430	0.0119104
2442	0.0121722
2454	0.0118232
2466	0.0125212
2478	0.0129575
2490	0.0122595
2502	0.0121722
2514	0.0123031
2526	0.0115178
2538	0.0116487
2550	0.0130011
2562	0.0138301
2574	0.0163605
2586	0.0189346
2598	0.0209851
2610	0.0227738
2622	0.0237336
2634	0.0245189
2646	0.0239518
2658	0.0258278
2670	0.025217
2682	0.0283582
2694	0.0359058
2706	0.0387417
2718	0.0412285
2730	0.0468128
2742	0.0550585
2754	0.0617336
2766	0.0691504
2778	0.0921423
2790	0.137646
2802	0.208018
2814	0.298503
2826	0.339164
2838	0.283189
2850	0.223812
2862	0.180664
2874	0.19746
2886	0.245058
2898	0.239387
2910	0.237336
2922	0.251123
2934	0.276471
2946	0.269098
2958	0.263426
2970	0.411805
2982	0.358317
2994	0.150735
3006	0.0867761
3018	0.111339
3030	0.218533
3042	0.229047
3054	0.135901
3066	0.1989
3078	0.234544
3090	0.132542
3102	0.0894374
3114	0.0530516
3126	0.0284018
3138	0.0189346
3150	0.0149208
3162	0.0170585
3174	0.0192836
3186	0.0161424
3198	0.0140482
3210	0.0142664
3222	0.0147899
3234	0.0135683
3246	0.0138301
3258	0.0124776
3270	0.0142227
3282	0.0114305
3294	0.0128703
3306	0.012434
3318	0.0133065
3330	0.0141355
3342	0.0147026
3354	0.0157933
3366	0.0152262
3378	0.0148335
3390	0.0150517
3402	0.0145718
3414	0.0147463
3426	0.0126085
3438	0.0139173
3450	0.0132629
3462	0.0140918
3474	0.013132
3486	0.0146154
3498	0.0136992
3510	0.0144845
3522	0.0117796
3534	0.0134811
3546	0.0143536
3558	0.012783
3570	0.0134811
3582	0.0133065
3594	0.0106452
3606	0.0127394
3618	0.0120413
3630	0.0145281
3642	0.0136119
3654	0.0138301
3666	0.0130448
3678	0.0143972
3690	0.0121286
3702	0.0108634
3714	0.0128266
3726	0.0143972
3738	0.0130448
3750	0.0128266
3762	0.011256
3774	0.0145281
3786	0.0130884
3798	0.0134374
3810	0.0129139
3822	0.013961
3834	0.0126521
3846	0.0130448
3858	0.0135247
3870	0.0141355
3882	0.014659
3894	0.0129139
3906	0.015008
3918	0.0151825
3930	0.0144845
3942	0.012783
3954	0.0141791
3966	0.0151825
