Infrared Spectrum: Cyclobutanecarbonitrile, 1-phenyl-
Formula: C 11 H 11 N
CAS: 14377-68-5
Origin: Sadtler Research Labs Under US-EPA Contract
1/CM	ABSORBANCE
450	0.0032265
462	0.00155948
474	0.0066681
486	0.0174231
498	0.0299527
510	0.0364594
522	0.0200581
534	0.033932
546	0.0543665
558	0.0360292
570	0.0171542
582	0.00505485
594	0.00306517
606	0.00188212
618	0.00145192
630	0.00268875
642	0.0049473
654	0.0190901
666	0.0578619
678	0.138901
690	0.296623
702	0.31894
714	0.151269
726	0.0829748
738	0.138202
750	0.243708
762	0.178533
774	0.0606582
786	0.0202194
798	0.0118843
810	0.00241988
822	0.000483975
834	0.00166702
846	0.00865777
858	0.0100021
870	0.00828135
882	0.00914175
894	0.0073134
906	0.00978705
918	0.0161325
930	0.0207571
942	0.0106474
954	0.0027963
966	0.00123682
978	0.00182835
990	0.00462465
1002	0.00930307
1014	0.0429124
1026	0.087008
1038	0.0220478
1050	0.00618412
1062	0.0117229
1074	0.024629
1086	0.023661
1098	0.01624
1110	0.0119381
1122	0.00715207
1134	0.0062379
1146	0.0135513
1158	0.0151646
1170	0.0094644
1182	0.0191977
1194	0.0139277
1206	0.00414067
1218	0.00521617
1230	0.0143579
1242	0.0252205
1254	0.0381802
1266	0.0444719
1278	0.0762529
1290	0.0804474
1302	0.0397935
1314	0.0177995
1326	0.0132824
1338	0.0096795
1350	0.00311895
1362	0.00247365
1374	0.00510863
1386	0.0055926
1398	0.00532372
1410	0.00812002
1422	0.0267262
1434	0.073134
1446	0.11653
1458	0.0947516
1470	0.0667886
1482	0.0556033
1494	0.151753
1506	0.129275
1518	0.0181222
1530	0.0096795
1542	0.0068832
1554	0.00295762
1566	0.00435578
1578	0.0153259
1590	0.0431813
1602	0.0835663
1614	0.037051
1626	0.00575393
1638	0.00285008
1650	0.0047322
1662	0.0062379
1674	0.00285008
1686	0.00268875
1698	0.00274252
1710	0.0040869
1722	0.00892665
1734	0.0123682
1746	0.00919552
1758	0.00381803
1770	0.0034416
1782	0.00785115
1794	0.0254894
1806	0.0174769
1818	0.00661432
1830	0.00285008
1842	0.00231233
1854	0.00564638
1866	0.0117229
1878	0.0147344
1890	0.0136051
1902	0.00268875
1914	0.00188212
1926	0.00575393
1938	0.0136051
1950	0.0190364
1962	0.0194665
1974	0.00591525
1986	0.0008604
1998	0.000483975
2010	5.3775e-05
2022	0.000268875
2034	0.0002151
2046	0.000483975
2058	0.00096795
2070	0.00112927
2082	0.000914175
2094	0.0012906
2106	0.0023661
2118	0.00252742
2130	0.00231233
2142	0.00360292
2154	0.00526995
2166	0.00672187
2178	0.00596903
2190	0.00354915
2202	0.00285008
2214	0.00656055
2226	0.0236072
2238	0.0397935
2250	0.0187675
2262	0.00510863
2274	0.00446332
2286	0.00521617
2298	0.00575393
2310	0.0075285
2322	0.0090342
2334	0.0051624
2346	0.00489353
2358	0.00392557
2370	0.00225855
2382	0.00306517
2394	0.00188212
2406	0.00177458
2418	0.0019359
2430	0.00252742
2442	0.0023661
2454	0.00166702
2466	0.00145192
2478	0.00139815
2490	0.0012906
2502	0.000806625
2514	0.00032265
2526	0.000591525
2538	0.0004302
2550	0.000376425
2562	0
2574	0.000591525
2586	0.00118305
2598	0.00209722
2610	0.0027963
2622	0.0030114
2634	0.0025812
2646	0.0030114
2658	0.00392557
2670	0.00360292
2682	0.00225855
2694	0.00231233
2706	0.0030114
2718	0.00354915
2730	0.00274252
2742	0.00198967
2754	0.00209722
2766	0.0023661
2778	0.00317272
2790	0.00376425
2802	0.00403313
2814	0.00532372
2826	0.00656055
2838	0.0088191
2850	0.0163476
2862	0.0385029
2874	0.0692084
2886	0.102334
2898	0.097279
2910	0.0664659
2922	0.0697999
2934	0.0974941
2946	0.161755
2958	0.375403
2970	0.40912
2982	0.291299
2994	0.36895
3006	0.517746
3018	0.165197
3030	0.134975
3042	0.191385
3054	0.133416
3066	0.195096
3078	0.263766
3090	0.137933
3102	0.104915
3114	0.0638847
3126	0.0246827
3138	0.00871155
3150	0.00656055
3162	0.00736718
3174	0.00725962
3186	0.00505485
3198	0.00381803
3210	0.0032265
3222	0.00263497
3234	0.00209722
3246	0.0023661
3258	0.00252742
3270	0.0025812
3282	0.00268875
3294	0.00263497
3306	0.00209722
3318	0.0017208
3330	0.00096795
3342	0.00112927
3354	0.0008604
3366	0.0015057
3378	0.00252742
3390	0.00295762
3402	0.00220477
3414	0.0019359
3426	0.00145192
3438	0.00123682
3450	0.00139815
3462	0.0010755
3474	0.00166702
3486	0.0015057
3498	0.00225855
3510	0.0015057
3522	0.00263497
3534	0.00188212
3546	0.0015057
3558	0.0019359
3570	0.00166702
3582	0.00134438
3594	0.000591525
3606	0.000483975
3618	0.00177458
3630	0.00198967
3642	0.0017208
3654	0.00360292
3666	0.00354915
3678	0.00349537
3690	0.0027963
3702	0.0030114
3714	0.00311895
3726	0.0027963
3738	0.00397935
3750	0.00354915
3762	0.00263497
3774	0.00155948
3786	0.0023661
3798	0.00247365
3810	0.00241988
3822	0.0023661
3834	0.00241988
3846	0.00311895
3858	0.0030114
3870	0.00290385
3882	0.00285008
3894	0.00397935
3906	0.00182835
3918	0.00333405
3930	0.0025812
3942	0.00360292
3954	0.00231233
3966	0.0023661
