Infrared Spectrum: Pyridine, 4-(cyclohexylamino)-5-ethyl-2-(1,3,4-oxadiazol-2-yl)-,
Formula: C 15 H 20 N 4 O
CAS: 14418-80-5
Origin: Sadtler Research Labs Under US-EPA Contract
1/CM	ABSORBANCE
450	0
462	0.0202226
474	0.0185625
486	0.0197699
498	0.0225869
510	0.0314406
522	0.0310885
534	0.0233415
546	0.0218827
558	0.0199208
570	0.0209269
582	0.0186632
594	0.0174558
606	0.0185625
618	0.0197699
630	0.0202729
642	0.0205244
654	0.0272653
666	0.0334025
678	0.0282714
690	0.0325473
702	0.0616739
714	0.13356
726	0.0480413
738	0.0445199
750	0.0600642
762	0.0906496
774	0.0922091
786	0.0727913
798	0.0753066
810	0.0654468
822	0.0700749
834	0.0609194
846	0.0291769
858	0.0223857
870	0.0241967
882	0.0273156
894	0.0283217
906	0.0235427
918	0.0239452
930	0.0413004
942	0.0581023
954	0.0497013
966	0.0739987
978	0.0634346
990	0.0671572
1002	0.0361693
1014	0.0501038
1026	0.0545306
1038	0.034962
1050	0.0305351
1062	0.0523172
1074	0.0581023
1086	0.056744
1098	0.0625794
1110	0.0409483
1122	0.0322455
1134	0.0303842
1146	0.0268629
1158	0.0231403
1170	0.0240961
1182	0.0245488
1194	0.0301327
1206	0.0435138
1218	0.0416022
1230	0.0322455
1242	0.0293278
1254	0.0442181
1266	0.0566937
1278	0.0253034
1290	0.0214299
1302	0.0191662
1314	0.0208766
1326	0.025404
1338	0.0292775
1350	0.0390367
1362	0.03959
1374	0.0424574
1386	0.0341571
1398	0.0380809
1410	0.0691191
1422	0.0658996
1434	0.0470352
1446	0.0504559
1458	0.0660505
1470	0.0581526
1482	0.0605169
1494	0.0492989
1506	0.034962
1518	0.0654468
1530	0.114544
1542	0.126215
1554	0.0741496
1566	0.0844118
1578	0.0655977
1590	0.0431617
1602	0.0581023
1614	0.066956
1626	0.0404955
1638	0.030183
1650	0.02309
1662	0.0175061
1674	0.0149909
1686	0.0174558
1698	0.0175061
1710	0.0160976
1722	0.0184116
1734	0.0217821
1746	0.0212287
1758	0.0170031
1770	0.0152927
1782	0.0146891
1794	0.0139345
1806	0.0131799
1818	0.013029
1830	0.013029
1842	0.0138339
1854	0.0140854
1866	0.0152424
1878	0.0193674
1890	0.0177577
1902	0.0185122
1914	0.0151921
1926	0.0162485
1938	0.0186632
1950	0.0166007
1962	0.0160976
1974	0.0148903
1986	0.0141357
1998	0.0144878
2010	0.0141357
2022	0.0145381
2034	0.0143872
2046	0.0147897
2058	0.0146891
2070	0.0147394
2082	0.0144375
2094	0.0142363
2106	0.0141357
2118	0.014186
2130	0.0142363
2142	0.0141357
2154	0.0145884
2166	0.0146388
2178	0.0147394
2190	0.01484
2202	0.0149909
2214	0.0147897
2226	0.0149909
2238	0.0149406
2250	0.0150915
2262	0.0160976
2274	0.0162485
2286	0.0160976
2298	0.0165
2310	0.0174055
2322	0.0181098
2334	0.0175564
2346	0.0165
2358	0.0175564
2370	0.0167013
2382	0.0156449
2394	0.0144375
2406	0.0143872
2418	0.0143369
2430	0.0148903
2442	0.0152927
2454	0.0146891
2466	0.0144878
2478	0.0147394
2490	0.0147394
2502	0.0149909
2514	0.0150412
2526	0.0155442
2538	0.015997
2550	0.0160473
2562	0.0162988
2574	0.0167013
2586	0.0176068
2598	0.0182104
2610	0.0188644
2622	0.0191662
2634	0.0196189
2646	0.0200214
2658	0.0224863
2670	0.0239452
2682	0.022436
2694	0.0213796
2706	0.0211784
2718	0.0205747
2730	0.0203232
2742	0.0204741
2754	0.0202729
2766	0.0211784
2778	0.02309
2790	0.0249513
2802	0.0279696
2814	0.0318431
2826	0.0405961
2838	0.0625291
2850	0.116205
2862	0.174709
2874	0.140401
2886	0.0933661
2898	0.102471
2910	0.184267
2922	0.304647
2934	0.50305
2946	0.371402
2958	0.162837
2970	0.0505565
2982	0.0294787
2994	0.0259574
3006	0.0271647
3018	0.0284726
3030	0.0334025
3042	0.0513614
3054	0.0534742
3066	0.0356662
3078	0.0358172
3090	0.0345092
3102	0.0246998
3114	0.0266113
3126	0.0198705
3138	0.0170031
3150	0.0170031
3162	0.0162485
3174	0.0157455
3186	0.0155946
3198	0.0151921
3210	0.0145381
3222	0.0151418
3234	0.0151418
3246	0.0152927
3258	0.0157455
3270	0.0155442
3282	0.0149909
3294	0.0154939
3306	0.0155442
3318	0.0164497
3330	0.0176571
3342	0.0180595
3354	0.0170031
3366	0.0159467
3378	0.0155442
3390	0.015997
3402	0.0156449
3414	0.0159467
3426	0.0152927
3438	0.0150915
3450	0.0156449
3462	0.0155946
3474	0.0155946
3486	0.0161479
3498	0.0151921
3510	0.015997
3522	0.0152424
3534	0.01484
3546	0.0151418
3558	0.0147897
3570	0.0161982
3582	0.0154436
3594	0.0151418
3606	0.0143872
3618	0.0154939
3630	0.0162988
3642	0.0148903
3654	0.0154436
3666	0.0163491
3678	0.0147897
3690	0.0160473
3702	0.0164497
3714	0.0154939
3726	0.0167013
3738	0.0156449
3750	0.0164497
3762	0.0160976
3774	0.0151921
3786	0.0161982
3798	0.0149909
3810	0.0156952
3822	0.0161982
3834	0.0150412
3846	0.0151921
3858	0.0152424
3870	0.0155442
3882	0.0159467
3894	0.0156449
3906	0.0160976
3918	0.0155946
3930	0.0161479
3942	0.0161982
3954	0.015997
3966	0.0159467
