Infrared Spectrum: Acetic acid, cyano-, 1-methylpropyl ester
Formula: C 7 H 11 N O 2
CAS: 14447-16-6
Origin: Sadtler Research Labs Under US-EPA Contract
1/CM	ABSORBANCE
450	0.0133668
462	0.0187363
474	0.00913968
486	0.0135953
498	0.0110819
510	0.00639778
522	0.00479833
534	0.00217067
546	0.000799722
558	0.00319889
570	0.0057123
582	0.0157659
594	0.0241059
606	0.0198788
618	0.0124528
630	0.00776873
642	0.00468409
654	0.00445559
666	0.00502682
678	0.00925393
690	0.0121101
702	0.00605504
714	0.00411286
726	0.00788297
738	0.00971091
750	0.00879694
762	0.00765448
774	0.0116531
786	0.0150805
798	0.00971091
810	0.0111961
822	0.0145092
834	0.0317604
846	0.0546096
858	0.098937
870	0.0772303
882	0.0305037
894	0.013481
906	0.013938
918	0.0253626
930	0.0570088
942	0.084999
954	0.065463
966	0.0873982
978	0.141551
990	0.171026
1002	0.143264
1014	0.0804292
1026	0.0963094
1038	0.0504967
1050	0.021821
1062	0.0236489
1074	0.0332456
1086	0.0953954
1098	0.211241
1110	0.221866
1122	0.30458
1134	0.210898
1146	0.121558
1158	0.232376
1170	0.4122
1182	0.439619
1194	0.391635
1206	0.265736
1218	0.188392
1230	0.189191
1242	0.26665
1254	0.535928
1266	0.968463
1278	0.725119
1290	0.338968
1302	0.259224
1314	0.20233
1326	0.220495
1338	0.174911
1350	0.100422
1362	0.114246
1374	0.0935675
1386	0.125328
1398	0.0999653
1410	0.0672909
1422	0.0589509
1434	0.0407858
1446	0.0533529
1458	0.0891119
1470	0.0912826
1482	0.0429565
1494	0.0150805
1506	0.00879694
1518	0.00696901
1530	0.00651202
1542	0.00708325
1554	0.00616928
1566	0.00582655
1578	0.00639778
1590	0.00559805
1602	0.00502682
1614	0.00479833
1626	0.00525532
1638	0.00616928
1650	0.00833996
1662	0.00856845
1674	0.0106249
1686	0.0140523
1698	0.0201073
1710	0.0351878
1722	0.0627211
1734	0.0979088
1746	0.265279
1758	0.844621
1770	1.08796
1782	0.455956
1794	0.123957
1806	0.0615786
1818	0.0367872
1830	0.0220495
1842	0.0147377
1854	0.0102821
1866	0.00891119
1878	0.00731174
1890	0.00628353
1902	0.00628353
1914	0.00514107
1926	0.00377012
1938	0.0027419
1950	0.0027419
1962	0.00228492
1974	0.00159944
1986	0.00057123
1998	0.000685476
2010	0.000456984
2022	0.000342738
2034	0.000685476
2046	0.000799722
2058	0.000228492
2070	0.000342738
2082	0.000342738
2094	0.000456984
2106	0.00125671
2118	0.00239917
2130	0.00251341
2142	0.00114246
2154	0.000114246
2166	0.000228492
2178	0
2190	0.000114246
2202	0.000685476
2214	0.000913968
2226	0.000913968
2238	0.00125671
2250	0.00308464
2262	0.00479833
2274	0.00411286
2286	0.00114246
2298	0.0014852
2310	0.00194218
2322	0.00159944
2334	0.00205643
2346	0.00342738
2358	0.00228492
2370	0.00354163
2382	0.0029704
2394	0.00114246
2406	0.000913968
2418	0.000456984
2430	0.000114246
2442	0.000456984
2454	0.000685476
2466	0.000799722
2478	0.00102821
2490	0.000685476
2502	0.00102821
2514	0.00159944
2526	0.00194218
2538	0.00205643
2550	0.00114246
2562	0.000342738
2574	0.000456984
2586	0.00057123
2598	0.00102821
2610	0.00171369
2622	0.0014852
2634	0.00137095
2646	0.00114246
2658	0.00114246
2670	0.00114246
2682	0.00171369
2694	0.00228492
2706	0.00262766
2718	0.0029704
2730	0.00468409
2742	0.00514107
2754	0.00582655
2766	0.00514107
2778	0.00445559
2790	0.00411286
2802	0.00491258
2814	0.00674051
2826	0.00902543
2838	0.0125671
2850	0.0170227
2862	0.0275333
2874	0.0420425
2886	0.0787155
2898	0.0944814
2910	0.0642063
2922	0.0773445
2934	0.142008
2946	0.199131
2958	0.175139
2970	0.185307
2982	0.39312
2994	0.332227
3006	0.0982516
3018	0.0307322
3030	0.0172511
3042	0.0129098
3054	0.0102821
3066	0.00936817
3078	0.00902543
3090	0.0084542
3102	0.00799722
3114	0.00662627
3126	0.0057123
3138	0.00514107
3150	0.00502682
3162	0.00525532
3174	0.00582655
3186	0.00536956
3198	0.00548381
3210	0.00445559
3222	0.00399861
3234	0.00411286
3246	0.00251341
3258	0.00182794
3270	0.000913968
3282	0.00125671
3294	0.00125671
3306	0.000456984
3318	0.00102821
3330	0.00114246
3342	0.0014852
3354	0.00125671
3366	0.00171369
3378	0.00171369
3390	0.00171369
3402	0.00137095
3414	0.00194218
3426	0.00194218
3438	0.00159944
3450	0.00159944
3462	0.0014852
3474	0.00217067
3486	0.00285615
3498	0.00616928
3510	0.0086827
3522	0.00651202
3534	0.00399861
3546	0.00102821
3558	0.00057123
3570	0.00057123
3582	0.000685476
3594	0.000799722
3606	0.000456984
3618	0.00057123
3630	0.00137095
3642	0.0014852
3654	0.0014852
3666	0.000799722
3678	0.000685476
3690	0.00171369
3702	0.000685476
3714	0.00194218
3726	0.00159944
3738	0.00182794
3750	0.00057123
3762	0.000799722
3774	0.00239917
3786	0.00125671
3798	0.000913968
3810	0.0014852
3822	0.00171369
3834	0.00057123
3846	0.00137095
3858	0.00194218
3870	0.000913968
3882	0.000913968
3894	0.00137095
3906	0.00228492
3918	0.00205643
3930	0.000799722
3942	0.00205643
3954	0.00194218
3966	0.00262766
