Infrared Spectrum: 4-Undecanone
Formula: C 11 H 22 O
CAS: 14476-37-0
Origin: Sadtler Research Labs Under US-EPA Contract
1/CM	ABSORBANCE
450	0
462	0.0105256
474	0.00459739
486	0.00786396
498	0.0127033
510	0.0113725
522	0.01476
534	0.0117354
546	0.0142761
558	0.0116145
570	0.0135502
582	0.00871085
594	0.00689609
606	0.0124614
618	0.0131873
630	0.0186315
642	0.0139132
654	0.00992069
666	0.00822691
678	0.00641215
690	0.0083479
702	0.0120984
714	0.022866
726	0.0308509
738	0.0257696
750	0.0239548
762	0.0241968
774	0.022624
786	0.0199624
798	0.0185106
810	0.0170587
822	0.014881
834	0.0142761
846	0.0124614
858	0.0139132
870	0.0162119
882	0.0218981
894	0.0275844
906	0.0209302
918	0.0140341
930	0.0125823
942	0.0114935
954	0.0128243
966	0.0162119
978	0.0246807
990	0.0413765
1002	0.0590402
1014	0.0660573
1026	0.0589192
1038	0.0638796
1050	0.0763409
1062	0.0815432
1074	0.0621858
1086	0.0482726
1098	0.0466998
1110	0.0637586
1122	0.105135
1134	0.139253
1146	0.114693
1158	0.102473
1170	0.0790026
1182	0.0695658
1194	0.0706547
1206	0.060371
1218	0.0496034
1230	0.0492405
1242	0.0486356
1254	0.0537169
1266	0.0704127
1278	0.075736
1290	0.0776717
1302	0.0814222
1314	0.0700497
1326	0.0666622
1338	0.0880764
1350	0.143487
1362	0.202285
1374	0.164054
1386	0.11312
1398	0.0724694
1410	0.0799704
1422	0.0971502
1434	0.0912219
1446	0.11312
1458	0.174338
1470	0.165506
1482	0.075494
1494	0.0346014
1506	0.0232289
1518	0.0174217
1530	0.0131873
1542	0.0125823
1554	0.0097997
1566	0.00895282
1578	0.00955774
1590	0.00871085
1602	0.00883183
1614	0.0097997
1626	0.0111305
1638	0.0125823
1650	0.0145181
1662	0.0163328
1674	0.0256486
1686	0.0433123
1698	0.0782766
1710	0.201801
1722	0.526401
1734	0.534628
1746	0.173612
1758	0.0704127
1770	0.0488775
1782	0.0404087
1794	0.030004
1806	0.0187525
1818	0.0129453
1830	0.00967872
1842	0.00750101
1854	0.00629117
1866	0.00617018
1878	0.00592822
1890	0.00592822
1902	0.0060492
1914	0.00556526
1926	0.0053233
1938	0.00556526
1950	0.00520231
1962	0.00483936
1974	0.00508133
1986	0.00459739
1998	0.00423444
2010	0.00496034
2022	0.00568625
2034	0.00508133
2046	0.00459739
2058	0.00580723
2070	0.00483936
2082	0.00556526
2094	0.00701707
2106	0.0060492
2118	0.00580723
2130	0.0060492
2142	0.00653314
2154	0.00701707
2166	0.00689609
2178	0.00725904
2190	0.00750101
2202	0.00713806
2214	0.00713806
2226	0.00689609
2238	0.00592822
2250	0.00629117
2262	0.0060492
2274	0.00617018
2286	0.00665412
2298	0.00822691
2310	0.0107676
2322	0.0122194
2334	0.00798494
2346	0.00447641
2358	0.0125823
2370	0.0022987
2382	0.0022987
2394	0.00496034
2406	0.00520231
2418	0.00483936
2430	0.00435542
2442	0.00447641
2454	0.00399247
2466	0.0037505
2478	0.00387149
2490	0.00411346
2502	0.00278263
2514	0.00314558
2526	0.00423444
2538	0.00435542
2550	0.00350854
2562	0.00278263
2574	0.0022987
2586	0.00278263
2598	0.0030246
2610	0.00387149
2622	0.00447641
2634	0.00568625
2646	0.0060492
2658	0.0101627
2670	0.0118564
2682	0.0117354
2694	0.0129453
2706	0.0120984
2718	0.0129453
2730	0.014881
2742	0.0192365
2754	0.0198414
2766	0.0183896
2778	0.0216561
2790	0.0279473
2802	0.0387149
2814	0.0509343
2826	0.0629117
2838	0.0900121
2850	0.177484
2862	0.419452
2874	0.488896
2886	0.500269
2898	0.446068
2910	0.537653
2922	0.808536
2934	1.18685
2946	1.06127
2958	0.826684
2970	0.987955
2982	0.514182
2994	0.20047
3006	0.101869
3018	0.0624277
3030	0.0435542
3042	0.0318188
3054	0.022745
3066	0.0176637
3078	0.0162119
3090	0.0139132
3102	0.0125823
3114	0.0110095
3126	0.0112515
3138	0.0111305
3150	0.0136712
3162	0.0139132
3174	0.0128243
3186	0.0123404
3198	0.0122194
3210	0.0113725
3222	0.0108886
3234	0.00955774
3246	0.0106466
3258	0.0104046
3270	0.00943675
3282	0.0060492
3294	0.00544428
3306	0.00496034
3318	0.00447641
3330	0.00435542
3342	0.00338755
3354	0.00423444
3366	0.00423444
3378	0.00520231
3390	0.00411346
3402	0.00544428
3414	0.00762199
3426	0.0108886
3438	0.0123404
3450	0.00919478
3462	0.00653314
3474	0.00387149
3486	0.00435542
3498	0.00483936
3510	0.00362952
3522	0.00350854
3534	0.00338755
3546	0.00411346
3558	0.00471838
3570	0.0090738
3582	0.0113725
3594	0.00653314
3606	0.00399247
3618	0.00520231
3630	0.00653314
3642	0.00471838
3654	0.00326657
3666	0.00629117
3678	0.00689609
3690	0.0067751
3702	0.00496034
3714	0.00520231
3726	0.00471838
3738	0.00350854
3750	0.00483936
3762	0.00350854
3774	0.00435542
3786	0.0053233
3798	0.00471838
3810	0.00713806
3822	0.00592822
3834	0.00447641
3846	0.0030246
3858	0.0022987
3870	0.00362952
3882	0.00459739
3894	0.0060492
3906	0.00399247
3918	0.00641215
3930	0.00592822
3942	0.00314558
3954	0.00399247
3966	0.00725904
