Infrared Spectrum: Ethanone, 1-(2-hydroxy-5-methylphenyl)-
Formula: C 9 H 10 O 2
CAS: 1450-72-2
Origin: Sadtler Research Labs Under US-EPA Contract
1/CM	ABSORBANCE
450	0.0206513
462	0.0317496
474	0.0129246
486	0.00154534
498	0.0123627
510	0.0342783
522	0.08401
534	0.0393358
546	0.00688377
558	0.0066028
570	0.00899104
582	0.00997444
594	0.0157343
606	0.0285185
618	0.0851339
630	0.215504
642	0.13613
654	0.0407407
666	0.0341379
678	0.0318901
690	0.0335759
702	0.0484673
714	0.070383
726	0.0937035
738	0.0830266
750	0.118429
762	0.166615
774	0.233486
786	0.194291
798	0.0592847
810	0.0549296
822	0.15341
834	0.131073
846	0.0372285
858	0.0175606
870	0.0241634
882	0.0178416
894	0.00955298
906	0.00351213
918	0.00533843
930	0.0172797
942	0.0526819
954	0.169144
966	0.152005
978	0.0391953
990	0.0276755
1002	0.0259897
1014	0.0202298
1026	0.0261302
1038	0.0181226
1050	0.0158748
1062	0.0192464
1074	0.018825
1086	0.0146104
1098	0.0130651
1110	0.013908
1122	0.028097
1134	0.0571774
1146	0.0719283
1158	0.0772668
1170	0.0804979
1182	0.183192
1194	0.543396
1206	0.798376
1218	0.533562
1230	0.23166
1242	0.367228
1254	0.365401
1266	0.178837
1278	0.195415
1290	0.616589
1302	0.845579
1314	0.354584
1326	0.337445
1338	0.25498
1350	0.33309
1362	0.43747
1374	0.444635
1386	0.263831
1398	0.195415
1410	0.158186
1422	0.145964
1434	0.135568
1446	0.123486
1458	0.184316
1470	0.354725
1482	0.652834
1494	0.658453
1506	0.24908
1518	0.131775
1530	0.115619
1542	0.111686
1554	0.101992
1566	0.129246
1578	0.226602
1590	0.269591
1602	0.222247
1614	0.203282
1626	0.225759
1638	0.341098
1650	1.03973
1662	1.328
1674	0.429744
1686	0.123908
1698	0.0723498
1710	0.0508556
1722	0.0480459
1734	0.0546487
1746	0.0460791
1758	0.0276755
1770	0.0189655
1782	0.0143295
1794	0.0122222
1806	0.00716474
1818	0.00814813
1830	0.0118007
1842	0.00716474
1854	0.0037931
1866	0.00449552
1878	0.00309067
1890	0.00646231
1902	0.0137675
1914	0.0168582
1926	0.00716474
1938	0.00477649
1950	0.00519795
1962	0.0028097
1974	0.000983395
1986	0.00196679
1998	0.0037931
2010	0.00421455
2022	0.00547892
2034	0.00351213
2046	0.00168582
2058	0.00224776
2070	0.00575989
2082	0.00674328
2094	0.00309067
2106	0.000983395
2118	0.00028097
2130	0.00028097
2142	0.000140485
2154	0.000140485
2166	0.000421455
2178	0.000421455
2190	0.000983395
2202	0.00084291
2214	0.000421455
2226	0
2238	0.000421455
2250	0.00266921
2262	0.00604086
2274	0.00716474
2286	0.00519795
2298	0.00449552
2310	0.00575989
2322	0.00590037
2334	0.00491698
2346	0.00533843
2358	0.0066028
2370	0.00786716
2382	0.00927201
2394	0.00674328
2406	0.00632183
2418	0.0056194
2430	0.00646231
2442	0.00646231
2454	0.00547892
2466	0.00449552
2478	0.00547892
2490	0.00716474
2502	0.00828862
2514	0.00955298
2526	0.0115198
2538	0.01447
2550	0.0146104
2562	0.0133461
2574	0.0146104
2586	0.0162963
2598	0.0164367
2610	0.0164367
2622	0.0175606
2634	0.0169987
2646	0.0169987
2658	0.0174201
2670	0.0199489
2682	0.023461
2694	0.0252873
2706	0.0240229
2718	0.0243039
2730	0.0265517
2742	0.0290804
2754	0.0303448
2766	0.0282375
2778	0.0296423
2790	0.0300638
2802	0.0297828
2814	0.0296423
2826	0.0318901
2838	0.0361046
2850	0.0449552
2862	0.0639207
2874	0.0962322
2886	0.100306
2898	0.0831671
2910	0.0914557
2922	0.132899
2934	0.188952
2946	0.146104
2958	0.100728
2970	0.101992
2982	0.11014
2994	0.103959
3006	0.118569
3018	0.149055
3030	0.178275
3042	0.183614
3054	0.176449
3066	0.175887
3078	0.146947
3090	0.117867
3102	0.11295
3114	0.111826
3126	0.108876
3138	0.104521
3150	0.0997444
3162	0.0965132
3174	0.0962322
3186	0.0965132
3198	0.0952488
3210	0.0944059
3222	0.0894889
3234	0.0849934
3246	0.0821837
3258	0.0807789
3270	0.079374
3282	0.0776882
3294	0.074738
3306	0.0734737
3318	0.0681352
3330	0.061111
3342	0.0550701
3354	0.0505746
3366	0.0473434
3378	0.0436908
3390	0.0404597
3402	0.0375095
3414	0.0337164
3426	0.0307662
3438	0.0269731
3450	0.023742
3462	0.0213537
3474	0.0189655
3486	0.0171392
3498	0.0147509
3510	0.0133461
3522	0.0113793
3534	0.00941249
3546	0.00744571
3558	0.00744571
3570	0.00674328
3582	0.00618134
3594	0.00407406
3606	0.00393358
3618	0.00266921
3630	0.0028097
3642	0.00266921
3654	0.000702425
3666	0.000702425
3678	0.000140485
3690	0.00028097
3702	0.000140485
3714	0.000421455
3726	0.000140485
3738	0.000983395
3750	0.000983395
3762	0.00084291
3774	0
3786	0
3798	0
3810	0
3822	0
3834	0.000140485
3846	0
3858	0
3870	0
3882	0.00056194
3894	0.00140485
3906	0
3918	0.00182631
3930	0
3942	0.00084291
3954	0.000983395
3966	0.00126437
