Infrared Spectrum: Ethanone, 1-(5-chloro-2-hydroxyphenyl)-
Formula: C 8 H 7 Cl O 2
CAS: 1450-74-4
Origin: Sadtler Research Labs Under US-EPA Contract
1/CM	ABSORBANCE
450	0
462	0.0132541
474	0.018892
486	0.0307613
498	0.0523239
510	0.0593466
522	0.082294
534	0.0454001
546	0.0308602
558	0.0321461
570	0.0336297
582	0.0363003
594	0.0429274
606	0.0603357
618	0.0929763
630	0.173292
642	0.175963
654	0.196141
666	0.0974273
678	0.0464882
690	0.0472795
702	0.0567749
714	0.078931
726	0.0974273
738	0.122254
750	0.236496
762	0.181897
774	0.150543
786	0.124826
798	0.062215
810	0.046686
822	0.109297
834	0.18437
846	0.0741833
858	0.0646878
870	0.0772495
882	0.0543021
894	0.024431
906	0.0200789
918	0.0215626
930	0.0300689
942	0.0494555
954	0.122946
966	0.118001
978	0.0380807
990	0.0243321
1002	0.0225517
1014	0.0263103
1026	0.0329374
1038	0.0263103
1050	0.0229474
1062	0.0319483
1074	0.035509
1086	0.0501479
1098	0.121364
1110	0.0737876
1122	0.0425317
1134	0.0497522
1146	0.0614237
1158	0.072205
1170	0.073392
1182	0.1181
1194	0.424328
1206	0.730656
1218	0.337089
1230	0.281402
1242	0.274478
1254	0.14263
1266	0.0941633
1278	0.226605
1290	0.737085
1302	0.55222
1314	0.404546
1326	0.226308
1338	0.206625
1350	0.24431
1362	0.275764
1374	0.333924
1386	0.210087
1398	0.163797
1410	0.135805
1422	0.106824
1434	0.118298
1446	0.163599
1458	0.461321
1470	0.632041
1482	0.460134
1494	0.220572
1506	0.129079
1518	0.105736
1530	0.0771506
1542	0.0697323
1554	0.0724029
1566	0.117902
1578	0.16073
1590	0.130266
1602	0.128584
1614	0.170621
1626	0.154796
1638	0.14896
1650	0.421757
1662	0.986637
1674	0.49594
1686	0.101977
1698	0.058852
1710	0.0517305
1722	0.0494555
1734	0.0523239
1746	0.0434219
1758	0.0257169
1770	0.0204746
1782	0.0195844
1794	0.0160236
1806	0.0124628
1818	0.0126606
1830	0.0137486
1842	0.0106824
1854	0.00870417
1866	0.0102867
1878	0.0102867
1890	0.0147377
1902	0.0224528
1914	0.0177051
1926	0.0114737
1938	0.0102867
1950	0.00999001
1962	0.00860526
1974	0.00870417
1986	0.00880308
1998	0.00929763
2010	0.00880308
2022	0.00979219
2034	0.011078
2046	0.0111769
2058	0.00959437
2070	0.00890199
2082	0.00662704
2094	0.00642922
2106	0.00603357
2118	0.0054401
2130	0.00583575
2142	0.00702268
2154	0.00781397
2166	0.00672595
2178	0.00583575
2190	0.00504446
2202	0.00553902
2214	0.00652813
2226	0.00692377
2238	0.00672595
2250	0.00652813
2262	0.00771506
2274	0.00880308
2286	0.00682486
2298	0.00613248
2310	0.00652813
2322	0.00820961
2334	0.00949546
2346	0.00909981
2358	0.00820961
2370	0.00860526
2382	0.00791288
2394	0.00870417
2406	0.00949546
2418	0.00880308
2430	0.00840743
2442	0.00840743
2454	0.00820961
2466	0.00929763
2478	0.00949546
2490	0.0098911
2502	0.011078
2514	0.0137486
2526	0.0153312
2538	0.0147377
2550	0.0147377
2562	0.0154301
2574	0.0172105
2586	0.016617
2598	0.0157268
2610	0.016617
2622	0.0163203
2634	0.0164192
2646	0.0172105
2658	0.0198811
2670	0.022255
2682	0.0215626
2694	0.0209691
2706	0.0209691
2718	0.0216615
2730	0.0217604
2742	0.0216615
2754	0.023343
2766	0.0249256
2778	0.0243321
2790	0.0231452
2802	0.0235408
2814	0.0243321
2826	0.0246288
2838	0.0245299
2850	0.0258158
2862	0.0266071
2874	0.0271016
2886	0.0272994
2898	0.0287831
2910	0.0306624
2922	0.0332341
2934	0.0382786
2946	0.0396633
2958	0.03996
2970	0.0465871
2982	0.0560825
2994	0.0559836
3006	0.0596433
3018	0.0725018
3030	0.0776451
3042	0.0769528
3054	0.0788321
3066	0.0864482
3078	0.095548
3090	0.0907014
3102	0.088921
3114	0.0887232
3126	0.0839754
3138	0.0808103
3150	0.0790299
3162	0.0795244
3174	0.0794255
3186	0.0784364
3198	0.0762604
3210	0.0736887
3222	0.0714137
3234	0.0682486
3246	0.0660725
3258	0.0648856
3270	0.063303
3282	0.0607314
3294	0.0587531
3306	0.0590499
3318	0.0586542
3330	0.0523239
3342	0.0472795
3354	0.0434219
3366	0.0412459
3378	0.0382786
3390	0.0364982
3402	0.0330363
3414	0.0301679
3426	0.0279918
3438	0.025519
3450	0.0238376
3462	0.0220572
3474	0.0200789
3486	0.0180018
3498	0.0168149
3510	0.015529
3522	0.0142432
3534	0.0131552
3546	0.0121661
3558	0.0112759
3570	0.0101878
3582	0.00999001
3594	0.0098911
3606	0.00860526
3618	0.00791288
3630	0.00781397
3642	0.00801179
3654	0.00751724
3666	0.00662704
3678	0.00583575
3690	0.00613248
3702	0.00613248
3714	0.0054401
3726	0.00573684
3738	0.00593466
3750	0.00504446
3762	0.00504446
3774	0.00504446
3786	0.00504446
3798	0.00504446
3810	0.00504446
3822	0.00504446
3834	0.00504446
3846	0.00504446
3858	0.00504446
3870	0.00504446
3882	0.00504446
3894	0.00504446
3906	0.00504446
3918	0.00504446
3930	0.00504446
3942	0.00534119
3954	0.00504446
3966	0.00504446
