Infrared Spectrum: Chloropyrazine
Formula: C 4 H 3 Cl N 2
CAS: 14508-49-7
Origin: Sadtler Research Labs Under US-EPA Contract
1/CM	ABSORBANCE
450	0.00472425
462	0.0114327
474	0.0181411
486	0.012472
498	0.00651947
510	0.00056691
522	0.00141727
534	0.00103933
546	0.00170073
558	0.00236213
570	0.00321249
582	0.0025511
594	0.00236213
606	0.00245661
618	0.0025511
630	0.00330698
642	0.00576358
654	0.00434631
666	0.00217315
678	0.00217315
690	0.00340146
702	0.0063305
714	0.00869262
726	0.0146452
738	0.0236212
750	0.0486598
762	0.11565
774	0.119335
786	0.00330698
798	0.00311801
810	0.0162514
822	0.0571634
834	0.104689
846	0.114043
858	0.0591476
870	0.0135114
882	0.00472425
894	0.00481874
906	0.00481874
918	0.00510219
930	0.00670844
942	0.00812571
954	0.0109603
966	0.00935402
978	0.0158735
990	0.0719031
1002	0.176498
1014	0.166672
1026	0.0817295
1038	0.0873986
1050	0.0727534
1062	0.0401561
1074	0.0246606
1086	0.0525337
1098	0.0512109
1110	0.0959968
1122	0.423671
1134	0.94485
1146	0.590531
1158	0.107618
1170	0.0641553
1182	0.0524392
1194	0.0651002
1206	0.050455
1218	0.00840916
1230	0.00519668
1242	0.00822019
1254	0.00784225
1266	0.00699189
1278	0.0318414
1290	0.028629
1302	0.00954299
1314	0.0168183
1326	0.024944
1338	0.0205032
1350	0.0205032
1362	0.0700134
1374	0.251141
1386	0.364712
1398	0.233283
1410	0.0318414
1422	0.0120941
1434	0.0295738
1446	0.100532
1458	0.168939
1470	0.14031
1482	0.0309911
1494	0.0167238
1506	0.0564075
1518	0.166577
1530	0.158546
1542	0.0131334
1554	0.0196529
1566	0.0199363
1578	0.0103934
1590	0.00311801
1602	0.00283455
1614	0.00359043
1626	0.00359043
1638	0.00245661
1650	0.0018897
1662	0.00311801
1674	0.00614153
1686	0.00529116
1698	0.00321249
1710	0.00349594
1722	0.00368491
1734	0.00368491
1746	0.00765329
1758	0.0127555
1770	0.0119051
1782	0.00888159
1794	0.00916505
1806	0.00935402
1818	0.00614153
1830	0.00387389
1842	0.00462977
1854	0.00500771
1866	0.00576358
1878	0.00642498
1890	0.00897608
1902	0.0102044
1914	0.00916505
1926	0.0116217
1938	0.0100154
1950	0.00434631
1962	0.00274006
1974	0.00283455
1986	0.00292903
1998	0.00368491
2010	0.00330698
2022	0.00179521
2034	0.00132279
2046	0.00179521
2058	0.00217315
2070	0.00217315
2082	0.00217315
2094	0.0025511
2106	0.00236213
2118	0.00217315
2130	0.00217315
2142	0.0025511
2154	0.00198418
2166	0.00198418
2178	0.00245661
2190	0.00207867
2202	0.00160625
2214	0.00198418
2226	0.00198418
2238	0.00198418
2250	0.00198418
2262	0.0025511
2274	0.00330698
2286	0.00500771
2298	0.00661395
2310	0.00784225
2322	0.00774777
2334	0.00415734
2346	0.00311801
2358	0.00349594
2370	9.4485e-05
2382	0.00151176
2394	0.00264558
2406	0.00274006
2418	0.00274006
2430	0.00207867
2442	0.00207867
2454	0.00170073
2466	0.00217315
2478	0.00207867
2490	0.00160625
2502	0.00160625
2514	0.00151176
2526	0.00179521
2538	0.00122831
2550	0.00056691
2562	0.00141727
2574	0.00151176
2586	0.00141727
2598	0.0018897
2610	0.00226764
2622	0.00236213
2634	0.00226764
2646	0.00274006
2658	0.00368491
2670	0.00415734
2682	0.00359043
2694	0.00274006
2706	0.00264558
2718	0.00264558
2730	0.00207867
2742	0.00151176
2754	0.000850365
2766	0.00056691
2778	9.4485e-05
2790	9.4485e-05
2802	0.000661395
2814	0.00075588
2826	0.00103933
2838	0.00103933
2850	0.00094485
2862	0.00094485
2874	0.00103933
2886	0.00160625
2898	0.00245661
2910	0.00321249
2922	0.00198418
2934	0.00151176
2946	0.00207867
2958	0.00217315
2970	0.00359043
2982	0.00491322
2994	0.00595255
3006	0.00538564
3018	0.00396837
3030	0.00670844
3042	0.0181411
3054	0.0688796
3066	0.15694
3078	0.128122
3090	0.0483763
3102	0.0115272
3114	0.00793674
3126	0.00661395
3138	0.00425182
3150	0.00160625
3162	0.000472425
3174	9.4485e-05
3186	0.00113382
3198	0.00075588
3210	9.4485e-05
3222	0.000472425
3234	0.00113382
3246	0.000850365
3258	0.00056691
3270	9.4485e-05
3282	0.000850365
3294	0.00103933
3306	0.00056691
3318	9.4485e-05
3330	0.000472425
3342	0
3354	0.000472425
3366	0.00113382
3378	0.00103933
3390	0.00056691
3402	0.000850365
3414	0.00103933
3426	0.000661395
3438	0.00198418
3450	0.00132279
3462	0.000850365
3474	9.4485e-05
3486	0.00094485
3498	0.00094485
3510	0.00103933
3522	0.000850365
3534	0.00151176
3546	0.00056691
3558	0.00056691
3570	0.000661395
3582	0.00103933
3594	0.000850365
3606	0.00141727
3618	0.000850365
3630	0.000472425
3642	0.00103933
3654	0.00037794
3666	0.00132279
3678	0.000472425
3690	0.00094485
3702	0.00236213
3714	0.00094485
3726	0.00122831
3738	0.00160625
3750	0.000850365
3762	0.000850365
3774	0.000850365
3786	0.00094485
3798	0.00113382
3810	0.00226764
3822	0.00321249
3834	0.00481874
3846	0.00444079
3858	0.00274006
3870	0.00217315
3882	0.00236213
3894	0.00274006
3906	0.00330698
3918	0.00425182
3930	0.00519668
3942	0.0056691
3954	0.00462977
3966	0.00519668
