Infrared Spectrum: Pyridine, 2-ethoxy-
Formula: C 7 H 9 N O
CAS: 14529-53-4
Origin: Sadtler Research Labs Under US-EPA Contract
1/CM	ABSORBANCE
450	0
462	0.0357948
474	0.0510305
486	0.0444222
498	0.0390989
510	0.0539675
522	0.068469
534	0.0668169
546	0.049562
558	0.0416688
570	0.0390989
582	0.0468086
594	0.0499291
606	0.075628
618	0.0725074
630	0.0580059
642	0.0457072
654	0.0356112
666	0.0339592
678	0.0368962
690	0.0398332
702	0.039466
714	0.0532333
726	0.125741
738	0.191823
750	0.138407
762	0.216788
774	0.449546
786	0.467535
798	0.218073
810	0.0958199
822	0.0879267
834	0.07728
846	0.062595
858	0.0635128
870	0.052499
882	0.0488278
894	0.0719567
906	0.155111
918	0.204122
930	0.168511
942	0.074343
954	0.0635128
966	0.0620443
978	0.0908637
990	0.143546
1002	0.132532
1014	0.1329
1026	0.278282
1038	0.552158
1050	0.802721
1062	0.412466
1074	0.156946
1086	0.200451
1098	0.25607
1110	0.159149
1122	0.116012
1134	0.223947
1146	0.237163
1158	0.0886609
1170	0.0692033
1182	0.059658
1194	0.0543346
1206	0.0598415
1218	0.0787485
1230	0.125006
1242	0.309854
1254	0.714427
1266	1.08522
1278	1.21225
1290	1.72366
1302	0.921119
1314	1.08633
1326	0.668169
1338	0.167042
1350	0.0930664
1362	0.132165
1374	0.183379
1386	0.343079
1398	0.379425
1410	0.233676
1422	0.350238
1434	1.20674
1446	0.954711
1458	0.414118
1470	1.07146
1482	1.07403
1494	0.470472
1506	0.177689
1518	0.105549
1530	0.0838883
1542	0.101143
1554	0.166492
1566	0.427518
1578	0.67441
1590	0.921119
1602	1.20546
1614	0.656054
1626	0.231106
1638	0.114176
1650	0.0781978
1662	0.0541511
1674	0.0521319
1686	0.0565374
1698	0.059658
1710	0.049562
1722	0.0523155
1734	0.0569045
1746	0.0469921
1758	0.0416688
1770	0.0409345
1782	0.039466
1794	0.0429537
1806	0.0460743
1818	0.0484606
1830	0.0519483
1842	0.049562
1854	0.0390989
1866	0.0411181
1878	0.0396496
1890	0.0427702
1902	0.0490113
1914	0.0532333
1926	0.052499
1938	0.0504798
1950	0.0539675
1962	0.0502963
1974	0.0368962
1986	0.0321235
1998	0.030655
2010	0.030655
2022	0.0330413
2034	0.0361619
2046	0.0389154
2058	0.0398332
2070	0.043688
2082	0.046625
2094	0.0477264
2106	0.0482771
2118	0.0451565
2130	0.0411181
2142	0.0385482
2154	0.033592
2166	0.0312057
2178	0.0312057
2190	0.0324907
2202	0.0334085
2214	0.0339592
2226	0.0350605
2238	0.034877
2250	0.0352441
2262	0.0376304
2274	0.0387318
2286	0.0392825
2298	0.0390989
2310	0.0363455
2322	0.0315728
2334	0.0317564
2346	0.0357948
2358	0.030655
2370	0.0398332
2382	0.0411181
2394	0.0392825
2406	0.039466
2418	0.0403839
2430	0.0403839
2442	0.0383647
2454	0.0381811
2466	0.0363455
2478	0.0350605
2490	0.0368962
2502	0.040751
2514	0.0440551
2526	0.0460743
2538	0.0471757
2550	0.050847
2562	0.0565374
2574	0.0585566
2586	0.0515812
2598	0.0447894
2610	0.0425866
2622	0.0403839
2634	0.0372633
2646	0.0352441
2658	0.0346934
2670	0.036529
2682	0.039466
2694	0.0411181
2706	0.0418524
2718	0.0462579
2730	0.0486442
2742	0.0488278
2754	0.0490113
2766	0.0488278
2778	0.0488278
2790	0.0497456
2802	0.0521319
2814	0.0552525
2826	0.059658
2838	0.0605758
2850	0.0640635
2862	0.071406
2874	0.0985733
2886	0.135286
2898	0.153459
2910	0.174385
2922	0.178607
2934	0.242303
2946	0.326926
2958	0.275528
2970	0.296454
2982	0.458908
2994	0.489195
3006	0.300309
3018	0.1999
3030	0.206876
3042	0.169062
3054	0.165941
3066	0.183747
3078	0.230188
3090	0.229821
3102	0.117664
3114	0.0715896
3126	0.0504798
3138	0.0482771
3150	0.0493784
3162	0.0475428
3174	0.0473593
3186	0.0447894
3198	0.0433209
3210	0.0398332
3222	0.0376304
3234	0.0367126
3246	0.0359783
3258	0.0354277
3270	0.034877
3282	0.0341427
3294	0.0337756
3306	0.0356112
3318	0.0356112
3330	0.0368962
3342	0.0357948
3354	0.0356112
3366	0.034877
3378	0.0345098
3390	0.0345098
3402	0.0372633
3414	0.0379975
3426	0.0367126
3438	0.036529
3450	0.0368962
3462	0.036529
3474	0.0350605
3486	0.0341427
3498	0.0337756
3510	0.0346934
3522	0.0330413
3534	0.033592
3546	0.0339592
3558	0.034877
3570	0.0354277
3582	0.03194
3594	0.0334085
3606	0.0326742
3618	0.0330413
3630	0.0324907
3642	0.0352441
3654	0.0343263
3666	0.034877
3678	0.0363455
3690	0.0367126
3702	0.0379975
3714	0.0363455
3726	0.0345098
3738	0.0368962
3750	0.0367126
3762	0.0398332
3774	0.0334085
3786	0.034877
3798	0.0367126
3810	0.0361619
3822	0.0370797
3834	0.0359783
3846	0.0379975
3858	0.0383647
3870	0.0354277
3882	0.037814
3894	0.0374469
3906	0.036529
3918	0.0352441
3930	0.0326742
3942	0.0379975
3954	0.0359783
3966	0.0411181
