Infrared Spectrum: Spiro[4.5]dec-6-ene-8-one
Formula: C 10 H 14 O
CAS: 14523-53-6
Origin: Sadtler Research Labs Under US-EPA Contract
1/CM	ABSORBANCE
450	0.0367501
462	0.0363659
474	0.00896343
486	0.00268903
498	0.000384147
510	0.0133171
522	0.00832319
534	0.00409757
546	0.00486586
558	0.00985977
570	0.0070427
582	0.00550611
594	0.00358537
606	0.00563416
618	0.00550611
630	0.00371342
642	0.00268903
654	0.00243293
666	0.00115244
678	0.00268903
690	0.00640245
702	0.00806709
714	0.0122927
726	0.0125488
738	0.0167744
750	0.0413598
762	0.028811
774	0.0376464
786	0.0909148
798	0.086177
810	0.0439208
822	0.0222805
834	0.018311
846	0.0188232
858	0.0166464
870	0.0145976
882	0.0129329
894	0.0169025
906	0.0247135
918	0.0343171
930	0.057366
942	0.0362379
954	0.0177988
966	0.0177988
978	0.0224086
990	0.0394391
1002	0.0239452
1014	0.0128049
1026	0.0128049
1038	0.0112683
1050	0.0110122
1062	0.0119086
1074	0.0166464
1086	0.0231769
1098	0.026122
1110	0.0349574
1122	0.0560855
1134	0.0900184
1146	0.0655611
1158	0.0257378
1170	0.0253537
1182	0.0450732
1194	0.0571099
1206	0.0677379
1218	0.103464
1230	0.116012
1242	0.086177
1254	0.0615916
1266	0.0368781
1278	0.0184391
1290	0.0105
1302	0.0133171
1314	0.0213842
1326	0.0335488
1338	0.0430245
1350	0.0379025
1362	0.0184391
1374	0.0311159
1386	0.0615916
1398	0.0427684
1410	0.0284269
1422	0.0613355
1434	0.0589025
1446	0.0742684
1458	0.0856648
1470	0.046994
1482	0.0332927
1494	0.0193354
1506	0.00870733
1518	0.00345732
1530	0.00268903
1542	0.00102439
1554	0.00320123
1566	0.00435367
1578	0.00691465
1590	0.0102439
1602	0.0158781
1614	0.0371342
1626	0.0344452
1638	0.0250976
1650	0.0377745
1662	0.060183
1674	0.114988
1686	0.279659
1698	0.715922
1710	1.28049
1722	0.483769
1734	0.108329
1746	0.0528842
1758	0.0381586
1770	0.031244
1782	0.0160061
1794	0.00857928
1806	0.00742684
1818	0.00499391
1830	0.00358537
1842	0.00422562
1854	0.00422562
1866	0.00371342
1878	0.00396952
1890	0.00243293
1902	0.00294513
1914	0.00192074
1926	0.00217683
1938	0.00217683
1950	0.00217683
1962	0.00345732
1974	0.00345732
1986	0.00140854
1998	0.00153659
2010	0.00140854
2022	0.00128049
2034	0.00166464
2046	0.00140854
2058	0.00153659
2070	0.00153659
2082	0.00140854
2094	0.00140854
2106	0.00179269
2118	0.00115244
2130	0.00140854
2142	0.00166464
2154	0.00166464
2166	0.00192074
2178	0.00230488
2190	0.00256098
2202	0.00192074
2214	0.00179269
2226	0.00204878
2238	0.00179269
2250	0.00204878
2262	0.00217683
2274	0.00243293
2286	0.00217683
2298	0.00256098
2310	0.00307318
2322	0.00332927
2334	0.00371342
2346	0.00256098
2358	0.00358537
2370	0.00294513
2382	0.00153659
2394	0.000896343
2406	0.00115244
2418	0.000896343
2430	0.000512196
2442	0.000384147
2454	0.000384147
2466	0.000640245
2478	0.000256098
2490	0.000384147
2502	0.000384147
2514	0
2526	0
2538	0.000384147
2550	0.000640245
2562	0.000768294
2574	0.000896343
2586	0.00128049
2598	0.00217683
2610	0.00230488
2622	0.00204878
2634	0.00243293
2646	0.00294513
2658	0.00384147
2670	0.00409757
2682	0.00371342
2694	0.00294513
2706	0.00294513
2718	0.00371342
2730	0.00422562
2742	0.00448171
2754	0.00576221
2766	0.00691465
2778	0.00806709
2790	0.00947563
2802	0.0107561
2814	0.0125488
2826	0.0213842
2838	0.0336769
2850	0.0560855
2862	0.149689
2874	0.255202
2886	0.253409
2898	0.1785
2910	0.187976
2922	0.301811
2934	0.451373
2946	0.528074
2958	0.692361
2970	0.724117
2982	0.282604
2994	0.0925794
3006	0.0567257
3018	0.0752928
3030	0.0870733
3042	0.044433
3054	0.0387988
3066	0.0281708
3078	0.00998782
3090	0.00691465
3102	0.0062744
3114	0.00345732
3126	0.00268903
3138	0.00230488
3150	0.00243293
3162	0.00192074
3174	0.00166464
3186	0.00166464
3198	0.00153659
3210	0.00243293
3222	0.00332927
3234	0.00230488
3246	0.00204878
3258	0.00115244
3270	0.00140854
3282	0.00153659
3294	0.00140854
3306	0.00243293
3318	0.00294513
3330	0.00320123
3342	0.00256098
3354	0.00256098
3366	0.00473781
3378	0.0108842
3390	0.0175427
3402	0.0145976
3414	0.0067866
3426	0.00256098
3438	0.00179269
3450	0.00115244
3462	0.00140854
3474	0.00115244
3486	0.00217683
3498	0.00192074
3510	0.00166464
3522	0.000768294
3534	0.00166464
3546	0.000384147
3558	0.00128049
3570	0.000256098
3582	0.000768294
3594	0.000128049
3606	0.000512196
3618	0.000512196
3630	0.000896343
3642	0.000768294
3654	0.00166464
3666	0.00179269
3678	0.00153659
3690	0.00140854
3702	0.00102439
3714	0.000384147
3726	0.00115244
3738	0.00179269
3750	0.00115244
3762	0.00281708
3774	0.00204878
3786	0.00230488
3798	0.00102439
3810	0.00192074
3822	0.00217683
3834	0.000640245
3846	0.00115244
3858	0.00192074
3870	0.00243293
3882	0.00128049
3894	0.00192074
3906	0.00217683
3918	0.00192074
3930	0.00358537
3942	0.00153659
3954	0.00128049
3966	0.00243293
