Infrared Spectrum: Benzenebutanoic acid, 2,5-dimethyl-
Formula: C 12 H 16 O 2
CAS: 1453-06-1
Origin: Sadtler Research Labs Under US-EPA Contract
1/CM	ABSORBANCE
450	0.0312166
462	0.0133106
474	0.0100226
486	0.00919068
498	0.00467457
510	0.0156083
522	0.0251159
534	0.0357327
546	0.0408034
558	0.0584321
570	0.0562929
582	0.0436557
594	0.0512222
606	0.0602148
618	0.050113
630	0.0502714
642	0.0409223
654	0.0247594
666	0.019649
678	0.0152122
690	0.0189756
702	0.0136276
714	0.0150537
726	0.0114487
738	0.0105772
750	0.00823992
762	0.0116468
774	0.0112903
786	0.0126768
798	0.0341481
810	0.0527672
822	0.0269778
834	0.0111714
846	0.00641763
858	0.0104187
870	0.0139445
882	0.0131918
894	0.00879453
906	0.00435765
918	0.00249575
930	0.00368419
942	0.00926991
954	0.00392188
966	0.0102603
978	0.013271
990	0.0156083
1002	0.0240067
1014	0.0295528
1026	0.0388623
1038	0.0445273
1050	0.036327
1062	0.0418731
1074	0.0489245
1086	0.0673455
1098	0.129898
1110	0.216338
1122	0.257458
1134	0.201323
1146	0.117736
1158	0.0906391
1170	0.0810523
1182	0.0781604
1194	0.0629482
1206	0.058036
1218	0.0437746
1230	0.0367231
1242	0.0390208
1254	0.0358912
1266	0.0331578
1278	0.0295132
1290	0.0268194
1302	0.0246405
1314	0.0219863
1326	0.0254328
1338	0.0328012
1350	0.0409223
1362	0.0469438
1374	0.0598583
1386	0.066157
1398	0.0406054
1410	0.0273344
1422	0.0332766
1434	0.0346631
1446	0.0391396
1458	0.0491622
1470	0.0391
1482	0.0257894
1494	0.04219
1506	0.0689697
1518	0.0301866
1530	0.0133503
1542	0.0114487
1554	0.00847761
1566	0.00946798
1578	0.0112507
1590	0.00859645
1602	0.0112903
1614	0.0209167
1626	0.0104187
1638	0.00479341
1650	0.00360496
1662	0.00400111
1674	0.00621955
1686	0.0114487
1698	0.0149745
1710	0.018421
1722	0.0328804
1734	0.0576398
1746	0.101177
1758	0.1667
1770	0.318901
1782	0.365369
1794	0.187379
1806	0.10906
1818	0.0555006
1830	0.0234125
1842	0.0118449
1854	0.00562533
1866	0.00455573
1878	0.00641763
1890	0.00582341
1902	0.00348612
1914	0.00229767
1926	0.00166383
1938	0.00142614
1950	0.0015846
1962	0.0015846
1974	0.00122806
1986	0.00087153
1998	0.00118845
2010	0.00114883
2022	0.000831915
2034	0.0007923
2046	0.000673455
2058	0.000990375
2070	0.00087153
2082	0.000752685
2094	0.00047538
2106	0.000752685
2118	0.00126768
2130	0.00102999
2142	0.000673455
2154	0.000752685
2166	0.00087153
2178	0.00102999
2190	0.00170345
2202	0.00118845
2214	0.00142614
2226	0.0015846
2238	0.00114883
2250	0.00186191
2262	0.0015846
2274	0.00217883
2286	0.00285228
2298	0.00451611
2310	0.00534803
2322	0.00625917
2334	0.00487265
2346	0.00534803
2358	0.0055461
2370	0.00336727
2382	0.00443688
2394	0.0010696
2406	0.000990375
2418	0.00205998
2430	0.00095076
2442	0.00146576
2454	0.000752685
2466	0.00126768
2478	0.000990375
2490	0.00130729
2502	0.00194113
2514	0.0015846
2526	0.00134691
2538	0.00198075
2550	0.00178268
2562	0.00186191
2574	0.00154499
2586	0.00170345
2598	0.0015846
2610	0.00198075
2622	0.00202037
2634	0.00241652
2646	0.0023769
2658	0.00269382
2670	0.00261459
2682	0.00336727
2694	0.00352573
2706	0.00356535
2718	0.00447649
2730	0.00562533
2742	0.00752685
2754	0.00598187
2766	0.0047538
2778	0.00495187
2790	0.00546687
2802	0.00709108
2814	0.00911145
2826	0.0112507
2838	0.0160837
2850	0.0248386
2862	0.0445273
2874	0.0787942
2886	0.0769719
2898	0.0643348
2910	0.0700393
2922	0.103672
2934	0.159332
2946	0.144397
2958	0.122767
2970	0.0989187
2982	0.0755854
2994	0.0654836
3006	0.0827954
3018	0.08232
3030	0.0564514
3042	0.0501526
3054	0.0505487
3066	0.0307016
3078	0.0200848
3090	0.0149745
3102	0.0112903
3114	0.00990375
3126	0.00990375
3138	0.00681378
3150	0.00542725
3162	0.00427842
3174	0.00459534
3186	0.00408034
3198	0.00455573
3210	0.00423881
3222	0.00408034
3234	0.00376342
3246	0.00443688
3258	0.00320881
3270	0.00463495
3282	0.00392188
3294	0.00400111
3306	0.00514995
3318	0.00372381
3330	0.00384265
3342	0.00419919
3354	0.00328804
3366	0.00467457
3378	0.00328804
3390	0.00447649
3402	0.00356535
3414	0.00487265
3426	0.00372381
3438	0.00400111
3450	0.00380304
3462	0.00380304
3474	0.00423881
3486	0.00360496
3498	0.00392188
3510	0.00578379
3522	0.00637801
3534	0.00629879
3546	0.0112507
3558	0.0217882
3570	0.112824
3582	0.130928
3594	0.0198075
3606	0.0110526
3618	0.00705147
3630	0.00768531
3642	0.00352573
3654	0.00804185
3666	0.00348612
3678	0.00689301
3690	0.00693262
3702	0.00463495
3714	0.00823992
3726	0.00621955
3738	0.00717032
3750	0.0162422
3762	0.00273343
3774	0.00360496
3786	0.00376342
3798	0.00558571
3810	0.00495187
3822	0.0110922
3834	0.00669493
3846	0.00717032
3858	0.0106564
3870	0.00534803
3882	0.00570456
3894	0.00982452
3906	0.00907184
3918	0.00962644
3930	0.00911145
3942	0.00621955
3954	0.007408
3966	0.00669493
