Infrared Spectrum: 1-Indanone, 6-bromo-,
Formula: C 9 H 7 Br O
CAS: 14548-39-1
Origin: Sadtler Research Labs Under US-EPA Contract
1/CM	ABSORBANCE
450	0
462	0.0125055
474	0.101006
486	0.0573972
498	0.0646654
510	0.0431815
522	0.0257593
534	0.0506635
546	0.0832634
558	0.142798
570	0.0422196
582	0.036234
594	0.0276832
606	0.0443573
618	0.0402956
630	0.041792
642	0.0540838
654	0.0930968
666	0.0897834
678	0.0814464
690	0.0521599
702	0.0457468
714	0.0475638
726	0.0456399
738	0.0467087
750	0.071613
762	0.0529081
774	0.0356996
786	0.0420058
798	0.0746057
810	0.137133
822	0.137027
834	0.179994
846	0.11565
858	0.0473501
870	0.0476707
882	0.0416852
894	0.0629553
906	0.0471363
918	0.0386924
930	0.031638
942	0.039013
954	0.0382648
966	0.0422196
978	0.0412576
990	0.0327068
1002	0.0359134
1014	0.0451055
1026	0.0784536
1038	0.0923486
1050	0.0534425
1062	0.0643448
1074	0.0664825
1086	0.0720405
1098	0.106671
1110	0.183628
1122	0.117787
1134	0.065093
1146	0.0689408
1158	0.108381
1170	0.20864
1182	0.183094
1194	0.234613
1206	0.0753539
1218	0.0812326
1230	0.26422
1242	0.281535
1254	0.302164
1266	0.204685
1278	0.133713
1290	0.081767
1302	0.0644517
1314	0.118001
1326	0.0644517
1338	0.058573
1350	0.0565422
1362	0.0484189
1374	0.050236
1386	0.0568628
1398	0.085508
1410	0.22852
1422	0.143547
1434	0.0995099
1446	0.205219
1458	0.207571
1470	0.252783
1482	0.11116
1494	0.0708648
1506	0.0601763
1518	0.0744988
1530	0.0663756
1542	0.0725749
1554	0.0856149
1566	0.0933106
1578	0.0991893
1590	0.119925
1602	0.124842
1614	0.0756746
1626	0.0593212
1638	0.0323862
1650	0.0230872
1662	0.0228734
1674	0.030676
1686	0.0430747
1698	0.0570766
1710	0.084546
1722	0.204578
1734	0.683957
1746	1.04459
1758	0.419417
1770	0.102075
1782	0.0730025
1794	0.0586799
1806	0.0415783
1818	0.0379442
1830	0.0328137
1842	0.0259731
1854	0.0247973
1866	0.0242629
1878	0.0247973
1890	0.029714
1902	0.0312104
1914	0.0229803
1926	0.0215908
1938	0.0226596
1950	0.0226596
1962	0.0218045
1974	0.0210563
1986	0.0209495
1998	0.0209495
2010	0.0216977
2022	0.0221252
2034	0.0219114
2046	0.0209495
2058	0.0215908
2070	0.0219114
2082	0.0209495
2094	0.0198806
2106	0.020415
2118	0.0198806
2130	0.0199875
2142	0.0198806
2154	0.0194531
2166	0.0189186
2178	0.0190255
2190	0.0197737
2202	0.0198806
2214	0.0202013
2226	0.0197737
2238	0.0196668
2250	0.0199875
2262	0.0202013
2274	0.0206288
2286	0.0224458
2298	0.0238354
2310	0.0224458
2322	0.020415
2334	0.0181705
2346	0.021377
2358	0.0205219
2370	0.0193462
2382	0.0194531
2394	0.0168878
2406	0.0164603
2418	0.0171016
2430	0.0171016
2442	0.0166741
2454	0.0164603
2466	0.0159259
2478	0.0151777
2490	0.0157121
2502	0.0162465
2514	0.0159259
2526	0.0151777
2538	0.0152846
2550	0.0154983
2562	0.0156052
2574	0.0168878
2586	0.0167809
2598	0.0167809
2610	0.0165672
2622	0.0161396
2634	0.0167809
2646	0.0160328
2658	0.0160328
2670	0.0159259
2682	0.0162465
2694	0.0168878
2706	0.0167809
2718	0.0168878
2730	0.0162465
2742	0.0165672
2754	0.0178498
2766	0.0182773
2778	0.0173154
2790	0.0188118
2802	0.020415
2814	0.0247973
2826	0.0266144
2838	0.0287521
2850	0.0351652
2862	0.0420058
2874	0.0479914
2886	0.0532287
2898	0.0379442
2910	0.0383717
2922	0.0532287
2934	0.112977
2946	0.182453
2958	0.0843323
2970	0.081767
2982	0.0615658
2994	0.0443573
3006	0.0436091
3018	0.0444642
3030	0.0470294
3042	0.0549389
3054	0.0702234
3066	0.072468
3078	0.0610313
3090	0.0562215
3102	0.0431815
3114	0.0424333
3126	0.0431815
3138	0.0394406
3150	0.0386924
3162	0.0401888
3174	0.0415783
3186	0.0360202
3198	0.031638
3210	0.0312104
3222	0.0365547
3234	0.0356996
3246	0.0325999
3258	0.0340963
3270	0.035272
3282	0.0257593
3294	0.0212701
3306	0.0198806
3318	0.0199875
3330	0.0194531
3342	0.0188118
3354	0.0202013
3366	0.0216977
3378	0.0199875
3390	0.0208426
3402	0.0199875
3414	0.0215908
3426	0.0218045
3438	0.0222321
3450	0.0275763
3462	0.0348445
3474	0.033455
3486	0.0252249
3498	0.0216977
3510	0.0197737
3522	0.0184911
3534	0.0207357
3546	0.0187049
3558	0.0191324
3570	0.0221252
3582	0.0171016
3594	0.0205219
3606	0.0178498
3618	0.0187049
3630	0.0224458
3642	0.0188118
3654	0.0230872
3666	0.0159259
3678	0.0202013
3690	0.0208426
3702	0.0174223
3714	0.0197737
3726	0.0168878
3738	0.01956
3750	0.0245836
3762	0.0187049
3774	0.0167809
3786	0.0177429
3798	0.0208426
3810	0.0167809
3822	0.0216977
3834	0.0211632
3846	0.0177429
3858	0.0212701
3870	0.0228734
3882	0.0205219
3894	0.022339
3906	0.0239422
3918	0.0262937
3930	0.020415
3942	0.0209495
3954	0.0234078
3966	0.022339
