Infrared Spectrum: Benzene, (2-bromo-1-methylethyl)-
Formula: C 9 H 11 Br
CAS: 1459-00-3
Origin: Sadtler Research Labs Under US-EPA Contract
1/CM	ABSORBANCE
450	0.00894032
462	0.00580739
474	0.00848184
486	0.0199438
498	0.0323227
510	0.0664029
522	0.0832902
534	0.127533
546	0.143274
558	0.160162
570	0.0630407
582	0.0284256
594	0.0171929
606	0.00840543
618	0.0123789
630	0.0170401
642	0.0467648
654	0.141899
666	0.336141
678	0.202418
690	0.48889
702	0.742047
714	0.266681
726	0.115307
738	0.12035
750	0.218236
762	0.321622
774	0.196993
786	0.0749612
798	0.0217013
810	0.0041263
822	0.000840543
834	0.0155883
846	0.0194089
858	0.0237644
870	0.0312529
882	0.0560107
894	0.142587
906	0.143351
918	0.0652567
930	0.0217013
942	0.0128374
954	0.00794695
966	0.0058838
978	0.0102393
990	0.041263
1002	0.0907022
1014	0.170019
1026	0.104915
1038	0.0638049
1050	0.0352264
1062	0.0383593
1074	0.044778
1086	0.032017
1098	0.0277379
1110	0.0207079
1122	0.0115384
1134	0.00557815
1146	0.00832902
1158	0.020173
1170	0.0343859
1182	0.0387414
1194	0.0557051
1206	0.155653
1218	0.167497
1230	0.224272
1242	0.146942
1254	0.0634228
1266	0.0724395
1278	0.0748847
1290	0.0946757
1302	0.119892
1314	0.0631936
1326	0.0496685
1338	0.0340038
1350	0.0350736
1362	0.0482166
1374	0.109423
1386	0.143274
1398	0.0506618
1410	0.0242993
1422	0.0450837
1434	0.124782
1446	0.208455
1458	0.235963
1470	0.126693
1482	0.109194
1494	0.22901
1506	0.138002
1518	0.0252927
1530	0.0197146
1542	0.0164288
1554	0.0104686
1566	0.0150534
1578	0.0337745
1590	0.0720575
1602	0.13464
1614	0.0718282
1626	0.0335453
1638	0.0301067
1650	0.0171929
1662	0.0152062
1674	0.011844
1686	0.01406
1698	0.0300303
1710	0.0323227
1722	0.0195617
1734	0.0192561
1746	0.017575
1758	0.0161231
1770	0.0141364
1782	0.0239937
1794	0.0529542
1806	0.03515
1818	0.0184919
1830	0.00832902
1842	0.00611304
1854	0.0125317
1866	0.023306
1878	0.0279672
1890	0.0212428
1902	0.00725924
1914	0.00634228
1926	0.0163524
1938	0.0328576
1950	0.034233
1962	0.0249106
1974	0.00496685
1986	0.00336217
1998	0.00229239
2010	0.00145185
2022	0.000840543
2034	0.00106978
2046	0.000458478
2058	0.000382065
2070	0.000305652
2082	0.000229239
2094	0
2106	7.6413e-05
2118	0.000152826
2130	0
2142	0
2154	0.000382065
2166	0.000687717
2178	0.000611304
2190	0.000916956
2202	0.000687717
2214	0.000916956
2226	0.0011462
2238	0.00152826
2250	0.00183391
2262	0.00206315
2274	0.0023688
2286	0.00290369
2298	0.00343859
2310	0.00603663
2322	0.00855826
2334	0.00649511
2346	0.00725924
2358	0.00573098
2370	0.00473761
2382	0.003515
2394	0.00305652
2406	0.00198674
2418	0.00267446
2430	0.00328576
2442	0.00213956
2454	0.00290369
2466	0.00145185
2478	0.00183391
2490	0.00374424
2502	0.00198674
2514	0.00183391
2526	0.00244522
2538	0.00106978
2550	0.00183391
2562	0.00152826
2574	0.00259804
2586	0.00366782
2598	0.0041263
2610	0.00443195
2622	0.00573098
2634	0.00603663
2646	0.00626587
2658	0.00618945
2670	0.00550174
2682	0.00481402
2694	0.00404989
2706	0.00481402
2718	0.00504326
2730	0.00748847
2742	0.00924597
2754	0.00848184
2766	0.00695358
2778	0.00794695
2790	0.00878749
2802	0.0125317
2814	0.0155118
2826	0.018874
2838	0.0240701
2850	0.0328576
2862	0.063652
2874	0.110875
2886	0.137925
2898	0.111487
2910	0.118593
2922	0.161613
2934	0.216631
2946	0.227176
2958	0.248801
2970	0.555523
2982	0.562018
2994	0.30336
3006	0.175139
3018	0.221903
3030	0.364261
3042	0.389936
3054	0.238791
3066	0.378168
3078	0.462986
3090	0.308632
3102	0.205704
3114	0.104915
3126	0.0417979
3138	0.0203259
3150	0.0165816
3162	0.0158939
3174	0.0126846
3186	0.00924597
3198	0.00886391
3210	0.00725924
3222	0.00511967
3234	0.00427913
3246	0.00336217
3258	0.00313293
3270	0.00213956
3282	0.00191033
3294	0.00145185
3306	0.0017575
3318	0.0011462
3330	0.00168109
3342	0.00137543
3354	0.000916956
3366	0.000611304
3378	0.000840543
3390	0.000993369
3402	0.00160467
3414	0.000840543
3426	0.000916956
3438	0.00229239
3450	0.0017575
3462	0.0017575
3474	0.00229239
3486	0.00129902
3498	0.00129902
3510	0.00206315
3522	0.00152826
3534	0.00145185
3546	0.00213956
3558	0.00168109
3570	0.00481402
3582	0.00703
3594	0.00725924
3606	0.00343859
3618	0.003515
3630	0.00703
3642	0.00603663
3654	0.00672434
3666	0.00450837
3678	0.00313293
3690	0.00244522
3702	0.00275087
3714	0.00275087
3726	0.00305652
3738	0.00298011
3750	0.00129902
3762	0.00252163
3774	0.00137543
3786	0.00382065
3798	0.00290369
3810	0.00313293
3822	0.00343859
3834	0.00206315
3846	0.00213956
3858	0.00244522
3870	0.00206315
3882	0.0011462
3894	0.0023688
3906	0.00106978
3918	0.00252163
3930	0.00252163
3942	0.00259804
3954	0.00137543
3966	0.00328576
