Infrared Spectrum: 1,3-Benzenedicarboxylic acid, dimethyl ester
Formula: C 10 H 10 O 4
CAS: 1459-93-4
Origin: Sadtler Research Labs Under US-EPA Contract
1/CM	ABSORBANCE
450	0
462	0.0239242
474	0.0418172
486	0.0305587
498	0.0329712
510	0.041214
522	0.0375952
534	0.0402088
546	0.0420182
558	0.0345796
570	0.036389
582	0.0416161
594	0.0305587
606	0.0377963
618	0.0341775
630	0.0331723
642	0.0377963
654	0.0452349
666	0.0416161
678	0.0450339
690	0.0426213
702	0.0562923
714	0.18496
726	0.242861
738	0.25231
750	0.0723758
762	0.0450339
774	0.0386004
786	0.036389
798	0.0498589
810	0.0621226
822	0.050261
834	0.0408119
846	0.0480495
858	0.0570965
870	0.0508641
882	0.0424203
894	0.041013
906	0.0388015
918	0.0414151
930	0.0486526
942	0.0480495
954	0.0472453
966	0.0607153
978	0.0749894
990	0.151185
1002	0.171088
1014	0.0755925
1026	0.0488537
1038	0.045838
1050	0.0542819
1062	0.0900677
1074	0.19059
1086	0.287694
1098	0.379772
1110	0.226778
1122	0.236227
1134	0.283874
1146	0.189182
1158	0.171692
1170	0.208483
1182	0.143344
1194	0.188981
1206	0.18094
1218	0.280858
1230	1.06071
1242	2.01044
1254	0.723155
1266	0.273018
1278	0.262362
1290	0.424605
1302	0.656007
1314	0.564934
1326	0.184156
1338	0.10394
1350	0.0830312
1362	0.0607153
1374	0.0528746
1386	0.0568955
1398	0.0579007
1410	0.0679529
1422	0.0904698
1434	0.223561
1446	0.239443
1458	0.0834333
1470	0.0743863
1482	0.0659424
1494	0.0530756
1506	0.0442297
1518	0.0436265
1530	0.0398067
1542	0.0392036
1554	0.0450339
1566	0.0508641
1578	0.0554881
1590	0.0579007
1602	0.0613184
1614	0.0711696
1626	0.0460391
1638	0.0418172
1650	0.0484516
1662	0.0492558
1674	0.0468433
1686	0.0472453
1698	0.072979
1710	0.12525
1722	0.120425
1734	0.293323
1746	1.87272
1758	0.73361
1770	0.15782
1782	0.116807
1794	0.0999189
1806	0.0556892
1818	0.0383994
1830	0.0351827
1842	0.0359869
1854	0.0345796
1866	0.0325691
1878	0.0331723
1890	0.0307597
1902	0.0313629
1914	0.0341775
1926	0.0392036
1938	0.0373942
1950	0.0367911
1962	0.0379973
1974	0.0353837
1986	0.0313629
1998	0.0291514
2010	0.0283472
2022	0.027543
2034	0.0305587
2046	0.0333733
2058	0.0325691
2070	0.031765
2082	0.031765
2094	0.032167
2106	0.0327702
2118	0.0311618
2130	0.0297545
2142	0.0299556
2154	0.0289503
2166	0.0281462
2178	0.0271409
2190	0.0265378
2202	0.0263368
2214	0.0263368
2226	0.0251305
2238	0.0249295
2250	0.0255326
2262	0.0249295
2274	0.0253315
2286	0.0257336
2298	0.0259347
2310	0.0253315
2322	0.0253315
2334	0.0253315
2346	0.0249295
2358	0.0247284
2370	0.0239242
2382	0.0255326
2394	0.0253315
2406	0.0253315
2418	0.0249295
2430	0.0245274
2442	0.0245274
2454	0.0243263
2466	0.0243263
2478	0.0243263
2490	0.0243263
2502	0.0235221
2514	0.0245274
2526	0.0251305
2538	0.0257336
2550	0.0259347
2562	0.0245274
2574	0.0243263
2586	0.0249295
2598	0.0255326
2610	0.0257336
2622	0.0243263
2634	0.0233211
2646	0.0233211
2658	0.0245274
2670	0.0239242
2682	0.0239242
2694	0.0243263
2706	0.0239242
2718	0.0249295
2730	0.0249295
2742	0.0249295
2754	0.0247284
2766	0.0245274
2778	0.0247284
2790	0.0253315
2802	0.0253315
2814	0.0267389
2826	0.0291514
2838	0.0371931
2850	0.0657414
2862	0.0480495
2874	0.0371931
2886	0.0406109
2898	0.0518694
2910	0.059509
2922	0.063932
2934	0.0566944
2946	0.0751905
2958	0.230195
2970	0.200441
2982	0.0651383
2994	0.0709685
3006	0.082428
3018	0.0677518
3030	0.0703654
3042	0.0633289
3054	0.0512662
3066	0.0478485
3078	0.0667466
3090	0.063932
3102	0.041013
3114	0.0355848
3126	0.031966
3138	0.0299556
3150	0.0283472
3162	0.0281462
3174	0.0287493
3186	0.0283472
3198	0.027543
3210	0.0271409
3222	0.0263368
3234	0.0263368
3246	0.0259347
3258	0.0259347
3270	0.0263368
3282	0.0259347
3294	0.0259347
3306	0.0265378
3318	0.0261357
3330	0.0267389
3342	0.0271409
3354	0.0265378
3366	0.027543
3378	0.0263368
3390	0.0263368
3402	0.0265378
3414	0.0263368
3426	0.0263368
3438	0.027342
3450	0.0271409
3462	0.0285482
3474	0.036389
3486	0.0313629
3498	0.0259347
3510	0.0243263
3522	0.0261357
3534	0.0263368
3546	0.0255326
3558	0.0247284
3570	0.0257336
3582	0.0267389
3594	0.0259347
3606	0.0253315
3618	0.027342
3630	0.0287493
3642	0.0261357
3654	0.0247284
3666	0.0277441
3678	0.0293524
3690	0.0267389
3702	0.0279451
3714	0.0293524
3726	0.0289503
3738	0.0267389
3750	0.0309608
3762	0.0289503
3774	0.027543
3786	0.027342
3798	0.0265378
3810	0.0301566
3822	0.0303576
3834	0.0285482
3846	0.0297545
3858	0.0269399
3870	0.0301566
3882	0.0289503
3894	0.0269399
3906	0.0299556
3918	0.0289503
3930	0.0283472
3942	0.0297545
3954	0.0289503
3966	0.0289503
