Infrared Spectrum: Cycloheptanecarboxylic acid
Formula: C 8 H 14 O 2
CAS: 1460-16-8
Origin: Sadtler Research Labs Under US-EPA Contract
1/CM	ABSORBANCE
450	0.0397307
462	0.0245082
474	0.0141569
486	0.0255738
498	0.0277049
510	0.037904
522	0.0695668
534	0.0890516
546	0.133045
558	0.189825
570	0.224227
582	0.240668
594	0.188607
606	0.145984
618	0.13274
630	0.162729
642	0.172166
654	0.0860071
666	0.0470375
678	0.0353162
690	0.0497776
702	0.0748947
714	0.0668268
726	0.0579977
738	0.0627167
750	0.0634778
762	0.0523654
774	0.0321195
786	0.0185714
798	0.0138525
810	0.0202459
822	0.0305972
834	0.0342506
846	0.0299883
858	0.0277049
870	0.0223771
882	0.021007
894	0.0066979
906	0.00928572
918	0.0133958
930	0.0267916
942	0.0394263
954	0.0531265
966	0.0516043
978	0.0345551
990	0.0316628
1002	0.035164
1014	0.0496253
1026	0.0660657
1038	0.0663701
1050	0.0863116
1062	0.124977
1074	0.164251
1086	0.248279
1098	0.569474
1110	0.83739
1122	0.769041
1134	0.568256
1146	0.458958
1158	0.33185
1170	0.239298
1182	0.213572
1194	0.157857
1206	0.0939228
1218	0.06226
1230	0.051452
1242	0.0526698
1254	0.06089
1266	0.0755036
1278	0.0902694
1290	0.0943795
1302	0.0955973
1314	0.0936184
1326	0.0978807
1338	0.109145
1350	0.121019
1362	0.0986418
1374	0.0869205
1386	0.102143
1398	0.0788525
1410	0.0436886
1422	0.0354684
1434	0.0458197
1446	0.134415
1458	0.199719
1470	0.150855
1482	0.0627167
1494	0.0235949
1506	0.0109602
1518	0.00517565
1530	0.00289228
1542	0.0024356
1554	0.00258783
1566	0.00289228
1578	0.00350118
1590	0.00106558
1602	0.0030445
1614	0.0054801
1626	0.0024356
1638	0.0036534
1650	0.00517565
1662	0.00395785
1674	0.00776347
1686	0.0126347
1698	0.0222249
1710	0.0452108
1722	0.107775
1734	0.211745
1746	0.373408
1758	0.792331
1770	1.44933
1782	0.908935
1794	0.33794
1806	0.147963
1818	0.0639345
1830	0.0313584
1842	0.0175059
1854	0.0100468
1866	0.00700235
1878	0.006089
1890	0.00563232
1902	0.00411008
1914	0.0024356
1926	0.00213115
1938	0.0024356
1950	0.00319673
1962	0.0024356
1974	0.0024356
1986	0.0018267
1998	0.0018267
2010	0.00137002
2022	0.000456675
2034	0.00030445
2046	0.0006089
2058	0.00106558
2070	0.0018267
2082	0.00152225
2094	0.0012178
2106	0.000456675
2118	0.0012178
2130	0.00152225
2142	0.00258783
2154	0.00258783
2166	0.00289228
2178	0.0042623
2190	0.0054801
2202	0.00624123
2214	0.00700235
2226	0.00639345
2238	0.00517565
2250	0.00471898
2262	0.00411008
2274	0.00319673
2286	0.00258783
2298	0.00106558
2310	0.000456675
2322	0.0030445
2334	0.00517565
2346	0.0042623
2358	0.0048712
2370	0.00578455
2382	0.00319673
2394	0.00380562
2406	0.00411008
2418	0.00411008
2430	0.00441452
2442	0.00456675
2454	0.0048712
2466	0.00578455
2478	0.00563232
2490	0.00502342
2502	0.00502342
2514	0.00456675
2526	0.00441452
2538	0.00471898
2550	0.00563232
2562	0.00593678
2574	0.006089
2586	0.006089
2598	0.0066979
2610	0.00745903
2622	0.00867683
2634	0.0103513
2646	0.0114169
2658	0.013548
2670	0.0176581
2682	0.0220726
2694	0.0245082
2706	0.0223771
2718	0.0181148
2730	0.0147658
2742	0.0120258
2754	0.0118736
2766	0.012178
2778	0.0147658
2790	0.019637
2802	0.027096
2814	0.0339462
2826	0.0403396
2838	0.0555621
2850	0.133349
2862	0.370211
2874	0.436125
2886	0.27705
2898	0.243408
2910	0.431558
2922	0.888842
2934	1.46928
2946	1.30594
2958	0.640563
2970	0.222857
2982	0.083876
2994	0.0436886
3006	0.0289228
3018	0.0211593
3030	0.0167447
3042	0.0144614
3054	0.0127869
3066	0.0118736
3078	0.010808
3090	0.0097424
3102	0.00928572
3114	0.00882905
3126	0.00822015
3138	0.00837237
3150	0.00745903
3162	0.00745903
3174	0.0079157
3186	0.00745903
3198	0.00761125
3210	0.00745903
3222	0.00715457
3234	0.00639345
3246	0.00624123
3258	0.006089
3270	0.00517565
3282	0.00502342
3294	0.0048712
3306	0.0042623
3318	0.00441452
3330	0.00319673
3342	0.00289228
3354	0.00274005
3366	0.00334895
3378	0.00350118
3390	0.00380562
3402	0.00319673
3414	0.00380562
3426	0.00411008
3438	0.00289228
3450	0.00213115
3462	0.0024356
3474	0.0024356
3486	0.00350118
3498	0.00563232
3510	0.00898128
3522	0.0120258
3534	0.0129391
3546	0.0138525
3558	0.0481031
3570	0.439474
3582	0.430949
3594	0.0363818
3606	0.0120258
3618	0.0115691
3630	0.00745903
3642	0.0024356
3654	0.00578455
3666	0.00091335
3678	0.0085246
3690	0.0054801
3702	0.00197892
3714	0.00471898
3726	0.00441452
3738	0.00867683
3750	0.0066979
3762	0.0042623
3774	0.0042623
3786	0.0042623
3798	0.0024356
3810	0.00441452
3822	0.0085246
3834	0.00411008
3846	0.00213115
3858	0.00654567
3870	0.00639345
3882	0.0066979
3894	0.00822015
3906	0.0066979
3918	0.0024356
3930	0.00700235
3942	0.00776347
3954	0.00593678
3966	0.00167447
