Infrared Spectrum: Benzenamine, 2,4,6-tribromo-
Formula: C 6 H 4 Br 3 N
CAS: 147-82-0
Origin: Sadtler Research Labs Under US-EPA Contract
1/CM	ABSORBANCE
450	0.0389473
462	0.0444839
474	0.0583254
486	0.0461067
498	0.0416201
510	0.0323606
522	0.0250103
534	0.0312151
546	0.0461067
558	0.0289241
570	0.0188054
582	0.00658667
594	0.0165144
606	0.0194736
618	0.0274922
630	0.0325515
642	0.0525024
654	0.0766536
666	0.123715
678	0.221656
690	0.0331243
702	0.0490659
714	0.0512615
726	0.160944
738	0.167149
750	0.0504978
762	0.0466795
774	0.0402837
786	0.0338879
798	0.032647
810	0.0218601
822	0.0171826
834	0.0283513
846	0.105578
858	0.16018
870	0.0526934
882	0.0273967
894	0.0229102
906	0.0189963
918	0.0166099
930	0.0184236
942	0.0147007
954	0.0168008
966	0.0113596
978	0.0142234
990	0.0105959
1002	0.00983228
1014	0.00925952
1026	0.0144143
1038	0.0287332
1050	0.0468704
1062	0.0932634
1074	0.0445794
1086	0.0752217
1098	0.0929771
1110	0.0233875
1122	0.00964136
1134	0.00448657
1146	0.00639575
1158	0.00658667
1170	0.0141279
1182	0.0179463
1194	0.0201418
1206	0.0149871
1218	0.0304514
1230	0.0512615
1242	0.0171826
1254	0.0156553
1266	0.0168008
1278	0.0448657
1290	0.0401882
1302	0.00935498
1314	0.00820947
1326	0.00735034
1338	0.00868677
1350	0.0125051
1362	0.0192827
1374	0.0448657
1386	0.0998501
1398	0.041811
1410	0.0647212
1422	0.0410474
1434	0.0636712
1446	0.197505
1458	0.95459
1470	0.152257
1482	0.0286377
1494	0.0170872
1506	0.0194736
1518	0.0209055
1530	0.0529797
1542	0.149298
1554	0.0976546
1566	0.147866
1578	0.0539343
1590	0.0614756
1602	0.104814
1614	0.279313
1626	0.194259
1638	0.061762
1650	0.0201418
1662	0.0134597
1674	0.0122188
1686	0.0134597
1698	0.0143188
1710	0.0105959
1722	0.0209055
1734	0.0305469
1746	0.012696
1758	0.00887769
1770	0.00763672
1782	0.00553662
1794	0.00639575
1806	0.00391382
1818	0.00429565
1830	0.0053457
1842	0.00496387
1854	0.00505933
1866	0.00315015
1878	0.00496387
1890	0.00525024
1902	0.00458203
1914	0.00630029
1926	0.005823
1938	0.00668213
1950	0.00687305
1962	0.00649121
1974	0.00515479
1986	0.00515479
1998	0.00544116
2010	0.00601392
2022	0.00525024
2034	0.00572754
2046	0.00630029
2058	0.005823
2070	0.00620483
2082	0.00696851
2094	0.005823
2106	0.00639575
2118	0.00715942
2130	0.00630029
2142	0.00458203
2154	0.00486841
2166	0.00391382
2178	0.0037229
2190	0.00400928
2202	0.00324561
2214	0.00381836
2226	0.00391382
2238	0.00391382
2250	0.00429565
2262	0.0053457
2274	0.00477295
2286	0.00591846
2298	0.00849585
2310	0.00973682
2322	0.0123142
2334	0.0125051
2346	0.0131733
2358	0.0158462
2370	0.0125051
2382	0.00639575
2394	0.00400928
2406	0.00505933
2418	0.00496387
2430	0.00400928
2442	0.00505933
2454	0.00486841
2466	0.00505933
2478	0.00467749
2490	0.00544116
2502	0.00658667
2514	0.00735034
2526	0.00458203
2538	0.00343652
2550	0.00315015
2562	0.0053457
2574	0.00505933
2586	0.00343652
2598	0.00400928
2610	0.00400928
2622	0.00286377
2634	0.00305469
2646	0.00229102
2658	0.00305469
2670	0.00257739
2682	0.00276831
2694	0.00257739
2706	0.00324561
2718	0.00343652
2730	0.00410474
2742	0.00448657
2754	0.00467749
2766	0.00381836
2778	0.00353198
2790	0.00477295
2802	0.00505933
2814	0.00696851
2826	0.00754126
2838	0.00601392
2850	0.00486841
2862	0.00439111
2874	0.00458203
2886	0.005823
2898	0.00553662
2910	0.0042002
2922	0.00276831
2934	0.00152734
2946	0.00295923
2958	0.00171826
2970	0.00286377
2982	0.00353198
2994	0.0021001
3006	0.00315015
3018	0.0021001
3030	0.00343652
3042	0.00286377
3054	0.00295923
3066	0.00467749
3078	0.00630029
3090	0.00763672
3102	0.00658667
3114	0.00630029
3126	0.00735034
3138	0.00725488
3150	0.00754126
3162	0.0079231
3174	0.00849585
3186	0.00696851
3198	0.00553662
3210	0.00763672
3222	0.00677759
3234	0.00735034
3246	0.00811401
3258	0.00916406
3270	0.00801856
3282	0.00754126
3294	0.00859131
3306	0.00773218
3318	0.00696851
3330	0.00658667
3342	0.00725488
3354	0.00782764
3366	0.00925952
3378	0.0148916
3390	0.0310242
3402	0.0834312
3414	0.0872495
3426	0.0459158
3438	0.0137461
3450	0.0127915
3462	0.0165144
3474	0.0262512
3486	0.0422883
3498	0.0983228
3510	0.104337
3522	0.0727398
3534	0.0323606
3546	0.0127915
3558	0.0127915
3570	0.0132688
3582	0.0106914
3594	0.0108823
3606	0.0112642
3618	0.0113596
3630	0.0141279
3642	0.00992774
3654	0.0105959
3666	0.00887769
3678	0.0123142
3690	0.0126006
3702	0.00630029
3714	0.00811401
3726	0.00696851
3738	0.00754126
3750	0.00811401
3762	0.0037229
3774	0.00315015
3786	0.00114551
3798	0.00229102
3810	0.00324561
3822	0.00544116
3834	0.00391382
3846	0.00248193
3858	0.00496387
3870	0.00486841
3882	0.00133643
3894	0.0021001
3906	0.00295923
3918	0.00334106
3930	0.0021001
3942	0.0016228
3954	0.000190918
3966	0.000190918
