Infrared Spectrum: 2-Hydroxy-5-methylbenzophenone
Formula: C 14 H 12 O 2
CAS: 1470-57-1
Origin: Sadtler Research Labs Under US-EPA Contract
1/CM	ABSORBANCE
450	0.00085666
462	0.0160195
474	0.036665
486	0.0327244
498	0.0132782
510	0.0161052
522	0.0314394
534	0.0741868
546	0.0493436
558	0.042833
570	0.0436897
582	0.0319534
594	0.0274988
606	0.0289551
618	0.0316108
630	0.0270705
642	0.037693
654	0.231298
666	0.206369
678	0.0891783
690	0.152828
702	0.335211
714	0.122502
726	0.0866083
738	0.0903776
750	0.16405
762	0.137151
774	0.091577
786	0.11642
798	0.0921766
810	0.0705031
822	0.146146
834	0.13124
846	0.0733301
858	0.184182
870	0.0652775
882	0.0346091
894	0.0349517
906	0.0266421
918	0.036922
930	0.0347804
942	0.0495149
954	0.247489
966	0.157454
978	0.0357227
990	0.0253571
1002	0.0327244
1014	0.0172189
1026	0.0351231
1038	0.0233868
1050	0.0203885
1062	0.0271561
1074	0.0399204
1086	0.0352087
1098	0.0353801
1110	0.0572249
1122	0.0970596
1134	0.162251
1146	0.117791
1158	0.0638212
1170	0.0839527
1182	0.168676
1194	0.166449
1206	0.37179
1218	0.672821
1230	0.432099
1242	0.392265
1254	0.363824
1266	0.166106
1278	0.154713
1290	0.355257
1302	0.480329
1314	0.276701
1326	0.522648
1338	0.471249
1350	0.248346
1362	0.171675
1374	0.133982
1386	0.120275
1398	0.111708
1410	0.0848093
1422	0.0790697
1434	0.0858373
1446	0.121646
1458	0.124216
1470	0.204313
1482	0.504744
1494	0.396634
1506	0.157197
1518	0.0860087
1530	0.0753004
1542	0.0835243
1554	0.082068
1566	0.0968882
1578	0.200116
1590	0.339923
1602	0.264708
1614	0.282526
1626	0.346348
1638	0.791982
1650	0.54021
1662	0.16919
1674	0.0849807
1686	0.0627932
1698	0.0475446
1710	0.0427473
1722	0.046174
1734	0.0312681
1746	0.0227872
1758	0.0259568
1770	0.0293834
1782	0.0286981
1794	0.0183325
1806	0.0206455
1818	0.0149916
1830	0.0123359
1842	0.0131926
1854	0.00976592
1866	0.00873793
1878	0.0080526
1890	0.0123359
1902	0.0169619
1914	0.0184182
1926	0.00770994
1938	0.00719594
1950	0.0117362
1962	0.0107083
1974	0.00770994
1986	0.00359797
1998	0.00411197
2010	0.00334097
2022	0.00394064
2034	0.00368364
2046	0.00299831
2058	0.00291264
2070	0.00445463
2082	0.00513996
2094	0.00334097
2106	0.00197032
2118	0.00111366
2130	0.000342664
2142	0.000685328
2154	0.00102799
2166	0.000942326
2178	0.00119932
2190	0.00111366
2202	0.00102799
2214	0.00042833
2226	0.000256998
2238	0.00102799
2250	0.00274131
2262	0.00325531
2274	0.00342664
2286	0.00368364
2298	0.00368364
2310	0.00513996
2322	0.00573962
2334	0.00462596
2346	0.00693895
2358	0.00496863
2370	0.00642495
2382	0.00633928
2394	0.00351231
2406	0.00394064
2418	0.00513996
2430	0.00548262
2442	0.00496863
2454	0.0045403
2466	0.00436897
2478	0.00436897
2490	0.00531129
2502	0.00616795
2514	0.00693895
2526	0.00753861
2538	0.00839527
2550	0.00899493
2562	0.00796694
2574	0.00899493
2586	0.0107083
2598	0.0114792
2610	0.0104513
2622	0.0108796
2634	0.00976592
2646	0.00942326
2658	0.00959459
2670	0.0108796
2682	0.0129356
2694	0.0143919
2706	0.0156769
2718	0.0171332
2730	0.0180755
2742	0.0181612
2754	0.0185895
2766	0.0160195
2778	0.0171332
2790	0.0180755
2802	0.0199602
2814	0.0216735
2826	0.0221018
2838	0.0235581
2850	0.0268135
2862	0.0390637
2874	0.0603089
2886	0.0620222
2898	0.0517423
2910	0.0563682
2922	0.0788984
2934	0.117362
2946	0.0788984
2958	0.0573962
2970	0.0533699
2982	0.0549119
2994	0.0522563
3006	0.0627932
3018	0.0806117
3030	0.124473
3042	0.135524
3054	0.11068
3066	0.161138
3078	0.167734
3090	0.115992
3102	0.086437
3114	0.0728161
3126	0.0606515
3138	0.0573962
3150	0.0578246
3162	0.0578246
3174	0.0567966
3186	0.0583385
3198	0.0606515
3210	0.0608229
3222	0.0597092
3234	0.0587669
3246	0.0587669
3258	0.0574819
3270	0.0561969
3282	0.0526846
3294	0.0519136
3306	0.0507143
3318	0.0488296
3330	0.0467736
3342	0.044118
3354	0.0409483
3366	0.0382927
3378	0.0363224
3390	0.0343521
3402	0.0319534
3414	0.0294691
3426	0.0270705
3438	0.0247575
3450	0.0224445
3462	0.0204742
3474	0.0184182
3486	0.0163622
3498	0.0150772
3510	0.0129356
3522	0.0119076
3534	0.00993726
3546	0.00959459
3558	0.00950893
3570	0.00865227
3582	0.00865227
3594	0.00942326
3606	0.00565396
3618	0.00394064
3630	0.00385497
3642	0.00436897
3654	0.00471163
3666	0.00239865
3678	0.00179899
3690	0.00145632
3702	0.00188465
3714	0.00222732
3726	0.00334097
3738	0.000942326
3750	0.000342664
3762	0.000685328
3774	0.000770994
3786	0.00102799
3798	0
3810	0.000256998
3822	0.000599662
3834	0
3846	0.00162765
3858	0.00128499
3870	0.000513996
3882	0.00291264
3894	0.00128499
3906	0.00231298
3918	0.00231298
3930	0.00154199
3942	0.00205598
3954	0.00197032
3966	0.00171332
