Infrared Spectrum: 2-Octenoic acid
Formula: C 8 H 14 O 2
CAS: 1470-50-4
Origin: Sadtler Research Labs Under US-EPA Contract
1/CM	ABSORBANCE
450	0.0221687
462	0.0100559
474	0.0241494
486	0.0204165
498	0.0384714
510	0.042509
522	0.0604115
534	0.0748097
546	0.0965213
558	0.133545
570	0.119528
582	0.0975117
594	0.0615542
606	0.0485273
618	0.0713816
630	0.0719149
642	0.082504
654	0.0809042
666	0.0435755
678	0.0323007
690	0.0354242
702	0.052184
714	0.0437279
726	0.0440326
738	0.028187
750	0.0165313
762	0.0194262
774	0.015998
786	0.0137126
798	0.014322
810	0.0160742
822	0.0199594
834	0.0267395
846	0.0281108
858	0.0335196
870	0.0377858
882	0.0390809
894	0.0335958
906	0.0288726
918	0.029025
930	0.0212545
942	0.0262824
954	0.0427375
966	0.0652871
978	0.0849418
990	0.0857036
1002	0.0583546
1014	0.0435755
1026	0.0396903
1038	0.0597259
1050	0.0604877
1062	0.0599544
1074	0.0722196
1086	0.0989591
1098	0.243094
1110	0.398427
1122	0.29444
1134	0.285374
1146	0.300077
1158	0.268386
1170	0.199442
1182	0.119452
1194	0.0871511
1206	0.0652109
1218	0.0580499
1230	0.0628493
1242	0.0682582
1254	0.0773237
1266	0.080828
1278	0.0705436
1290	0.0706198
1302	0.0667346
1314	0.0630779
1326	0.0679535
1338	0.0964451
1350	0.142078
1362	0.165237
1374	0.12806
1386	0.0697056
1398	0.0415948
1410	0.0297868
1422	0.0271204
1434	0.0335196
1446	0.0446421
1458	0.0533267
1470	0.0482226
1482	0.0270443
1494	0.0136364
1506	0.00906554
1518	0.00624684
1530	0.00472322
1542	0.00396141
1554	0.00502795
1566	0.00533267
1578	0.00342814
1590	0.00716101
1602	0.00571357
1614	0.00586594
1626	0.0171407
1638	0.0430423
1650	0.124708
1662	0.170112
1674	0.0393094
1686	0.0224734
1698	0.0265872
1710	0.0489844
1722	0.088827
1734	0.166836
1746	0.402236
1758	0.755868
1770	0.579433
1782	0.263967
1794	0.121356
1806	0.0592688
1818	0.0352718
1830	0.0204165
1842	0.0137126
1854	0.00914172
1866	0.00723719
1878	0.00578976
1890	0.00533267
1902	0.00418995
1914	0.00411377
1926	0.00190452
1938	0.00342814
1950	0.0031996
1962	0.00365669
1974	0.0031996
1986	0.00251397
1998	0.00358051
2010	0.00342814
2022	0.00373287
2034	0.00350433
2046	0.00373287
2058	0.00365669
2070	0.00327578
2082	0.00190452
2094	0.00152362
2106	0.0015998
2118	0.00175216
2130	0.00152362
2142	0.00182834
2154	0.00205689
2166	0.00213307
2178	0.00236161
2190	0.00220925
2202	0.00182834
2214	0.00304724
2226	0.00220925
2238	0.00220925
2250	0.00205689
2262	0.00220925
2274	0.00190452
2286	0.00175216
2298	0.00259015
2310	0.00182834
2322	0.00198071
2334	0.0012189
2346	0.0012189
2358	0.0012189
2370	0.00144744
2382	0.00175216
2394	0.0015998
2406	0.00190452
2418	0.0015998
2430	0.00198071
2442	0.0015998
2454	0.00205689
2466	0.00190452
2478	0.00236161
2490	0.00236161
2502	0.00213307
2514	0.00251397
2526	0.00236161
2538	0.00236161
2550	0.00190452
2562	0.00297106
2574	0.00350433
2586	0.00327578
2598	0.00297106
2610	0.00335196
2622	0.00327578
2634	0.00342814
2646	0.00411377
2658	0.00457086
2670	0.00548503
2682	0.00540885
2694	0.00510413
2706	0.00533267
2718	0.00533267
2730	0.00594212
2742	0.00693247
2754	0.00685629
2766	0.00662775
2778	0.00723719
2790	0.00891318
2802	0.0119604
2814	0.0147791
2826	0.0192738
2838	0.0304724
2850	0.0578214
2862	0.113586
2874	0.150153
2886	0.143906
2898	0.114957
2910	0.138878
2922	0.225496
2934	0.372297
2946	0.354623
2958	0.240961
2970	0.287964
2982	0.15579
2994	0.0588879
3006	0.0361098
3018	0.0279584
3030	0.0234637
3042	0.0201118
3054	0.0191214
3066	0.0183596
3078	0.0140935
3090	0.0104368
3102	0.00799901
3114	0.0076181
3126	0.00662775
3138	0.00624684
3150	0.00540885
3162	0.00548503
3174	0.00525649
3186	0.00571357
3198	0.00487558
3210	0.0044185
3222	0.00365669
3234	0.00327578
3246	0.00297106
3258	0.00251397
3270	0.00327578
3282	0.00198071
3294	0.00228543
3306	0.00228543
3318	0.00251397
3330	0.00182834
3342	0.0031996
3354	0.00251397
3366	0.00213307
3378	0.00335196
3390	0.00304724
3402	0.0031996
3414	0.00396141
3426	0.0015998
3438	0.00259015
3450	0.00220925
3462	0.00304724
3474	0.00297106
3486	0.00418995
3498	0.0060183
3510	0.00525649
3522	0.0044185
3534	0.00335196
3546	0.00464704
3558	0.00929408
3570	0.046318
3582	0.294973
3594	0.159294
3606	0.0196547
3618	0.00510413
3630	0.00472322
3642	0.00510413
3654	0.00556121
3666	0.00533267
3678	0.00137126
3690	0.00236161
3702	0.00495176
3714	0.00396141
3726	0.00449468
3738	0.00205689
3750	0.0060183
3762	0.00342814
3774	0.00548503
3786	0.00548503
3798	0.0063992
3810	0.00495176
3822	0.00167598
3834	0.00510413
3846	0.00632302
3858	0.0031996
3870	0.00472322
3882	0.0044185
3894	0.00251397
3906	0.00495176
3918	0.00556121
3930	0.00487558
3942	0.00586594
3954	0.00685629
3966	0.0063992
