Infrared Spectrum: Valeric acid, 2-acetyl-5-chloro-, ethyl ester
Formula: C 9 H 15 Cl O 3
CAS: 14749-45-2
Origin: Sadtler Research Labs Under US-EPA Contract
1/CM	ABSORBANCE
450	0.00190441
462	0.00486125
474	0.00461067
486	0.00952204
498	0.00826914
510	0.0123787
522	0.0140325
534	0.0112761
546	0.00671554
558	0.00536241
570	0.00706636
582	0.0136817
594	0.0184928
606	0.00937169
618	0.00275638
630	0.00270626
642	0.0122283
654	0.0383387
666	0.0502162
678	0.0167387
690	0.00696612
702	0.0109754
714	0.0271629
726	0.0457058
738	0.0534738
750	0.066103
762	0.0342292
774	0.0157865
786	0.0135814
798	0.0170394
810	0.0183425
822	0.0135313
834	0.0114766
846	0.0117271
858	0.0143833
870	0.0170896
882	0.0177912
894	0.0157364
906	0.0137819
918	0.0124789
930	0.0189438
942	0.0286664
954	0.0343796
966	0.0299193
978	0.0249077
990	0.0241559
1002	0.0290172
1014	0.0366849
1026	0.0513188
1038	0.0710144
1050	0.087252
1062	0.0898079
1074	0.0858487
1086	0.0752241
1098	0.0591369
1110	0.0485123
1122	0.0494144
1134	0.0768278
1146	0.130803
1158	0.180067
1170	0.187434
1182	0.137919
1194	0.112811
1206	0.102587
1218	0.0995304
1230	0.0937169
1242	0.0906598
1254	0.0974756
1266	0.102888
1278	0.12093
1290	0.122985
1302	0.106346
1314	0.0962227
1326	0.0809373
1338	0.0803861
1350	0.131204
1362	0.229732
1374	0.188436
1386	0.0947694
1398	0.0655016
1410	0.0711647
1422	0.0781308
1434	0.0812882
1446	0.104642
1458	0.101986
1470	0.0521708
1482	0.0237049
1494	0.0100733
1506	0.0062645
1518	0.00320742
1530	0.00215499
1542	0.00410951
1554	0.00466079
1566	0.00551276
1578	0.00686589
1590	0.00230534
1602	0.00370858
1614	0.00766775
1626	0.0105244
1638	0.00882042
1650	0.00902088
1662	0.0154858
1674	0.0214998
1686	0.0427991
1698	0.0789828
1710	0.15125
1722	0.335827
1734	0.50116
1746	0.352115
1758	0.169442
1770	0.0958719
1782	0.0574831
1794	0.0324251
1806	0.0230534
1818	0.0187434
1830	0.011677
1842	0.00335777
1854	0.000601392
1866	0
1878	0.000200464
1890	0.000801856
1902	0.000601392
1914	0.000601392
1926	0.00105244
1938	0.0015536
1950	0.00190441
1962	0.00225522
1974	0.00200464
1986	0.00215499
1998	0.0022051
2010	0.0025058
2022	0.0028065
2034	0.00290673
2046	0.00300696
2058	0.003458
2070	0.00370858
2082	0.00420974
2094	0.00461067
2106	0.00456056
2118	0.00451044
2130	0.00461067
2142	0.00451044
2154	0.00436009
2166	0.00430998
2178	0.00446032
2190	0.00420974
2202	0.00420974
2214	0.00420974
2226	0.00420974
2238	0.00446032
2250	0.0047109
2262	0.00526218
2274	0.00561299
2286	0.00591369
2298	0.00706636
2310	0.00766775
2322	0.00566311
2334	0.00400928
2346	0.00671554
2358	0.00355824
2370	0.00631462
2382	0.00616427
2394	0.00240557
2406	0.00225522
2418	0.00165383
2430	0.00200464
2442	0.00310719
2454	0.00315731
2466	0.00285661
2478	0.00270626
2490	0.00295684
2502	0.00295684
2514	0.00315731
2526	0.00275638
2538	0.0022051
2550	0.00190441
2562	0.00215499
2574	0.00180418
2586	0.00230534
2598	0.00215499
2610	0.00240557
2622	0.00255592
2634	0.00290673
2646	0.00320742
2658	0.0037587
2670	0.00446032
2682	0.00516195
2694	0.00561299
2706	0.00621438
2718	0.00591369
2730	0.00651508
2742	0.00741717
2754	0.00856984
2766	0.00887053
2778	0.0101234
2790	0.0116269
2802	0.015135
2814	0.0200464
2826	0.0256594
2838	0.0369856
2850	0.0605401
2862	0.0915118
2874	0.117221
2886	0.134361
2898	0.157515
2910	0.184928
2922	0.199261
2934	0.231787
2946	0.279347
2958	0.312674
2970	0.292226
2982	0.202068
2994	0.160171
3006	0.129951
3018	0.0786821
3030	0.0439517
3042	0.028967
3054	0.0232037
3066	0.0201967
3078	0.0172399
3090	0.0139322
3102	0.0106747
3114	0.00892065
3126	0.00646496
3138	0.00566311
3150	0.00511183
3162	0.00461067
3174	0.00466079
3186	0.00441021
3198	0.00415963
3210	0.0037587
3222	0.00360835
3234	0.00355824
3246	0.00315731
3258	0.00300696
3270	0.00325754
3282	0.00260603
3294	0.00275638
3306	0.00265615
3318	0.00255592
3330	0.00275638
3342	0.0028065
3354	0.00300696
3366	0.00320742
3378	0.00385893
3390	0.00335777
3402	0.00390905
3414	0.00420974
3426	0.00606404
3438	0.00861995
3450	0.0101735
3462	0.00836937
3474	0.00486125
3486	0.00380882
3498	0.00310719
3510	0.00315731
3522	0.0025058
3534	0.00255592
3546	0.00310719
3558	0.0015536
3570	0.00350812
3582	0.00275638
3594	0.003458
3606	0.00320742
3618	0.00400928
3630	0.00771786
3642	0.00851972
3654	0.0107248
3666	0.0123285
3678	0.0149346
3690	0.0119777
3702	0.00856984
3714	0.00486125
3726	0.003458
3738	0.00481114
3750	0.00215499
3762	0.00255592
3774	0.0022051
3786	0.00235545
3798	0.00205476
3810	0.00235545
3822	0.00360835
3834	0.0028065
3846	0.00320742
3858	0.00365847
3870	0.00400928
3882	0.00230534
3894	0.00305708
3906	0.00235545
3918	0.00370858
3930	0.0025058
3942	0.00320742
3954	0.00285661
3966	0.00275638
