Infrared Spectrum: 2,5-Dichloro-.alpha.-methylbenzyl alcohol
Formula: C 8 H 8 Cl 2 O
CAS: 1475-12-3
Origin: Sadtler Research Labs Under US-EPA Contract
1/CM	ABSORBANCE
450	0.0379076
462	0.0618911
474	0.0570035
486	0.0225059
498	0.0286438
510	0.10588
522	0.133103
534	0.0428521
546	0.027223
558	0.0297237
570	0.0341566
582	0.0313718
594	0.0278482
606	0.0291553
618	0.058197
630	0.0261432
642	0.00954794
654	0.00346681
666	0.00125033
678	0.00187549
690	0.00318265
702	0.0117644
714	0.0184139
726	0.0107983
738	0.00664946
750	0.00352365
762	0.00159132
774	0.00284165
786	0.00670629
798	0.0380213
810	0.222785
822	0.139411
834	0.0716096
846	0.0375098
858	0.0139809
870	0.0223922
882	0.0584243
894	0.0959909
906	0.131853
918	0.0966161
930	0.0335315
942	0.0213124
954	0.0159701
966	0.0138673
978	0.0160837
990	0.0246087
1002	0.0576855
1014	0.124919
1026	0.14805
1038	0.243529
1050	0.354524
1062	0.214942
1074	0.135206
1086	0.255976
1098	0.563045
1110	0.365209
1122	0.093604
1134	0.120372
1146	0.103607
1158	0.0600156
1170	0.0661536
1182	0.0889436
1194	0.114064
1206	0.0774065
1218	0.0579697
1230	0.0695068
1242	0.114746
1254	0.223808
1266	0.220455
1278	0.0979233
1290	0.0513202
1302	0.0421133
1314	0.0468872
1326	0.0724621
1338	0.107358
1350	0.109972
1362	0.111961
1374	0.133444
1386	0.1755
1398	0.155893
1410	0.0789979
1422	0.0522295
1434	0.0683133
1446	0.147027
1458	0.391693
1470	0.317924
1482	0.0930925
1494	0.0308603
1506	0.0118781
1518	0.00897961
1530	0.00818395
1542	0.00977528
1554	0.0253475
1566	0.0387033
1578	0.0246655
1590	0.0375666
1602	0.0149471
1614	0.0156859
1626	0.0175614
1638	0.00556963
1650	0.00221649
1662	0.00369415
1674	0.00295532
1686	0.00397831
1698	0.00556963
1710	0.0163679
1722	0.0233015
1734	0.0105709
1746	0.0117076
1758	0.00960478
1770	0.00681996
1782	0.00647896
1794	0.00392148
1806	0.00301215
1818	0.00181866
1830	0.00164816
1842	0.00107983
1854	0.00056833
1866	0.00261432
1878	0.0131284
1890	0.0110256
1902	0.00153449
1914	0.000966161
1926	0.00136399
1938	0.000852495
1950	0.000284165
1962	0.000397831
1974	0.000625163
1986	0.00056833
1998	0.000681996
2010	0.000795662
2022	0.000625163
2034	0.000454664
2046	0.000340998
2058	0.000170499
2070	0.000284165
2082	0.000227332
2094	0.000227332
2106	0.000284165
2118	0.00056833
2130	0.000340998
2142	5.6833e-05
2154	0.000170499
2166	0.000625163
2178	0.000852495
2190	0.000511497
2202	0.000511497
2214	0.000340998
2226	0.000170499
2238	0.000113666
2250	0.000227332
2262	0.000681996
2274	0.00221649
2286	0.00284165
2298	0.00363731
2310	0.00437614
2322	0.00358048
2334	0.00312582
2346	0.00397831
2358	0.00352365
2370	0.00369415
2382	0.00318265
2394	0.00107983
2406	0.000795662
2418	0.000681996
2430	0.00102299
2442	0.00142083
2454	0.000966161
2466	0.000966161
2478	0.000966161
2490	0.00113666
2502	0.00170499
2514	0.00164816
2526	0.00142083
2538	0.00102299
2550	0.000852495
2562	0.000852495
2574	0.00113666
2586	0.00176182
2598	0.00227332
2610	0.00261432
2622	0.00238699
2634	0.00250065
2646	0.00255748
2658	0.00215965
2670	0.00204599
2682	0.00176182
2694	0.00176182
2706	0.00238699
2718	0.00267115
2730	0.00335315
2742	0.00272798
2754	0.00278482
2766	0.00295532
2778	0.00312582
2790	0.00386464
2802	0.00528547
2814	0.00710413
2826	0.00869545
2838	0.00909328
2850	0.00943428
2862	0.0139809
2874	0.0249497
2886	0.0315423
2898	0.0318833
2910	0.0376803
2922	0.054105
2934	0.0864998
2946	0.0759857
2958	0.0384191
2970	0.0663241
2982	0.160951
2994	0.156802
3006	0.0437046
3018	0.0132989
3030	0.00892278
3042	0.00608113
3054	0.00494447
3066	0.00807029
3078	0.0186981
3090	0.0138673
3102	0.00727462
3114	0.00426247
3126	0.00397831
3138	0.00329631
3150	0.00244382
3162	0.00193232
3174	0.00159132
3186	0.00159132
3198	0.00164816
3210	0.00187549
3222	0.00176182
3234	0.00136399
3246	0.000113666
3258	0.000454664
3270	0.000284165
3282	0.000113666
3294	0.000511497
3306	0.000795662
3318	0.000738829
3330	0.000738829
3342	0.000738829
3354	0.000909328
3366	0.00136399
3378	0.00170499
3390	0.00142083
3402	0.00215965
3414	0.00215965
3426	0.00210282
3438	0.00187549
3450	0.00142083
3462	0.00125033
3474	0.00153449
3486	0.00102299
3498	0.00153449
3510	0.00136399
3522	0.00136399
3534	0.00159132
3546	0.00153449
3558	0.00164816
3570	0.00210282
3582	0.00329631
3594	0.00380781
3606	0.00687679
3618	0.0128443
3630	0.0290417
3642	0.0664378
3654	0.0993441
3666	0.057856
3678	0.0157427
3690	0.00716096
3702	0.00483081
3714	0.00130716
3726	0.00142083
3738	0.000454664
3750	0
3762	0.000852495
3774	0.000681996
3786	0.000227332
3798	0.000284165
3810	0.000227332
3822	0
3834	0
3846	0
3858	0
3870	0
3882	0.000738829
3894	0.000511497
3906	0.000738829
3918	0.00136399
3930	0.000454664
3942	0.00238699
3954	0.00107983
3966	0.000170499
