Infrared Spectrum: 1,3-Benzenedimethanamine
Formula: C 8 H 12 N 2
CAS: 1477-55-0
Origin: Sadtler Research Labs Under US-EPA Contract
1/CM	ABSORBANCE
450	0.04776
462	0.0326857
474	0.0271635
486	0.00611925
498	0.0239546
510	0.0167906
522	0.0175369
534	0.0196264
546	0.0331335
558	0.0555956
570	0.0579836
582	0.061491
594	0.0506704
606	0.0518644
618	0.0586552
630	0.0539539
642	0.0485809
654	0.0491033
666	0.070446
678	0.104251
690	0.214845
702	0.364692
714	0.36611
726	0.35029
738	0.335738
750	0.39096
762	0.580583
774	0.734011
786	0.730728
798	0.610432
810	0.464839
822	0.341559
834	0.219994
846	0.134922
858	0.0786547
870	0.0738787
882	0.0762667
894	0.0705952
906	0.0517151
918	0.0444765
930	0.0532076
942	0.0302231
954	0.0353723
966	0.055521
978	0.02985
990	0.0299992
1002	0.0302231
1014	0.0490286
1026	0.0757444
1038	0.126191
1050	0.122609
1062	0.0815651
1074	0.06567
1086	0.048357
1098	0.0284321
1110	0.0181339
1122	0.025074
1134	0.0393274
1146	0.0850725
1158	0.101266
1170	0.0455212
1182	0.0261934
1194	0.0219398
1206	0.0185816
1218	0.0195517
1230	0.0211935
1242	0.0265665
1254	0.0281336
1266	0.0261934
1278	0.0216413
1290	0.0177607
1302	0.0279098
1314	0.0439541
1326	0.0622373
1338	0.0882068
1350	0.108803
1362	0.129176
1374	0.173727
1386	0.167608
1398	0.0942514
1410	0.0558195
1422	0.050148
1434	0.0764906
1446	0.0982811
1458	0.0854456
1470	0.0826099
1482	0.0845501
1494	0.0823114
1506	0.030447
1518	0.0288052
1530	0.0239546
1542	0.0252232
1554	0.0297754
1566	0.0449989
1578	0.0747743
1590	0.118206
1602	0.191786
1614	0.268053
1626	0.230815
1638	0.132012
1650	0.0791771
1662	0.0514912
1674	0.03582
1686	0.0210443
1698	0.0132086
1710	0.00813412
1722	0.00798487
1734	0.0117907
1746	0.0129101
1758	0.0142534
1770	0.0156713
1782	0.018507
1794	0.0205965
1806	0.0181339
1818	0.0135071
1830	0.0102983
1842	0.0116415
1854	0.015522
1866	0.0189547
1878	0.0124624
1890	0.00753712
1902	0.00425362
1914	0.006567
1926	0.0141788
1938	0.0150742
1950	0.007164
1962	0.003582
1974	0.00365662
1986	0.00425362
1998	0.00410437
2010	0.0044775
2022	0.00485062
2034	0.00514913
2046	0.00492525
2058	0.00440287
2070	0.00440287
2082	0.00365662
2094	0.00350738
2106	0.00380587
2118	0.00343275
2130	0.00320887
2142	0.00276113
2154	0.00291037
2166	0.00313425
2178	0.002985
2190	0.0026865
2202	0.00313425
2214	0.00305962
2226	0.0032835
2238	0.00276113
2250	0.00253725
2262	0.00313425
2274	0.00313425
2286	0.00313425
2298	0.00350738
2310	0.00410437
2322	0.00470137
2334	0.0062685
2346	0.00641775
2358	0.00485062
2370	0.002985
2382	0.0032835
2394	0.00164175
2406	0.001791
2418	0.00186562
2430	0.00171638
2442	0.0020895
2454	0.002388
2466	0.00291037
2478	0.00305962
2490	0.0032835
2502	0.00320887
2514	0.00343275
2526	0.003582
2538	0.00373125
2550	0.00350738
2562	0.00402975
2574	0.004776
2586	0.00559687
2598	0.00694013
2610	0.00850725
2622	0.008955
2634	0.010149
2646	0.010149
2658	0.0111191
2670	0.0117161
2682	0.0121639
2694	0.0141041
2706	0.0160444
2718	0.019104
2730	0.0233576
2742	0.0285068
2754	0.0317156
2766	0.0308201
2778	0.0320887
2790	0.0388796
2802	0.0544762
2814	0.0802219
2826	0.116564
2838	0.165817
2850	0.234621
2862	0.302007
2874	0.317082
2886	0.286336
2898	0.286859
2910	0.281784
2922	0.253128
2934	0.26962
2946	0.269993
2958	0.182234
2970	0.10843
2982	0.0711176
2994	0.0627596
3006	0.0970125
3018	0.154623
3030	0.213353
3042	0.191115
3054	0.181339
3066	0.187085
3078	0.113654
3090	0.0521629
3102	0.0421631
3114	0.0308201
3126	0.0138056
3138	0.00813412
3150	0.00679088
3162	0.00679088
3174	0.00768637
3186	0.00694013
3198	0.00708938
3210	0.00701475
3222	0.00664162
3234	0.00634312
3246	0.0056715
3258	0.00604462
3270	0.00619387
3282	0.00544763
3294	0.00604462
3306	0.006567
3318	0.00761175
3330	0.0141041
3342	0.0240292
3354	0.0249247
3366	0.013134
3378	0.009552
3390	0.00791025
3402	0.00947737
3414	0.00992512
3426	0.00910425
3438	0.00813412
3450	0.00597
3462	0.00455212
3474	0.00283575
3486	0.00335812
3498	0.0032835
3510	0.00305962
3522	0.00380587
3534	0.00201487
3546	0.00261188
3558	0.00276113
3570	0.00343275
3582	0.0032835
3594	0.00320887
3606	0.00402975
3618	0.0050745
3630	0.00402975
3642	0.00425362
3654	0.004179
3666	0.00462675
3678	0.00320887
3690	0.002985
3702	0.0032835
3714	0.00462675
3726	0.00597
3738	0.00544763
3750	0.00365662
3762	0.00410437
3774	0.005373
3786	0.004776
3798	0.00320887
3810	0.00425362
3822	0.0050745
3834	0.00589537
3846	0.00455212
3858	0.005373
3870	0.00559687
3882	0.00395513
3894	0.008358
3906	0.00604462
3918	0.00276113
3930	0.00574612
3942	0.00597
3954	0.00619387
3966	0.00425362
