Infrared Spectrum: Propanenitrile, 3-(ethylphenylamino)-
Formula: C 11 H 14 N 2
CAS: 148-87-8
Origin: Sadtler Research Labs Under US-EPA Contract
1/CM	ABSORBANCE
450	0.111089
462	0.0373941
474	0.0498067
486	0.0719778
498	0.0450447
510	0.0211562
522	0.0630781
534	0.0608923
546	0.057145
558	0.0417658
570	0.0430149
582	0.0513681
594	0.037316
606	0.0346617
618	0.0272454
630	0.0274796
642	0.0341933
654	0.0339591
666	0.0537882
678	0.0891525
690	0.228112
702	0.209454
714	0.097818
726	0.0911823
738	0.169327
750	0.295327
762	0.161755
774	0.0875131
786	0.071041
798	0.0660447
810	0.0508216
822	0.039658
834	0.0296655
846	0.0344275
858	0.0290409
870	0.0423904
882	0.0416097
894	0.046606
906	0.0611265
918	0.0340372
930	0.0321636
942	0.0366134
954	0.0347398
966	0.044264
978	0.0576134
990	0.0876692
1002	0.134822
1014	0.122019
1026	0.128186
1038	0.140599
1050	0.117725
1062	0.0758811
1074	0.0852492
1086	0.0631562
1098	0.062922
1110	0.0857956
1122	0.152231
1134	0.139115
1146	0.10016
1158	0.142316
1170	0.21687
1182	0.257933
1194	0.191498
1206	0.197588
1218	0.213201
1230	0.185253
1242	0.211952
1254	0.244818
1266	0.269409
1278	0.207814
1290	0.13326
1302	0.114915
1314	0.126312
1326	0.14013
1338	0.187439
1350	0.310551
1362	0.394316
1374	0.337952
1386	0.265584
1398	0.15106
1410	0.0807993
1422	0.0800187
1434	0.0995354
1446	0.0858737
1458	0.120614
1470	0.144034
1482	0.180257
1494	0.520707
1506	0.693235
1518	0.205472
1530	0.0782231
1542	0.0604239
1554	0.0627659
1566	0.0834536
1578	0.149342
1590	0.316484
1602	0.582224
1614	0.282837
1626	0.0926655
1638	0.0476209
1650	0.0309145
1662	0.0263086
1674	0.0264647
1686	0.0238885
1698	0.0263866
1710	0.0208439
1722	0.0235762
1734	0.0281041
1746	0.0224052
1758	0.019751
1770	0.0181115
1782	0.0158476
1794	0.0156915
1806	0.0133495
1818	0.0142863
1830	0.0153792
1842	0.0133495
1854	0.0112416
1866	0.0142082
1878	0.0119443
1890	0.0132714
1902	0.0156915
1914	0.0212342
1926	0.0213904
1938	0.0181115
1950	0.0124907
1962	0.0075725
1974	0.00616729
1986	0.00608923
1998	0.00523049
2010	0.00452789
2022	0.00429369
2034	0.00359108
2046	0.00320075
2058	0.00296655
2070	0.00390335
2082	0.00335688
2094	0.00390335
2106	0.00249814
2118	0.00202974
2130	0.00140521
2142	0.000702603
2154	0.000468402
2166	0.000468402
2178	0.00109294
2190	0.00163941
2202	0.00163941
2214	0.00288848
2226	0.00452789
2238	0.00921191
2250	0.0266208
2262	0.0168625
2274	0.00343495
2286	0.00390335
2298	0.00530856
2310	0.00718216
2322	0.00468402
2334	0.000546469
2346	0.00296655
2358	0.00304461
2370	0.00249814
2382	0.00452789
2394	0.00335688
2406	0.00343495
2418	0.00405948
2430	0.00437175
2442	0.00405948
2454	0.00413755
2466	0.00413755
2478	0.00468402
2490	0.00484015
2502	0.00476209
2514	0.00515242
2526	0.00616729
2538	0.00663569
2550	0.00772863
2562	0.00765057
2574	0.00819704
2586	0.00866544
2598	0.0089777
2610	0.0089777
2622	0.00772863
2634	0.00796283
2646	0.00811897
2658	0.0080409
2670	0.0087435
2682	0.00999258
2694	0.0118662
2706	0.0132714
2718	0.013974
2730	0.0155353
2742	0.0170186
2754	0.0183457
2766	0.0206878
2778	0.0231859
2790	0.0280261
2802	0.0365354
2814	0.0591748
2826	0.0989109
2838	0.132011
2850	0.133573
2862	0.126156
2874	0.13935
2886	0.164019
2898	0.143253
2910	0.129669
2922	0.135993
2934	0.204379
2946	0.250049
2958	0.191889
2970	0.257075
2982	0.390257
2994	0.230063
3006	0.0864202
3018	0.0674499
3030	0.105078
3042	0.146219
3054	0.122175
3066	0.140443
3078	0.172918
3090	0.106171
3102	0.0985206
3114	0.0550372
3126	0.0264647
3138	0.0128811
3150	0.0089777
3162	0.0071041
3174	0.00702603
3186	0.00632343
3198	0.00655763
3210	0.00523049
3222	0.00304461
3234	0.00429369
3246	0.00382528
3258	0.00273234
3270	0.00359108
3282	0.00163941
3294	0.00374722
3306	0.00210781
3318	0.00265428
3330	0.00327881
3342	0.00304461
3354	0.00288848
3366	0.00257621
3378	0.00202974
3390	0.00296655
3402	0.00296655
3414	0.00359108
3426	0.00343495
3438	0.00281041
3450	0.00374722
3462	0.00249814
3474	0.00491822
3486	0.00507436
3498	0.00476209
3510	0.00491822
3522	0.00405948
3534	0.00405948
3546	0.00585502
3558	0.00429369
3570	0.00374722
3582	0.00343495
3594	0.00382528
3606	0.00444982
3618	0.00476209
3630	0.00585502
3642	0.00359108
3654	0.00530856
3666	0.00671376
3678	0.00296655
3690	0.00421562
3702	0.00538662
3714	0.00546469
3726	0.00437175
3738	0.00296655
3750	0.00538662
3762	0.00499629
3774	0.00554276
3786	0.00515242
3798	0.00608923
3810	0.00577696
3822	0.00507436
3834	0.00585502
3846	0.00530856
3858	0.0075725
3870	0.00320075
3882	0.00304461
3894	0.00507436
3906	0.00491822
3918	0.00530856
3930	0.00562082
3942	0.0080409
3954	0.00726023
3966	0.00944611
