Infrared Spectrum: Oxyquinoline
Formula: C 9 H 7 N O
CAS: 148-24-3
Origin: Sadtler Research Labs Under US-EPA Contract
1/CM	ABSORBANCE
450	0.004759
462	0.00521954
474	0.00521954
486	0.00521954
498	0
510	0.105542
522	0.0582593
534	0.0350784
546	0.047897
558	0.0517349
570	0.0894998
582	0.129568
594	0.0968686
606	0.10063
618	0.201643
630	0.307186
642	0.227741
654	0.0711547
666	0.0256372
678	0.040912
690	0.0581058
702	0.0309335
714	0.00867365
726	0.0129721
738	0.0329292
750	0.130719
762	0.159273
774	0.0582593
786	0.126804
798	0.226743
810	0.0945659
822	0.175469
834	0.363372
846	0.231963
858	0.15152
870	0.248005
882	0.128186
894	0.038686
906	0.0211085
918	0.0204176
930	0.0286307
942	0.0323919
954	0.0157354
966	0.0145073
978	0.0184219
990	0.0157354
1002	0.0155051
1014	0.0158889
1026	0.0191127
1038	0.0216458
1050	0.0239485
1062	0.0300891
1074	0.0388395
1086	0.0415261
1098	0.0499695
1110	0.0420634
1122	0.0383022
1134	0.127342
1146	0.201259
1158	0.199648
1170	0.194812
1182	0.0912653
1194	0.0461316
1206	0.071999
1218	0.0949496
1230	0.0757601
1242	0.146224
1254	0.234189
1266	0.270342
1278	0.339654
1290	0.249771
1302	0.182761
1314	0.409427
1326	0.725517
1338	0.574994
1350	0.129875
1362	0.0299356
1374	0.0329292
1386	0.0503532
1398	0.124118
1410	0.172168
1422	0.382869
1434	0.43399
1446	0.177464
1458	0.216381
1470	0.179383
1482	0.0968686
1494	0.114369
1506	0.169405
1518	0.40628
1530	0.478893
1542	0.439593
1554	0.734958
1566	0.604392
1578	0.14845
1590	0.0465153
1602	0.0550355
1614	0.102472
1626	0.194274
1638	0.185217
1650	0.0906512
1662	0.0564939
1674	0.0521954
1686	0.0506603
1698	0.0310102
1710	0.0161959
1722	0.0102856
1734	0.0134326
1746	0.0243323
1758	0.019343
1770	0.0156586
1782	0.019036
1794	0.0308567
1806	0.0317011
1818	0.0200338
1830	0.0165797
1842	0.0127418
1854	0.01397
1866	0.0154284
1878	0.0181916
1890	0.0170403
1902	0.00905744
1914	0.0106694
1926	0.0217225
1938	0.0204944
1950	0.0228739
1962	0.0379952
1974	0.0284005
1986	0.0208782
1998	0.01965
2010	0.0118975
2022	0.00836662
2034	0.0076758
2046	0.00729201
2058	0.00521954
2070	0.00575685
2082	0.00483575
2094	0.00552658
2106	0.00752228
2118	0.00683146
2130	0.00921096
2142	0.00798283
2154	0.00575685
2166	0.00614064
2178	0.00537306
2190	0.00690822
2202	0.00921096
2214	0.00790607
2226	0.00921096
2238	0.00729201
2250	0.00560333
2262	0.00698498
2274	0.00713849
2286	0.00683146
2298	0.00736877
2310	0.0100553
2322	0.011744
2334	0.0112834
2346	0.0132791
2358	0.0135094
2370	0.0132791
2382	0.0169635
2394	0.0138164
2406	0.021262
2418	0.0173473
2430	0.0124348
2442	0.0105926
2454	0.00798283
2466	0.00752228
2478	0.00752228
2490	0.00836662
2502	0.00997854
2514	0.00959475
2526	0.00944123
2538	0.00921096
2550	0.00982502
2562	0.0105926
2574	0.0116672
2586	0.0125116
2598	0.0119742
2610	0.0108229
2622	0.00959475
2634	0.00821311
2646	0.0108229
2658	0.0119742
2670	0.0112067
2682	0.0135862
2694	0.0118975
2706	0.0102856
2718	0.00967151
2730	0.00821311
2742	0.00805959
2754	0.00836662
2766	0.00821311
2778	0.00828986
2790	0.00744553
2802	0.00898069
2814	0.00798283
2826	0.00713849
2838	0.00898069
2850	0.00744553
2862	0.00974827
2874	0.00867365
2886	0.00898069
2898	0.0119742
2910	0.0100553
2922	0.0146608
2934	0.0126651
2946	0.0129721
2958	0.0138164
2970	0.0135094
2982	0.0174241
2994	0.0185754
3006	0.0202641
3018	0.0254837
3030	0.0257907
3042	0.0246393
3054	0.0282469
3066	0.0446732
3078	0.093875
3090	0.128109
3102	0.201797
3114	0.268346
3126	0.194812
3138	0.107615
3150	0.0623275
3162	0.0408353
3174	0.0226436
3186	0.01397
3198	0.0173473
3210	0.0234879
3222	0.0319313
3234	0.0286307
3246	0.0148911
3258	0.0140467
3270	0.0106694
3282	0.00875041
3294	0.00898069
3306	0.0052963
3318	0.00713849
3330	0.00644767
3342	0.00805959
3354	0.00744553
3366	0.00491251
3378	0.00951799
3390	0.00905744
3402	0.00698498
3414	0.00921096
3426	0.00790607
3438	0.0118975
3450	0.012051
3462	0.0214922
3474	0.0560333
3486	0.159043
3498	0.432071
3510	0.415875
3522	0.167179
3534	0.0975594
3546	0.0595642
3558	0.0297821
3570	0.0181149
3582	0.0115137
3594	0.012051
3606	0.0102856
3618	0.0112834
3630	0.014277
3642	0.00660119
3654	0.0111299
3666	0.00828986
3678	0.00729201
3690	0.0105158
3702	0.00544982
3714	0.0101321
3726	0.00683146
3738	0.0104391
3750	0.0155051
3762	0.0166565
3774	0.0198036
3786	0.0131256
3798	0.00798283
3810	0.00798283
3822	0.00683146
3834	0.00729201
3846	0.00468224
3858	0.00460548
3870	0.00552658
3882	0.00422169
3894	0.00775256
3906	0.00744553
3918	0.0105926
3930	0.00997854
3942	0.00460548
3954	0.00644767
3966	0.00514279
