Infrared Spectrum: Benzaldehyde, 2-hydroxy-3-methoxy-
Formula: C 8 H 8 O 3
CAS: 148-53-8
Origin: Sadtler Research Labs Under US-EPA Contract
1/CM	ABSORBANCE
450	0.00336327
462	0.00524998
474	0.00336327
486	0.00410155
498	0.00270702
510	0.000902341
522	0.0191132
534	0.0246093
546	0.015996
558	0.00762888
570	0.00377343
582	0.0195234
594	0.0162421
606	0.0149296
618	0.0143554
630	0.0191953
642	0.0228046
654	0.0173085
666	0.015996
678	0.0383085
690	0.109183
702	0.164636
714	0.175874
726	0.213855
738	0.227964
750	0.109922
762	0.055617
774	0.0511053
786	0.0469217
798	0.0191132
810	0.00984372
822	0.0144375
834	0.0432303
846	0.0682498
858	0.031664
870	0.0113203
882	0.0121406
894	0.0155039
906	0.0165703
918	0.013125
930	0.015914
942	0.0412616
954	0.117386
966	0.104097
978	0.0270702
990	0.013125
1002	0.0136171
1014	0.0178828
1026	0.0328124
1038	0.0536483
1050	0.0530741
1062	0.0625897
1074	0.0887575
1086	0.082031
1098	0.0483163
1110	0.029039
1122	0.0365858
1134	0.0470038
1146	0.0378163
1158	0.0451991
1170	0.0492186
1182	0.0522537
1194	0.0778474
1206	0.149871
1218	0.206964
1230	0.20598
1242	0.336901
1254	0.666338
1266	0.77749
1278	0.51253
1290	0.310733
1302	0.194906
1314	0.138878
1326	0.0990114
1338	0.0780115
1350	0.0784216
1362	0.082031
1374	0.11189
1386	0.204093
1398	0.162093
1410	0.087363
1422	0.0919568
1434	0.141996
1446	0.294573
1458	0.436487
1470	0.338132
1482	0.269636
1494	0.163816
1506	0.0570936
1518	0.0347811
1530	0.0259218
1542	0.0152578
1554	0.0187031
1566	0.0228866
1578	0.0429022
1590	0.0707928
1602	0.0657068
1614	0.0671834
1626	0.0586522
1638	0.0645584
1650	0.124113
1662	0.298019
1674	0.561994
1686	0.454534
1698	0.167917
1710	0.149214
1722	0.0706287
1734	0.0283007
1746	0.0200976
1758	0.0175546
1770	0.0174726
1782	0.0147656
1794	0.00902341
1806	0.00869529
1818	0.0071367
1830	0.00434764
1842	0.00492186
1854	0.00623436
1866	0.00566014
1878	0.00574217
1890	0.00705467
1902	0.00902341
1914	0.0082031
1926	0.00459374
1938	0.00303515
1950	0.00270702
1962	0.0036914
1974	0.0036914
1986	0.00426561
1998	0.00524998
2010	0.00426561
2022	0.00278905
2034	0.00278905
2046	0.00295312
2058	0.00221484
2070	0.0013125
2082	0.00229687
2094	0.00328124
2106	0.00467577
2118	0.0047578
2130	0.00377343
2142	0.00221484
2154	0.00278905
2166	0.00352733
2178	0.0036914
2190	0.00328124
2202	0.00278905
2214	0.00303515
2226	0.00221484
2238	0.00180468
2250	0.000738279
2262	0.000574217
2274	0.0010664
2286	0.00311718
2298	0.00771091
2310	0.0102539
2322	0.00943356
2334	0.0071367
2346	0.00910544
2358	0.0102539
2370	0.00795701
2382	0.0058242
2394	0.000328124
2406	0.00082031
2418	0.00180468
2430	0.00278905
2442	0.00270702
2454	0.00270702
2466	0.00278905
2478	0.00336327
2490	0.00385546
2502	0.00467577
2514	0.00574217
2526	0.0068906
2538	0.00746482
2550	0.00738279
2562	0.00828513
2574	0.00828513
2586	0.00779294
2598	0.00861326
2610	0.00836716
2622	0.00836716
2634	0.00836716
2646	0.0082031
2658	0.00885935
2670	0.00935153
2682	0.00992575
2694	0.0118945
2706	0.0150937
2718	0.0194413
2730	0.0296132
2742	0.0488084
2754	0.0480702
2766	0.0298593
2778	0.0213281
2790	0.0207538
2802	0.0260859
2814	0.0404413
2826	0.0956481
2838	0.203519
2850	0.153562
2862	0.0648045
2874	0.0404413
2886	0.0342069
2898	0.03716
2910	0.0429842
2922	0.0499569
2934	0.0659529
2946	0.0981911
2958	0.0841638
2970	0.0584881
2982	0.0536483
2994	0.05291
3006	0.0651326
3018	0.0631639
3030	0.042328
3042	0.0404413
3054	0.0524998
3066	0.0666092
3078	0.0643943
3090	0.0471678
3102	0.0378983
3114	0.0357655
3126	0.0352733
3138	0.0366679
3150	0.0395389
3162	0.0426561
3174	0.0463475
3186	0.0492186
3198	0.0496288
3210	0.0496288
3222	0.047578
3234	0.0462655
3246	0.0442967
3258	0.0431483
3270	0.0418358
3282	0.0413436
3294	0.0389647
3306	0.03716
3318	0.0360116
3330	0.0354374
3342	0.0347811
3354	0.0312538
3366	0.0267421
3378	0.0232148
3390	0.0217382
3402	0.0215742
3414	0.018457
3426	0.0173906
3438	0.0163242
3450	0.0148476
3462	0.0136171
3474	0.0129609
3486	0.0129609
3498	0.0123047
3510	0.0107461
3522	0.010664
3534	0.0100078
3546	0.0109922
3558	0.0191953
3570	0.0421639
3582	0.0538123
3594	0.0227226
3606	0.00779294
3618	0.00451171
3630	0.00155859
3642	0.00410155
3654	0.00328124
3666	0.00262499
3678	0.00082031
3690	0.00139453
3702	0.00278905
3714	0.00188671
3726	0.00278905
3738	0.00123047
3750	0.000328124
3762	0.00180468
3774	0.00229687
3786	0.00262499
3798	0.00270702
3810	0.00180468
3822	0.0013125
3834	0.00172265
3846	0.00311718
3858	0.00311718
3870	0.00278905
3882	0.00393749
3894	0.00360936
3906	0.00418358
3918	0.00492186
3930	0.00483983
3942	0.00483983
3954	0
3966	0.000328124
