Infrared Spectrum: m-Xylene, 2-methoxy-5-nitro-,
Formula: C 9 H 11 N O 3
CAS: 14804-39-8
Origin: Sadtler Research Labs Under US-EPA Contract
1/CM	ABSORBANCE
450	0.00114409
462	0.012233
474	0.0565885
486	0.0219137
498	0.0437395
510	0.0233219
522	0.0577326
534	0.0286023
546	0.0223538
558	0.00484039
570	0.0347628
582	0.0351148
594	0.0204176
606	0.0166333
618	0.0169854
630	0.00915273
642	0.0278982
654	0.012233
666	0.0214737
678	0.037227
690	0.0948715
702	0.0895911
714	0.0230578
726	0.0218257
738	0.0953116
750	0.0682934
762	0.114497
774	0.0513961
786	0.038107
798	0.163517
810	0.0536843
822	0.0223538
834	0.0234099
846	0.0195376
858	0.0181294
870	0.0190975
882	0.038107
894	0.1064
906	0.0778862
918	0.037403
930	0.0645091
942	0.0724298
954	0.0446195
966	0.0303624
978	0.0366109
990	0.063013
1002	0.141779
1014	0.322282
1026	0.243603
1038	0.0575566
1050	0.0359069
1062	0.0302744
1074	0.0467317
1086	0.104552
1098	0.28171
1110	0.178566
1122	0.0565005
1134	0.0338827
1146	0.0365229
1158	0.0436515
1170	0.0764781
1182	0.104464
1194	0.130074
1206	0.213505
1218	0.358629
1230	0.40624
1242	0.180062
1254	0.0730458
1266	0.119514
1278	0.186839
1290	0.12365
1302	0.113177
1314	0.110097
1326	0.174254
1338	0.387935
1350	0.714353
1362	0.823834
1374	0.29984
1386	0.115201
1398	0.0597568
1410	0.0944315
1422	0.158853
1434	0.122682
1446	0.110537
1458	0.160877
1470	0.271854
1482	0.268333
1494	0.168709
1506	0.159469
1518	0.271062
1530	0.537811
1542	0.647908
1554	0.509297
1566	0.271238
1578	0.137467
1590	0.12629
1602	0.0825506
1614	0.0469957
1626	0.0331786
1638	0.0212977
1650	0.0171614
1662	0.0146092
1674	0.0136411
1686	0.0109129
1698	0.0132891
1710	0.0116169
1722	0.0132011
1734	0.0108249
1746	0.0161933
1758	0.0236739
1770	0.024818
1782	0.0171614
1794	0.00950476
1806	0.0075686
1818	0.00765661
1830	0.00572046
1842	0.00413633
1854	0.00545643
1866	0.00607248
1878	0.00695255
1890	0.00844867
1902	0.00985678
1914	0.00932874
1926	0.0103848
1938	0.00792063
1950	0.00730458
1962	0.00686455
1974	0.00783262
1986	0.00651252
1998	0.00748059
2010	0.0107369
2022	0.0153132
2034	0.012585
2046	0.00580846
2058	0.00334427
2070	0.0037843
2082	0.00422434
2094	0.0025522
2106	0.00308025
2118	0.00290423
2130	0.00211217
2142	0.0024642
2154	0.00325626
2166	0.00272822
2178	0.0025522
2190	0.00176014
2202	0.00132011
2214	0.00202416
2226	0.00202416
2238	0.00176014
2250	0.00228818
2262	0.00228818
2274	0.00220017
2286	0.00325626
2298	0.00404832
2310	0.0037843
2322	0.00536843
2334	0.00343227
2346	0.0037843
2358	0.00272822
2370	0.00211217
2382	0.00299224
2394	0.00272822
2406	0.0037843
2418	0.00369629
2430	0.00536843
2442	0.00642451
2454	0.0063365
2466	0.00475238
2478	0.00413633
2490	0.00448836
2502	0.00431234
2514	0.00528042
2526	0.00396031
2538	0.00475238
2550	0.00422434
2562	0.00545643
2574	0.00466437
2586	0.00651252
2598	0.00836066
2610	0.00836066
2622	0.00853668
2634	0.00862469
2646	0.00792063
2658	0.00660053
2670	0.00616049
2682	0.00721657
2694	0.00774462
2706	0.00668853
2718	0.00616049
2730	0.00642451
2742	0.00888871
2754	0.00985678
2766	0.00748059
2778	0.00818465
2790	0.0102088
2802	0.0147852
2814	0.0234099
2826	0.0432114
2838	0.0678534
2850	0.0688215
2862	0.0737499
2874	0.0938155
2886	0.0894151
2898	0.0850148
2910	0.0917033
2922	0.118193
2934	0.191063
2946	0.252668
2958	0.204616
2970	0.131042
2982	0.101384
2994	0.0969837
3006	0.0968077
3018	0.0693495
3030	0.0535083
3042	0.0476118
3054	0.0434755
3066	0.0395151
3078	0.0333547
3090	0.0260501
3102	0.0164573
3114	0.012673
3126	0.00968077
3138	0.00739259
3150	0.00695255
3162	0.00448836
3174	0.00589647
3186	0.00457636
3198	0.0050164
3210	0.00440035
3222	0.00316825
3234	0.00572046
3246	0.00422434
3258	0.00360829
3270	0.00325626
3282	0.00360829
3294	0.0037843
3306	0.00325626
3318	0.00334427
3330	0.00352028
3342	0.00528042
3354	0.0050164
3366	0.00360829
3378	0.00281622
3390	0.00281622
3402	0.00572046
3414	0.0037843
3426	0.00440035
3438	0.00396031
3450	0.00422434
3462	0.0050164
3474	0.00404832
3486	0.00528042
3498	0.00440035
3510	0.00440035
3522	0.00396031
3534	0.00184815
3546	0.00536843
3558	0.00484039
3570	0.00440035
3582	0.00308025
3594	0.00739259
3606	0.00492839
3618	0.00325626
3630	0.00721657
3642	0.0050164
3654	0.00668853
3666	0.00387231
3678	0.00316825
3690	0.00607248
3702	0.00272822
3714	0.0037843
3726	0.00325626
3738	0.00396031
3750	0.00800864
3762	0.0050164
3774	0.00563245
3786	0.00475238
3798	0.00466437
3810	0.0062485
3822	0.00325626
3834	0.0025522
3846	0.00422434
3858	0.00651252
3870	0.00792063
3882	0.00352028
3894	0.00237619
3906	0.00132011
3918	0.00352028
3930	0.00316825
3942	0.00193615
3954	0.00827266
3966	0.00404832
