Infrared Spectrum: 1,3-Benzoxathiol-2-one, 5-methoxy-,
Formula: C 8 H 6 O 3 S
CAS: 1483-20-1
Origin: Sadtler Research Labs Under US-EPA Contract
1/CM	ABSORBANCE
450	0.00186096
462	0.00186096
474	0.0046524
486	0.00651335
498	0.00448322
510	0.00194555
522	0.00685171
534	0.00888184
546	0.00414486
558	0.0015226
570	0.00270685
582	0.00879726
594	0.0194555
606	0.0168332
618	0.0120962
630	0.00981232
642	0.0106582
654	0.0113349
666	0.00600582
678	0.000253767
690	0.00101507
702	0.0015226
714	0.0100661
726	0.00659794
738	0.00194555
750	0.00126884
762	0.000169178
774	0.00338356
786	0.0111657
798	0.0267301
810	0.0367962
822	0.0559979
834	0.0768068
846	0.0422945
858	0.0219931
870	0.0100661
882	0.00515993
894	0.00575205
906	0.0157336
918	0.00761301
930	0.00245308
942	0.0030452
954	0.00414486
966	0.00812054
978	0.0180175
990	0.05659
1002	0.144055
1014	0.121385
1026	0.0614962
1038	0.0435633
1050	0.0182712
1062	0.0251229
1074	0.110981
1086	0.101168
1098	0.0315517
1110	0.0213164
1122	0.0262226
1134	0.0148031
1146	0.00702089
1158	0.00515993
1170	0.0069363
1182	0.0143801
1194	0.0207243
1206	0.0844198
1218	0.194216
1230	0.104806
1242	0.047962
1254	0.039926
1266	0.0796828
1278	0.0681787
1290	0.0190325
1302	0.0181866
1314	0.0172562
1326	0.00964315
1338	0.0015226
1350	0.00287603
1362	0.00245308
1374	0.00211473
1386	0.00253767
1398	0.00321438
1410	0.0110812
1422	0.0200476
1434	0.0340048
1446	0.061327
1458	0.0404335
1470	0.102691
1482	0.295808
1494	0.0841661
1506	0.0114195
1518	0.00600582
1530	0.0030452
1542	0.000253767
1554	0.0030452
1566	0.00625959
1578	0.0215702
1590	0.054137
1602	0.0359503
1614	0.0219931
1626	0.0112503
1638	0.00778219
1650	0.00727465
1662	0.0108274
1674	0.0046524
1686	0.00143801
1698	0.00245308
1710	0.00786678
1722	0.00938938
1734	0.00744383
1746	0.0137034
1758	0.0278298
1770	0.0332435
1782	0.143717
1794	0.792345
1806	0.409242
1818	0.0632726
1830	0.0269839
1842	0.0153952
1854	0.0099815
1866	0.00659794
1878	0.00668253
1890	0.0054137
1902	0.00490616
1914	0.00422945
1926	0.00448322
1938	0.00355274
1950	0.0038065
1962	0.00431404
1974	0.00719006
1986	0.0116733
1998	0.0172562
2010	0.015649
2022	0.00735924
2034	0.00515993
2046	0.00473698
2058	0.00482157
2070	0.00592123
2082	0.00651335
2094	0.00456781
2106	0.00422945
2118	0.00355274
2130	0.00287603
2142	0.00177637
2154	0.00143801
2166	0.0015226
2178	0.00118425
2190	0.00101507
2202	0.00126884
2214	0.00143801
2226	0.00084589
2238	0.00143801
2250	0.00169178
2262	0.00211473
2274	0.00143801
2286	0.0022839
2298	0.0030452
2310	0.00422945
2322	0.00439863
2334	0.00279144
2346	0.00448322
2358	0.00397568
2370	0.00287603
2382	0.00397568
2394	0.00169178
2406	0.000507534
2418	0.000422945
2430	0
2442	0.000676712
2454	0.00118425
2466	0.00160719
2478	0.0015226
2490	0.00177637
2502	0.00101507
2514	0.00118425
2526	0.00177637
2538	0.00160719
2550	0.000930479
2562	0.000930479
2574	0.00135342
2586	0.00135342
2598	0.000930479
2610	0.00101507
2622	0.000761301
2634	0.00118425
2646	0.000676712
2658	0.00169178
2670	0.000507534
2682	0.00101507
2694	0.00160719
2706	0.00160719
2718	0.000930479
2730	0.0015226
2742	0.000761301
2754	0.0015226
2766	0.0015226
2778	0.00143801
2790	0.00211473
2802	0.00270685
2814	0.0030452
2826	0.0054137
2838	0.0126038
2850	0.0177637
2862	0.00947397
2874	0.00744383
2886	0.00676712
2898	0.00905102
2910	0.0139572
2922	0.0143801
2934	0.0153106
2946	0.0268147
2958	0.0263072
2970	0.0177637
2982	0.0106582
2994	0.00989691
3006	0.0197092
3018	0.0227544
3030	0.00744383
3042	0.00448322
3054	0.0038065
3066	0.00389109
3078	0.00397568
3090	0.00549829
3102	0.00397568
3114	0.00279144
3126	0.00203014
3138	0.00126884
3150	0.00101507
3162	0.000676712
3174	0.00143801
3186	0.00126884
3198	0.00109966
3210	0.000507534
3222	0.000253767
3234	0.000676712
3246	0.000676712
3258	0.000676712
3270	0.000169178
3282	0.000338356
3294	0.00118425
3306	0.00084589
3318	0.00109966
3330	0.00186096
3342	0.00126884
3354	0.000761301
3366	0.000761301
3378	0.00118425
3390	0.00270685
3402	0.00143801
3414	0.00118425
3426	0.00109966
3438	0.000592123
3450	0.00143801
3462	0.00118425
3474	0.00160719
3486	0.00101507
3498	0.00160719
3510	0.00160719
3522	0.00296061
3534	0.00143801
3546	0.00296061
3558	0.00312979
3570	0.00735924
3582	0.006175
3594	0.00296061
3606	0.00169178
3618	0.00203014
3630	0.00253767
3642	0.00194555
3654	0.00177637
3666	0.00186096
3678	0.00135342
3690	0.00118425
3702	0.000930479
3714	0.00160719
3726	0.00177637
3738	0.00262226
3750	0.00160719
3762	0.00262226
3774	0.00169178
3786	0.00236849
3798	0.00253767
3810	0.00160719
3822	0.00126884
3834	0.00143801
3846	0.00126884
3858	0.00118425
3870	0.00270685
3882	0.00321438
3894	0.00177637
3906	0.00203014
3918	0.0015226
3930	0.00270685
3942	0.00329897
3954	0.000338356
3966	0.00169178
