Infrared Spectrum: 2-Ethylpiperidine
Formula: C 7 H 15 N
CAS: 1484-80-6
Origin: Sadtler Research Labs Under US-EPA Contract
1/CM	ABSORBANCE
450	0.0364959
462	0.00977348
474	0.0105158
486	0.00853633
498	0.0105158
510	0.00903119
522	0.0162067
534	0.0200418
546	0.0277122
558	0.0314236
570	0.0121241
582	0.00482488
594	0.00593832
606	0.00408259
618	0.00569089
630	0.0074229
642	0.00655689
654	0.0113818
666	0.0101446
678	0.0222687
690	0.042558
702	0.0814045
714	0.140169
726	0.170974
738	0.133612
750	0.0752187
762	0.0363722
774	0.0337742
786	0.0252379
798	0.0225161
810	0.0148458
822	0.0139798
834	0.0312999
846	0.055548
858	0.0455271
870	0.023877
882	0.0142272
894	0.0149695
906	0.0252379
918	0.0284544
930	0.0174438
942	0.00915491
954	0.00668061
966	0.00754661
978	0.0136086
990	0.0231347
1002	0.031671
1014	0.0314236
1026	0.0244956
1038	0.0227636
1050	0.0368671
1062	0.0404548
1074	0.0300627
1086	0.0496097
1098	0.0622286
1110	0.094642
1122	0.131262
1134	0.0882088
1146	0.0436714
1158	0.0342691
1170	0.0242481
1182	0.0163304
1194	0.0152169
1206	0.0275884
1218	0.0274647
1230	0.0150932
1242	0.0228873
1254	0.0331556
1266	0.0283307
1278	0.023011
1290	0.0241244
1302	0.0471354
1314	0.0783116
1326	0.119632
1338	0.112704
1350	0.0554243
1362	0.0487437
1374	0.0600018
1386	0.0649504
1398	0.0399599
1410	0.0165778
1422	0.0388465
1434	0.0977348
1446	0.165654
1458	0.163304
1470	0.110354
1482	0.0501046
1494	0.0211553
1506	0.00977348
1518	0.00767033
1530	0.00482488
1542	0.0082889
1554	0.00519603
1566	0.00395888
1578	0.00544346
1590	0.00470117
1602	0.00457745
1614	0.00544346
1626	0.0033403
1638	0.00569089
1650	0.00383516
1662	0.00457745
1674	0.00692804
1686	0.00779404
1698	0.00606203
1710	0.00433002
1722	0.00420631
1734	0.00519603
1746	0.00296916
1758	0.00358773
1770	0.00346402
1782	0.00371145
1794	0.00346402
1806	0.00296916
1818	0.00296916
1830	0.00309287
1842	0.00346402
1854	0.0024743
1866	0.00210315
1878	0.00111343
1890	0.00160829
1902	0.00160829
1914	0.00210315
1926	0.00197944
1938	0.00185572
1950	0.00296916
1962	0.0024743
1974	0.0024743
1986	0.00284544
1998	0.00433002
2010	0.00630946
2022	0.00841262
2034	0.00841262
2046	0.00729918
2058	0.00767033
2070	0.00470117
2082	0.00049486
2094	0.00074229
2106	0.00210315
2118	0.00235058
2130	0.00222687
2142	0.00235058
2154	0.00296916
2166	0.00346402
2178	0.00383516
2190	0.00408259
2202	0.00457745
2214	0.00470117
2226	0.00544346
2238	0.00556717
2250	0.00556717
2262	0.0058146
2274	0.00606203
2286	0.00556717
2298	0.00618575
2310	0.00482488
2322	0.000866005
2334	0.00111343
2346	0.00284544
2358	0
2370	0.0101446
2382	0.0113818
2394	0.00903119
2406	0.00841262
2418	0.0082889
2430	0.00853633
2442	0.00890748
2454	0.00927862
2466	0.0111343
2478	0.0121241
2490	0.0121241
2502	0.0116292
2514	0.0113818
2526	0.0123715
2538	0.0138561
2550	0.0157118
2562	0.0168252
2574	0.0200418
2586	0.0268462
2598	0.030805
2610	0.0317948
2622	0.0285782
2634	0.027341
2646	0.0294442
2658	0.0329082
2670	0.0311762
2682	0.033403
2694	0.0465168
2706	0.0606203
2718	0.0696515
2730	0.0840025
2742	0.09291
2754	0.0887037
2766	0.092044
2778	0.126437
2790	0.188542
2802	0.23877
2814	0.191387
2826	0.127179
2838	0.119014
2850	0.211429
2862	0.343062
2874	0.313989
2886	0.255595
2898	0.256337
2910	0.356918
2922	0.669422
2934	1.13607
2946	1.18445
2958	0.668803
2970	0.439931
2982	0.262647
2994	0.0890748
3006	0.0362485
3018	0.0251141
3030	0.022145
3042	0.0202893
3054	0.0191758
3066	0.0185572
3078	0.0164541
3090	0.0155881
3102	0.0148458
3114	0.0124952
3126	0.0117529
3138	0.0126189
3150	0.0144747
3162	0.0147221
3174	0.0116292
3186	0.0101446
3198	0.0103921
3210	0.0111343
3222	0.0098972
3234	0.00903119
3246	0.00890748
3258	0.00717547
3270	0.00668061
3282	0.00544346
3294	0.00569089
3306	0.00655689
3318	0.00878376
3330	0.00816519
3342	0.00680432
3354	0.00668061
3366	0.00692804
3378	0.0058146
3390	0.00680432
3402	0.00618575
3414	0.00593832
3426	0.00729918
3438	0.0058146
3450	0.00358773
3462	0.00457745
3474	0.00630946
3486	0.0049486
3498	0.0058146
3510	0.00482488
3522	0.00556717
3534	0.00395888
3546	0.00457745
3558	0.00408259
3570	0.00680432
3582	0.0033403
3594	0.00606203
3606	0.00519603
3618	0.00507231
3630	0.00779404
3642	0.00643318
3654	0.00692804
3666	0.00470117
3678	0.00729918
3690	0.00569089
3702	0.00531974
3714	0.00482488
3726	0.0049486
3738	0.0058146
3750	0.00321659
3762	0.00457745
3774	0.00680432
3786	0.0024743
3798	0.00395888
3810	0.000866005
3822	0.0058146
3834	0.00358773
3846	0.000618575
3858	0.00754661
3870	0.00371145
3882	0.00111343
3894	0.0101446
3906	0.00531974
3918	0.00569089
3930	0.0033403
3942	0.000371145
3954	0.0058146
3966	0.00816519
