Infrared Spectrum: 4-Octene, (E)-
Formula: C 8 H 16
CAS: 14850-23-8
Origin: Sadtler Research Labs Under US-EPA Contract
1/CM	ABSORBANCE
450	0
462	0.0609296
474	0.0495657
486	0.0574237
498	0.0535552
510	0.049203
522	0.0546432
534	0.0517418
546	0.0512582
558	0.0530716
570	0.0478732
582	0.0485986
594	0.0519836
606	0.0489613
618	0.0500493
630	0.0502911
642	0.0487195
654	0.0502911
666	0.0506537
678	0.0496866
690	0.0516209
702	0.0515
714	0.0535552
726	0.0569401
738	0.0605669
750	0.0657652
762	0.0724143
774	0.0785798
786	0.074953
798	0.0588744
810	0.0560939
822	0.0562148
834	0.0576655
846	0.059358
858	0.0634683
870	0.0652817
882	0.0702383
894	0.0720516
906	0.0684249
918	0.0670951
930	0.0703591
942	0.0980434
954	0.185811
966	0.284096
978	0.222804
990	0.120408
1002	0.0843826
1014	0.0762829
1026	0.0728979
1038	0.0742277
1050	0.0863169
1062	0.0992523
1074	0.0858333
1086	0.0830528
1098	0.0904272
1110	0.0765246
1122	0.0647981
1134	0.063831
1146	0.0634683
1158	0.0599624
1170	0.0583908
1182	0.0583908
1194	0.0598415
1206	0.0622594
1218	0.0622594
1230	0.0618967
1242	0.0616549
1254	0.0676995
1266	0.0843826
1278	0.0788216
1290	0.0736232
1302	0.076162
1314	0.0755575
1326	0.0780962
1338	0.103846
1350	0.100945
1362	0.0818439
1374	0.0957465
1386	0.12065
1398	0.0911526
1410	0.0719307
1422	0.0774918
1434	0.106869
1446	0.152082
1458	0.187624
1470	0.179041
1482	0.116419
1494	0.0777336
1506	0.0643145
1518	0.0575446
1530	0.0530716
1542	0.0529507
1554	0.0516209
1566	0.0502911
1578	0.0508955
1590	0.0496866
1602	0.0496866
1614	0.0512582
1626	0.053676
1638	0.0589953
1650	0.0547641
1662	0.052588
1674	0.054885
1686	0.0588744
1698	0.0650399
1710	0.0720516
1722	0.0721725
1734	0.060446
1746	0.057061
1758	0.0545223
1770	0.0521045
1782	0.0498075
1794	0.0488404
1806	0.0479941
1818	0.0477523
1830	0.048115
1842	0.0484777
1854	0.0484777
1866	0.0477523
1878	0.0464225
1890	0.0453345
1902	0.0442465
1914	0.0438838
1926	0.043642
1938	0.0435211
1950	0.0432793
1962	0.0434002
1974	0.0434002
1986	0.0437629
1998	0.0435211
2010	0.0437629
2022	0.0443674
2034	0.0448509
2046	0.0453345
2058	0.0446091
2070	0.0442465
2082	0.043642
2094	0.0432793
2106	0.0432793
2118	0.0434002
2130	0.0432793
2142	0.0431584
2154	0.0432793
2166	0.043642
2178	0.0434002
2190	0.0435211
2202	0.0432793
2214	0.0432793
2226	0.0434002
2238	0.0430376
2250	0.0431584
2262	0.0427958
2274	0.0426749
2286	0.0429167
2298	0.042554
2310	0.0432793
2322	0.043642
2334	0.0435211
2346	0.0435211
2358	0.0440047
2370	0.0430376
2382	0.0430376
2394	0.043642
2406	0.0438838
2418	0.043642
2430	0.0430376
2442	0.0421913
2454	0.0417077
2466	0.0409824
2478	0.0406197
2490	0.0408615
2502	0.0412242
2514	0.0415868
2526	0.0424331
2538	0.0431584
2550	0.0435211
2562	0.0430376
2574	0.0431584
2586	0.0440047
2598	0.0449718
2610	0.0449718
2622	0.0453345
2634	0.0455763
2646	0.0466643
2658	0.0487195
2670	0.0512582
2682	0.0517418
2694	0.0507746
2706	0.0518627
2718	0.0531925
2730	0.0560939
2742	0.0602042
2754	0.0589953
2766	0.0579073
2778	0.0606878
2790	0.0670951
2802	0.0735023
2814	0.0825692
2826	0.103484
2838	0.164655
2850	0.291592
2862	0.366665
2874	0.491668
2886	0.581611
2898	0.477523
2910	0.569401
2922	0.772742
2934	1.00292
2946	0.998568
2958	0.884325
2970	1.20892
2982	0.828594
2994	0.357357
3006	0.236344
3018	0.190284
3030	0.165864
3042	0.133344
3054	0.0988897
3066	0.0782171
3078	0.0689084
3090	0.0634683
3102	0.0588744
3114	0.0554894
3126	0.0529507
3138	0.0513791
3150	0.0500493
3162	0.0493239
3174	0.0494448
3186	0.0488404
3198	0.0478732
3210	0.0458181
3222	0.0442465
3234	0.0430376
3246	0.0429167
3258	0.0431584
3270	0.042554
3282	0.0430376
3294	0.0421913
3306	0.0424331
3318	0.0427958
3330	0.0427958
3342	0.0427958
3354	0.0435211
3366	0.0437629
3378	0.0435211
3390	0.043642
3402	0.0429167
3414	0.042554
3426	0.0423122
3438	0.0421913
3450	0.042554
3462	0.0421913
3474	0.0407406
3486	0.0411033
3498	0.0415868
3510	0.0419495
3522	0.041466
3534	0.0411033
3546	0.0417077
3558	0.0413451
3570	0.041466
3582	0.0419495
3594	0.0417077
3606	0.0417077
3618	0.0420704
3630	0.0423122
3642	0.0441256
3654	0.0448509
3666	0.0431584
3678	0.0430376
3690	0.0432793
3702	0.0431584
3714	0.0429167
3726	0.0424331
3738	0.0421913
3750	0.0429167
3762	0.0432793
3774	0.0431584
3786	0.0434002
3798	0.0432793
3810	0.0419495
3822	0.042554
3834	0.0429167
3846	0.0419495
3858	0.0409824
3870	0.041466
3882	0.0413451
3894	0.0415868
3906	0.0420704
3918	0.0418286
3930	0.0419495
3942	0.0421913
3954	0.0430376
3966	0.0419495
