Infrared Spectrum: Carbonic acid, bis(2-ethylhexyl) ester
Formula: C 17 H 34 O 3
CAS: 14858-73-2
Origin: Sadtler Research Labs Under US-EPA Contract
1/CM	ABSORBANCE
450	0.14561
462	0.0278428
474	0.00225752
486	0.0166806
498	0.0165552
510	0.00890468
522	0.00589465
534	0.00125418
546	0.00112876
558	0.00652174
570	0.00614548
582	0.00602006
594	0.00727424
606	0.00539297
618	0.0110368
630	0.00815217
642	0.00677257
654	0.00727424
666	0.00576923
678	0.00589465
690	0.00790133
702	0.0076505
714	0.00965719
726	0.0174331
738	0.0180602
750	0.0151756
762	0.0364966
774	0.0347408
786	0.0535535
798	0.0679766
810	0.0196906
822	0.0181856
834	0.0173077
846	0.012291
858	0.0132943
870	0.015301
882	0.0213211
894	0.0332358
906	0.0416388
918	0.0538043
930	0.0827759
942	0.127425
954	0.134448
966	0.117015
978	0.0993311
990	0.096321
1002	0.0979515
1014	0.0798913
1026	0.0761287
1038	0.0501672
1050	0.0319816
1062	0.0312291
1074	0.0361204
1086	0.0418896
1098	0.0361204
1110	0.0342391
1122	0.0329849
1134	0.0313545
1146	0.0380017
1158	0.0398829
1170	0.0324833
1182	0.0380017
1194	0.0595735
1206	0.113002
1218	0.184615
1230	0.361204
1242	0.839799
1254	1.25418
1266	1.06141
1278	0.572031
1290	0.297241
1302	0.169063
1314	0.117266
1326	0.0772575
1338	0.0718645
1350	0.0622073
1362	0.0602006
1374	0.0709866
1386	0.11852
1398	0.219607
1410	0.0815217
1422	0.0368729
1434	0.0375
1446	0.0650919
1458	0.142977
1470	0.168186
1482	0.0677257
1494	0.0273411
1506	0.0185619
1518	0.0141722
1530	0.0111622
1542	0.0106605
1554	0.00865384
1566	0.00877926
1578	0.0102843
1590	0.0106605
1602	0.0076505
1614	0.00752508
1626	0.00727424
1638	0.00827759
1650	0.00915551
1662	0.00915551
1674	0.0112876
1686	0.0145485
1698	0.0204431
1710	0.0317308
1722	0.0432692
1734	0.0767558
1746	0.241053
1758	0.594356
1770	0.203177
1782	0.129557
1794	0.0490384
1806	0.0260869
1818	0.0169314
1830	0.0106605
1842	0.00602006
1854	0.00476588
1866	0.00376254
1878	0.0027592
1890	0.00263378
1902	0.00213211
1914	0.0013796
1926	0.00238294
1938	0.00175585
1950	0.00100334
1962	0.00062709
1974	0.00062709
1986	0.000501672
1998	0.000752508
2010	0.000376254
2022	0.00163043
2034	0.0013796
2046	0.00163043
2058	0.00188127
2070	0.00175585
2082	0.00163043
2094	0.00112876
2106	0.000877926
2118	0.00125418
2130	0.00112876
2142	0.00150502
2154	0.0013796
2166	0.00225752
2178	0.00263378
2190	0.00250836
2202	0.00250836
2214	0.00301003
2226	0.0027592
2238	0.00225752
2250	0.00175585
2262	0.00100334
2274	0.000752508
2286	0.000752508
2298	0.00062709
2310	0.000250836
2322	0.000376254
2334	0.000125418
2346	0.00413879
2358	0.000752508
2370	0.00338629
2382	0.00413879
2394	0.00238294
2406	0.0013796
2418	0.00150502
2430	0.00125418
2442	0.00100334
2454	0.00100334
2466	0.00062709
2478	0.00163043
2490	0.00188127
2502	0.00213211
2514	0.00188127
2526	0.00188127
2538	0.00200669
2550	0.0013796
2562	0.0013796
2574	0.0027592
2586	0.00326087
2598	0.00401338
2610	0.00413879
2622	0.00464047
2634	0.00539297
2646	0.00539297
2658	0.0062709
2670	0.00702341
2682	0.00777592
2694	0.00802675
2706	0.00852842
2718	0.00940635
2730	0.0104097
2742	0.0131689
2754	0.0132943
2766	0.0121655
2778	0.0125418
2790	0.0139214
2802	0.0179348
2814	0.0238294
2826	0.0314799
2838	0.0455267
2850	0.0815217
2862	0.190761
2874	0.291346
2886	0.277675
2898	0.226379
2910	0.268645
2922	0.38265
2934	0.545192
2946	0.528261
2958	0.432316
2970	0.67224
2982	0.295736
2994	0.117266
3006	0.0583194
3018	0.0368729
3030	0.0277174
3042	0.0210702
3054	0.0166806
3066	0.0144231
3078	0.0124164
3090	0.0106605
3102	0.0105351
3114	0.00865384
3126	0.00802675
3138	0.00840301
3150	0.00727424
3162	0.00727424
3174	0.00564381
3186	0.00551839
3198	0.00514214
3210	0.00464047
3222	0.00401338
3234	0.00301003
3246	0.00225752
3258	0.0013796
3270	0.00175585
3282	0.0035117
3294	0.00100334
3306	0.00225752
3318	0.00263378
3330	0.00263378
3342	0.0027592
3354	0.00200669
3366	0.00163043
3378	0.000501672
3390	0.00238294
3402	0.00188127
3414	0.000877926
3426	0.00112876
3438	0.0013796
3450	0.00200669
3462	0.00263378
3474	0.00175585
3486	0.00238294
3498	0.00338629
3510	0.00313545
3522	0.00376254
3534	0.00338629
3546	0.00288461
3558	0.00338629
3570	0.00438963
3582	0.00213211
3594	0.00438963
3606	0.00476588
3618	0.00313545
3630	0.00501672
3642	0.00413879
3654	0.00476588
3666	0.00225752
3678	0.00413879
3690	0.00426421
3702	0.00526756
3714	0.00514214
3726	0.0035117
3738	0.00451505
3750	0.0048913
3762	0.00551839
3774	0.00413879
3786	0.00752508
3798	0.00526756
3810	0.00388796
3822	0.00714883
3834	0.00639632
3846	0.00464047
3858	0.00476588
3870	0.00551839
3882	0.00388796
3894	0.00714883
3906	0.00514214
3918	0.00689799
3930	0.00388796
3942	0.00376254
3954	0.00664715
3966	0.00602006
