Infrared Spectrum: 2-Naphthaleneethanol
Formula: C 12 H 12 O
CAS: 1485-07-0
Origin: Sadtler Research Labs Under US-EPA Contract
1/CM	ABSORBANCE
450	0.0499866
462	0.0865986
474	0.167104
486	0.0700225
498	0.0203458
510	0.0116704
522	0.00743602
534	0.0109475
546	0.0146655
558	0.00944994
570	0.00593848
582	0.00387292
594	0.0033049
606	0.00407948
618	0.0272654
630	0.0142524
642	0.0168343
654	0.0118253
666	0.00149753
678	0.00108442
690	0.00289178
702	0.00511226
714	0.00970813
726	0.0844814
738	0.270847
750	0.175366
762	0.0446677
774	0.0213269
786	0.0322744
798	0.131318
810	0.291141
822	0.144021
834	0.0766323
846	0.117014
858	0.0749798
870	0.0319645
882	0.0380579
894	0.0387809
906	0.0176605
918	0.0131679
930	0.0233925
942	0.0402784
954	0.0440481
966	0.0377997
978	0.0318613
990	0.0455972
1002	0.0911945
1014	0.155743
1026	0.243478
1038	0.470276
1050	0.478126
1062	0.293361
1074	0.116653
1086	0.057939
1098	0.0362506
1110	0.0321711
1122	0.044771
1134	0.0474562
1146	0.0474562
1158	0.0432218
1170	0.0460103
1182	0.0411046
1194	0.0451841
1206	0.0528783
1218	0.0470431
1230	0.04348
1242	0.0432218
1254	0.0458554
1266	0.0630512
1278	0.052207
1290	0.0344949
1302	0.0332039
1314	0.0369735
1326	0.045494
1338	0.0520521
1350	0.057216
1362	0.0668725
1374	0.0950158
1386	0.117943
1398	0.0669758
1410	0.033617
1422	0.0279367
1434	0.0353727
1446	0.0348563
1458	0.0216367
1470	0.0262843
1482	0.028608
1494	0.0301055
1506	0.106118
1518	0.0394522
1530	0.00278851
1542	0.00325326
1554	0.00351145
1566	0.00284015
1578	0.0116704
1590	0.0302088
1602	0.0602111
1614	0.0215335
1626	0.023599
1638	0.0376448
1650	0.0139942
1662	0.00599012
1674	0.00795241
1686	0.0129097
1698	0.010018
1710	0.00717782
1722	0.0112573
1734	0.0133229
1746	0.0184868
1758	0.017454
1770	0.0127548
1782	0.0137876
1794	0.00996633
1806	0.0084688
1818	0.0101212
1830	0.00599012
1842	0.00444095
1854	0.00325326
1866	0.00123934
1878	0.00237539
1890	0.0119802
1902	0.0219466
1914	0.0199327
1926	0.0141491
1938	0.0209654
1950	0.0093983
1962	0.000774585
1974	0
1986	0.000464751
1998	0.00134261
2010	0.00123934
2022	0.00191064
2034	0.00340817
2046	0.00428604
2058	0.00469915
2070	0.0039762
2082	0.00356309
2094	0.00320162
2106	0.00242703
2118	0.00123934
2130	0.00123934
2142	0.00051639
2154	0.000309834
2166	0.000309834
2178	0.00051639
2190	0.000671307
2202	0.000568029
2214	0.000568029
2226	0.000877863
2238	0.000981141
2250	0.000929502
2262	0.00134261
2274	0.00242703
2286	0.00480243
2298	0.00604176
2310	0.00666143
2322	0.00547373
2334	0.00449259
2346	0.00547373
2358	0.00382129
2370	0.00506062
2382	0.00511226
2394	0.00273687
2406	0.00314998
2418	0.0030467
2430	0.00320162
2442	0.00299506
2454	0.00278851
2466	0.00242703
2478	0.00232375
2490	0.00268523
2502	0.00309834
2514	0.00268523
2526	0.0030467
2538	0.0021172
2550	0.00160081
2562	0.00170409
2574	0.00170409
2586	0.001859
2598	0.00247867
2610	0.00289178
2622	0.00320162
2634	0.00376965
2646	0.0054221
2658	0.0054221
2670	0.00593848
2682	0.00676471
2694	0.00753929
2706	0.0091401
2718	0.0106376
2730	0.011877
2742	0.0128581
2754	0.0140458
2766	0.0149753
2778	0.0155433
2790	0.016886
2802	0.0193646
2814	0.0229794
2826	0.0277818
2838	0.0387292
2850	0.0617602
2862	0.0929502
2874	0.15626
2886	0.204387
2898	0.15249
2910	0.167465
2922	0.246576
2934	0.272499
2946	0.277405
2958	0.251792
2970	0.198036
2982	0.0972879
2994	0.0689381
3006	0.0754962
3018	0.12667
3030	0.134416
3042	0.142679
3054	0.312416
3066	0.39571
3078	0.192562
3090	0.0975461
3102	0.0392973
3114	0.0169376
3126	0.00888191
3138	0.00722946
3150	0.00568029
3162	0.00495734
3174	0.00464751
3186	0.00392456
3198	0.00273687
3210	0.00284015
3222	0.0030467
3234	0.00273687
3246	0.00201392
3258	0.00165245
3270	0.000877863
3282	0.00108442
3294	0.000981141
3306	0.000929502
3318	0.00113606
3330	0.0011877
3342	0.00216884
3354	0.00175573
3366	0.00149753
3378	0.00129097
3390	0.00129097
3402	0.00134261
3414	0.00144589
3426	0.00191064
3438	0.00191064
3450	0.00149753
3462	0.00170409
3474	0.00154917
3486	0.00180737
3498	0.00170409
3510	0.00154917
3522	0.00273687
3534	0.00258195
3546	0.00206556
3558	0.00273687
3570	0.0049057
3582	0.00475079
3594	0.00438931
3606	0.00743602
3618	0.0215335
3630	0.054066
3642	0.0431702
3654	0.0505029
3666	0.0816413
3678	0.0586103
3690	0.0203458
3702	0.00991469
3714	0.00583521
3726	0.0042344
3738	0.00289178
3750	0.00351145
3762	0.00222048
3774	0.000361473
3786	0.00123934
3798	0.000671307
3810	0.000826224
3822	0.001859
3834	0.00247867
3846	0.00113606
3858	0.00170409
3870	0.00237539
3882	0.00216884
3894	0.00258195
3906	0.00294342
3918	0.00335653
3930	0.00371801
3942	0.0030467
3954	0.00268523
3966	0.00299506
