Infrared Spectrum: Hexanoic acid, 2-ethyl-
Formula: C 8 H 16 O 2
CAS: 149-57-5
Origin: Sadtler Research Labs Under US-EPA Contract
1/CM	ABSORBANCE
450	0.011499
462	0.0145251
474	0.0157355
486	0.0192804
498	0.0233439
510	0.0349294
522	0.0405493
534	0.0489358
546	0.0684755
558	0.0906955
570	0.126749
582	0.189172
594	0.162197
606	0.129775
618	0.0919059
630	0.0619911
642	0.0287908
654	0.0157355
666	0.0106345
678	0.00916465
690	0.00907819
702	0.0176376
714	0.0319034
726	0.0533452
738	0.0683891
750	0.0689078
762	0.0481577
774	0.0340648
786	0.0254189
798	0.0176376
810	0.00994278
822	0.0108938
834	0.00492816
846	0.00613859
858	0.00501462
870	0.00691672
882	0.00631151
894	0.00778131
906	0.00769485
918	0.00994278
930	0.0119313
942	0.0215283
954	0.0232575
966	0.0185887
978	0.0101157
990	0.0103751
1002	0.011499
1014	0.0166866
1026	0.0268887
1038	0.0383878
1050	0.0585327
1062	0.103837
1074	0.146202
1086	0.222286
1098	0.385434
1110	0.376875
1122	0.269839
1134	0.207761
1146	0.178884
1158	0.197299
1170	0.187011
1182	0.107209
1194	0.0536046
1206	0.0482441
1218	0.0429701
1230	0.0309523
1242	0.0291367
1254	0.0287044
1266	0.0347565
1278	0.0468608
1290	0.0539504
1302	0.0521348
1314	0.040117
1326	0.0362263
1338	0.0420191
1350	0.0476389
1362	0.0459962
1374	0.0541233
1386	0.0814444
1398	0.0714151
1410	0.0413274
1422	0.023171
1434	0.0227387
1446	0.0428837
1458	0.0879288
1470	0.0976122
1482	0.0417597
1494	0.0132282
1506	0.00769485
1518	0.005274
1530	0.00458233
1542	0.00328544
1554	0.00389065
1566	0.00354482
1578	0.00293961
1590	0.00354482
1602	0.00328544
1614	0.00319898
1626	0.00172918
1638	0.00319898
1650	0.00233439
1662	0.00501462
1674	0.00492816
1686	0.00665734
1698	0.010548
1710	0.02637
1722	0.0654495
1734	0.0910413
1746	0.125366
1758	0.359583
1770	0.86459
1782	0.476303
1794	0.131245
1806	0.080234
1818	0.0408951
1830	0.0177241
1842	0.00951049
1854	0.0071761
1866	0.00510108
1878	0.0038042
1890	0.00371774
1902	0.00354482
1914	0.00233439
1926	0.0019021
1938	0.00207502
1950	0.00164272
1962	0.000951049
1974	0.00103751
1986	0.00138334
1998	0.00103751
2010	0.00164272
2022	0.000345836
2034	0.00172918
2046	0.00121043
2058	0.00138334
2070	0.00138334
2082	0.00138334
2094	0.00086459
2106	0.000691672
2118	0.00086459
2130	0.00086459
2142	0.000778131
2154	0.00086459
2166	0.00121043
2178	0.00224793
2190	0.00276669
2202	0.00250731
2214	0.00233439
2226	0.00224793
2238	0.00224793
2250	0.00181564
2262	0.00121043
2274	0.00138334
2286	0.00164272
2298	0.00172918
2310	0.00268023
2322	0.00164272
2334	0.000605213
2346	0.000605213
2358	0.00198856
2370	0
2382	0.00138334
2394	0.00250731
2406	0.00250731
2418	0.00129688
2430	0.00181564
2442	0.00181564
2454	0.00198856
2466	0.0014698
2478	0.00164272
2490	0.00138334
2502	0.00172918
2514	0.00268023
2526	0.00164272
2538	0.00164272
2550	0.00242085
2562	0.00216147
2574	0.00268023
2586	0.00259377
2598	0.00268023
2610	0.00423649
2622	0.0038042
2634	0.00397711
2646	0.00397711
2658	0.00510108
2670	0.00587921
2682	0.00579275
2694	0.00536046
2706	0.00579275
2718	0.00579275
2730	0.00700318
2742	0.00951049
2754	0.0101157
2766	0.00951049
2778	0.010548
2790	0.012623
2802	0.0146116
2814	0.016946
2826	0.0218741
2838	0.0287044
2850	0.0467743
2862	0.110754
2874	0.198078
2886	0.227647
2898	0.164964
2910	0.152946
2922	0.225226
2934	0.371168
2946	0.488061
2958	0.39849
2970	0.526708
2982	0.363992
2994	0.101849
3006	0.0453045
3018	0.029569
3030	0.0244679
3042	0.0191939
3054	0.0159949
3066	0.0138334
3078	0.0121043
3090	0.0110668
3102	0.010548
3114	0.00959695
3126	0.0086459
3138	0.00838652
3150	0.00743547
3162	0.00760839
3174	0.00752193
3186	0.00778131
3198	0.00613859
3210	0.0048417
3222	0.00570629
3234	0.0048417
3246	0.00432295
3258	0.00328544
3270	0.00233439
3282	0.00138334
3294	0.00103751
3306	0.00224793
3318	0.00164272
3330	0.00138334
3342	0.0014698
3354	0.00224793
3366	0.000778131
3378	0.000345836
3390	0.000259377
3402	0.00086459
3414	0.00138334
3426	0.00129688
3438	0.000951049
3450	0.00138334
3462	0.00207502
3474	0.00121043
3486	0.00103751
3498	0.00268023
3510	0.00319898
3522	0.00752193
3534	0.0086459
3546	0.00916465
3558	0.059138
3570	0.227819
3582	0.174215
3594	0.0269752
3606	0.00579275
3618	0.00233439
3630	0.00415003
3642	0.00311252
3654	0.00285315
3666	0.0014698
3678	0.000432295
3690	0.00129688
3702	0.00285315
3714	0.00389065
3726	0.00328544
3738	0.00371774
3750	0.00328544
3762	0.00103751
3774	0.00302606
3786	0.00415003
3798	0.00440941
3810	0.00319898
3822	0.0014698
3834	0.00423649
3846	0.00449587
3858	0.00665734
3870	0.00518754
3882	0.00371774
3894	0.00293961
3906	0.00432295
3918	0.00587921
3930	0.00440941
3942	0.00397711
3954	0.00181564
3966	0.00345836
