Infrared Spectrum: 3-Buten-2-one, 4-(2,6,6-trimethyl-1-cyclohexen-1-yl)-
Formula: C 13 H 20 O
CAS: 14901-07-6
Origin: Sadtler Research Labs Under US-EPA Contract
1/CM	ABSORBANCE
450	0
462	0.0351262
474	0.0148467
486	0.0532046
498	0.061026
510	0.0352199
522	0.0507691
534	0.0614007
546	0.0464135
558	0.0475375
570	0.0630867
582	0.088284
594	0.055921
606	0.0316605
618	0.0406059
630	0.0415426
642	0.0441654
654	0.036063
666	0.033206
678	0.0368591
690	0.0341895
702	0.0341427
714	0.0332997
726	0.0350326
738	0.0342832
750	0.0322693
762	0.0332529
774	0.0356414
786	0.0343301
798	0.0370933
810	0.0355478
822	0.0366718
834	0.0387325
846	0.0386857
858	0.0380769
870	0.0392477
882	0.0404654
894	0.0424325
906	0.0480995
918	0.0439781
930	0.0422452
942	0.0470692
954	0.0651475
966	0.0920308
978	0.122474
990	0.101164
1002	0.0687069
1014	0.0593868
1026	0.0626652
1038	0.0595741
1050	0.0498324
1062	0.0429477
1074	0.0401376
1086	0.0394351
1098	0.0384984
1110	0.0406528
1122	0.0462261
1134	0.0523615
1146	0.0572324
1158	0.0889397
1170	0.149919
1182	0.118165
1194	0.0850992
1206	0.0889865
1218	0.0754512
1230	0.102709
1242	0.246774
1254	0.252815
1266	0.124441
1278	0.0893612
1290	0.0969953
1302	0.0995244
1314	0.0584501
1326	0.0495983
1338	0.06215
1350	0.103646
1362	0.213895
1374	0.140692
1386	0.0924991
1398	0.060464
1410	0.0501135
1422	0.057326
1434	0.0739056
1446	0.078917
1458	0.100602
1470	0.0961991
1482	0.0565298
1494	0.0389199
1506	0.0370465
1518	0.036906
1530	0.0365781
1542	0.0377022
1554	0.0379364
1566	0.042011
1578	0.0540008
1590	0.089689
1602	0.155492
1614	0.227431
1626	0.142425
1638	0.0733436
1650	0.0606982
1662	0.0640234
1674	0.0981193
1686	0.272252
1698	0.319836
1710	0.239421
1722	0.107439
1734	0.0617285
1746	0.0443059
1758	0.0342364
1770	0.0285694
1782	0.0263681
1794	0.0257593
1806	0.0245884
1818	0.0234175
1830	0.0231365
1842	0.0217314
1854	0.0206542
1866	0.0207479
1878	0.0194834
1890	0.019015
1902	0.0182188
1914	0.0182188
1926	0.0177505
1938	0.0180315
1950	0.0181251
1962	0.017891
1974	0.0179846
1986	0.0173289
1998	0.0177036
2010	0.0172353
2022	0.0167201
2034	0.0155024
2046	0.0149404
2058	0.0156429
2070	0.0135353
2082	0.0133011
2094	0.015315
2106	0.0157366
2118	0.0157834
2130	0.0158302
2142	0.0155024
2154	0.0157366
2166	0.0156429
2178	0.0154087
2190	0.0149404
2202	0.0147062
2214	0.0148935
2226	0.0146125
2238	0.0145188
2250	0.0148467
2262	0.0143783
2274	0.014191
2286	0.0140037
2298	0.0132075
2310	0.0134416
2322	0.0122239
2334	0.0121771
2346	0.01391
2358	0.0123176
2370	0.0168138
2382	0.0162049
2394	0.0142378
2406	0.0138632
2418	0.0137227
2430	0.0133948
2442	0.0134885
2454	0.0131606
2466	0.013348
2478	0.0135822
2490	0.014472
2502	0.0138163
2514	0.0147062
2526	0.0136758
2538	0.0137695
2550	0.0137695
2562	0.013629
2574	0.0132075
2586	0.013629
2598	0.0148467
2610	0.0173289
2622	0.0173758
2634	0.0169543
2646	0.0168606
2658	0.0199985
2670	0.0188745
2682	0.0166264
2694	0.0181251
2706	0.0170479
2718	0.0170948
2730	0.0180783
2742	0.0207479
2754	0.0192492
2766	0.0180783
2778	0.0188277
2790	0.0202327
2802	0.023839
2814	0.0273516
2826	0.0429945
2838	0.0913282
2850	0.0935295
2862	0.129967
2874	0.200688
2886	0.181767
2898	0.156663
2910	0.247055
2922	0.321335
2934	0.363955
2946	0.449194
2958	0.272252
2970	0.303819
2982	0.167622
2994	0.0861764
3006	0.0707677
3018	0.0663184
3030	0.04543
3042	0.0520337
3054	0.0398097
3066	0.0330655
3078	0.0297402
3090	0.0248694
3102	0.0229492
3114	0.0211694
3126	0.0200454
3138	0.0175163
3150	0.0181251
3162	0.0179846
3174	0.0174695
3186	0.0159239
3198	0.0162517
3210	0.01761
3222	0.0156429
3234	0.0172353
3246	0.0166264
3258	0.0158771
3270	0.0152214
3282	0.0162986
3294	0.0150809
3306	0.0149872
3318	0.0166733
3330	0.0160644
3342	0.0165796
3354	0.0160644
3366	0.0181251
3378	0.0180783
3390	0.0168138
3402	0.0179846
3414	0.0154556
3426	0.0150809
3438	0.0145657
3450	0.0150809
3462	0.0155492
3474	0.0145657
3486	0.0140505
3498	0.0149404
3510	0.0141442
3522	0.0135353
3534	0.0146594
3546	0.0143783
3558	0.0159239
3570	0.0168606
3582	0.0168606
3594	0.0153619
3606	0.0142378
3618	0.0183125
3630	0.0145188
3642	0.0156897
3654	0.0162517
3666	0.0189682
3678	0.0155024
3690	0.015315
3702	0.0168606
3714	0.0165328
3726	0.0170011
3738	0.0177505
3750	0.0170011
3762	0.0167669
3774	0.0156897
3786	0.0164859
3798	0.018172
3810	0.0155961
3822	0.0175163
3834	0.0171416
3846	0.017891
3858	0.0194834
3870	0.0171416
3882	0.014472
3894	0.0160176
3906	0.0179378
3918	0.0221998
3930	0.0181251
3942	0.0184998
3954	0.013629
3966	0.0146125
