Infrared Spectrum: Benzene, 1-fluoro-2-nitro-
Formula: C 6 H 4 F N O 2
CAS: 1493-27-2
Origin: Sadtler Research Labs Under US-EPA Contract
1/CM	ABSORBANCE
450	0.013996
462	0.0110666
474	0.0128025
486	0.00867968
498	0.0307044
510	0.0348272
522	0.028209
534	0.040035
546	0.0445919
558	0.012911
570	0.0136705
582	0.00878818
594	0.00184443
606	0.00759472
618	0.00705224
630	0.0081372
642	0.0226757
654	0.113704
666	0.129327
678	0.0476297
690	0.0584793
702	0.027124
714	0.0179018
726	0.0918961
738	0.286429
750	0.272325
762	0.211459
774	0.266683
786	0.0999248
798	0.0569604
810	0.133233
822	0.0952595
834	0.0193123
846	0.0363462
858	0.277641
870	0.279703
882	0.0307044
894	0.0155149
906	0.00943915
918	0.00737773
930	0.0120431
942	0.0244116
954	0.0254966
966	0.0108496
978	0.00748622
990	0.00889667
1002	0.00976464
1014	0.0154064
1026	0.0427474
1038	0.0431814
1050	0.0160574
1062	0.0174679
1074	0.0296194
1086	0.0621682
1098	0.067376
1110	0.0333083
1122	0.0198548
1134	0.0437239
1146	0.0463278
1158	0.0372141
1170	0.028209
1182	0.0138875
1194	0.0161659
1206	0.0187698
1218	0.0215907
1230	0.055116
1242	0.204623
1254	0.274603
1266	0.288599
1278	0.243031
1290	0.0898347
1302	0.0857118
1314	0.0722583
1326	0.0763812
1338	0.259305
1350	0.838349
1362	0.814588
1374	0.2056
1386	0.0661826
1398	0.0391671
1410	0.0389501
1422	0.0342847
1434	0.0320063
1446	0.0374311
1458	0.0516441
1470	0.102637
1482	0.238583
1494	0.326898
1506	0.241838
1518	0.211242
1530	0.38375
1542	0.843014
1554	1.01509
1566	0.616908
1578	0.440711
1590	0.323427
1602	0.604865
1614	0.686454
1626	0.289359
1638	0.0806125
1650	0.040469
1662	0.0234351
1674	0.0141045
1686	0.0150809
1698	0.0108496
1710	0.00933066
1722	0.00933066
1734	0.00292939
1746	0.00368886
1758	0.00390586
1770	0.00141045
1782	0.00401435
1794	0.0111751
1806	0.0192038
1818	0.013345
1830	0.00596728
1842	0.00488232
1854	0.00336338
1866	0.00141045
1878	0.00401435
1890	0.00455683
1902	0.00596728
1914	0.0119346
1926	0.0172509
1938	0.0111751
1950	0.013128
1962	0.0110666
1974	0.0027124
1986	0.00195293
1998	0.00206142
2010	0.00173594
2022	0.00184443
2034	0.00238691
2046	0.00162744
2058	0.00336338
2070	0.00401435
2082	0.00455683
2094	0.00173594
2106	0.00499082
2118	0.0028209
2130	0.00368886
2142	0.00314638
2154	0.00238691
2166	0.000108496
2178	0.00195293
2190	0.000867968
2202	0.00119346
2214	0.0028209
2226	0.0027124
2238	0.00216992
2250	0.00238691
2262	0.00195293
2274	0.00206142
2286	0.00249541
2298	0.00477382
2310	0.0053163
2322	0.00347187
2334	0.0028209
2346	0.00216992
2358	0.0027124
2370	0.00444834
2382	0.0026039
2394	0.00336338
2406	0.00716074
2418	0.00878818
2430	0.00661826
2442	0.00499082
2454	0.00379736
2466	0.00336338
2478	0.00303789
2490	0.00705224
2502	0.00716074
2514	0.0053163
2526	0.00423134
2538	0.00249541
2550	0.00358037
2562	0.00325488
2574	0.00455683
2586	0.0055333
2598	0.0054248
2610	0.00390586
2622	0.00433984
2634	0.00390586
2646	0.00358037
2658	0.00336338
2670	0.00423134
2682	0.00672675
2694	0.0100901
2706	0.0110666
2718	0.00759472
2730	0.0055333
2742	0.00629277
2754	0.00748622
2766	0.00705224
2778	0.00401435
2790	0.00444834
2802	0.00509931
2814	0.0053163
2826	0.00520781
2838	0.00661826
2850	0.00900517
2862	0.0109581
2874	0.0155149
2886	0.0222417
2898	0.0240861
2910	0.0184443
2922	0.014647
2934	0.0116091
2946	0.00835419
2958	0.00726923
2970	0.00672675
2982	0.00585878
2994	0.00477382
3006	0.00423134
3018	0.00564179
3030	0.00933066
3042	0.0136705
3054	0.0167084
3066	0.0224587
3078	0.0378651
3090	0.054682
3102	0.0430729
3114	0.0141045
3126	0.00509931
3138	0.00423134
3150	0.00195293
3162	0.00292939
3174	0.00216992
3186	0.00238691
3198	0.0027124
3210	0.00314638
3222	0.00347187
3234	0.00336338
3246	0.0026039
3258	0.00238691
3270	0.0026039
3282	0.00206142
3294	0.00206142
3306	0.0028209
3318	0.00249541
3330	0.0027124
3342	0.00292939
3354	0.00238691
3366	0.00292939
3378	0.00227842
3390	0.00227842
3402	0.0026039
3414	0.00336338
3426	0.00292939
3438	0.00292939
3450	0.00227842
3462	0.0028209
3474	0.0026039
3486	0.00206142
3498	0.00249541
3510	0.00314638
3522	0.00216992
3534	0.00173594
3546	0.00238691
3558	0.00227842
3570	0.00238691
3582	0.00249541
3594	0.00325488
3606	0.00314638
3618	0.00249541
3630	0.00303789
3642	0.00314638
3654	0.00368886
3666	0.00379736
3678	0.00509931
3690	0.00466533
3702	0.00358037
3714	0.00564179
3726	0.00423134
3738	0.00444834
3750	0.0053163
3762	0.0053163
3774	0.00596728
3786	0.00336338
3798	0.00444834
3810	0.00314638
3822	0.00347187
3834	0.0053163
3846	0.00575029
3858	0.00509931
3870	0.00347187
3882	0.00368886
3894	0.0054248
3906	0.00444834
3918	0.00596728
3930	0.00368886
3942	0.00575029
3954	0.00466533
3966	0.00347187
