Infrared Spectrum: 3-Heptanol, 4-methyl-
Formula: C 8 H 18 O
CAS: 14979-39-6
Origin: Sadtler Research Labs Under US-EPA Contract
1/CM	ABSORBANCE
450	0.00787992
462	0.00808026
474	0.00674468
486	0.00741247
498	0.00654434
510	0.00534232
522	0.00754603
534	0.00808026
546	0.00347251
558	0.00574299
570	0.00353929
582	0.00454097
594	0.00273794
606	0.00647756
618	0.00641078
630	0.00754603
642	0.00293828
654	0.00393996
666	0.00120202
678	0.00367285
690	0.00447419
702	0.00333895
714	0.0041403
726	0.00661112
738	0.00687824
750	0.0100836
762	0.00727891
774	0.00801348
786	0.00727891
798	0.00601011
810	0.00727891
822	0.00814704
834	0.00861449
846	0.00901517
858	0.0101504
870	0.0125545
882	0.0146246
894	0.014491
906	0.0170286
918	0.0183642
930	0.0284479
942	0.0582313
954	0.0908194
966	0.130954
978	0.126212
990	0.0611696
1002	0.0373295
1014	0.0407352
1026	0.0453429
1038	0.0464114
1050	0.0458104
1062	0.0454765
1074	0.0530893
1086	0.062238
1098	0.0633065
1110	0.0518873
1122	0.0442077
1134	0.0448087
1146	0.0488154
1158	0.0417369
1170	0.0292492
1182	0.0242408
1194	0.0273794
1206	0.0376634
1218	0.0488822
1230	0.0520876
1242	0.0458772
1254	0.0389989
1266	0.0341908
1278	0.032321
1290	0.0336566
1302	0.0324546
1314	0.0276465
1326	0.0261774
1338	0.0269119
1350	0.0317868
1362	0.0410691
1374	0.0668458
1386	0.0912869
1398	0.0601011
1410	0.0297834
1422	0.0209018
1434	0.0234394
1446	0.0448755
1458	0.089751
1470	0.101371
1482	0.0523547
1494	0.0180971
1506	0.0106846
1518	0.00787992
1530	0.00601011
1542	0.00681146
1554	0.00547588
1566	0.00440741
1578	0.00487487
1590	0.00307183
1602	0.00367285
1614	0.0028715
1626	0.00327217
1638	0.00367285
1650	0.00273794
1662	0.00280472
1674	0.00227049
1686	0.00333895
1698	0.00313861
1710	0.00440741
1722	0.00854771
1734	0.00861449
1746	0.0054091
1758	0.00307183
1770	0.00293828
1782	0.00207015
1794	0.00220371
1806	0.00133558
1818	0.000868127
1830	0.000534232
1842	0.000534232
1854	0.000868127
1866	0.000601011
1878	0.000601011
1890	0.000400674
1902	0.000400674
1914	0.000601011
1926	0.000734569
1938	0.000734569
1950	0.000734569
1962	0.000601011
1974	0.00066779
1986	0.000267116
1998	0.000133558
2010	0.000734569
2022	0.000534232
2034	0.00106846
2046	0.000801348
2058	0.00113524
2070	0.00100168
2082	0.000467453
2094	6.6779e-05
2106	6.6779e-05
2118	0
2130	0
2142	0
2154	0.000601011
2166	0.000267116
2178	0.000400674
2190	0.000868127
2202	0.000934906
2214	0.000868127
2226	0.000801348
2238	0.000400674
2250	0.000801348
2262	0.000734569
2274	0.000534232
2286	0.000801348
2298	0.000801348
2310	0.000601011
2322	0.000734569
2334	0.00106846
2346	0.0025376
2358	0.00120202
2370	0.00387318
2382	0.00340573
2394	0.00260438
2406	0.0025376
2418	0.00293828
2430	0.00260438
2442	0.00207015
2454	0.00213693
2466	0.0016027
2478	0.00193659
2490	0.00153592
2502	0.00166948
2514	0.00220371
2526	0.00227049
2538	0.00300506
2550	0.00353929
2562	0.00367285
2574	0.00527554
2586	0.00621045
2598	0.00681146
2610	0.00774636
2622	0.00734569
2634	0.00727891
2646	0.00721213
2658	0.0079467
2670	0.00781314
2682	0.00928228
2694	0.0103507
2706	0.0104175
2718	0.0115528
2730	0.0134226
2742	0.0163609
2754	0.0162941
2766	0.0149585
2778	0.0164276
2790	0.0180303
2802	0.0205012
2814	0.0251089
2826	0.0335231
2838	0.0508856
2850	0.094893
2862	0.164543
2874	0.243209
2886	0.320339
2898	0.256431
2910	0.236331
2922	0.303243
2934	0.398871
2946	0.417369
2958	0.418571
2970	0.66779
2982	0.431125
2994	0.135027
3006	0.0535568
3018	0.0331892
3030	0.0265113
3042	0.0224377
3054	0.0172958
3066	0.0146914
3078	0.01389
3090	0.0123541
3102	0.0104175
3114	0.00995007
3126	0.00934906
3138	0.00894839
3150	0.00841415
3162	0.00834738
3174	0.00754603
3186	0.0070118
3198	0.00554266
3210	0.00487487
3222	0.00347251
3234	0.00300506
3246	0.00207015
3258	0.00166948
3270	0.00106846
3282	0.00153592
3294	0.00207015
3306	0.00240404
3318	0.00153592
3330	0.00207015
3342	0.00106846
3354	0.00186981
3366	0.0016027
3378	0.00220371
3390	0.00153592
3402	0.00220371
3414	0.00180303
3426	0.00213693
3438	0.00166948
3450	0.00173625
3462	0.00233727
3474	0.0016027
3486	0.00267116
3498	0.00120202
3510	0.0012688
3522	0.00120202
3534	0.00207015
3546	0.00207015
3558	0.00146914
3570	0.00106846
3582	0.00220371
3594	0.0016027
3606	0.00267116
3618	0.00454097
3630	0.0092155
3642	0.0162941
3654	0.0303177
3666	0.0341908
3678	0.0170286
3690	0.00621045
3702	0.0038064
3714	0.00393996
3726	0.00193659
3738	0.00367285
3750	0.0025376
3762	0.00186981
3774	0.00240404
3786	0.00247082
3798	0.00320539
3810	0.00213693
3822	0.00227049
3834	0.00220371
3846	0.00313861
3858	0.00487487
3870	0.00307183
3882	0.0028715
3894	0.00320539
3906	0.0038064
3918	0.00340573
3930	0.00240404
3942	0.00233727
3954	0.0025376
3966	0.00260438
