Infrared Spectrum: Ethyl 2-bromotetradecanoate
Formula: C 16 H 31 Br O 2
CAS: 14980-92-8
Origin: Sadtler Research Labs Under US-EPA Contract
1/CM	ABSORBANCE
450	0.0304135
462	0.000647095
474	0.00698863
486	0.00608269
498	0.00685921
510	0.00931817
522	0.0128125
534	0.00867107
546	0.00595327
558	0.00957701
570	0.00905933
582	0.00776514
594	0.0107418
606	0.00905933
618	0.00931817
630	0.00828282
642	0.00737688
654	0.00957701
666	0.0179892
678	0.0205776
690	0.0200599
702	0.0242014
714	0.035202
726	0.0339078
738	0.0359785
750	0.0223895
762	0.0173421
774	0.0164362
786	0.0129419
798	0.0155303
810	0.0161774
822	0.0137184
834	0.0121654
846	0.0157891
858	0.0257544
870	0.0226483
882	0.0144949
894	0.0144949
906	0.0159185
918	0.019154
930	0.0217424
942	0.0222601
954	0.0214836
966	0.0198011
978	0.0199305
990	0.0239425
1002	0.0358491
1014	0.0692392
1026	0.121266
1038	0.146761
1050	0.116089
1062	0.0810163
1074	0.0720864
1086	0.081534
1098	0.102888
1110	0.10237
1122	0.124113
1134	0.180151
1146	0.33856
1158	0.340372
1170	0.271133
1182	0.223377
1194	0.189469
1206	0.180798
1218	0.185328
1230	0.190634
1242	0.218589
1254	0.279157
1266	0.300511
1278	0.218459
1290	0.167986
1302	0.155432
1314	0.130066
1326	0.101723
1338	0.0974525
1350	0.0957701
1362	0.0896874
1374	0.135372
1386	0.0824399
1398	0.0570738
1410	0.0465908
1422	0.0474968
1434	0.0682038
1446	0.1091
1458	0.146891
1470	0.131878
1482	0.0645801
1494	0.0396022
1506	0.0220012
1518	0.0116477
1530	0.000905933
1542	0.00362373
1554	0.00931817
1566	0.00918875
1578	0.0133302
1590	0.0147538
1602	0.0164362
1614	0.0154009
1626	0.0138478
1638	0.013589
1650	0.0152714
1662	0.0163068
1674	0.0166951
1686	0.0230366
1698	0.0319665
1710	0.0515088
1722	0.0861931
1734	0.161903
1746	0.372338
1758	0.486486
1770	0.225318
1782	0.103923
1794	0.0467203
1806	0.0244602
1818	0.0128125
1830	0.0100947
1842	0.00983584
1854	0.00944759
1866	0.00880049
1878	0.00892991
1890	0.00905933
1902	0.00828282
1914	0.00711804
1926	0.00595327
1938	0.00595327
1950	0.00491792
1962	0.00452967
1974	0.00465908
1986	0.00414141
1998	0.00452967
2010	0.00517676
2022	0.00530618
2034	0.0047885
2046	0.00452967
2058	0.00362373
2070	0.00375315
2082	0.00375315
2094	0.00349431
2106	0.00297664
2118	0.00245896
2130	0.0020707
2142	0.00129419
2154	0.00103535
2166	0.00103535
2178	0.000647095
2190	0.000647095
2202	0.000388257
2214	0.000258838
2226	0
2238	0.000129419
2250	0.000388257
2262	0.000517676
2274	0.00142361
2286	0.00220012
2298	0.00375315
2310	0.0047885
2322	0.00569444
2334	0.00491792
2346	0.00556502
2358	0.0047885
2370	0.00414141
2382	0.00440025
2394	0.00168245
2406	0.0020707
2418	0.00181187
2430	0.00168245
2442	0.00168245
2454	0.0020707
2466	0.00181187
2478	0.00220012
2490	0.00194129
2502	0.00220012
2514	0.00297664
2526	0.00349431
2538	0.00375315
2550	0.00375315
2562	0.00375315
2574	0.00491792
2586	0.0047885
2598	0.00530618
2610	0.00621211
2622	0.00711804
2634	0.00776514
2646	0.00918875
2658	0.0102241
2670	0.0119065
2682	0.0130713
2694	0.0133302
2706	0.0130713
2718	0.0134596
2730	0.0152714
2742	0.016048
2754	0.0174716
2766	0.0185069
2778	0.0222601
2790	0.0267897
2802	0.0340372
2814	0.0433554
2826	0.0596622
2838	0.0922757
2850	0.197752
2862	0.485321
2874	0.375962
2886	0.268933
2898	0.271392
2910	0.42993
2922	0.76396
2934	1.29419
2946	0.834235
2958	0.463708
2970	0.414917
2982	0.259873
2994	0.193611
3006	0.115183
3018	0.0738982
3030	0.0471085
3042	0.0340372
3054	0.0262721
3066	0.0214836
3078	0.0170833
3090	0.0138478
3102	0.0116477
3114	0.0102241
3126	0.00944759
3138	0.00880049
3150	0.00789456
3162	0.00724746
3174	0.00685921
3186	0.00647095
3198	0.00517676
3210	0.00452967
3222	0.00336489
3234	0.00297664
3246	0.0020707
3258	0.00181187
3270	0.00194129
3282	0.00194129
3294	0.00168245
3306	0.00194129
3318	0.00129419
3330	0.00194129
3342	0.00220012
3354	0.00232954
3366	0.00232954
3378	0.00220012
3390	0.00194129
3402	0.00245896
3414	0.00245896
3426	0.00194129
3438	0.00245896
3450	0.0027178
3462	0.0027178
3474	0.00297664
3486	0.00388257
3498	0.00349431
3510	0.00194129
3522	0.00155303
3534	0.00103535
3546	0.000517676
3558	0.000388257
3570	0.00194129
3582	0.00375315
3594	0.00129419
3606	0.00129419
3618	0.00103535
3630	0.00155303
3642	0.00142361
3654	0.000776514
3666	0.000776514
3678	0.00129419
3690	0.00116477
3702	0.00194129
3714	0.00168245
3726	0.00284722
3738	0.00258838
3750	0.00284722
3762	0.000905933
3774	0.00116477
3786	0
3798	0.00245896
3810	0.00194129
3822	0.00181187
3834	0.00168245
3846	0.00194129
3858	0.0027178
3870	0.00155303
3882	0.00116477
3894	0.00194129
3906	0.00258838
3918	0.00103535
3930	0.00142361
3942	0.00142361
3954	0.00232954
3966	0.00232954
