Infrared Spectrum: Benzene, 1,4-dimethoxy-
Formula: C 8 H 10 O 2
CAS: 150-78-7
Origin: Sadtler Research Labs Under US-EPA Contract
1/CM	ABSORBANCE
450	0
462	0.0167306
474	0.0243547
486	0.00614162
498	0.0408735
510	0.0540039
522	0.0559099
534	0.0588748
546	0.04045
558	0.0345201
570	0.0311317
582	0.0171542
594	0.0141893
606	0.00868298
618	0.010589
630	0.0063534
642	0.00910654
654	0.0074123
666	0.0074123
678	0.0131304
690	0.0324023
702	0.141469
714	0.30221
726	0.135327
738	0.0400264
750	0.0264725
762	0.017366
774	0.021178
786	0.0281667
798	0.0393911
810	0.0982659
822	0.222581
834	0.276796
846	0.156717
858	0.0628987
870	0.0292256
882	0.0199073
894	0.0158835
906	0.0118597
918	0.0133421
930	0.0150364
942	0.0152482
954	0.0177895
966	0.0264725
978	0.0400264
990	0.0601455
1002	0.0868298
1014	0.129821
1026	0.232323
1038	0.490906
1050	0.668166
1062	0.356002
1074	0.103137
1086	0.0730641
1098	0.0893712
1110	0.0840767
1122	0.0535803
1134	0.0400264
1146	0.0419324
1158	0.0705227
1170	0.176625
1182	0.303481
1194	0.234864
1206	0.318094
1218	0.725135
1230	1.75587
1242	1.7942
1254	0.768973
1266	0.287385
1278	0.196108
1290	0.173024
1302	0.126009
1314	0.0751819
1326	0.049133
1338	0.0292256
1350	0.0264725
1362	0.0199073
1374	0.0180013
1386	0.0216016
1398	0.0258372
1410	0.0463798
1422	0.0688285
1434	0.144646
1446	0.245029
1458	0.22724
1470	0.283362
1482	0.22724
1494	0.457021
1506	1.86578
1518	1.42528
1530	0.189543
1542	0.0595102
1554	0.0412971
1566	0.0406618
1578	0.0434149
1590	0.0506154
1602	0.0472269
1614	0.0410853
1626	0.0330377
1638	0.0262607
1650	0.0148246
1662	0.0199073
1674	0.0146128
1686	0.00825942
1698	0.00360026
1710	0.0141893
1722	0.0160953
1734	0.00868298
1746	0.0110126
1758	0.0101654
1770	0.0084712
1782	0.0095301
1794	0.00804764
1806	0.0120715
1818	0.0158835
1830	0.0158835
1842	0.0186366
1854	0.0224487
1866	0.0194838
1878	0.021178
1890	0.0139775
1902	0.00995366
1914	0.00783586
1926	0.00931832
1938	0.0122832
1950	0.0186366
1962	0.0247783
1974	0.0245665
1986	0.0194838
1998	0.0158835
2010	0.0171542
2022	0.0182131
2034	0.0228722
2046	0.0307081
2058	0.0368497
2070	0.033673
2082	0.0273196
2094	0.0196955
2106	0.0108008
2118	0.00592984
2130	0.0042356
2142	0.00296492
2154	0.00275314
2166	0.00296492
2178	0.00254136
2190	0.00254136
2202	0.00338848
2214	0.00275314
2226	0.0031767
2238	0.00338848
2250	0.00444738
2262	0.00614162
2274	0.0074123
2286	0.00910654
2298	0.0118597
2310	0.0146128
2322	0.0165188
2334	0.0131304
2346	0.0118597
2358	0.00698874
2370	0.00465916
2382	0.0063534
2394	0.00465916
2406	0.00444738
2418	0.00444738
2430	0.00402382
2442	0.0042356
2454	0.00592984
2466	0.00974188
2478	0.0133421
2490	0.0129186
2502	0.0108008
2514	0.0084712
2526	0.00868298
2538	0.00974188
2550	0.00889476
2562	0.00762408
2574	0.00656518
2586	0.00656518
2598	0.00783586
2610	0.0074123
2622	0.00614162
2634	0.00592984
2646	0.00614162
2658	0.00508272
2670	0.00444738
2682	0.00487094
2694	0.00465916
2706	0.00571806
2718	0.00592984
2730	0.00656518
2742	0.00762408
2754	0.0095301
2766	0.012495
2778	0.0169424
2790	0.0241429
2802	0.0368497
2814	0.0569688
2826	0.100807
2838	0.236346
2850	0.222369
2862	0.11182
2874	0.0893712
2886	0.0969952
2898	0.134057
2910	0.207121
2922	0.242912
2934	0.277855
2946	0.341389
2958	0.293315
2970	0.19865
2982	0.14994
2994	0.218557
3006	0.327412
3018	0.156717
3030	0.0747583
3042	0.088524
3054	0.106525
3066	0.0881005
3078	0.0700992
3090	0.0542157
3102	0.0465916
3114	0.0408735
3126	0.0277432
3138	0.017366
3150	0.0122832
3162	0.00910654
3174	0.00804764
3186	0.0063534
3198	0.00656518
3210	0.00550628
3222	0.00508272
3234	0.00465916
3246	0.00338848
3258	0.00360026
3270	0.00360026
3282	0.00360026
3294	0.00402382
3306	0.00338848
3318	0.00338848
3330	0.00444738
3342	0.00402382
3354	0.00402382
3366	0.00381204
3378	0.00381204
3390	0.00487094
3402	0.00487094
3414	0.0052945
3426	0.00402382
3438	0.00381204
3450	0.00465916
3462	0.00444738
3474	0.00508272
3486	0.0052945
3498	0.00656518
3510	0.00487094
3522	0.00614162
3534	0.00465916
3546	0.00444738
3558	0.00508272
3570	0.00550628
3582	0.00465916
3594	0.00592984
3606	0.00592984
3618	0.00550628
3630	0.00571806
3642	0.00592984
3654	0.00614162
3666	0.00550628
3678	0.00444738
3690	0.00762408
3702	0.00487094
3714	0.00487094
3726	0.00360026
3738	0.00592984
3750	0.0052945
3762	0.00592984
3774	0.00614162
3786	0.00783586
3798	0.0063534
3810	0.0042356
3822	0.00487094
3834	0.00402382
3846	0.00677696
3858	0.00444738
3870	0.00762408
3882	0.00804764
3894	0.00698874
3906	0.00804764
3918	0.0052945
3930	0.00296492
3942	0.00550628
3954	0.00656518
3966	0.00783586
