Infrared Spectrum: Mequinol
Formula: C 7 H 8 O 2
CAS: 150-76-5
Origin: Sadtler Research Labs Under US-EPA Contract
1/CM	ABSORBANCE
450	0.00547735
462	0.0076494
474	0.0143544
486	0.0232315
498	0.0423078
510	0.0645005
522	0.0587398
534	0.0433466
546	0.0324863
558	0.0271979
570	0.0254036
582	0.0202095
594	0.0184152
606	0.0176597
618	0.0162432
630	0.0169987
642	0.017943
654	0.0156765
666	0.0151099
678	0.0177542
690	0.017282
702	0.0214372
714	0.0450464
726	0.166115
738	0.168381
750	0.0401357
762	0.0238926
774	0.0247425
786	0.0320141
798	0.0475962
810	0.0937759
822	0.167626
834	0.152421
846	0.08471
858	0.0335251
870	0.0219094
882	0.0186985
894	0.0145433
906	0.0133156
918	0.0134101
930	0.0133156
942	0.0161487
954	0.0176597
966	0.0200206
978	0.0236093
990	0.0280478
1002	0.0369249
1014	0.0573233
1026	0.113324
1038	0.190007
1050	0.181791
1062	0.0941537
1074	0.051657
1086	0.0650671
1098	0.07045
1110	0.0556234
1122	0.0400413
1134	0.0426855
1146	0.0696945
1158	0.215789
1170	0.477568
1182	0.472846
1194	0.242703
1206	0.149305
1218	0.225327
1230	0.560106
1242	0.762673
1254	0.394086
1266	0.133534
1278	0.077155
1290	0.0878264
1302	0.0817824
1314	0.0732831
1326	0.0922649
1338	0.0666725
1350	0.0228538
1362	0.0107658
1374	0.0103881
1386	0.0128434
1398	0.0133156
1410	0.0273867
1422	0.0611007
1434	0.103314
1446	0.0970812
1458	0.0673336
1470	0.0873542
1482	0.0809325
1494	0.177069
1506	0.852294
1518	0.82689
1530	0.117669
1542	0.0233259
1554	0.0162432
1566	0.0182263
1578	0.0211539
1590	0.0219094
1602	0.0325808
1614	0.0309753
1626	0.0155821
1638	0.0118991
1650	0.00311642
1662	0.0094437
1674	0.00462741
1686	0.00339973
1698	0.000472185
1710	0.00708278
1722	0.00708278
1734	0.000377748
1746	0.00283311
1758	0.00396635
1770	0.00302198
1782	0.00519404
1794	0.00349417
1806	0.0076494
1818	0.00934926
1830	0.0086882
1842	0.012749
1854	0.0143544
1866	0.00972701
1878	0.0110491
1890	0.00982145
1902	0.00887708
1914	0.00632728
1926	0.00585509
1938	0.00632728
1950	0.00755496
1962	0.00982145
1974	0.0136934
1986	0.0163376
1998	0.0133156
2010	0.0108603
2022	0.0103881
2034	0.0101992
2046	0.0101992
2058	0.012749
2070	0.0140711
2082	0.0140711
2094	0.0114269
2106	0.00746052
2118	0.00500516
2130	0.00424967
2142	0.00396635
2154	0.00377748
2166	0.00368304
2178	0.00377748
2190	0.00415523
2202	0.00387192
2214	0.00396635
2226	0.00396635
2238	0.00443854
2250	0.00491072
2262	0.0050996
2274	0.00491072
2286	0.0043441
2298	0.00311642
2310	0.00245536
2322	0.00528847
2334	0.00906595
2346	0.00925483
2358	0.00698834
2370	0.00547735
2382	0.00368304
2394	0.00547735
2406	0.00642172
2418	0.00793271
2430	0.00783827
2442	0.00594953
2454	0.00538291
2466	0.00623284
2478	0.00840489
2490	0.0101992
2502	0.00953814
2514	0.00698834
2526	0.00670503
2538	0.00623284
2550	0.00500516
2562	0.00491072
2574	0.00472185
2586	0.00519404
2598	0.00576066
2610	0.00576066
2622	0.00462741
2634	0.00453298
2646	0.00424967
2658	0.00406079
2670	0.0043441
2682	0.00424967
2694	0.00443854
2706	0.00396635
2718	0.00406079
2730	0.0043441
2742	0.00453298
2754	0.00500516
2766	0.00651615
2778	0.00746052
2790	0.00878264
2802	0.0114269
2814	0.0167153
2826	0.0301254
2838	0.0673336
2850	0.0656337
2862	0.0329585
2874	0.0249314
2886	0.027009
2898	0.0391914
2910	0.0602508
2922	0.068278
2934	0.0746997
2946	0.0937759
2958	0.089243
2970	0.0538291
2982	0.0399469
2994	0.0618562
3006	0.103597
3018	0.0861265
3030	0.060723
3042	0.0562845
3054	0.0468408
3066	0.0369249
3078	0.0340918
3090	0.0271034
3102	0.020304
3114	0.0186985
3126	0.0161487
3138	0.0120879
3150	0.00934926
3162	0.00793271
3174	0.00698834
3186	0.00670503
3198	0.00623284
3210	0.00613841
3222	0.00585509
3234	0.00557178
3246	0.00585509
3258	0.00585509
3270	0.00538291
3282	0.0050996
3294	0.00528847
3306	0.00491072
3318	0.00547735
3330	0.00462741
3342	0.0050996
3354	0.00528847
3366	0.00538291
3378	0.00613841
3390	0.0068939
3402	0.0068939
3414	0.00651615
3426	0.00746052
3438	0.00604397
3450	0.00528847
3462	0.0050996
3474	0.00547735
3486	0.0043441
3498	0.0043441
3510	0.00472185
3522	0.00462741
3534	0.00377748
3546	0.00302198
3558	0.00264424
3570	0.00264424
3582	0.00349417
3594	0.00491072
3606	0.00481629
3618	0.00755496
3630	0.017282
3642	0.0613841
3654	0.185191
3666	0.149872
3678	0.0240814
3690	0.00727165
3702	0.00424967
3714	0.00339973
3726	0.00321086
3738	0.00236093
3750	0.0050996
3762	0.00292755
3774	0.00339973
3786	0.00273867
3798	0.00358861
3810	0.00292755
3822	0.00566622
3834	0.00500516
3846	0.00481629
3858	0.00661059
3870	0.00670503
3882	0.00594953
3894	0.00585509
3906	0.00528847
3918	0.00472185
3930	0.00528847
3942	0.00453298
3954	0.0043441
3966	0.00302198
