Infrared Spectrum: Phenol, 3-methoxy-
Formula: C 7 H 8 O 2
CAS: 150-19-6
Origin: Sadtler Research Labs Under US-EPA Contract
1/CM	ABSORBANCE
450	0.0525041
462	0.0408514
474	0.0344223
486	0.00522362
498	0.00120545
510	0.00964361
522	0.0296005
534	0.0289308
546	0.0273236
558	0.0297345
570	0.0254484
582	0.0296005
594	0.0176799
606	0.0115188
618	0.00964361
630	0.0054915
642	0.00508968
654	0.0121884
666	0.0543792
678	0.146395
690	0.126171
702	0.0792919
714	0.0385744
726	0.0415211
738	0.0711216
750	0.143583
762	0.211088
774	0.143047
786	0.0632192
798	0.0345563
810	0.0492896
822	0.0886676
834	0.142645
846	0.119072
858	0.0981773
870	0.054915
882	0.0314757
894	0.0340205
906	0.0492896
918	0.101258
930	0.168897
942	0.195551
954	0.133269
966	0.0376369
978	0.0337526
990	0.0514326
1002	0.0557186
1014	0.0510308
1026	0.107821
1038	0.258904
1050	0.314489
1062	0.209882
1074	0.185372
1086	0.205328
1098	0.252073
1110	0.335651
1122	0.323329
1134	0.624156
1146	1.27416
1158	1.05705
1170	0.612503
1182	0.559999
1194	0.620539
1206	0.620941
1218	0.404764
1230	0.205864
1242	0.116259
1254	0.172915
1266	0.328954
1278	0.530934
1290	0.676526
1302	0.624825
1314	0.447892
1326	0.261583
1338	0.122018
1350	0.0368332
1362	0.0230375
1374	0.0208945
1386	0.0287969
1398	0.0349581
1410	0.0467447
1422	0.0796937
1434	0.193408
1446	0.287433
1458	0.341812
1470	0.488342
1482	0.539238
1494	0.744433
1506	0.583706
1518	0.233322
1530	0.119206
1542	0.0950967
1554	0.1105
1566	0.142243
1578	0.287031
1590	0.733048
1602	1.06294
1614	0.94494
1626	0.630183
1638	0.212829
1650	0.0752737
1662	0.0522362
1674	0.0409853
1686	0.035226
1698	0.0287969
1710	0.0239751
1722	0.0210284
1734	0.0155369
1746	0.0104472
1758	0.00696483
1770	0.00522362
1782	0.00522362
1794	0.00709877
1806	0.00709877
1818	0.00495574
1830	0.00281272
1842	0.00187515
1854	0.00321454
1866	0.0085721
1878	0.0164745
1890	0.0171442
1902	0.015403
1914	0.0112509
1926	0.00616119
1938	0.0048218
1950	0.00401817
1962	0.00334847
1974	0.00348241
1986	0.00294666
1998	0.00267878
2010	0.00428605
2022	0.00495574
2034	0.00535756
2046	0.0054915
2058	0.00535756
2070	0.00696483
2082	0.00924179
2094	0.0085721
2106	0.00522362
2118	0.00348241
2130	0.0024109
2142	0.00187515
2154	0.00227696
2166	0.0024109
2178	0.0030806
2190	0.00522362
2202	0.00817028
2214	0.0107151
2226	0.00924179
2238	0.00562544
2250	0.00254484
2262	0.00120545
2274	0.000535756
2286	0
2298	0.000133939
2310	0.000937573
2322	0.00388423
2334	0.00683089
2346	0.00763452
2358	0.00535756
2370	0.0079024
2382	0.00669695
2394	0.00642907
2406	0.00656301
2418	0.00883997
2430	0.0124563
2442	0.0117866
2454	0.00964361
2466	0.00763452
2478	0.00763452
2490	0.00830422
2502	0.0079024
2514	0.0079024
2526	0.00642907
2538	0.00401817
2550	0.0024109
2562	0.00227696
2574	0.00375029
2586	0.00616119
2598	0.00830422
2610	0.00964361
2622	0.00883997
2634	0.00696483
2646	0.0048218
2658	0.0030806
2670	0.00200908
2682	0.00160727
2694	0.00160727
2706	0.00160727
2718	0.00227696
2730	0.00428605
2742	0.00629513
2754	0.00883997
2766	0.00964361
2778	0.0112509
2790	0.0136618
2802	0.0163406
2814	0.0229036
2826	0.0431284
2838	0.126706
2850	0.168629
2862	0.0948288
2874	0.070318
2886	0.0779525
2898	0.101526
2910	0.142243
2922	0.174656
2934	0.189524
2946	0.267476
2958	0.2802
2970	0.169165
2982	0.104338
2994	0.116795
3006	0.209748
3018	0.173317
3030	0.104205
3042	0.110098
3054	0.111973
3066	0.0995167
3078	0.0854531
3090	0.0719252
3102	0.0519683
3114	0.0341544
3126	0.0191533
3138	0.00991149
3150	0.00589332
3162	0.00428605
3174	0.00334847
3186	0.00214302
3198	0.00214302
3210	0.00254484
3222	0.00214302
3234	0.00200908
3246	0.000803634
3258	0.000937573
3270	0.000803634
3282	0
3294	0.000803634
3306	0.00160727
3318	0.00107151
3330	0.00361635
3342	0.00535756
3354	0.0054915
3366	0.0048218
3378	0.0048218
3390	0.00455393
3402	0.00401817
3414	0.00415211
3426	0.00415211
3438	0.00455393
3450	0.00321454
3462	0.00214302
3474	0.00200908
3486	0.00214302
3498	0.00160727
3510	0.00254484
3522	0.0024109
3534	0.00267878
3546	0.00147333
3558	0.00147333
3570	0.0024109
3582	0.00508968
3594	0.00508968
3606	0.00522362
3618	0.0108491
3630	0.0349581
3642	0.214704
3654	0.442802
3666	0.251136
3678	0.0211624
3690	0.00281272
3702	0.00321454
3714	0.000267878
3726	0.000133939
3738	0.00120545
3750	0.000401817
3762	0.00281272
3774	0.00334847
3786	0.00160727
3798	0.00160727
3810	0.00267878
3822	0.0024109
3834	0.00254484
3846	0.00441999
3858	0.00535756
3870	0.00428605
3882	0.00321454
3894	0.00441999
3906	0.00361635
3918	0.00415211
3930	0.00428605
3942	0.00294666
3954	0.00401817
3966	0.00495574
