Infrared Spectrum: Cyclododecene
Formula: C 12 H 22
CAS: 1501-82-2
Origin: Sadtler Research Labs Under US-EPA Contract
1/CM	ABSORBANCE
450	0
462	0.0430112
474	0.0479534
486	0.0476863
498	0.0450148
510	0.0450148
522	0.0472856
534	0.0474191
546	0.0443469
558	0.0442133
570	0.0434119
582	0.0475527
594	0.0431447
606	0.0434119
618	0.0448812
630	0.0434119
642	0.0439462
654	0.0451484
666	0.0444805
678	0.0526286
690	0.0726648
702	0.0793435
714	0.0813472
726	0.073867
738	0.0601088
750	0.0577044
762	0.0558344
774	0.0523614
786	0.0531629
798	0.0435454
810	0.05156
822	0.0518271
834	0.0508921
846	0.05343
858	0.0546322
870	0.0516935
882	0.0500906
894	0.0503578
906	0.0520943
918	0.0523614
930	0.05156
942	0.052495
954	0.0594409
966	0.105658
978	0.150005
990	0.0794771
1002	0.0635817
1014	0.065051
1026	0.0615781
1038	0.0585059
1050	0.0574373
1062	0.0559679
1074	0.0535636
1086	0.05343
1098	0.0538307
1110	0.0522278
1122	0.0518271
1134	0.0503578
1146	0.0494228
1158	0.0508921
1170	0.0530293
1182	0.0518271
1194	0.0511592
1206	0.0522278
1218	0.0520943
1230	0.0550329
1242	0.057838
1254	0.0565022
1266	0.0559679
1278	0.0574373
1290	0.0595745
1302	0.0621124
1314	0.0617117
1326	0.0585059
1338	0.065051
1350	0.0812136
1362	0.0663868
1374	0.0542315
1386	0.0498235
1398	0.0502242
1410	0.0503578
1422	0.0530293
1434	0.0691918
1446	0.14573
1458	0.168572
1470	0.139987
1482	0.0731991
1494	0.049022
1506	0.047152
1518	0.0462169
1530	0.0435454
1542	0.0447476
1554	0.0434119
1566	0.042744
1578	0.042744
1590	0.0428776
1602	0.0432783
1614	0.0448812
1626	0.047152
1638	0.0499571
1650	0.0475527
1662	0.0462169
1674	0.0482206
1686	0.0514264
1698	0.0542315
1710	0.0605095
1722	0.0546322
1734	0.0507585
1746	0.0511592
1758	0.0466177
1770	0.0455491
1782	0.0451484
1794	0.0442133
1806	0.0428776
1818	0.0420761
1830	0.0426104
1842	0.041809
1854	0.0415418
1866	0.0420761
1878	0.0416754
1890	0.0416754
1902	0.0411411
1914	0.0414083
1926	0.0406068
1938	0.0410075
1950	0.0411411
1962	0.0411411
1974	0.0408739
1986	0.0411411
1998	0.0410075
2010	0.0412747
2022	0.0412747
2034	0.0411411
2046	0.0412747
2058	0.0412747
2070	0.0412747
2082	0.0414083
2094	0.0412747
2106	0.0414083
2118	0.0408739
2130	0.0412747
2142	0.0412747
2154	0.0415418
2166	0.0412747
2178	0.0412747
2190	0.0414083
2202	0.0414083
2214	0.0412747
2226	0.0414083
2238	0.0415418
2250	0.0416754
2262	0.0415418
2274	0.0416754
2286	0.0415418
2298	0.041809
2310	0.0422097
2322	0.0423433
2334	0.0410075
2346	0.0410075
2358	0.041809
2370	0.0406068
2382	0.0406068
2394	0.0410075
2406	0.0414083
2418	0.0408739
2430	0.0410075
2442	0.0406068
2454	0.0407404
2466	0.0410075
2478	0.0410075
2490	0.0414083
2502	0.0414083
2514	0.0419426
2526	0.0426104
2538	0.0431447
2550	0.0435454
2562	0.043679
2574	0.0432783
2586	0.0434119
2598	0.0439462
2610	0.0444805
2622	0.0455491
2634	0.0463505
2646	0.0482206
2658	0.0502242
2670	0.054365
2682	0.0565022
2694	0.0542315
2706	0.0514264
2718	0.0498235
2730	0.0494228
2742	0.0495563
2754	0.0499571
2766	0.0506249
2778	0.0516935
2790	0.0555672
2802	0.0603759
2814	0.064116
2826	0.0686575
2838	0.0848201
2850	0.214922
2862	0.516401
2874	0.479801
2886	0.273294
2898	0.276767
2910	0.587463
2922	0.871577
2934	1.33575
2946	0.93409
2958	0.446675
2970	0.25072
2982	0.182731
2994	0.131839
3006	0.134376
3018	0.106326
3030	0.0778742
3042	0.0591737
3054	0.0514264
3066	0.0502242
3078	0.048087
3090	0.0460834
3102	0.0456827
3114	0.0447476
3126	0.0448812
3138	0.0444805
3150	0.0450148
3162	0.0447476
3174	0.0443469
3186	0.0434119
3198	0.043679
3210	0.0439462
3222	0.0435454
3234	0.0430112
3246	0.0430112
3258	0.042744
3270	0.042744
3282	0.0422097
3294	0.0419426
3306	0.0420761
3318	0.0422097
3330	0.0422097
3342	0.0423433
3354	0.0423433
3366	0.0424769
3378	0.0424769
3390	0.0424769
3402	0.042744
3414	0.0424769
3426	0.0416754
3438	0.0422097
3450	0.0412747
3462	0.0420761
3474	0.0412747
3486	0.0408739
3498	0.0412747
3510	0.0415418
3522	0.0412747
3534	0.0406068
3546	0.0420761
3558	0.0407404
3570	0.0422097
3582	0.0422097
3594	0.0419426
3606	0.042744
3618	0.0434119
3630	0.0431447
3642	0.0459498
3654	0.0464841
3666	0.0440798
3678	0.0424769
3690	0.0431447
3702	0.0438126
3714	0.0428776
3726	0.0423433
3738	0.0424769
3750	0.0424769
3762	0.0430112
3774	0.0428776
3786	0.0435454
3798	0.0432783
3810	0.0435454
3822	0.0431447
3834	0.0440798
3846	0.0431447
3858	0.0428776
3870	0.043679
3882	0.042744
3894	0.0444805
3906	0.0444805
3918	0.0447476
3930	0.0447476
3942	0.0446141
3954	0.0458162
3966	0.0434119
