Infrared Spectrum: Pentanedioic acid, monomethyl ester
Formula: C 6 H 10 O 4
CAS: 1501-27-5
Origin: Sadtler Research Labs Under US-EPA Contract
1/CM	ABSORBANCE
450	0.00476807
462	0.00650191
474	0.00922653
486	0.0258838
498	0.0320761
510	0.0260696
522	0.02737
534	0.0427888
546	0.0497242
558	0.0548638
570	0.0663815
582	0.0575884
594	0.0647095
606	0.0673722
618	0.0573407
630	0.0692299
642	0.0505911
654	0.0357915
666	0.032138
678	0.0159142
690	0.0102173
702	0.0128181
714	0.0128181
726	0.0182054
738	0.0119511
750	0.0162238
762	0.0183911
774	0.0223542
786	0.0206823
798	0.0148615
810	0.0116415
822	0.0105888
834	0.0121988
846	0.0121369
858	0.0140565
870	0.00792614
882	0.0131896
894	0.00928845
906	0.00842153
918	0.0110223
930	0.0137469
942	0.0106508
954	0.00978383
966	0.0167811
978	0.0226638
990	0.0367203
1002	0.0597557
1014	0.0831007
1026	0.114991
1038	0.12075
1050	0.0946183
1062	0.0913364
1074	0.106693
1086	0.105579
1098	0.120812
1110	0.20738
1122	0.343611
1134	0.323919
1146	0.270665
1158	0.273947
1170	0.289552
1182	0.261625
1194	0.223852
1206	0.21735
1218	0.200692
1230	0.181682
1242	0.170969
1254	0.147748
1266	0.111214
1278	0.0827911
1290	0.0656384
1302	0.0642142
1314	0.0726357
1326	0.074803
1338	0.0829768
1350	0.0914603
1362	0.0995722
1374	0.101678
1386	0.0912126
1398	0.0738741
1410	0.0492288
1422	0.0518915
1434	0.0807476
1446	0.0871257
1458	0.056288
1470	0.0330669
1482	0.0182673
1494	0.0113938
1506	0.0102173
1518	0.0078023
1530	0.00687345
1542	0.00569692
1554	0.00817384
1566	0.00811191
1578	0.00687345
1590	0.00693538
1602	0.00774037
1614	0.0104031
1626	0.0103411
1638	0.00792614
1650	0.00532538
1662	0.00848345
1674	0.0144281
1686	0.0227877
1698	0.0351103
1710	0.0593842
1722	0.0899122
1734	0.160195
1746	0.293515
1758	0.48108
1770	0.590993
1782	0.586039
1794	0.37612
1806	0.184407
1818	0.0826672
1830	0.0503434
1842	0.03059
1854	0.0149234
1866	0.00817384
1878	0.00643999
1890	0.00588268
1902	0.00575884
1914	0.00291038
1926	0.00390115
1938	0.00346769
1950	0.00371538
1962	0.00328192
1974	0.00439653
1986	0.00322
1998	0.00346769
2010	0.00352961
2022	0.00365346
2034	0.00322
2046	0.00309615
2058	0.00309615
2070	0.00303423
2082	0.0029723
2094	0.00216731
2106	0.00161
2118	0.00123846
2130	0.000681153
2142	0.00154807
2154	0.00105269
2166	0.000866922
2178	0.00061923
2190	0.000866922
2202	0.00167192
2214	0.00185769
2226	0.00105269
2238	0.00117654
2250	0.00117654
2262	0.00191961
2274	0.00123846
2286	0.00136231
2298	0.00154807
2310	0.00198154
2322	0.00222923
2334	0.000990768
2346	0.00136231
2358	0.00185769
2370	0.00266269
2382	0.00272461
2394	0.00161
2406	0.00167192
2418	0.00185769
2430	0.00216731
2442	0.00235307
2454	0.00191961
2466	0.00222923
2478	0.00210538
2490	0.00210538
2502	0.00229115
2514	0.00222923
2526	0.00204346
2538	0.00161
2550	0.00185769
2562	0.00185769
2574	0.00210538
2586	0.00198154
2598	0.00210538
2610	0.00284846
2622	0.00272461
2634	0.00198154
2646	0.00210538
2658	0.00210538
2670	0.00191961
2682	0.00198154
2694	0.00191961
2706	0.00204346
2718	0.00179577
2730	0.00173384
2742	0.00210538
2754	0.00278653
2766	0.00260077
2778	0.00322
2790	0.00303423
2802	0.00402499
2814	0.00464423
2826	0.00668768
2838	0.00972191
2850	0.0170288
2862	0.0167192
2874	0.0162857
2886	0.01932
2898	0.0238404
2910	0.0288561
2922	0.037835
2934	0.053068
2946	0.0697253
2958	0.108675
2970	0.101244
2982	0.0623565
2994	0.048238
3006	0.0358534
3018	0.0271223
3030	0.0235927
3042	0.0174623
3054	0.0140565
3066	0.0111461
3078	0.00928845
3090	0.0103411
3102	0.0078023
3114	0.00829768
3126	0.00681153
3138	0.00693538
3150	0.00575884
3162	0.00489192
3174	0.00383923
3186	0.00439653
3198	0.0037773
3210	0.00390115
3222	0.00278653
3234	0.00359153
3246	0.00359153
3258	0.00445846
3270	0.00365346
3282	0.00371538
3294	0.00433461
3306	0.00383923
3318	0.00315807
3330	0.00402499
3342	0.00253884
3354	0.00359153
3366	0.00303423
3378	0.00371538
3390	0.00229115
3402	0.00315807
3414	0.00421076
3426	0.0037773
3438	0.00402499
3450	0.00365346
3462	0.00526345
3474	0.00359153
3486	0.00452038
3498	0.00613038
3510	0.0069973
3522	0.00687345
3534	0.0086073
3546	0.013685
3558	0.0260696
3570	0.124527
3582	0.162424
3594	0.0319523
3606	0.0108984
3618	0.00724499
3630	0.0053873
3642	0.00198154
3654	0.00266269
3666	0.00142423
3678	0.00340576
3690	0.00340576
3702	0.00260077
3714	0.00390115
3726	0.00421076
3738	0.0053873
3750	0.00278653
3762	0.000123846
3774	0.00185769
3786	0.00167192
3798	0
3810	0.00346769
3822	0.000557307
3834	0.00179577
3846	0.00154807
3858	0.00229115
3870	0.000309615
3882	0.00229115
3894	0.000495384
3906	0.002415
3918	0.00173384
3930	0.00266269
3942	0.000309615
3954	0
3966	0.00167192
