Infrared Spectrum: 1-Adamantanecarboxamide, N,N-dimethyl-,
Formula: C 13 H 21 N O
CAS: 1502-00-7
Origin: Sadtler Research Labs Under US-EPA Contract
1/CM	ABSORBANCE
450	0.010794
462	0.0092718
474	0.0249093
486	0.0121779
498	0.00747279
510	0.016883
522	0.0153607
534	0.00442832
546	0.00498186
558	0.000968695
570	0.00498186
582	0.00401316
594	0.00055354
606	0.00249093
618	0.00221416
630	0.00332124
642	0.0337659
654	0.0387478
666	0.00262932
678	0.00179901
690	0.00332124
702	0.00290609
714	0.00470509
726	0.00996372
738	0.00664248
750	0.0027677
762	0.00691925
774	0.00816472
786	0.00539702
798	0.00968695
810	0.0188204
822	0.00996372
834	0.00415155
846	0.00249093
858	0.00152224
870	0.00332124
882	0.00359801
894	0.00249093
906	0.00290609
918	0.00484348
930	0.00857987
942	0.020481
954	0.0120395
966	0.0163294
978	0.0265699
990	0.0177133
1002	0.0154991
1014	0.027677
1026	0.0503721
1038	0.097423
1050	0.227367
1062	0.182945
1074	0.0599207
1086	0.0332124
1098	0.0520328
1110	0.0411003
1122	0.0305831
1134	0.0413771
1146	0.088428
1158	0.164817
1170	0.106003
1182	0.0575682
1194	0.0543853
1206	0.0373639
1218	0.0357033
1230	0.0437297
1242	0.0833078
1254	0.123578
1266	0.0885664
1278	0.0514792
1290	0.036672
1302	0.0495418
1314	0.0949321
1326	0.0639339
1338	0.110708
1350	0.226951
1362	0.35136
1374	0.253521
1386	0.097423
1398	0.0579833
1410	0.0514792
1422	0.0431761
1434	0.0581217
1446	0.11735
1458	0.219063
1470	0.136586
1482	0.092718
1494	0.0780491
1506	0.0552156
1518	0.0406852
1530	0.0326589
1542	0.0286457
1554	0.0274002
1566	0.0218648
1578	0.0243558
1590	0.0226951
1602	0.0314134
1614	0.0476044
1626	0.0711299
1638	0.186128
1650	0.503168
1662	0.51756
1674	0.179901
1686	0.0702996
1698	0.0456671
1710	0.0322437
1722	0.0239406
1734	0.0192355
1746	0.0123163
1758	0.0121779
1770	0.0109324
1782	0.00581217
1794	0.00525863
1806	0.00304447
1818	0.00221416
1830	0.00207578
1842	0
1854	0.00152224
1866	0.00110708
1878	0.000691925
1890	0.00110708
1902	0.00055354
1914	0.000691925
1926	0.00138385
1938	0.000968695
1950	0.000138385
1962	0.000968695
1974	0.000415155
1986	0.00110708
1998	0.00179901
2010	0.00124547
2022	0.000691925
2034	0.000968695
2046	0.00124547
2058	0.00166062
2070	0.00152224
2082	0.00152224
2094	0.00152224
2106	0.00083031
2118	0.00124547
2130	0.00179901
2142	0.00152224
2154	0.00152224
2166	0.00152224
2178	0.00179901
2190	0.00166062
2202	0.00124547
2214	0.00110708
2226	0.000968695
2238	0.00055354
2250	0.00055354
2262	0.000968695
2274	0.00166062
2286	0.00359801
2298	0.00608894
2310	0.00747279
2322	0.0065041
2334	0.0037364
2346	0.0105173
2358	0.00332124
2370	0.0037364
2382	0.00498186
2394	0.00166062
2406	0.00138385
2418	0.00193739
2430	0.0027677
2442	0.00166062
2454	0.000968695
2466	0.00179901
2478	0.00124547
2490	0.00124547
2502	0.00235255
2514	0.00193739
2526	0.0027677
2538	0.00249093
2550	0.00290609
2562	0.00401316
2574	0.00470509
2586	0.00415155
2598	0.00415155
2610	0.00622733
2622	0.00802633
2634	0.00857987
2646	0.0110708
2658	0.0166062
2670	0.0181284
2682	0.0166062
2694	0.00913341
2706	0.00581217
2718	0.00581217
2730	0.00705764
2742	0.00802633
2754	0.0106556
2766	0.011486
2778	0.0139769
2790	0.0218648
2802	0.0368104
2814	0.0435913
2826	0.0503721
2838	0.0622733
2850	0.175057
2862	0.406714
2874	0.220171
2886	0.16883
2898	0.397995
2910	1.10666
2922	1.25612
2934	0.521158
2946	0.460545
2958	0.379037
2970	0.162326
2982	0.0809552
2994	0.0574298
3006	0.04456
3018	0.0352882
3030	0.0311366
3042	0.0286457
3054	0.0268467
3066	0.0213113
3078	0.0146688
3090	0.0106556
3102	0.00816472
3114	0.0065041
3126	0.00498186
3138	0.00428993
3150	0.00345963
3162	0.0027677
3174	0.00262932
3186	0.00304447
3198	0.00207578
3210	0.00166062
3222	0.00193739
3234	0.00235255
3246	0.00318286
3258	0.00470509
3270	0.00359801
3282	0.00456671
3294	0.00581217
3306	0.00415155
3318	0.00179901
3330	0.00166062
3342	0.00262932
3354	0.00235255
3366	0.00304447
3378	0.00235255
3390	0.00387478
3402	0.00332124
3414	0.00179901
3426	0.00152224
3438	0.00166062
3450	0.00179901
3462	0.00193739
3474	0.00262932
3486	0.00221416
3498	0.00193739
3510	0.00152224
3522	0.00262932
3534	0.00207578
3546	0.00401316
3558	0.00345963
3570	0.00733441
3582	0.00442832
3594	0.00525863
3606	0.00166062
3618	0.00428993
3630	0.00719602
3642	0.00262932
3654	0.00359801
3666	0.00124547
3678	0.00761118
3690	0.00332124
3702	0.00387478
3714	0.00484348
3726	0.0055354
3738	0.0065041
3750	0.00401316
3762	0.00387478
3774	0.0027677
3786	0.00207578
3798	0.00525863
3810	0.000415155
3822	0.00581217
3834	0.00456671
3846	0.00332124
3858	0.00636571
3870	0.00595056
3882	0.00636571
3894	0.00595056
3906	0.00581217
3918	0.00359801
3930	0.00428993
3942	0.00207578
3954	0.00442832
3966	0.00345963
