Infrared Spectrum: 2,3-Dimethylcyclohexanol
Formula: C 8 H 16 O
CAS: 1502-24-5
Origin: Sadtler Research Labs Under US-EPA Contract
1/CM	ABSORBANCE
450	0.0514844
462	0.0129998
474	0.0235541
486	0.0202076
498	0.0253561
510	0.0167324
522	0.00270293
534	0.00424746
546	0.0214947
558	0.0128711
570	0.0135147
582	0.0117127
594	0.012485
606	0.0168611
618	0.0119701
630	0.00604942
642	0.00913848
654	0.0093959
666	0.0128711
678	0.0171186
690	0.0110691
702	0.0102969
714	0.0123563
726	0.00798008
738	0.0131285
750	0.0150592
762	0.00952461
774	0.0113266
786	0.0111979
798	0.011584
810	0.0139008
822	0.0181483
834	0.0294748
846	0.0371975
858	0.0221383
870	0.0248412
882	0.0337223
894	0.0276729
906	0.0217522
918	0.0244551
930	0.0451776
942	0.0973055
954	0.0955036
966	0.0646129
978	0.0750385
990	0.113652
1002	0.180067
1014	0.270937
1026	0.292174
1038	0.232323
1050	0.227175
1062	0.153552
1074	0.0790286
1086	0.0915135
1098	0.123048
1110	0.100909
1122	0.0754246
1134	0.0817315
1146	0.0786424
1158	0.0695039
1170	0.0635832
1182	0.0597219
1194	0.0624248
1206	0.0756821
1218	0.0868799
1230	0.0976916
1242	0.101682
1254	0.0922858
1266	0.0778702
1278	0.0633258
1290	0.0588209
1302	0.0547022
1314	0.052128
1326	0.0562467
1338	0.061009
1350	0.0711772
1362	0.0956323
1374	0.129869
1386	0.159344
1398	0.111335
1410	0.0504547
1422	0.0335936
1434	0.0575338
1446	0.127166
1458	0.193839
1470	0.165394
1482	0.0729791
1494	0.0225244
1506	0.0132572
1518	0.0082375
1530	0.00682168
1542	0.00604942
1554	0.00540586
1566	0.00476231
1578	0.0070791
1590	0.00476231
1602	0.00553457
1614	0.00514844
1626	0.00566328
1638	0.00682168
1650	0.00604942
1662	0.00540586
1674	0.00489102
1686	0.00617813
1698	0.00579199
1710	0.00489102
1722	0.00617813
1734	0.0070791
1746	0.00682168
1758	0.00617813
1770	0.00617813
1782	0.00373262
1794	0.00257422
1806	0.00334649
1818	0.00257422
1830	0.00193066
1842	0.00257422
1854	0.0023168
1866	0.00167324
1878	0.00244551
1890	0.00141582
1902	0.00141582
1914	0.00180195
1926	0.0011584
1938	0.00128711
1950	0.00154453
1962	0.00167324
1974	0.00193066
1986	0.00193066
1998	0.0023168
2010	0.00373262
2022	0.00450489
2034	0.00411875
2046	0.00476231
2058	0.00386133
2070	0.00193066
2082	0.000900977
2094	0.00141582
2106	0.00180195
2118	0.00257422
2130	0.00218809
2142	0.00218809
2154	0.00193066
2166	0.00167324
2178	0.00205938
2190	0.0023168
2202	0.00218809
2214	0.00218809
2226	0.00218809
2238	0.00193066
2250	0.0023168
2262	0.00244551
2274	0.00257422
2286	0.0034752
2298	0.00424746
2310	0.00360391
2322	0.00489102
2334	0.00592071
2346	0.00604942
2358	0.00733653
2370	0.00978204
2382	0.00772266
2394	0.00643555
2406	0.00553457
2418	0.00501973
2430	0.0046336
2442	0.00450489
2454	0.00489102
2466	0.00592071
2478	0.00617813
2490	0.00617813
2502	0.00566328
2514	0.00579199
2526	0.00669297
2538	0.00759395
2550	0.00900977
2562	0.00965332
2574	0.0110691
2586	0.0129998
2598	0.0157027
2610	0.0180195
2622	0.0178908
2634	0.0193066
2646	0.0207225
2658	0.0214947
2670	0.0226531
2682	0.0216234
2694	0.0212373
2706	0.022267
2718	0.023168
2730	0.0257422
2742	0.0279303
2754	0.0261283
2766	0.0269006
2778	0.0296035
2790	0.0326926
2802	0.0359104
2814	0.0393856
2826	0.0507121
2838	0.0844344
2850	0.20465
2862	0.460013
2874	0.685901
2886	0.678822
2898	0.53325
2910	0.493993
2922	0.778058
2934	1.21014
2946	1.14282
2958	0.763385
2970	0.649604
2982	0.435558
2994	0.199373
3006	0.0559893
3018	0.0257422
3030	0.0199502
3042	0.0176334
3054	0.018277
3066	0.0176334
3078	0.0176334
3090	0.0187918
3102	0.0177621
3114	0.0172473
3126	0.015574
3138	0.0150592
3150	0.0139008
3162	0.0146731
3174	0.0119701
3186	0.0111979
3198	0.00900977
3210	0.0070791
3222	0.00630684
3234	0.00566328
3246	0.00450489
3258	0.0046336
3270	0.00321777
3282	0.00450489
3294	0.00424746
3306	0.00489102
3318	0.00643555
3330	0.00733653
3342	0.00669297
3354	0.00669297
3366	0.00566328
3378	0.00592071
3390	0.00604942
3402	0.00798008
3414	0.00643555
3426	0.00785137
3438	0.00643555
3450	0.00682168
3462	0.00810879
3474	0.00656426
3486	0.00630684
3498	0.00656426
3510	0.00566328
3522	0.00501973
3534	0.00424746
3546	0.00399004
3558	0.00424746
3570	0.00167324
3582	0.00257422
3594	0.00669297
3606	0.00154453
3618	0.00772266
3630	0.0185344
3642	0.0438905
3654	0.0866225
3666	0.0643555
3678	0.0208512
3690	0.00579199
3702	0.00334649
3714	0.00566328
3726	0.00450489
3738	0.0034752
3750	0.00437617
3762	0.00334649
3774	0.00733653
3786	0.0046336
3798	0.00180195
3810	0.0070791
3822	0.00849493
3834	0.00862364
3846	0.00836621
3858	0.00720782
3870	0.00579199
3882	0.00785137
3894	0.00682168
3906	0.00695039
3918	0.00218809
3930	0.00437617
3942	0.0034752
3954	0.00489102
3966	0.000772266
