Infrared Spectrum: 2-Buten-1-ol, 3-phenyl-,
Formula: C 10 H 12 O
CAS: 1504-54-7
Origin: Sadtler Research Labs Under US-EPA Contract
1/CM	ABSORBANCE
450	0
462	0.0153123
474	0.0165883
486	0.0304204
498	0.062219
510	0.0721209
522	0.0414453
534	0.0225601
546	0.0183237
558	0.029859
570	0.0488462
582	0.022407
594	0.0120457
606	0.0135769
618	0.0155675
630	0.0147508
642	0.0191914
654	0.018732
666	0.0258778
678	0.0618617
690	0.176142
702	0.249029
714	0.110708
726	0.0926394
738	0.181247
750	0.130308
762	0.0419557
774	0.0204164
786	0.0166904
798	0.0256736
810	0.0457838
822	0.0523681
834	0.074724
846	0.0930988
858	0.0783479
870	0.0477233
882	0.0339933
894	0.0317475
906	0.0489994
918	0.0695178
930	0.0527254
942	0.0583909
954	0.0670168
966	0.0696199
978	0.0773782
990	0.0996831
1002	0.207022
1014	0.478611
1026	0.39225
1038	0.178695
1050	0.119997
1062	0.160881
1074	0.194109
1086	0.102694
1098	0.049765
1110	0.0379745
1122	0.0332277
1134	0.0343506
1146	0.0437932
1158	0.0621679
1170	0.087127
1182	0.099632
1194	0.0760511
1206	0.0583399
1218	0.0509389
1230	0.0517556
1242	0.0476723
1254	0.0422109
1266	0.0409349
1278	0.0396078
1290	0.0421088
1302	0.0465494
1314	0.0533889
1326	0.0579826
1338	0.0645669
1350	0.0962123
1362	0.136586
1374	0.207839
1386	0.164301
1398	0.103664
1410	0.0685991
1422	0.0568597
1434	0.0691095
1446	0.0912613
1458	0.0827885
1470	0.0578805
1482	0.0614534
1494	0.120508
1506	0.0699772
1518	0.0230705
1530	0.022458
1542	0.0241934
1554	0.0218966
1566	0.0247038
1578	0.0321558
1590	0.0406797
1602	0.0768677
1614	0.0351672
1626	0.022458
1638	0.0233257
1650	0.027409
1662	0.0295017
1674	0.0252653
1686	0.023632
1698	0.0321558
1710	0.0643627
1722	0.0447119
1734	0.0295017
1746	0.0322579
1758	0.0330235
1770	0.0254184
1782	0.019957
1794	0.0254695
1806	0.0259288
1818	0.0164862
1830	0.0154144
1842	0.012505
1854	0.0125561
1866	0.0158227
1878	0.0192935
1890	0.0230195
1902	0.0164352
1914	0.012505
1926	0.0152613
1938	0.0219987
1950	0.0252653
1962	0.0218455
1974	0.0129134
1986	0.0123519
1998	0.0117905
2010	0.0129134
2022	0.0146488
2034	0.0145467
2046	0.0141894
2058	0.0135259
2070	0.0135769
2082	0.0130665
2094	0.0120457
2106	0.011178
2118	0.0114842
2130	0.0118926
2142	0.0122498
2154	0.0117394
2166	0.0114842
2178	0.0118926
2190	0.0116373
2202	0.0115353
2214	0.0112801
2226	0.0115353
2238	0.0116373
2250	0.0126071
2262	0.0122498
2274	0.0122498
2286	0.0128113
2298	0.01373
2310	0.0154144
2322	0.0166394
2334	0.0145467
2346	0.0160779
2358	0.0164862
2370	0.0142404
2382	0.0140363
2394	0.0134238
2406	0.0138321
2418	0.0139342
2430	0.0138832
2442	0.0135259
2454	0.0140363
2466	0.0140873
2478	0.0143936
2490	0.0140363
2502	0.0145977
2514	0.0140873
2526	0.013679
2538	0.0133727
2550	0.0140363
2562	0.0138321
2574	0.0146488
2586	0.0148529
2598	0.0142915
2610	0.0132196
2622	0.0131175
2634	0.0150061
2646	0.0131175
2658	0.0145977
2670	0.0164862
2682	0.0192425
2694	0.0210799
2706	0.0230195
2718	0.0235299
2730	0.0254184
2742	0.0273069
2754	0.0292465
2766	0.0306756
2778	0.033636
2790	0.0354735
2802	0.0378214
2814	0.0419047
2826	0.0482848
2838	0.0636481
2850	0.105961
2862	0.176551
2874	0.203041
2886	0.1716
2898	0.135259
2910	0.142762
2922	0.200795
2934	0.234023
2946	0.19467
2958	0.148836
2970	0.118568
2982	0.105451
2994	0.112443
3006	0.080951
3018	0.0942217
3030	0.163382
3042	0.157104
3054	0.119742
3066	0.21034
3078	0.194058
3090	0.12847
3102	0.0862593
3114	0.0527764
3126	0.0252143
3138	0.0177112
3150	0.0183748
3162	0.0163331
3174	0.0132707
3186	0.0128623
3198	0.012403
3210	0.0115353
3222	0.0115353
3234	0.0116884
3246	0.0126071
3258	0.012454
3270	0.0138321
3282	0.0133727
3294	0.0139342
3306	0.0127092
3318	0.0128623
3330	0.0153633
3342	0.0153123
3354	0.0148529
3366	0.0156696
3378	0.0155165
3390	0.0171498
3402	0.0200081
3414	0.0194977
3426	0.0172519
3438	0.0187831
3450	0.01863
3462	0.0166394
3474	0.0173029
3486	0.0155675
3498	0.0172519
3510	0.0163842
3522	0.0158738
3534	0.0143936
3546	0.014955
3558	0.0157206
3570	0.0145467
3582	0.0164862
3594	0.017405
3606	0.0173539
3618	0.0229685
3630	0.0265413
3642	0.0489994
3654	0.0770719
3666	0.0742136
3678	0.0574211
3690	0.0278173
3702	0.0252653
3714	0.0165373
3726	0.0152102
3738	0.0144446
3750	0.0116884
3762	0.0126071
3774	0.0140363
3786	0.0113821
3798	0.0141894
3810	0.0169967
3822	0.0148019
3834	0.0142404
3846	0.0129644
3858	0.0185789
3870	0.0179664
3882	0.0141384
3894	0.01863
3906	0.0206716
3918	0.0159248
3930	0.0173029
3942	0.0173029
3954	0.0151592
3966	0.0177112
