Infrared Spectrum: 3-Pyridinecarboxylic acid, 2-methoxyphenyl ester
Formula: C 13 H 11 N O 3
CAS: 15057-98-4
Origin: Sadtler Research Labs Under US-EPA Contract
1/CM	ABSORBANCE
450	0
462	0.00809739
474	0.0090317
486	0.00887598
498	0.00887598
510	0.0102775
522	0.0146376
534	0.0314552
546	0.0239807
558	0.0232021
570	0.0172848
582	0.0163505
594	0.0235136
606	0.0146376
618	0.0323896
630	0.0157276
642	0.0133918
654	0.014949
666	0.0175962
678	0.0303652
690	0.080351
702	0.125042
714	0.0773923
726	0.195739
738	0.302718
750	0.313307
762	0.142016
774	0.0872026
786	0.0390855
798	0.0309881
810	0.0358154
822	0.0546574
834	0.0520101
846	0.0375283
858	0.0319224
870	0.0409541
882	0.0263165
894	0.0180634
906	0.0186863
918	0.0252265
930	0.036594
942	0.0232021
954	0.0225793
966	0.0323896
978	0.0407984
990	0.0516987
1002	0.0839325
1014	0.369054
1026	0.41141
1038	0.245102
1050	0.186084
1062	0.309258
1074	0.545639
1086	0.596404
1098	0.211934
1110	0.558253
1122	0.318913
1134	0.110716
1146	0.0706964
1158	0.139524
1170	0.393346
1182	0.538943
1194	0.647168
1206	0.537853
1218	0.23716
1230	0.245569
1242	0.405959
1254	1.08972
1266	1.55719
1278	1.08879
1290	0.475254
1302	0.27827
1314	0.19496
1326	0.132673
1338	0.0686721
1350	0.0484286
1362	0.0462485
1374	0.041577
1386	0.0401755
1398	0.0406427
1410	0.0738108
1422	0.198697
1434	0.0829982
1446	0.103865
1458	0.158366
1470	0.151203
1482	0.155563
1494	0.500948
1506	0.64748
1518	0.156498
1530	0.0766137
1542	0.0509201
1554	0.0468714
1566	0.0772366
1578	0.144352
1590	0.298825
1602	0.169111
1614	0.100594
1626	0.0390855
1638	0.0247593
1650	0.0194649
1662	0.0157276
1674	0.0203992
1686	0.0211778
1698	0.0283409
1710	0.0305209
1722	0.0474943
1734	0.0957672
1746	0.213491
1758	0.575537
1770	0.670837
1782	0.15058
1794	0.0587061
1806	0.0336353
1818	0.0258494
1830	0.0202435
1842	0.014949
1854	0.0126132
1866	0.0119904
1878	0.0132361
1890	0.019932
1902	0.0183748
1914	0.0191534
1926	0.0258494
1938	0.0137033
1950	0.0157276
1962	0.0104332
1974	0.00763023
1986	0.00669592
1998	0.00794167
2010	0.0102775
2022	0.013859
2034	0.0143261
2046	0.012769
2058	0.0102775
2070	0.00918742
2082	0.00747451
2094	0.0065402
2106	0.00467157
2118	0.00467157
2130	0.00498301
2142	0.00451585
2154	0.00389297
2166	0.00202435
2178	0.000467157
2190	0.000622876
2202	0.000467157
2214	0.000311438
2226	0.00124575
2238	0.00109003
2250	0.00171291
2262	0.00358154
2274	0.00467157
2286	0.00436013
2298	0.00622876
2310	0.00716307
2322	0.00716307
2334	0.00622876
2346	0.00763023
2358	0.00638448
2370	0.00716307
2382	0.0065402
2394	0.00155719
2406	0.00109003
2418	0.00124575
2430	0.00233578
2442	0.00280294
2454	0.00280294
2466	0.00202435
2478	0.00171291
2490	0.00202435
2502	0.00311438
2514	0.00451585
2526	0.00467157
2538	0.00513873
2550	0.0057616
2562	0.00622876
2574	0.00545016
2586	0.00482729
2598	0.00451585
2610	0.00467157
2622	0.00420441
2634	0.00264722
2646	0.00218007
2658	0.00155719
2670	0.00171291
2682	0.00124575
2694	0.00109003
2706	0.00140147
2718	0.00124575
2730	0.00186863
2742	0.00264722
2754	0.0032701
2766	0.00342582
2778	0.00373726
2790	0.00482729
2802	0.00638448
2814	0.00965458
2826	0.0168177
2838	0.0442242
2850	0.070385
2862	0.0339467
2874	0.022735
2886	0.0255379
2898	0.0341025
2910	0.0445356
2922	0.0527887
2934	0.0647791
2946	0.104487
2958	0.0987258
2970	0.0775481
2982	0.0568374
2994	0.0456257
3006	0.0685164
3018	0.0680492
3030	0.0462485
3042	0.0794167
3054	0.125354
3066	0.100283
3078	0.0987258
3090	0.101529
3102	0.0450028
3114	0.0185306
3126	0.0121461
3138	0.00996602
3150	0.00949886
3162	0.00498301
3174	0.00342582
3186	0.0032701
3198	0.00264722
3210	0.00186863
3222	0.00155719
3234	0.00124575
3246	0.00124575
3258	0.000778595
3270	0.000622876
3282	0.000311438
3294	0.000311438
3306	0.000467157
3318	0.000622876
3330	0.000778595
3342	0.000467157
3354	0.00171291
3366	0.000934314
3378	0.00109003
3390	0.000934314
3402	0.00109003
3414	0.00124575
3426	0.00140147
3438	0.00155719
3450	0.00171291
3462	0.00155719
3474	0.00171291
3486	0.00218007
3498	0.00451585
3510	0.00529445
3522	0.00233578
3534	0.000467157
3546	0.00124575
3558	0.0024915
3570	0.00560588
3582	0.0129247
3594	0.014949
3606	0.00716307
3618	0.00233578
3630	0.00295866
3642	0.00264722
3654	0.00264722
3666	0.00155719
3678	0.00264722
3690	0.00140147
3702	0.00218007
3714	0.00264722
3726	0.0024915
3738	0.00140147
3750	0.00311438
3762	0.000778595
3774	0.00124575
3786	0.000934314
3798	0.000311438
3810	0.00155719
3822	0.00218007
3834	0.00186863
3846	0.00202435
3858	0.00280294
3870	0.0032701
3882	0.00264722
3894	0.0024915
3906	0.00389297
3918	0.00280294
3930	0.00295866
3942	0.00140147
3954	0.00233578
3966	0.00155719
