Infrared Spectrum: Butyrophenone, 2'-hydroxy-3-phenyl-,
Formula: C 16 H 16 O 2
CAS: 15074-16-5
Origin: Sadtler Research Labs Under US-EPA Contract
1/CM	ABSORBANCE
450	0
462	0.00898261
474	0.010472
486	0.00823793
498	0.00735364
510	0.0211301
522	0.043191
534	0.0370009
546	0.0340222
558	0.0295542
570	0.0334637
582	0.0240157
594	0.015545
606	0.0206181
618	0.0374198
630	0.0531044
642	0.0276925
654	0.0301127
666	0.0486364
678	0.0526855
690	0.0946664
702	0.16811
714	0.0915016
726	0.107186
738	0.122499
750	0.301266
762	0.15936
774	0.0782836
786	0.0640883
798	0.05101
810	0.0436099
822	0.0269944
834	0.0272736
846	0.0329517
858	0.0241553
870	0.0154519
882	0.0184772
894	0.0217351
906	0.030997
918	0.0206181
930	0.0148934
942	0.0155916
954	0.011077
966	0.0162432
978	0.0363958
990	0.0967608
1002	0.0786094
1014	0.0556177
1026	0.0562693
1038	0.0433306
1050	0.0189426
1062	0.0204785
1074	0.0256912
1086	0.0441684
1098	0.0450992
1110	0.0338826
1122	0.0461231
1134	0.0397469
1146	0.115517
1158	0.298102
1170	0.0740018
1182	0.0754446
1194	0.141627
1206	0.144187
1218	0.144559
1230	0.129852
1242	0.185051
1254	0.231081
1266	0.157359
1278	0.134599
1290	0.154845
1302	0.24402
1314	0.205762
1326	0.134693
1338	0.163409
1350	0.155218
1362	0.138416
1374	0.11184
1386	0.0889883
1398	0.059853
1410	0.0555711
1422	0.0558504
1434	0.0831706
1446	0.195849
1458	0.185377
1470	0.121707
1482	0.208275
1494	0.218608
1506	0.106348
1518	0.0547799
1530	0.0444942
1542	0.0411431
1554	0.0434702
1566	0.0713489
1578	0.172671
1590	0.131947
1602	0.140371
1614	0.209439
1626	0.169041
1638	0.287397
1650	0.46542
1662	0.276506
1674	0.0968074
1686	0.0479848
1698	0.0323467
1710	0.0257843
1722	0.021642
1734	0.0189426
1746	0.0163362
1758	0.0141488
1770	0.0140091
1782	0.0154985
1794	0.0248534
1806	0.0162897
1818	0.014428
1830	0.0137764
1842	0.0112632
1854	0.012194
1866	0.0146607
1878	0.0153123
1890	0.0128456
1902	0.0106581
1914	0.0143815
1926	0.0124267
1938	0.0181514
1950	0.0205716
1962	0.0132179
1974	0.0093084
1986	0.00902915
1998	0.00861027
2010	0.00851719
2022	0.00823793
2034	0.00819139
2046	0.00847064
2058	0.00823793
2070	0.00828448
2082	0.00800522
2094	0.00819139
2106	0.00800522
2118	0.00772597
2130	0.00791214
2142	0.00819139
2154	0.00833102
2166	0.00795868
2178	0.00791214
2190	0.00772597
2202	0.00772597
2214	0.00791214
2226	0.00791214
2238	0.00781906
2250	0.0084241
2262	0.00879644
2274	0.00940148
2286	0.0103323
2298	0.0106116
2310	0.0117286
2322	0.0130318
2334	0.0128456
2346	0.0134041
2358	0.0103323
2370	0.0118217
2382	0.0113562
2394	0.00954111
2406	0.0093084
2418	0.00972728
2430	0.0103789
2442	0.0103323
2454	0.0108443
2466	0.0108908
2478	0.0106581
2490	0.0107977
2502	0.0112632
2514	0.0117286
2526	0.012194
2538	0.0126129
2550	0.0132179
2562	0.0141022
2574	0.0148469
2586	0.0149865
2598	0.0161035
2610	0.0172205
2622	0.0175929
2634	0.0178721
2646	0.0169878
2658	0.016569
2670	0.0158708
2682	0.0159639
2694	0.0167551
2706	0.017779
2718	0.0186168
2730	0.0201992
2742	0.0215489
2754	0.0223402
2766	0.0216886
2778	0.0207577
2790	0.0208043
2802	0.0212697
2814	0.0223867
2826	0.0244811
2838	0.0264359
2850	0.0281114
2862	0.031602
2874	0.0439822
2886	0.0608769
2898	0.0597599
2910	0.0636695
2922	0.0683237
2934	0.084241
2946	0.0841479
2958	0.0791679
2970	0.14926
2982	0.150982
2994	0.069301
3006	0.0612027
3018	0.071442
3030	0.117937
3042	0.122871
3054	0.107233
3066	0.151029
3078	0.152099
3090	0.120544
3102	0.0861027
3114	0.0717212
3126	0.0588756
3138	0.0528717
3150	0.0511497
3162	0.0513358
3174	0.0512427
3186	0.0499396
3198	0.0481244
3210	0.0457508
3222	0.0430514
3234	0.041562
3246	0.04105
3258	0.0404915
3270	0.0391884
3282	0.0379317
3294	0.0356977
3306	0.0345342
3318	0.0314624
3330	0.0308108
3342	0.0292284
3354	0.0276459
3366	0.0266686
3378	0.024388
3390	0.022759
3402	0.0216886
3414	0.0206646
3426	0.0192218
3438	0.0180583
3450	0.0167086
3462	0.0163828
3474	0.0148004
3486	0.0139626
3498	0.0129852
3510	0.0123336
3522	0.0119148
3534	0.0108908
3546	0.0108443
3558	0.010472
3570	0.0100996
3582	0.00898261
3594	0.00921532
3606	0.00861027
3618	0.00949457
3630	0.0103323
3642	0.00884298
3654	0.00949457
3666	0.00893606
3678	0.00912223
3690	0.00777251
3702	0.00898261
3714	0.00912223
3726	0.00902915
3738	0.00907569
3750	0.00884298
3762	0.00749326
3774	0.00861027
3786	0.00809831
3798	0.00865681
3810	0.00767943
3822	0.0084241
3834	0.00795868
3846	0.00898261
3858	0.00870335
3870	0.00907569
3882	0.00893606
3894	0.00912223
3906	0.0107047
3918	0.00902915
3930	0.00926186
3942	0.00944803
3954	0.00893606
3966	0.00800522
