Infrared Spectrum: 3-Octanol, 3,6-dimethyl-
Formula: C 10 H 22 O
CAS: 151-19-9
Origin: Sadtler Research Labs Under US-EPA Contract
1/CM	ABSORBANCE
450	0.00477478
462	0.00614835
474	0.00621376
486	0.00392448
498	0.00353203
510	0.00549427
522	0.00516723
534	0.00451315
546	0.00438234
558	0.00215846
570	0.00366285
582	0.0056905
594	0.00398989
606	0.0040553
618	0.0040553
630	0.00457856
642	0.00549427
654	0.00529805
666	0.00425152
678	0.00595213
690	0.00582131
702	0.00536346
714	0.00660621
726	0.00968038
738	0.0126892
750	0.0116426
762	0.011381
774	0.0149784
786	0.0147168
798	0.0102691
810	0.00771814
822	0.00771814
834	0.00726029
846	0.00784896
858	0.00837222
870	0.013474
882	0.029499
894	0.0451969
906	0.032704
918	0.0422536
930	0.0614181
942	0.0451969
954	0.0251821
966	0.0277984
978	0.0366939
990	0.0423844
1002	0.0448045
1014	0.0393102
1026	0.0338159
1038	0.0352549
1050	0.0326386
1062	0.0267519
1074	0.0297606
1086	0.035582
1098	0.0406184
1110	0.0462435
1122	0.0489906
1134	0.0576244
1146	0.0692017
1158	0.0799286
1170	0.0706406
1182	0.0527188
1194	0.0431693
1206	0.042319
1218	0.0412724
1230	0.0381329
1242	0.0388524
1254	0.0441504
1266	0.0447391
1278	0.0427114
1290	0.0434309
1302	0.0446737
1314	0.043758
1326	0.0421228
1338	0.046178
1350	0.0503642
1362	0.0536346
1374	0.096346
1386	0.122509
1398	0.0468975
1410	0.0234815
1422	0.019557
1434	0.0243318
1446	0.0448699
1458	0.0974579
1470	0.11054
1482	0.0431039
1494	0.0164828
1506	0.0111194
1518	0.00869926
1530	0.00640998
1542	0.00562509
1554	0.00640998
1566	0.00516723
1578	0.00425152
1590	0.00451315
1602	0.00451315
1614	0.00398989
1626	0.00366285
1638	0.00353203
1650	0.00425152
1662	0.00398989
1674	0.00366285
1686	0.0032704
1698	0.00366285
1710	0.0032704
1722	0.00385907
1734	0.00379366
1746	0.00333581
1758	0.00274714
1770	0.00228928
1782	0.00222387
1794	0.00202765
1806	0.00209306
1818	0.00202765
1830	0.0016352
1842	0.00137357
1854	0.00137357
1866	0.00137357
1878	0.00137357
1890	0.00104653
1902	0.00130816
1914	0.000784896
1926	0.00111194
1938	0.00065408
1950	0.000719488
1962	0.000588672
1974	6.5408e-05
1986	0.000392448
1998	0.00032704
2010	6.5408e-05
2022	0.000523264
2034	0.000392448
2046	0.00098112
2058	0.000850304
2070	0.000850304
2082	0.000915712
2094	0.000784896
2106	0.000784896
2118	0.00032704
2130	0.000784896
2142	0.00065408
2154	0.000719488
2166	0.000588672
2178	0.000719488
2190	0.000588672
2202	0.000588672
2214	0.000523264
2226	0.000457856
2238	0.000523264
2250	0.000588672
2262	0.00098112
2274	0.00104653
2286	0.00104653
2298	0.00150438
2310	0.00098112
2322	0.000850304
2334	0.00098112
2346	0.00150438
2358	0.00104653
2370	0.00202765
2382	0.0024201
2394	0.00215846
2406	0.00156979
2418	0.0016352
2430	0.00137357
2442	0.00170061
2454	0.00111194
2466	0.00111194
2478	0.00111194
2490	0.00111194
2502	0.00111194
2514	0.00111194
2526	0.00117734
2538	0.00176602
2550	0.00170061
2562	0.00222387
2574	0.00274714
2586	0.00372826
2598	0.00372826
2610	0.00425152
2622	0.00477478
2634	0.00431693
2646	0.00470938
2658	0.00529805
2670	0.00523264
2682	0.00621376
2694	0.00601754
2706	0.0065408
2718	0.00719488
2730	0.0098112
2742	0.011381
2754	0.0106615
2766	0.0098112
2778	0.0103999
2790	0.0124929
2802	0.0151092
2814	0.0204073
2826	0.0266211
2838	0.037348
2850	0.0637728
2862	0.135591
2874	0.204008
2886	0.253652
2898	0.203288
2910	0.224415
2922	0.3326
2934	0.434113
2946	0.427049
2958	0.395588
2970	0.641195
2982	0.455632
2994	0.146841
3006	0.0477478
3018	0.0258362
3030	0.019557
3042	0.0160904
3054	0.0140627
3066	0.0124275
3078	0.0125583
3090	0.0105307
3102	0.00961498
3114	0.00804518
3126	0.00660621
3138	0.00634458
3150	0.00706406
3162	0.00667162
3174	0.00660621
3186	0.00667162
3198	0.00484019
3210	0.0041207
3222	0.00313958
3234	0.00228928
3246	0.00143898
3258	0.00137357
3270	0.00130816
3282	0.00137357
3294	0.00170061
3306	0.00176602
3318	0.00170061
3330	0.00130816
3342	0.00143898
3354	0.00156979
3366	0.00183142
3378	0.00183142
3390	0.00183142
3402	0.00150438
3414	0.00183142
3426	0.00143898
3438	0.00189683
3450	0.00189683
3462	0.00098112
3474	0.00130816
3486	0.00189683
3498	0.000850304
3510	0.00137357
3522	0.00124275
3534	0.000915712
3546	0.000523264
3558	0.00156979
3570	0.00124275
3582	0.00137357
3594	0.00156979
3606	0.00209306
3618	0.00470938
3630	0.0141281
3642	0.0283871
3654	0.016025
3666	0.00477478
3678	0.00333581
3690	0.00235469
3702	0.00170061
3714	0.00209306
3726	0.00150438
3738	0.00228928
3750	0.000850304
3762	0.00156979
3774	0.00098112
3786	0.000261632
3798	0.00065408
3810	0.000719488
3822	0.000719488
3834	0.00150438
3846	0.000130816
3858	0.00183142
3870	0.000588672
3882	0.000130816
3894	0.000457856
3906	0.000915712
3918	0.000588672
3930	6.5408e-05
3942	0.000130816
3954	6.5408e-05
3966	6.5408e-05
