Infrared Spectrum: Propane, 1,1,2,3,3-pentachloro-
Formula: C 3 H 3 Cl 5
CAS: 15104-61-7
Origin: Sadtler Research Labs Under US-EPA Contract
1/CM	ABSORBANCE
450	0.00424216
462	0.00546178
474	0.00604508
486	0.00689351
498	0.000265135
510	0.00498454
522	0.00721167
534	0.00625719
546	0.0205745
558	0.11772
570	0.072647
582	0.00705259
594	0.00620416
606	0.00562086
618	0.003924
630	0.00450729
642	0.0168096
654	0.0911004
666	0.133204
678	0.025612
690	0.015696
702	0.0370659
714	0.201662
726	0.295201
738	0.175254
750	0.482811
762	0.298171
774	0.0316571
786	0.0357402
798	0.0409899
810	0.0583827
822	0.0948653
834	0.240477
846	0.210093
858	0.0251348
870	0.00906762
882	0.00509059
894	0.00540875
906	0.00540875
918	0.0047194
930	0.00859037
942	0.00927972
954	0.0100751
966	0.0132567
978	0.0080601
990	0.0167565
1002	0.0395051
1014	0.0462926
1026	0.011825
1038	0.019567
1050	0.0380734
1062	0.0270438
1074	0.00906762
1086	0.00296951
1098	0.0033407
1110	0.000742378
1122	0.00217411
1134	0.00174989
1146	0.00159081
1158	0.00662837
1170	0.0123023
1182	0.0346797
1194	0.0329298
1206	0.0466107
1218	0.0933805
1230	0.0496333
1242	0.0734954
1254	0.0404596
1266	0.025453
1278	0.0623067
1290	0.0249227
1302	0.0108175
1314	0.0307557
1326	0.0250818
1338	0.00514362
1350	0.0027574
1362	0.00180292
1374	0.00281043
1386	0.00355281
1398	0.00307557
1410	0.00307557
1422	0.00360584
1434	0.00461335
1446	0.00466638
1458	0.0033407
1470	0.00296951
1482	0.00201503
1494	0.00164384
1506	0.000742378
1518	0.000689351
1530	0.00174989
1542	0.000371189
1554	0.00344676
1566	0.00265135
1578	0.00265135
1590	0.00228016
1602	0.00132567
1614	0.00100751
1626	0.000689351
1638	0.00121962
1650	0.00180292
1662	0.00180292
1674	0.00153778
1686	0.000742378
1698	0.000742378
1710	0.00127265
1722	0.000901459
1734	0.00143173
1746	0.00180292
1758	0.00174989
1770	0.00127265
1782	0.000954486
1794	0.000689351
1806	0.00169686
1818	0.00111357
1830	0.000742378
1842	0.000848432
1854	0.000742378
1866	0.000742378
1878	0.00100751
1890	0.000636324
1902	0.00111357
1914	0.000689351
1926	0.000742378
1938	0.00111357
1950	0.00116659
1962	0.00116659
1974	0.00116659
1986	0.00111357
1998	0.00116659
2010	0.00116659
2022	0.00116659
2034	0.00121962
2046	0.00111357
2058	0.00159081
2070	0.00106054
2082	0.00111357
2094	0.00111357
2106	0.00053027
2118	0.00053027
2130	0.00111357
2142	0.00053027
2154	0.00116659
2166	0.00106054
2178	0.000954486
2190	0.00100751
2202	0.00159081
2214	0.00206805
2226	0.00148476
2238	0.00106054
2250	0.00100751
2262	0.00106054
2274	0.00106054
2286	0.00153778
2298	0.00100751
2310	0.000954486
2322	0.000212108
2334	0.000318162
2346	0.000212108
2358	0.000212108
2370	0.000212108
2382	0.000901459
2394	0.00190897
2406	0.00291648
2418	0.00344676
2430	0.00296951
2442	0.00206805
2454	0.00238622
2466	0.00190897
2478	0.00206805
2490	0.00281043
2502	0.0033407
2514	0.003924
2526	0.00387097
2538	0.00243924
2550	0.00190897
2562	0.00190897
2574	0.00143173
2586	0.00143173
2598	0.00127265
2610	0.000795405
2622	0.0013787
2634	0.0013787
2646	0.00132567
2658	0.00106054
2670	0.00132567
2682	0.000901459
2694	0.00143173
2706	0.00143173
2718	0.000848432
2730	0.000795405
2742	0.00132567
2754	0.00106054
2766	0.000848432
2778	0.00132567
2790	0.00127265
2802	0.00132567
2814	0.000795405
2826	0.00127265
2838	0.00132567
2850	0.00190897
2862	0.00127265
2874	0.00185594
2886	0.00185594
2898	0.00127265
2910	0.00132567
2922	0.00127265
2934	0.0013787
2946	0.00233319
2958	0.00715864
2970	0.0181883
2982	0.00625719
2994	0.0027574
3006	0.00795405
3018	0.0243924
3030	0.00694654
3042	0.00190897
3054	0.00132567
3066	0.00169686
3078	0.00174989
3090	0.00159081
3102	0.000901459
3114	0.00180292
3126	0.000901459
3138	0.00164384
3150	0.00238622
3162	0.00185594
3174	0.00132567
3186	0.00132567
3198	0.00169686
3210	0.0013787
3222	0.000795405
3234	0.00111357
3246	0.000795405
3258	0.00132567
3270	0.00132567
3282	0.00121962
3294	0.00111357
3306	0.000795405
3318	0.00121962
3330	0.000795405
3342	0.00132567
3354	0.00159081
3366	0.000848432
3378	0.00127265
3390	0.00132567
3402	0.00111357
3414	0.000742378
3426	0.00132567
3438	0.00132567
3450	0.00153778
3462	0.00100751
3474	0.000848432
3486	0.000848432
3498	0.000371189
3510	0.00106054
3522	0.000795405
3534	0.00121962
3546	0.00127265
3558	0.000954486
3570	0.000795405
3582	0.000742378
3594	0.000371189
3606	0.000848432
3618	0.000212108
3630	0.000212108
3642	0.000795405
3654	0.000318162
3666	0.00132567
3678	0.00127265
3690	0.000424216
3702	0.000848432
3714	0.000848432
3726	0.00169686
3738	0.00127265
3750	0.000795405
3762	0.00127265
3774	0.00180292
3786	0.00180292
3798	0.00174989
3810	0.00228016
3822	0.00127265
3834	0.00180292
3846	0.00153778
3858	0.00174989
3870	0.00127265
3882	0.00169686
3894	0.00206805
3906	0.00121962
3918	0.00132567
3930	0.00185594
3942	0.00228016
3954	0
3966	0.000212108
