Infrared Spectrum: Benzeneethanol, 2-nitro-
Formula: C 8 H 9 N O 3
CAS: 15121-84-3
Origin: Sadtler Research Labs Under US-EPA Contract
1/CM	ABSORBANCE
450	0.0351377
462	0.00464785
474	0.00548446
486	0.010876
498	0.0246336
510	0.0296533
522	0.0122703
534	0.00111548
546	0.000743656
558	0.00659995
570	0.00883091
582	0.0193351
594	0.0131069
606	0.00632108
618	0.00269575
630	0.00102253
642	0.00455489
654	0.0230533
666	0.064884
678	0.0304899
690	0.0242618
702	0.0610727
714	0.05847
726	0.092864
738	0.210734
750	0.11945
762	0.0527066
774	0.114709
786	0.10216
798	0.0210083
810	0.0244477
822	0.0219379
834	0.0170111
846	0.0598643
858	0.141388
870	0.0765036
882	0.0321631
894	0.0101323
906	0.00883091
918	0.00976048
930	0.0144083
942	0.0213801
954	0.0250054
966	0.0225886
978	0.0285378
990	0.043225
1002	0.0744586
1014	0.10216
1026	0.146965
1038	0.322747
1050	0.429368
1062	0.193536
1074	0.105506
1086	0.0753881
1098	0.0401574
1110	0.0299322
1122	0.0336504
1134	0.0395067
1146	0.0425743
1158	0.0563319
1170	0.0533573
1182	0.0407152
1194	0.0443405
1206	0.0438757
1218	0.0402504
1230	0.043318
1242	0.0483376
1254	0.0544728
1266	0.0586559
1278	0.0629319
1290	0.0765966
1302	0.0964894
1314	0.0975119
1326	0.107551
1338	0.179779
1350	0.439594
1362	0.571964
1374	0.210826
1386	0.106529
1398	0.0871937
1410	0.0739938
1422	0.060515
1434	0.0661854
1446	0.100115
1458	0.0872866
1470	0.0806867
1482	0.120193
1494	0.124841
1506	0.170018
1518	0.296626
1530	0.529669
1542	0.92957
1554	0.57215
1566	0.229883
1578	0.147709
1590	0.0925852
1602	0.0874725
1614	0.0897965
1626	0.0308617
1638	0.0118055
1650	0.0073436
1662	0.00548446
1674	0.00213801
1686	0.00232393
1698	0.00288167
1710	0.00464785
1722	0.00576333
1734	0.00641403
1746	0.00371828
1758	0.00371828
1770	0.00223097
1782	0.00102253
1794	0.00250984
1806	0.00706473
1818	0.00910979
1830	0.00567038
1842	0.00353237
1854	0.00362532
1866	0.00102253
1878	0.00185914
1890	0.00334645
1902	0.00483376
1914	0.00492672
1926	0.0112478
1938	0.00827317
1950	0.00585629
1962	0.00938866
1974	0.00278871
1986	0.000743656
1998	0.000836613
2010	0.00102253
2022	0.00102253
2034	0.00139435
2046	0.00176618
2058	0.00250984
2070	0.00325349
2082	0.00325349
2094	0.00223097
2106	0.00167323
2118	0.00139435
2130	0.000743656
2142	0.000743656
2154	0.00092957
2166	0.000836613
2178	0.000743656
2190	0.000371828
2202	0.00092957
2214	0.000836613
2226	0.00148731
2238	0.0013014
2250	0.00102253
2262	0.000557742
2274	0.000185914
2286	0.00102253
2298	0.00185914
2310	0.00278871
2322	0.00371828
2334	0.00306758
2346	0.00167323
2358	0.00278871
2370	0.00167323
2382	0.00381124
2394	0.00455489
2406	0.00399715
2418	0.00381124
2430	0.00418306
2442	0.00418306
2454	0.00297462
2466	0.00213801
2478	0.00223097
2490	0.00250984
2502	0.00278871
2514	0.00204505
2526	0.00167323
2538	0.00167323
2550	0.00158027
2562	0.00223097
2574	0.00176618
2586	0.00204505
2598	0.00241688
2610	0.00288167
2622	0.00316054
2634	0.00399715
2646	0.00455489
2658	0.00567038
2670	0.00613516
2682	0.00594925
2694	0.00706473
2706	0.00780839
2718	0.00808726
2730	0.00920274
2742	0.0099464
2754	0.0104112
2766	0.0110619
2778	0.0123633
2790	0.0132929
2802	0.0143154
2814	0.0158027
2826	0.0183125
2838	0.0229604
2850	0.0311406
2862	0.0470362
2874	0.0789205
2886	0.125957
2898	0.136461
2910	0.0982555
2922	0.090726
2934	0.116475
2946	0.139157
2958	0.134044
2970	0.0964894
2982	0.0708332
2994	0.0397856
3006	0.0209153
3018	0.0158027
3030	0.0214731
3042	0.0275153
3054	0.0247266
3066	0.0466644
3078	0.0830106
3090	0.054008
3102	0.0131069
3114	0.00520559
3126	0.00269575
3138	0.00158027
3150	0.00111548
3162	0.00185914
3174	0.000650699
3186	0.00092957
3198	0.00092957
3210	0.000743656
3222	0.000371828
3234	0.000464785
3246	0.000185914
3258	0.000185914
3270	0.000371828
3282	0.000185914
3294	0.000743656
3306	0.000278871
3318	0.00092957
3330	0.00139435
3342	0.00139435
3354	0.00223097
3366	0.0026028
3378	0.00343941
3390	0.00343941
3402	0.00520559
3414	0.00548446
3426	0.00604221
3438	0.00650699
3450	0.00622812
3462	0.00585629
3474	0.00697177
3486	0.00585629
3498	0.00613516
3510	0.00548446
3522	0.00613516
3534	0.00585629
3546	0.00697177
3558	0.00706473
3570	0.00818022
3582	0.00855204
3594	0.0106901
3606	0.0144083
3618	0.0221238
3630	0.0177548
3642	0.0175689
3654	0.0402504
3666	0.0706473
3678	0.0481517
3690	0.0137576
3702	0.00288167
3714	0
3726	0
3738	0
3750	0
3762	0
3774	0
3786	0
3798	0
3810	0
3822	0
3834	0
3846	0
3858	0
3870	0
3882	0
3894	0
3906	0
3918	0
3930	0
3942	9.2957e-05
3954	0
3966	0
