Infrared Spectrum: Naphtho[1,2-d]-1,3-oxathiol-2-one
Formula: C 11 H 6 O 2 S
CAS: 15137-41-4
Origin: Sadtler Research Labs Under US-EPA Contract
1/CM	ABSORBANCE
450	0.0358692
462	0.0057746
474	0.0093282
486	0.00122155
498	0.00388675
510	0.0127708
522	0.0145476
534	0.0143254
546	0.0073293
558	0.00766245
570	0.0091061
582	0.0167686
594	0.015658
606	0.0059967
618	0.00610775
630	0.0167686
642	0.0192117
654	0.0212106
666	0.0390896
678	0.0248752
690	0.0028873
702	0.0064409
714	0.00610775
726	0.0118823
738	0.0448642
750	0.0240979
762	0.0293172
774	0.0253194
786	0.04442
798	0.073404
810	0.062188
822	0.0158801
834	0.0105498
846	0.010994
858	0.0138812
870	0.0093282
882	0.0079956
894	0.0071072
906	0.00832875
918	0.00943925
930	0.0121045
942	0.0169906
954	0.0382012
966	0.136258
978	0.160134
990	0.0744035
1002	0.0149917
1014	0.0185454
1026	0.0233205
1038	0.015547
1050	0.0233205
1062	0.0589676
1074	0.0449753
1086	0.0116603
1098	0.00766245
1110	0.00810665
1122	0.0104387
1134	0.0124376
1146	0.0118823
1158	0.0107718
1170	0.00721825
1182	0.00299835
1194	0.0079956
1206	0.0178791
1218	0.0136592
1230	0.0166575
1242	0.110384
1254	0.141589
1266	0.0738483
1278	0.0175459
1290	0.0097724
1302	0.0114382
1314	0.0103277
1326	0.0143254
1338	0.0217658
1350	0.0286509
1362	0.0323155
1374	0.0480846
1386	0.0159912
1398	0.0059967
1410	0.00610775
1422	0.00721825
1434	0.0135481
1446	0.02221
1458	0.035425
1470	0.0134371
1482	0.0141034
1494	0.0125486
1506	0.0264299
1518	0.0319824
1530	0.0097724
1542	0.00144365
1554	0.00855085
1566	0.011105
1578	0.0131039
1590	0.0272073
1602	0.0240979
1614	0.0191006
1626	0.0298725
1638	0.0240979
1650	0.0103277
1662	0.0118823
1674	0.004442
1686	0.0062188
1698	0.00544145
1710	0.0157691
1722	0.0277625
1734	0.0295393
1746	0.035647
1758	0.0678515
1770	0.0958362
1782	0.174571
1794	1.02399
1806	0.488842
1818	0.0547477
1830	0.0234315
1842	0.0186564
1854	0.0202111
1866	0.0167686
1878	0.0193227
1890	0.0138812
1902	0.0157691
1914	0.0192117
1926	0.0264299
1938	0.0337592
1950	0.0339813
1962	0.0217658
1974	0.0116603
1986	0.0102166
1998	0.0097724
2010	0.011216
2022	0.013326
2034	0.0171017
2046	0.0159912
2058	0.0093282
2070	0.00744035
2082	0.0068851
2094	0.006663
2106	0.00655195
2118	0.00655195
2130	0.0068851
2142	0.00632985
2154	0.00588565
2166	0.0055525
2178	0.0055525
2190	0.00566355
2202	0.00544145
2214	0.00566355
2226	0.0057746
2238	0.0059967
2250	0.0051083
2262	0.0046641
2274	0.00521935
2286	0.00544145
2298	0.00588565
2310	0.00699615
2322	0.0068851
2334	0.0059967
2346	0.00766245
2358	0.0059967
2370	0.004442
2382	0.0059967
2394	0.00388675
2406	0.0037757
2418	0.0033315
2430	0.0024431
2442	0.0024431
2454	0.00277625
2466	0.0028873
2478	0.002221
2490	0.002221
2502	0.0019989
2514	0.00188785
2526	0.0019989
2538	0.00166575
2550	0.00122155
2562	0.0011105
2574	0.00166575
2586	0.0019989
2598	0.00166575
2610	0.00233205
2622	0.0015547
2634	0.0011105
2646	0.00077735
2658	0.0006663
2670	0.0006663
2682	0.0008884
2694	0.00055525
2706	0.00077735
2718	0.00077735
2730	0.0004442
2742	0.00055525
2754	0.00033315
2766	0.0006663
2778	0.0008884
2790	0.0006663
2802	0.00077735
2814	0.00077735
2826	0.00055525
2838	0.00055525
2850	0.00077735
2862	0.00099945
2874	0.0008884
2886	0.00077735
2898	0.00099945
2910	0.00077735
2922	0.0008884
2934	0.00166575
2946	0.0015547
2958	0.00233205
2970	0.0017768
2982	0.00188785
2994	0.00233205
3006	0.0026652
3018	0.0051083
3030	0.00677405
3042	0.00810665
3054	0.0124376
3066	0.0415327
3078	0.0275404
3090	0.0123266
3102	0.0086619
3114	0.0024431
3126	0.00144365
3138	0.00122155
3150	0.0011105
3162	0.00144365
3174	0.0015547
3186	0.00144365
3198	0.0011105
3210	0.0011105
3222	0.00122155
3234	0.00077735
3246	0.00077735
3258	0.0013326
3270	0.00122155
3282	0.0011105
3294	0.0002221
3306	0.00055525
3318	0.00122155
3330	0.0015547
3342	0.0015547
3354	0.0008884
3366	0.00099945
3378	0.00122155
3390	0.0006663
3402	0.0015547
3414	0.0011105
3426	0.00188785
3438	0.00166575
3450	0.002221
3462	0.0017768
3474	0.0013326
3486	0.00077735
3498	0.00188785
3510	0.0024431
3522	0.0024431
3534	0.0017768
3546	0.0028873
3558	0.00455305
3570	0.0091061
3582	0.0079956
3594	0.00277625
3606	0.00166575
3618	0.00144365
3630	0.00322045
3642	0.00233205
3654	0.00299835
3666	0.0031094
3678	0.0017768
3690	0.0013326
3702	0.00099945
3714	0.002221
3726	0.00299835
3738	0.00077735
3750	0.002221
3762	0.00099945
3774	0.00144365
3786	0.0026652
3798	0.0011105
3810	0.0033315
3822	0.0006663
3834	0.0024431
3846	0.00099945
3858	0.0011105
3870	0.0024431
3882	0.0019989
3894	0.0026652
3906	0.0024431
3918	0.0026652
3930	0.00299835
3942	0.00077735
3954	0.00210995
3966	0.00277625
