Infrared Spectrum: Ethanol, 2-(4-methylphenoxy)-
Formula: C 9 H 12 O 2
CAS: 15149-10-7
Origin: Sadtler Research Labs Under US-EPA Contract
1/CM	ABSORBANCE
450	0.0116202
462	0.0146254
474	0.0181315
486	0.0297517
498	0.0492856
510	0.056398
522	0.0413719
534	0.0283492
546	0.0291506
558	0.0338588
570	0.0275478
582	0.0102177
594	0.00350609
606	0.00310539
618	0.00340592
630	0.0027047
642	0.00260452
654	0.000601044
666	0
678	0.00210365
690	0.0077134
702	0.0147256
714	0.0223388
726	0.0269468
738	0.0386672
750	0.0219381
762	0.00861496
774	0.0133231
786	0.0318553
798	0.0843465
810	0.156271
822	0.175705
834	0.104081
846	0.0522908
858	0.0440766
870	0.0516898
882	0.0668161
894	0.0957663
906	0.120109
918	0.0933622
930	0.050087
942	0.0336585
954	0.0283492
966	0.027047
978	0.0318553
990	0.0433753
1002	0.067918
1014	0.133231
1026	0.243122
1038	0.445374
1050	0.412316
1062	0.260553
1074	0.2301
1086	0.216676
1098	0.168192
1110	0.130827
1122	0.102378
1134	0.0793378
1146	0.0635103
1158	0.0672168
1170	0.188127
1182	0.145653
1194	0.112796
1206	0.216676
1218	0.394385
1230	0.637006
1242	1.00174
1254	0.554163
1266	0.237312
1278	0.254041
1290	0.241219
1302	0.135836
1314	0.0831444
1326	0.0697211
1338	0.0641114
1350	0.0730268
1362	0.0910582
1374	0.119007
1386	0.0847472
1398	0.0719249
1410	0.0672168
1422	0.0567987
1434	0.0487847
1446	0.0595034
1458	0.123615
1470	0.112996
1482	0.0835451
1494	0.14976
1506	0.668161
1518	0.696309
1530	0.140043
1542	0.0341593
1554	0.024743
1566	0.0287499
1578	0.049486
1590	0.0803395
1602	0.101977
1614	0.155771
1626	0.0891549
1638	0.0312543
1650	0.0122212
1662	0.01152
1674	0.00290505
1686	0.000300522
1698	0
1710	0.00751305
1722	0.00781357
1734	0.00320557
1746	0.0113197
1758	0.0144251
1770	0.00881531
1782	0.00591027
1794	0.00350609
1806	0.00621079
1818	0.00611061
1830	0.00400696
1842	0.00631096
1854	0.0128223
1866	0.0167291
1878	0.017831
1890	0.01152
1902	0.00991723
1914	0.00801392
1926	0.00861496
1938	0.00981705
1950	0.0100174
1962	0.0104181
1974	0.0112195
1986	0.0108188
1998	0.00811409
2010	0.00721253
2022	0.00611061
2034	0.00661148
2046	0.00711235
2058	0.00871514
2070	0.00921601
2082	0.00891549
2094	0.00741288
2106	0.00651131
2118	0.00490853
2130	0.00370644
2142	0.00240418
2154	0.00130226
2166	0.000601044
2178	0.00050087
2190	0
2202	0
2214	0.000100174
2226	0.000701218
2238	0.000601044
2250	0.000901566
2262	0.00110191
2274	0.00160278
2286	0.00290505
2298	0.004608
2310	0.00601044
2322	0.0054094
2334	0.00370644
2346	0.00520905
2358	0.00400696
2370	0.00370644
2382	0.00410713
2394	0.00280487
2406	0.00360626
2418	0.00420731
2430	0.00440766
2442	0.00430748
2454	0.0054094
2466	0.00581009
2478	0.00641114
2490	0.00581009
2502	0.00490853
2514	0.00601044
2526	0.00691201
2538	0.00621079
2550	0.00450783
2562	0.00320557
2574	0.00290505
2586	0.00300522
2598	0.00290505
2610	0.00220383
2622	0.00150261
2634	0.00160278
2646	0.00190331
2658	0.00250435
2670	0.00310539
2682	0.00430748
2694	0.00591027
2706	0.00811409
2718	0.0105183
2730	0.0136237
2742	0.0173301
2754	0.0154268
2766	0.0122212
2778	0.0131228
2790	0.015527
2802	0.0180313
2814	0.0218379
2826	0.0287499
2838	0.0378658
2850	0.0578004
2862	0.103179
2874	0.185923
2886	0.222086
2898	0.182317
2910	0.176807
2922	0.233005
2934	0.335984
2946	0.289202
2958	0.2304
2970	0.194237
2982	0.128924
2994	0.0977698
3006	0.0905573
3018	0.0914589
3030	0.140244
3042	0.143549
3054	0.0699215
3066	0.0609058
3078	0.0527917
3090	0.0358623
3102	0.029952
3114	0.0221385
3126	0.0139242
3138	0.00861496
3150	0.00340592
3162	0.00170296
3174	0.00150261
3186	0.000701218
3198	0.00120209
3210	0.00050087
3222	0.000601044
3234	0.00050087
3246	0.000901566
3258	0.000300522
3270	0.000200348
3282	0.00050087
3294	0.000701218
3306	0.00120209
3318	0.000901566
3330	0.000901566
3342	0.00120209
3354	0.000601044
3366	0.000400696
3378	0.000300522
3390	0.000200348
3402	0.000701218
3414	0.00050087
3426	0.000601044
3438	0.000801392
3450	0.000901566
3462	0.00120209
3474	0.00120209
3486	0.00100174
3498	0.00170296
3510	0.00190331
3522	0.00240418
3534	0.00340592
3546	0.00360626
3558	0.0027047
3570	0.00400696
3582	0.00440766
3594	0.00651131
3606	0.0101176
3618	0.0199346
3630	0.0462804
3642	0.0738282
3654	0.0467813
3666	0.0395687
3678	0.0323562
3690	0.0187325
3702	0.00801392
3714	0.00550957
3726	0.00430748
3738	0.00470818
3750	0.00360626
3762	0.00320557
3774	0.00250435
3786	0.00200348
3798	0.00190331
3810	0.00160278
3822	0.00160278
3834	0.00120209
3846	0.000400696
3858	0.00130226
3870	0.00160278
3882	0.00170296
3894	0.000400696
3906	0.00160278
3918	0.00170296
3930	0.0027047
3942	0.00130226
3954	0.00200348
3966	0.000601044
