Infrared Spectrum: Disulfide, bis(2-methylpropyl)
Formula: C 8 H 18 S 2
CAS: 1518-72-5
Origin: Sadtler Research Labs Under US-EPA Contract
1/CM	ABSORBANCE
450	0.00383041
462	0.0150575
474	0.0157179
486	0
498	0.00766081
510	0.0153216
522	0.0171708
534	0.0157179
546	0.0171708
558	0.014397
570	0.0121516
582	0.0149254
594	0.00501915
606	0.0108308
618	0.0129441
630	0.0167745
642	0.0109629
654	0.0153216
666	0.014397
678	0.014265
690	0.0165104
702	0.0199445
714	0.0204729
726	0.0167745
738	0.0145291
750	0.0176991
762	0.01585
774	0.0146612
786	0.0211333
798	0.042927
810	0.0306433
822	0.0219258
834	0.023907
846	0.0269449
858	0.0417382
870	0.0196804
882	0.0132083
894	0.014265
906	0.0153216
918	0.0307753
930	0.0398891
942	0.0409457
954	0.0323603
966	0.0194162
978	0.01268
990	0.0125479
1002	0.0129441
1014	0.01268
1026	0.0150575
1038	0.0157179
1050	0.0176991
1062	0.0301149
1074	0.0447761
1086	0.031832
1098	0.0261524
1110	0.030247
1122	0.0216616
1134	0.0229824
1146	0.0291903
1158	0.0570599
1170	0.119007
1182	0.0435874
1194	0.0281337
1206	0.0561353
1218	0.0746269
1230	0.0960243
1242	0.161538
1254	0.0549465
1266	0.0273412
1278	0.020737
1290	0.0195483
1302	0.0233787
1314	0.0549465
1326	0.0916656
1338	0.0550786
1350	0.0348699
1362	0.0760798
1374	0.165104
1386	0.192973
1398	0.0932506
1410	0.0619469
1422	0.0594373
1434	0.0713248
1446	0.0804385
1458	0.144367
1470	0.20103
1482	0.0987981
1494	0.0388324
1506	0.0236429
1518	0.015982
1530	0.0129441
1542	0.0112271
1554	0.0112271
1566	0.0109629
1578	0.0105666
1590	0.0108308
1602	0.0113591
1614	0.0104346
1626	0.011095
1638	0.011095
1650	0.0118875
1662	0.0121516
1674	0.0118875
1686	0.0108308
1698	0.00977414
1710	0.0101704
1722	0.00858539
1734	0.00818915
1746	0.00884956
1758	0.00832123
1770	0.00752873
1782	0.0077929
1794	0.0070004
1806	0.00739665
1818	0.00739665
1830	0.00686832
1842	0.00726456
1854	0.00739665
1866	0.00713248
1878	0.0077929
1890	0.00673623
1902	0.00633998
1914	0.00686832
1926	0.0062079
1938	0.00607582
1950	0.0062079
1962	0.00594373
1974	0.0054154
1986	0.00594373
1998	0.0062079
2010	0.00660415
2022	0.00660415
2034	0.00567957
2046	0.00581165
2058	0.00475499
2070	0.00396249
2082	0.0046229
2094	0.00554749
2106	0.00594373
2118	0.00633998
2130	0.00633998
2142	0.00528332
2154	0.00528332
2166	0.00567957
2178	0.00633998
2190	0.00660415
2202	0.00475499
2214	0.00475499
2226	0.0046229
2238	0.0046229
2250	0.00488707
2262	0.00515124
2274	0.0046229
2286	0.00449082
2298	0.00567957
2310	0.00594373
2322	0.0062079
2334	0.00567957
2346	0.00581165
2358	0.00515124
2370	0.00581165
2382	0.00633998
2394	0.00567957
2406	0.00528332
2418	0.0046229
2430	0.00435874
2442	0.00277374
2454	0.00316999
2466	0.00330207
2478	0.00422666
2490	0.00356624
2502	0.00422666
2514	0.00316999
2526	0.00277374
2538	0.00264166
2550	0.00356624
2562	0.00290583
2574	0.00237749
2586	0.00145291
2598	0.001585
2610	0.00567957
2622	0.00937789
2634	0.00805706
2646	0.0062079
2658	0.00858539
2670	0.00713248
2682	0.00264166
2694	0.00303791
2706	0.0054154
2718	0.0077929
2730	0.0155858
2742	0.0166425
2754	0.0116233
2766	0.0141329
2778	0.0157179
2790	0.0183595
2802	0.0249637
2814	0.0357945
2826	0.0380399
2838	0.0433232
2850	0.0563994
2862	0.0847973
2874	0.275129
2886	0.424779
2898	0.315943
2910	0.395589
2922	0.396777
2934	0.473385
2946	0.549333
2958	0.776516
2970	1.32083
2982	0.557126
2994	0.125347
3006	0.052437
3018	0.0289262
3030	0.0202087
3042	0.0173029
3054	0.0162462
3066	0.0153216
3078	0.0146612
3090	0.0140008
3102	0.0133404
3114	0.0128121
3126	0.01268
3138	0.0125479
3150	0.014265
3162	0.0162462
3174	0.0196804
3186	0.0183595
3198	0.0163783
3210	0.0125479
3222	0.00950998
3234	0.00832123
3246	0.00924581
3258	0.00805706
3270	0.00739665
3282	0.00409457
3294	0.00396249
3306	0.00607582
3318	0.00594373
3330	0.00356624
3342	0.00475499
3354	0.00528332
3366	0.00607582
3378	0.00554749
3390	0.00607582
3402	0.00567957
3414	0.00383041
3426	0.00330207
3438	0.00369832
3450	0.00356624
3462	0.00633998
3474	0.00184916
3486	0.00554749
3498	0.00356624
3510	0.00237749
3522	0.00554749
3534	0.00303791
3546	0.00567957
3558	0.0062079
3570	0.00633998
3582	0.00567957
3594	0.00581165
3606	0.0062079
3618	0.0070004
3630	0.00422666
3642	0.00686832
3654	0.00726456
3666	0.00871748
3678	0.00739665
3690	0.00832123
3702	0.00766081
3714	0.00673623
3726	0.00792498
3738	0.00871748
3750	0.00792498
3762	0.00884956
3774	0.00950998
3786	0.00726456
3798	0.0077929
3810	0.00911373
3822	0.0106987
3834	0.0118875
3846	0.00792498
3858	0.00990622
3870	0.00528332
3882	0.00924581
3894	0.00752873
3906	0.00832123
3918	0.00884956
3930	0.00726456
3942	0.00792498
3954	0.00581165
3966	0.00607582
