Infrared Spectrum: Methan-d3-ol, sulfate (2:1)
Formula: C 2 D 6 O 4 S
CAS: 15199-43-6
Origin: Sadtler Research Labs Under US-EPA Contract
1/CM	ABSORBANCE
450	0
462	0.00829104
474	0.012022
486	0.039797
498	0.0493317
510	0.0421461
522	0.0377242
534	0.051819
546	0.078074
558	0.0787649
570	0.0688156
582	0.0936888
594	0.0512663
606	0.0317823
618	0.0110547
630	0.00939651
642	0.00842922
654	0.0111929
666	0.00898196
678	0.0147857
690	0.0222476
702	0.0461535
714	0.130584
726	0.251909
738	0.245138
750	0.153522
762	0.256193
774	0.538779
786	0.536016
798	0.248178
810	0.0764158
822	0.0417316
834	0.0323351
846	0.0287423
858	0.031506
870	0.0339933
882	0.0422843
894	0.0534772
906	0.0588664
918	0.0613537
930	0.0882996
942	0.130998
954	0.15449
966	0.177566
978	0.223996
990	0.424363
1002	1.02463
1014	1.38184
1026	0.923898
1038	0.4444
1050	0.274157
1062	0.155042
1074	0.161537
1086	0.193596
1098	0.173283
1110	0.114831
1122	0.0631501
1134	0.0649465
1146	0.0650847
1158	0.067572
1170	0.0643937
1182	0.070612
1194	0.131828
1206	0.458771
1218	0.882167
1230	0.695756
1242	0.285626
1254	0.176185
1266	0.142053
1278	0.0924451
1290	0.0543063
1302	0.0399352
1314	0.0334405
1326	0.0317823
1338	0.0248731
1350	0.0222476
1362	0.0251495
1374	0.0417316
1386	0.099907
1398	0.266833
1410	0.493317
1422	0.598337
1434	0.563514
1446	0.236847
1458	0.0362042
1470	0.0167203
1482	0.0132657
1494	0.0102256
1506	0.00939651
1518	0.00787649
1530	0.00663283
1542	0.00677102
1554	0.00787649
1566	0.00801467
1578	0.00746194
1590	0.0060801
1602	0.00594191
1614	0.00566554
1626	0.00442189
1638	0.00400734
1650	0.0034546
1662	0.00469826
1674	0.00511281
1686	0.00580373
1698	0.00760012
1710	0.0121602
1722	0.0182403
1734	0.0248731
1746	0.025564
1758	0.0221094
1770	0.0211422
1782	0.0200367
1794	0.0198985
1806	0.020313
1818	0.0153384
1830	0.0095347
1842	0.00663283
1854	0.00594191
1866	0.00552736
1878	0.00594191
1890	0.0060801
1902	0.00649465
1914	0.00746194
1926	0.00939651
1938	0.0122984
1950	0.0138184
1962	0.0134038
1974	0.0117456
1986	0.010502
1998	0.0095347
2010	0.00925833
2022	0.0110547
2034	0.0176876
2046	0.0244586
2058	0.0295714
2070	0.0425607
2082	0.065361
2094	0.0724084
2106	0.0577609
2118	0.0420079
2130	0.0436661
2142	0.0491935
2154	0.0403497
2166	0.0334405
2178	0.0389679
2190	0.0523717
2202	0.0701975
2214	0.0656374
2226	0.0489171
2238	0.0421461
2250	0.0453244
2262	0.0558263
2274	0.060801
2286	0.0489171
2298	0.0297096
2310	0.0207276
2322	0.0185167
2334	0.0160293
2346	0.0124366
2358	0.013542
2370	0.00912014
2382	0.00594191
2394	0.00456007
2406	0.00469826
2418	0.00469826
2430	0.00525099
2442	0.00525099
2454	0.00442189
2466	0.00386915
2478	0.00442189
2490	0.0042837
2502	0.0042837
2514	0.00442189
2526	0.0042837
2538	0.0042837
2550	0.00414552
2562	0.0042837
2574	0.0042837
2586	0.00469826
2598	0.00511281
2610	0.00635646
2622	0.0077383
2634	0.00760012
2646	0.00677102
2658	0.00497462
2670	0.00386915
2682	0.00386915
2694	0.00386915
2706	0.00386915
2718	0.00386915
2730	0.00386915
2742	0.0042837
2754	0.00400734
2766	0.00373097
2778	0.00359278
2790	0.00386915
2802	0.00331642
2814	0.00386915
2826	0.00373097
2838	0.00373097
2850	0.00373097
2862	0.00359278
2874	0.00400734
2886	0.00442189
2898	0.00566554
2910	0.00566554
2922	0.00538918
2934	0.00566554
2946	0.00677102
2958	0.0069092
2970	0.00760012
2982	0.00649465
2994	0.00594191
3006	0.00566554
3018	0.00538918
3030	0.00525099
3042	0.00497462
3054	0.00456007
3066	0.00469826
3078	0.00511281
3090	0.00525099
3102	0.00456007
3114	0.00456007
3126	0.00483644
3138	0.00442189
3150	0.00469826
3162	0.00469826
3174	0.00456007
3186	0.0042837
3198	0.00442189
3210	0.00469826
3222	0.0042837
3234	0.00386915
3246	0.00373097
3258	0.00373097
3270	0.0042837
3282	0.00469826
3294	0.00456007
3306	0.00442189
3318	0.00566554
3330	0.00621828
3342	0.00635646
3354	0.0060801
3366	0.00525099
3378	0.00483644
3390	0.00511281
3402	0.00469826
3414	0.00456007
3426	0.00456007
3438	0.00469826
3450	0.00414552
3462	0.00456007
3474	0.00483644
3486	0.00525099
3498	0.00497462
3510	0.00483644
3522	0.00442189
3534	0.00483644
3546	0.00497462
3558	0.00525099
3570	0.0060801
3582	0.0060801
3594	0.00594191
3606	0.00566554
3618	0.00511281
3630	0.00732375
3642	0.00884378
3654	0.0113311
3666	0.0118838
3678	0.0122984
3690	0.0103638
3702	0.0122984
3714	0.0128511
3726	0.010502
3738	0.00677102
3750	0.00621828
3762	0.00483644
3774	0.00580373
3786	0.00483644
3798	0.00538918
3810	0.00483644
3822	0.00511281
3834	0.00552736
3846	0.00483644
3858	0.00442189
3870	0.00497462
3882	0.00456007
3894	0.00552736
3906	0.00414552
3918	0.00511281
3930	0.00469826
3942	0.00580373
3954	0.00400734
3966	0.0034546
