Infrared Spectrum: O,O,O-Trimethyl thiophosphate
Formula: C 3 H 9 O 3 P S
CAS: 152-18-1
Origin: Sadtler Research Labs Under US-EPA Contract
1/CM	ABSORBANCE
450	0.00882793
462	0.00825839
474	0.0139538
486	0.0169439
498	0.00469874
510	0.00498351
522	0.000284772
534	0.00640737
546	0.00783123
558	0.00882793
570	0.0115333
582	0.00882793
594	0.0140962
606	0.0227818
618	0.0195069
630	0.0160896
642	0.00783123
654	0.00840077
666	0.00555305
678	0.00669214
690	0.00213579
702	0.00370204
714	0.00270533
726	0.00441397
738	0.00854316
750	0.0130995
762	0.0223546
774	0.0327488
786	0.0519709
798	0.0968225
810	0.202046
822	0.411211
834	0.767318
846	0.538077
858	0.254871
870	0.0815872
882	0.0381594
894	0.0252023
906	0.0173711
918	0.0166592
930	0.0140962
942	0.0119604
954	0.0135267
966	0.0172287
978	0.0222122
990	0.0310401
1002	0.0496927
1014	0.0835806
1026	0.192791
1038	0.567123
1050	1.25698
1062	1.29372
1074	0.543772
1086	0.241914
1098	0.152353
1110	0.120174
1122	0.0989583
1134	0.0803057
1146	0.0663519
1158	0.0645009
1170	0.0868555
1182	0.130995
1194	0.117468
1206	0.0636465
1218	0.0448516
1230	0.0365932
1242	0.0271957
1254	0.0226394
1266	0.0189373
1278	0.0205036
1290	0.018083
1302	0.0130995
1314	0.0113909
1326	0.00854316
1338	0.00683453
1350	0.00598021
1362	0.00840077
1374	0.00840077
1386	0.0116757
1398	0.0113909
1410	0.00882793
1422	0.00840077
1434	0.0163744
1446	0.0394409
1458	0.0495503
1470	0.0391561
1482	0.0291891
1494	0.0173711
1506	0.0135267
1518	0.0153777
1530	0.0159472
1542	0.0156625
1554	0.014381
1566	0.0112485
1578	0.0102518
1590	0.0101094
1602	0.00982463
1614	0.00740407
1626	0.00925509
1638	0.00925509
1650	0.0103942
1662	0.0128147
1674	0.00939748
1686	0.00626498
1698	0.00299011
1710	0.00569544
1722	0.00427158
1734	0.00355965
1746	0.00455635
1758	0.00484112
1770	0.00370204
1782	0.00598021
1794	0.00555305
1806	0.00526828
1818	0.00583783
1830	0.00569544
1842	0.00683453
1854	0.00953986
1866	0.0123876
1878	0.0139538
1890	0.0175135
1902	0.0150929
1914	0.0123876
1926	0.0113909
1938	0.0091127
1950	0.00697691
1962	0.0061226
1974	0.00669214
1986	0.00569544
1998	0.00541067
2010	0.0061226
2022	0.00669214
2034	0.00555305
2046	0.00484112
2058	0.00384442
2070	0.00569544
2082	0.00555305
2094	0.0051259
2106	0.0061226
2118	0.0061226
2130	0.0061226
2142	0.00583783
2154	0.00526828
2166	0.00327488
2178	0.00355965
2190	0.00441397
2202	0.00299011
2214	0.00370204
2226	0.00427158
2238	0.00555305
2250	0.00498351
2262	0.00569544
2274	0.00455635
2286	0.00541067
2298	0.00526828
2310	0.00640737
2322	0.00455635
2334	0.00327488
2346	0.00526828
2358	0.00541067
2370	0.00128147
2382	0.00341726
2394	0.00270533
2406	0.00370204
2418	0.00284772
2430	0.00242056
2442	0.00256295
2454	0.00256295
2466	0.0019934
2478	0.00242056
2490	0.00156625
2502	0.00142386
2514	0.00170863
2526	0.00256295
2538	0.00213579
2550	0.00170863
2562	0.00142386
2574	0.000142386
2586	0.00185102
2598	0.000854316
2610	0.00284772
2622	0.00242056
2634	0.00270533
2646	0.00156625
2658	0.0019934
2670	0.00142386
2682	0.00156625
2694	0.00170863
2706	0.000142386
2718	0.00113909
2730	0.000142386
2742	0.000142386
2754	0.00142386
2766	0.0019934
2778	0.00299011
2790	0.00185102
2802	0.00441397
2814	0.00541067
2826	0.008116
2838	0.014381
2850	0.0519709
2862	0.0740407
2874	0.0297587
2886	0.018083
2898	0.0230665
2910	0.0313249
2922	0.0363084
2934	0.0348846
2946	0.0860011
2958	0.198628
2970	0.137402
2982	0.0559577
2994	0.0600869
3006	0.060514
3018	0.0615108
3030	0.050547
3042	0.0296163
3054	0.0222122
3066	0.0203612
3078	0.0190797
3090	0.0173711
3102	0.0146658
3114	0.0103942
3126	0.00882793
3138	0.00583783
3150	0.00526828
3162	0.00469874
3174	0.00412919
3186	0.00341726
3198	0.00370204
3210	0.00313249
3222	0.00284772
3234	0.00270533
3246	0.00370204
3258	0.00355965
3270	0.00455635
3282	0.00455635
3294	0.00455635
3306	0.00427158
3318	0.00427158
3330	0.00370204
3342	0.00370204
3354	0.00441397
3366	0.00355965
3378	0.00398681
3390	0.00441397
3402	0.00341726
3414	0.00441397
3426	0.0051259
3438	0.00455635
3450	0.00398681
3462	0.00541067
3474	0.00455635
3486	0.00455635
3498	0.00327488
3510	0.00455635
3522	0.00256295
3534	0.00484112
3546	0.00355965
3558	0.00441397
3570	0.00555305
3582	0.00555305
3594	0.0019934
3606	0.00541067
3618	0.00384442
3630	0
3642	0.00313249
3654	0.00113909
3666	0.00313249
3678	0.00370204
3690	0.0051259
3702	0.00683453
3714	0.00569544
3726	0.00654976
3738	0.00299011
3750	0.000569544
3762	0.00455635
3774	0.00683453
3786	0.00441397
3798	0.00498351
3810	0.00384442
3822	0.00526828
3834	0.00498351
3846	0.00996702
3858	0.00170863
3870	0.00598021
3882	0.0061226
3894	0.00441397
3906	0.00355965
3918	0.00754646
3930	0.00526828
3942	0.00797362
3954	0.00299011
3966	0.000284772
