Infrared Spectrum: Ethanesulfonamide
Formula: C 2 H 7 N O 2 S
CAS: 1520-70-3
Origin: Sadtler Research Labs Under US-EPA Contract
1/CM	ABSORBANCE
450	0.0125665
462	0.0343485
474	0.113099
486	0.209023
498	0.286098
510	0.244628
522	0.235413
534	0.306623
546	0.330499
558	0.244419
570	0.1575
582	0.138022
594	0.158757
606	0.172161
618	0.167972
630	0.151427
642	0.138232
654	0.122524
666	0.124618
678	0.156453
690	0.254263
702	0.344951
714	0.324635
726	0.190802
738	0.112889
750	0.0955056
762	0.105768
774	0.126294
786	0.136766
798	0.144515
810	0.179282
822	0.271646
834	0.455536
846	0.695557
858	0.824573
870	0.696395
882	0.41281
894	0.195828
906	0.0892223
918	0.0454489
930	0.0293219
942	0.0169648
954	0.0129854
966	0.012776
978	0.0106815
990	0.0064927
1002	0.00146609
1014	0.00104721
1026	0.0136137
1038	0.0376996
1050	0.0590626
1062	0.0582249
1074	0.039794
1086	0.0249236
1098	0.0190592
1110	0.0226197
1122	0.0517322
1134	0.219705
1146	0.813473
1158	1.38902
1170	1.31634
1182	0.683619
1194	0.173209
1206	0.0599004
1218	0.0592721
1230	0.0772841
1242	0.0816824
1254	0.0689064
1266	0.0699536
1278	0.0971811
1290	0.12378
1302	0.109957
1314	0.101579
1326	0.124827
1338	0.260965
1350	0.690111
1362	1.47028
1374	2.09442
1386	1.65627
1398	0.858922
1410	0.290287
1422	0.114146
1434	0.0789596
1446	0.0871279
1458	0.112889
1470	0.113518
1482	0.0883845
1494	0.0642987
1506	0.0634609
1518	0.0846146
1530	0.158129
1542	0.285679
1554	0.362754
1566	0.272903
1578	0.134881
1590	0.0582249
1602	0.0353957
1614	0.0265991
1626	0.0234575
1638	0.0219914
1650	0.0224103
1662	0.0247142
1674	0.0276463
1686	0.0219914
1698	0.0188498
1710	0.0203159
1722	0.0255519
1734	0.0268086
1746	0.0222009
1758	0.0182215
1770	0.0167554
1782	0.0144515
1794	0.010891
1806	0.00900601
1818	0.00774935
1830	0.0064927
1842	0.00628326
1854	0.00607382
1866	0.00523605
1878	0.00481717
1890	0.0039794
1902	0.00356051
1914	0.00376996
1926	0.00335107
1938	0.00314163
1950	0.00293219
1962	0.00314163
1974	0.00335107
1986	0.00335107
1998	0.00230386
2010	0.00104721
2022	0
2034	0
2046	0.000209442
2058	0.000628326
2070	0.00125665
2082	0.00209442
2094	0.00209442
2106	0.0025133
2118	0.00209442
2130	0.00125665
2142	0.000628326
2154	0.000837768
2166	0.00125665
2178	0.00146609
2190	0.00188498
2202	0.00167554
2214	0.00146609
2226	0.00146609
2238	0.00188498
2250	0.00230386
2262	0.00209442
2274	0.00146609
2286	0.000209442
2298	0.000209442
2310	0.00167554
2322	0.00376996
2334	0.00376996
2346	0.00104721
2358	0.00146609
2370	0.000837768
2382	0.00230386
2394	0.00356051
2406	0.00335107
2418	0.0039794
2430	0.00418884
2442	0.00376996
2454	0.00335107
2466	0.0025133
2478	0.00188498
2490	0.00314163
2502	0.00607382
2514	0.0106815
2526	0.0136137
2538	0.0119382
2550	0.00733047
2562	0.00376996
2574	0.00272275
2586	0.00230386
2598	0.0025133
2610	0.00272275
2622	0.00293219
2634	0.00209442
2646	0.00125665
2658	0.000628326
2670	0
2682	0.000209442
2694	0.000628326
2706	0.00125665
2718	0.000628326
2730	0.000209442
2742	0.00104721
2754	0.00188498
2766	0.00188498
2778	0.000837768
2790	0.000418884
2802	0.00188498
2814	0.00418884
2826	0.00607382
2838	0.00607382
2850	0.00544549
2862	0.00774935
2874	0.0201064
2886	0.0504755
2898	0.0666026
2910	0.0567588
2922	0.0431451
2934	0.0852429
2946	0.156872
2958	0.166925
2970	0.130482
2982	0.125456
2994	0.173837
3006	0.16127
3018	0.0770747
3030	0.0299502
3042	0.012776
3054	0.0104721
3066	0.0119382
3078	0.0148704
3090	0.0154987
3102	0.0140326
3114	0.0100532
3126	0.00712103
3138	0.00523605
3150	0.00523605
3162	0.00586438
3174	0.0064927
3186	0.00774935
3198	0.00774935
3210	0.00879656
3222	0.0113099
3234	0.0146609
3246	0.0175931
3258	0.0182215
3270	0.018012
3282	0.0165459
3294	0.0173837
3306	0.018012
3318	0.0211536
3330	0.0295313
3342	0.0601099
3354	0.144096
3366	0.241696
3378	0.257404
3390	0.171324
3402	0.0760274
3414	0.0410506
3426	0.0437734
3438	0.0812635
3450	0.163784
3462	0.249655
3474	0.261593
3486	0.189545
3498	0.102417
3510	0.0511038
3522	0.0261803
3534	0.0154987
3546	0.0100532
3558	0.00607382
3570	0.00356051
3582	0.00167554
3594	0.00125665
3606	0.000418884
3618	0.00188498
3630	0.0039794
3642	0.00586438
3654	0.00733047
3666	0.00565493
3678	0.0039794
3690	0.00209442
3702	0
3714	0
3726	0
3738	0
3750	0
3762	0
3774	0
3786	0
3798	0
3810	0
3822	0
3834	0
3846	0
3858	0
3870	0
3882	0
3894	0
3906	0
3918	0
3930	0
3942	0
3954	0.000418884
3966	0
