Infrared Spectrum: 2,3-Dimethoxybenzoic acid
Formula: C 9 H 10 O 4
CAS: 1521-38-6
Origin: Sadtler Research Labs Under US-EPA Contract
1/CM	ABSORBANCE
450	0.000198633
462	0.00251602
474	0.00854122
486	0.00801153
498	0.011918
510	0.00946817
522	0.0180756
534	0.0254912
546	0.0368795
558	0.0432358
570	0.0391307
582	0.062768
594	0.0699188
606	0.0675352
618	0.0715741
630	0.0411832
642	0.0343635
654	0.0333703
666	0.0415143
678	0.0714417
690	0.0958735
702	0.0735604
714	0.0586629
726	0.0644233
738	0.0821679
750	0.196713
762	0.145068
774	0.0480692
786	0.0273451
798	0.048334
810	0.0562131
822	0.0342311
834	0.0156258
846	0.0139043
858	0.0139705
870	0.0150961
882	0.0256899
894	0.0256899
906	0.0170162
918	0.0174797
930	0.0148975
942	0.0157582
954	0.0172149
966	0.0247629
978	0.0471422
990	0.115935
1002	0.166918
1014	0.163541
1026	0.166388
1038	0.194594
1050	0.232467
1062	0.27312
1074	0.219225
1086	0.157251
1098	0.103355
1110	0.121828
1122	0.17142
1134	0.136991
1146	0.0871337
1158	0.0832272
1170	0.1017
1182	0.141956
1194	0.164601
1206	0.191416
1218	0.251205
1230	0.236903
1242	0.25094
1254	0.377403
1266	0.530085
1278	0.373629
1290	0.225117
1302	0.212604
1314	0.201745
1326	0.189761
1338	0.209492
1350	0.24114
1362	0.275703
1374	0.251999
1386	0.175194
1398	0.121299
1410	0.103422
1422	0.183404
1434	0.241869
1446	0.14295
1458	0.16513
1470	0.324434
1482	0.406204
1494	0.15447
1506	0.0550876
1518	0.033569
1530	0.0248291
1542	0.0246305
1554	0.0262196
1566	0.045818
1578	0.116995
1590	0.114346
1602	0.0528364
1614	0.0280073
1626	0.0199295
1638	0.0172811
1650	0.0155596
1662	0.0145002
1674	0.0155596
1686	0.0228428
1698	0.0329731
1710	0.049592
1722	0.0709782
1734	0.101965
1746	0.213729
1758	0.388592
1770	0.585835
1782	0.565773
1794	0.154338
1806	0.0562793
1818	0.0319137
1830	0.0251602
1842	0.0180756
1854	0.0113221
1866	0.00979923
1878	0.00814395
1890	0.00615762
1902	0.00681973
1914	0.00966681
1926	0.0107262
1938	0.0112559
1950	0.00880606
1962	0.00768048
1974	0.00708458
1986	0.00715079
1998	0.00748184
2010	0.00847501
2022	0.00814395
2034	0.0060252
2046	0.00556172
2058	0.00556172
2070	0.00397266
2082	0.00344297
2094	0.00337676
2106	0.00357539
2118	0.00370782
2130	0.00384024
2142	0.00324434
2154	0.00403887
2166	0.00357539
2178	0.00324434
2190	0.00284707
2202	0.00211875
2214	0.00152285
2226	0.00165527
2238	0.00218496
2250	0.00211875
2262	0.00218496
2274	0.00251602
2286	0.00304571
2298	0.00523067
2310	0.00668731
2322	0.00860743
2334	0.00973302
2346	0.0115869
2358	0.0162879
2370	0.012249
2382	0.00629004
2394	0.00192012
2406	0.00145664
2418	0.000860743
2430	0.000860743
2442	0.00152285
2454	0.00205254
2466	0.00311192
2478	0.00311192
2490	0.00284707
2502	0.00311192
2514	0.00317813
2526	0.00331055
2538	0.00430371
2550	0.00503204
2562	0.00536309
2574	0.00390645
2586	0.0036416
2598	0.00297949
2610	0.00344297
2622	0.00251602
2634	0.00271465
2646	0.00337676
2658	0.00258223
2670	0.00258223
2682	0.00172149
2694	0.00291328
2706	0.00331055
2718	0.00417129
2730	0.00331055
2742	0.00403887
2754	0.00430371
2766	0.00417129
2778	0.00503204
2790	0.0054293
2802	0.0078129
2814	0.0128449
2826	0.025094
2838	0.0598547
2850	0.0744874
2862	0.0405873
2874	0.0378065
2886	0.0411832
2898	0.0448248
2910	0.0523067
2922	0.0623046
2934	0.0860081
2946	0.153345
2958	0.144605
2970	0.0911063
2982	0.0658799
2994	0.0670055
3006	0.0911063
3018	0.0785262
3030	0.0429047
3042	0.0311854
3054	0.0281397
3066	0.0297949
3078	0.0421102
3090	0.0428385
3102	0.0197971
3114	0.0113883
3126	0.00913712
3138	0.0084088
3150	0.00801153
3162	0.00794532
3174	0.00715079
3186	0.00635626
3198	0.00688594
3210	0.00675352
3222	0.0066211
3234	0.00635626
3246	0.00821016
3258	0.00913712
3270	0.00873985
3282	0.0105275
3294	0.014434
3306	0.0205916
3318	0.0278748
3330	0.0435668
3342	0.065284
3354	0.0858095
3366	0.0958073
3378	0.0899145
3390	0.075944
3402	0.0595899
3414	0.0468774
3426	0.035158
3438	0.0290666
3450	0.0226442
3462	0.0172149
3474	0.0137719
3486	0.011918
3498	0.00993165
3510	0.00913712
3522	0.00986544
3534	0.0114545
3546	0.0105938
3558	0.0246305
3570	0.108785
3582	0.0836907
3594	0.0151623
3606	0.00536309
3618	0.00403887
3630	0.00317813
3642	0.00244981
3654	0.00132422
3666	0.00145664
3678	0.0023836
3690	0.00185391
3702	0.00145664
3714	0.000926954
3726	0.00264844
3738	0.00317813
3750	0.00244981
3762	0.00218496
3774	0.00125801
3786	0.00158906
3798	0.00158906
3810	0.00284707
3822	0.00344297
3834	0.00264844
3846	0.00311192
3858	0.00350918
3870	0.00350918
3882	0.00509825
3894	0.00569415
3906	0.00562793
3918	0.00615762
3930	0.00357539
3942	0.00476719
3954	0
3966	0.000529688
