Infrared Spectrum: 2-Naphthalenol, 6-bromo-
Formula: C 10 H 7 Br O
CAS: 15231-91-1
Origin: Sadtler Research Labs Under US-EPA Contract
1/CM	ABSORBANCE
450	0.0665591
462	0.024339
474	0.0609773
486	0.0380013
498	0.063541
510	0.0179784
522	0.0097356
534	0.0160637
546	0.0231058
558	0.0157392
570	0.00739906
582	0.0191142
594	0.0166803
606	0.0126563
618	0.0166154
630	0.0178811
642	0.0301804
654	0.0200553
666	0.00821036
678	0.00866468
690	0.0122669
702	0.00610098
714	0.0106443
726	0.0131755
738	0.0145709
750	0.0115205
762	0.0128834
774	0.017946
786	0.0473475
798	0.0575698
810	0.0405001
822	0.0225541
834	0.0326792
846	0.0588679
858	0.0670783
870	0.0848944
882	0.0600037
894	0.03719
906	0.2369
918	0.0316732
930	0.0234303
942	0.0164532
954	0.0121046
966	0.0163234
978	0.0129483
990	0.0121695
1002	0.0100277
1014	0.0106767
1026	0.012137
1038	0.0131106
1050	0.0185625
1062	0.057148
1074	0.0338799
1086	0.0256695
1098	0.0189844
1110	0.0319003
1122	0.0781769
1134	0.0863223
1146	0.128445
1158	0.0845375
1170	0.191142
1182	0.32452
1194	0.191856
1206	0.184522
1218	0.0619184
1230	0.0299856
1242	0.027357
1254	0.0555254
1266	0.134351
1278	0.0673379
1290	0.0225866
1302	0.0128834
1314	0.0131755
1326	0.0250205
1338	0.0443943
1350	0.0443294
1362	0.0768139
1374	0.0425121
1386	0.0676624
1398	0.0207368
1410	0.024696
1422	0.0308943
1434	0.0159015
1446	0.0126238
1458	0.0157392
1470	0.0174592
1482	0.0250529
1494	0.0641576
1506	0.1485
1518	0.0741528
1530	0.0130133
1542	0.0127536
1554	0.0118125
1566	0.0277789
1578	0.0772682
1590	0.15908
1602	0.165635
1614	0.0490674
1626	0.0802862
1638	0.0895675
1650	0.0351455
1662	0.0148955
1674	0.00960579
1686	0.0073017
1698	0.00950844
1710	0.00970315
1722	0.0105469
1734	0.0125265
1746	0.0130782
1758	0.0141815
1770	0.0128185
1782	0.0126563
1794	0.00963824
1806	0.00791829
1818	0.00610098
1830	0.00392669
1842	0.00181731
1854	0.00256371
1866	0.00340746
1878	0.00457573
1890	0.00694473
1902	0.00795074
1914	0.00438102
1926	0.00376443
1938	0.00210938
1950	0.00129808
1962	0.00120072
1974	0.00107092
1986	0.00107092
1998	0.00133053
2010	0.00110337
2022	0.000843752
2034	0.00116827
2046	0.000843752
2058	0.00107092
2070	0.0016875
2082	0.00220674
2094	0.00188222
2106	0.00120072
2118	0.00171996
2130	0.00149279
2142	0.00116827
2154	0.00100601
2166	0.0015577
2178	0.00107092
2190	0.000908656
2202	0.000941108
2214	0.000681492
2226	0.000616588
2238	0.000551684
2250	0.0008113
2262	0.00107092
2274	0.00201202
2286	0.00279087
2298	0.00447838
2310	0.00506251
2322	0.00227164
2334	0.000746396
2346	0.00454328
2358	0.000454328
2370	0.00269352
2382	0.00503006
2394	0.00305049
2406	0.00340746
2418	0.00266106
2430	0.00253126
2442	0.00178486
2454	0.00305049
2466	0.00301804
2478	0.00123318
2490	0.0015577
2502	0.00197957
2514	0.00171996
2526	0.00201202
2538	0.00233654
2550	0.00210938
2562	0.00214183
2574	0.00191467
2586	0.00152524
2598	0.00171996
2610	0.00188222
2622	0.00207693
2634	0.00201202
2646	0.00152524
2658	0.00123318
2670	0.00120072
2682	0.0016226
2694	0.00181731
2706	0.000941108
2718	0.00120072
2730	0.00129808
2742	0.00178486
2754	0.00152524
2766	0.00207693
2778	0.00146034
2790	0.00178486
2802	0.00207693
2814	0.00178486
2826	0.00178486
2838	0.00191467
2850	0.00227164
2862	0.00272597
2874	0.00285578
2886	0.00337501
2898	0.00301804
2910	0.00347236
2922	0.00428366
2934	0.00535458
2946	0.00503006
2958	0.00548439
2970	0.00662021
2982	0.00613343
2994	0.008113
3006	0.00976805
3018	0.0167777
3030	0.0276491
3042	0.0255397
3054	0.0316407
3066	0.0417008
3078	0.0333607
3090	0.0135974
3102	0.00571155
3114	0.00298558
3126	0.00230409
3138	0.00282332
3150	0.00259616
3162	0.00184976
3174	0.00266106
3186	0.00220674
3198	0.00214183
3210	0.00292068
3222	0.00240145
3234	0.00256371
3246	0.00321275
3258	0.00210938
3270	0.00197957
3282	0.0024339
3294	0.00269352
3306	0.00369953
3318	0.00295313
3330	0.00347236
3342	0.00340746
3354	0.00376443
3366	0.00402405
3378	0.00386179
3390	0.00382934
3402	0.00395914
3414	0.00366708
3426	0.00451083
3438	0.0033101
3450	0.00305049
3462	0.00334256
3474	0.0039916
3486	0.00279087
3498	0.00415386
3510	0.00340746
3522	0.00350482
3534	0.0040565
3546	0.00266106
3558	0.0109688
3570	0.0102873
3582	0.00837262
3594	0.00470554
3606	0.00201202
3618	0.00285578
3630	0.010482
3642	0.0881721
3654	0.173878
3666	0.025345
3678	0.00204448
3690	0.00116827
3702	0.000292068
3714	0.00097356
3726	0.00032452
3738	0.000194712
3750	0.000713944
3762	0.000292068
3774	0.00175241
3786	0.000584136
3798	0.00204448
3810	0.000778848
3822	0.0031803
3834	6.4904e-05
3846	0.00314784
3858	0.00272597
3870	0.00184976
3882	0.00142789
3894	0.000356972
3906	0.00532213
3918	0.00126563
3930	0.00142789
3942	0.00460818
3954	0.00321275
3966	0.00564665
