Infrared Spectrum: Butane, 1,2,3,4-tetrabromo-
Formula: C 4 H 6 Br 4
CAS: 1529-68-6
Origin: Sadtler Research Labs Under US-EPA Contract
1/CM	ABSORBANCE
450	0
462	0.0015932
474	0.00579344
486	0.0150629
498	0.00738664
510	0.0117317
522	0.00854532
534	0.0112248
546	0.0148457
558	0.0149905
570	0.0140491
582	0.0124559
594	0.0150629
606	0.0284603
618	0.025129
630	0.0151354
642	0.0158595
654	0.0215081
666	0.0273016
678	0.0323708
690	0.0519961
702	0.0527203
714	0.0290396
726	0.0257084
738	0.0306328
750	0.0385264
762	0.0393954
774	0.051634
786	0.10153
798	0.236952
810	0.508157
822	0.40402
834	0.213271
846	0.137956
858	0.0964608
870	0.0708248
882	0.0535169
894	0.0420024
906	0.0340365
918	0.0288224
930	0.024767
942	0.0223047
954	0.0231013
966	0.0241152
978	0.0301983
990	0.0505478
1002	0.133684
1014	0.37947
1026	0.604908
1038	0.410465
1050	0.301911
1062	0.412783
1074	0.615118
1086	0.72418
1098	0.546032
1110	0.32885
1122	0.184376
1134	0.110727
1146	0.0771252
1158	0.0563412
1170	0.0377298
1182	0.0262877
1194	0.0196253
1206	0.0164389
1218	0.0174527
1230	0.0226668
1242	0.0431611
1254	0.128832
1266	0.428787
1278	0.123473
1290	0.0351227
1302	0.0238979
1314	0.0155699
1326	0.0115145
1338	0.010573
1350	0.00948676
1362	0.00919709
1374	0.00861774
1386	0.0105006
1398	0.0155699
1410	0.0189011
1422	0.0156423
1434	0.0111524
1446	0.010573
1458	0.00847291
1470	0.00695213
1482	0.00695213
1494	0.00572102
1506	0.00535893
1518	0.00499684
1530	0.00601069
1542	0.00753147
1554	0.00840049
1566	0.00789356
1578	0.00572102
1590	0.00579344
1602	0.00716938
1614	0.00738664
1626	0.00687971
1638	0.00543135
1650	0.00463475
1662	0.00289672
1674	0.00275188
1686	0.00224496
1698	0.00325881
1710	0.00398299
1722	0.00354848
1734	0.00253463
1746	0.00238979
1758	0.00238979
1770	0.00318639
1782	0.00333123
1794	0.00398299
1806	0.00311397
1818	0.00231738
1830	0.00210012
1842	0.00101385
1854	0.00130352
1866	0.00115869
1878	0.00130352
1890	0.00130352
1902	0.00166561
1914	0.00173803
1926	0.00238979
1938	0.00296914
1950	0.00354848
1962	0.00296914
1974	0.00210012
1986	0.00173803
1998	0.00123111
2010	0.00115869
2022	0.00108627
2034	0.00123111
2046	0.00144836
2058	0.00188287
2070	0.00188287
2082	0.00188287
2094	0.00173803
2106	0.00166561
2118	0.0015932
2130	0.00130352
2142	0.00152078
2154	0.00144836
2166	0.00152078
2178	0.00130352
2190	0.00152078
2202	0.00144836
2214	0.00137594
2226	0.00137594
2238	0.00195529
2250	0.0020277
2262	0.00210012
2274	0.00246221
2286	0.00456233
2298	0.00608311
2310	0.00782114
2322	0.00579344
2334	0.00420024
2346	0.00637278
2358	0.00615553
2370	0.00579344
2382	0.00702455
2394	0.00369332
2406	0.00181045
2418	0.00267947
2430	0.00188287
2442	0.00238979
2454	0.00557619
2466	0.00072418
2478	0.00267947
2490	0.00492442
2502	0.00260705
2514	0.00108627
2526	0.00463475
2538	0.0020277
2550	0.00166561
2562	0.00275188
2574	0.00376574
2586	0.00289672
2598	0.00311397
2610	0.00470717
2622	0.00622795
2634	0.00398299
2646	0.00340365
2658	0.00369332
2670	0.0015932
2682	0.00354848
2694	0.00253463
2706	0.00477959
2718	0.00260705
2730	0.00615553
2742	0.00318639
2754	0.0072418
2766	0.00405541
2778	0.00753147
2790	0.00557619
2802	0.00861774
2814	0.00659004
2826	0.00818323
2838	0.0072418
2850	0.00890741
2862	0.0107903
2874	0.0115145
2886	0.013687
2898	0.0190459
2910	0.0293293
2922	0.0214357
2934	0.0178872
2946	0.0279533
2958	0.0584413
2970	0.147515
2982	0.0611932
2994	0.0201322
3006	0.0137594
3018	0.0183218
3030	0.0132525
3042	0.0129628
3054	0.0131077
3066	0.0143388
3078	0.0141215
3090	0.0126731
3102	0.0106454
3114	0.01108
3126	0.00745905
3138	0.00557619
3150	0.00528651
3162	0.00448992
3174	0.00398299
3186	0.0036209
3198	0.00318639
3210	0.0028243
3222	0.00289672
3234	0.00289672
3246	0.00253463
3258	0.00260705
3270	0.00231738
3282	0.00231738
3294	0.00173803
3306	0.00217254
3318	0.00246221
3330	0.00231738
3342	0.00195529
3354	0.00224496
3366	0.00173803
3378	0.00217254
3390	0.00231738
3402	0.00217254
3414	0.00130352
3426	0.00188287
3438	0.00224496
3450	0.00195529
3462	0.00231738
3474	0.00181045
3486	0.00267947
3498	0.00296914
3510	0.00188287
3522	0.00181045
3534	0.00260705
3546	0.00354848
3558	0.00340365
3570	0.00333123
3582	0.00296914
3594	0.0044175
3606	0.00267947
3618	0.00354848
3630	0.0044175
3642	0.00354848
3654	0.00412783
3666	0.00318639
3678	0.00535893
3690	0.00506926
3702	0.00506926
3714	0.00550377
3726	0.00593828
3738	0.00651762
3750	0.0056486
3762	0.00456233
3774	0.00354848
3786	0.00304156
3798	0.00238979
3810	0.00275188
3822	0.00304156
3834	0.00217254
3846	0.00311397
3858	0.00289672
3870	0.00195529
3882	0.00267947
3894	0.00224496
3906	0.00333123
3918	0.00195529
3930	0.00137594
3942	0.00238979
3954	0.00108627
3966	0.00173803
