Infrared Spectrum: 3-Dodecanone
Formula: C 12 H 24 O
CAS: 1534-27-6
Origin: Sadtler Research Labs Under US-EPA Contract
1/CM	ABSORBANCE
450	0.00438034
462	0.0205794
474	0.0120666
486	0.00818215
498	0.0104963
510	0.013389
522	0.0228935
534	0.0171908
546	0.0175214
558	0.0205794
570	0.0165296
582	0.0170255
594	0.0177693
606	0.0165296
618	0.0157858
630	0.014794
642	0.0167775
654	0.0148766
666	0.0165296
678	0.0137196
690	0.0158684
702	0.0185958
714	0.0238853
726	0.0283483
738	0.0238853
750	0.0209926
762	0.0216538
774	0.0202488
786	0.0175214
798	0.0202488
810	0.020662
822	0.0231414
834	0.0244638
846	0.0195049
858	0.0179346
870	0.019257
882	0.0174387
894	0.0195876
906	0.0226456
918	0.0233894
930	0.0266953
942	0.0347948
954	0.0372742
966	0.037109
978	0.0341336
990	0.0312409
1002	0.0319021
1014	0.0385966
1026	0.0434728
1038	0.0400843
1050	0.0345469
1062	0.0341336
1074	0.0365304
1086	0.0379354
1098	0.0542997
1110	0.0777718
1122	0.0657052
1134	0.0639696
1146	0.0587627
1158	0.0541344
1170	0.0529774
1182	0.0532253
1194	0.0442993
1206	0.0379354
1218	0.0322327
1230	0.0305798
1242	0.0395884
1254	0.039919
1266	0.033803
1278	0.0350428
1290	0.0349601
1302	0.0378528
1314	0.0416546
1326	0.0479358
1338	0.0646307
1350	0.0903343
1362	0.0878548
1374	0.0673581
1386	0.0584321
1398	0.0397537
1410	0.0426464
1422	0.0551262
1434	0.0559527
1446	0.0704161
1458	0.108682
1470	0.105872
1482	0.0451258
1494	0.0271912
1506	0.0308277
1518	0.0232241
1530	0.0121493
1542	0.0140502
1554	0.0123146
1566	0.00834745
1578	0.0160337
1590	0.0113228
1602	0.0124798
1614	0.0168602
1626	0.0101657
1638	0.0172734
1650	0.0116534
1662	0.0111575
1674	0.0194223
1686	0.0341336
1698	0.053308
1710	0.108517
1722	0.234224
1734	0.272656
1746	0.118269
1758	0.0562833
1770	0.0367784
1782	0.0242985
1794	0.0183479
1806	0.0118187
1818	0.00661184
1830	0.00727302
1842	0.00512418
1854	0.0039671
1866	0.00520682
1878	0.00338857
1890	0.00446299
1902	0.00421505
1914	0.00322327
1926	0.00281003
1938	0.00404975
1950	0.00289268
1962	0.00355386
1974	0.00363651
1986	0.00305798
1998	0.00380181
2010	0.00330592
2022	0.00289268
2034	0.00371916
2046	0.00380181
2058	0.00305798
2070	0.00281003
2082	0.00404975
2094	0.0039671
2106	0.00289268
2118	0.00140502
2130	0.00173561
2142	0.00214885
2154	0.00214885
2166	0.0022315
2178	0.00239679
2190	0.00214885
2202	0.0022315
2214	0.00272738
2226	0.00173561
2238	0.00165296
2250	0.00198355
2262	0.00115707
2274	0.00181826
2286	0.000743832
2298	0.000330592
2310	0.000330592
2322	0.00231414
2334	0.00132237
2346	0.000247944
2358	0.00165296
2370	0.000247944
2382	0.000247944
2394	0.00198355
2406	0.00148766
2418	0.00256209
2430	0.00173561
2442	0.00165296
2454	0.00181826
2466	0.00107442
2478	0.00148766
2490	0.00157031
2502	0.00148766
2514	0.00148766
2526	0.00281003
2538	0.00322327
2550	0.00355386
2562	0.00305798
2574	0.0022315
2586	0.00289268
2598	0.00314062
2610	0.00272738
2622	0.00404975
2634	0.0042977
2646	0.00347122
2658	0.00768626
2670	0.00966982
2682	0.00851274
2694	0.00942187
2706	0.0114054
2718	0.0118187
2730	0.0116534
2742	0.0125625
2754	0.0128931
2766	0.0130584
2778	0.0147113
2790	0.0182652
2802	0.0254556
2814	0.0338857
2826	0.0433902
2838	0.0612422
2850	0.12298
2862	0.296045
2874	0.285631
2886	0.232406
2898	0.239597
2910	0.326708
2922	0.537791
2934	0.82648
2946	0.64358
2958	0.412414
2970	0.381173
2982	0.229596
2994	0.134138
3006	0.0719038
3018	0.0469441
3030	0.033803
3042	0.0245465
3054	0.017852
3066	0.014794
3078	0.0148766
3090	0.0127278
3102	0.00991776
3114	0.00867804
3126	0.00776891
3138	0.00719038
3150	0.00867804
3162	0.00760362
3174	0.00735567
3186	0.00669449
3198	0.00611595
3210	0.00727302
3222	0.00661184
3234	0.00727302
3246	0.0061986
3258	0.00528947
3270	0.00644654
3282	0.00545477
3294	0.00512418
3306	0.00355386
3318	0.00330592
3330	0.00487623
3342	0.00380181
3354	0.0061986
3366	0.00504153
3378	0.00611595
3390	0.00595066
3402	0.00512418
3414	0.0063639
3426	0.00867804
3438	0.00743832
3450	0.00702508
3462	0.00685978
3474	0.0039671
3486	0.00322327
3498	0.00421505
3510	0.00148766
3522	0.00371916
3534	0.00446299
3546	0.000495888
3558	0.00305798
3570	0.00991776
3582	0.0084301
3594	0.00512418
3606	0.0060333
3618	0.00471094
3630	0.00661184
3642	0.00338857
3654	0.00628125
3666	0.00388446
3678	0.00719038
3690	0.00512418
3702	0.00247944
3714	0.0042977
3726	0
3738	0.00322327
3750	0.00404975
3762	0.00388446
3774	0.00404975
3786	0.00198355
3798	0.00702508
3810	0.000330592
3822	0.00966982
3834	0.00462829
3846	0.00528947
3858	0.00479358
3870	0.00380181
3882	0.00537212
3894	0.0061986
3906	0.00214885
3918	0.00760362
3930	0.00694243
3942	0.00520682
3954	0.00818215
3966	0.00214885
