Infrared Spectrum: p-Anisic acid, 2-bromomethyl-, methyl ester
Formula: C 10 H 11 Br O 3
CAS: 15365-25-0
Origin: Sadtler Research Labs Under US-EPA Contract
1/CM	ABSORBANCE
450	0.0140578
462	0.00400018
474	0.0025144
486	0.00171436
498	0.00137149
510	0.0012572
522	0.00354302
534	0.0037716
546	0.0147435
558	0.037716
570	0.0171436
582	0.0205724
594	0.0284585
606	0.0189723
618	0.0158864
630	0.0165722
642	0.00171436
654	0.0037716
666	0.013372
678	0.049488
690	0.0518881
702	0.0156579
714	0.00491451
726	0.0108576
738	0.0158864
750	0.0105148
762	0.0316586
774	0.0643458
786	0.0299442
798	0.00925757
810	0.00902899
822	0.0184009
834	0.0352016
846	0.057717
858	0.0498309
870	0.0308586
882	0.0121148
894	0.0076575
906	0.0141721
918	0.0228582
930	0.0196581
942	0.0116577
954	0.0162293
966	0.0193152
978	0.0233154
990	0.0350873
1002	0.073832
1014	0.287785
1026	0.569283
1038	0.456707
1050	0.190295
1062	0.0594313
1074	0.0382875
1086	0.101033
1098	0.197723
1110	0.17738
1122	0.134635
1134	0.0504023
1146	0.127092
1158	0.0942901
1170	0.0194295
1182	0.0211438
1194	0.0360017
1206	0.0362302
1218	0.0281156
1230	0.0387446
1242	0.110634
1254	0.36516
1266	0.557969
1278	0.474993
1290	0.249269
1302	0.0622886
1314	0.10069
1326	0.158064
1338	0.154064
1350	0.222982
1362	0.100805
1374	0.0342873
1386	0.0275441
1398	0.0259441
1410	0.0222867
1422	0.0244583
1434	0.0537168
1446	0.0826324
1458	0.0917757
1470	0.12412
1482	0.162522
1494	0.275441
1506	0.0692603
1518	0.0281156
1530	0.0206867
1542	0.0202295
1554	0.0213724
1566	0.0213724
1578	0.034973
1590	0.0930329
1602	0.265155
1614	0.367674
1626	0.204009
1638	0.0924614
1650	0.0426305
1662	0.0212581
1674	0.0163436
1686	0.0142864
1698	0.0150864
1710	0.0173722
1722	0.0266298
1734	0.0297157
1746	0.0329158
1758	0.0667459
1770	0.0898327
1782	0.201495
1794	0.739234
1806	1.14291
1818	0.666202
1830	0.205495
1842	0.0614886
1854	0.0229725
1866	0.0122291
1878	0.00834324
1890	0.00754321
1902	0.00731462
1914	0.00960044
1926	0.0113148
1938	0.00857182
1950	0.00560026
1962	0.00388589
1974	0.00354302
1986	0.00240011
1998	0.00320015
2010	0.00582884
2022	0.00811466
2034	0.0115434
2046	0.0169151
2058	0.0177151
2070	0.011772
2082	0.00560026
2094	0.00171436
2106	0.000342873
2118	0.000114291
2130	0.000685746
2142	0.00114291
2154	0.00160007
2166	0.00240011
2178	0.00297157
2190	0.00320015
2202	0.0025144
2214	0.00160007
2226	0.00217153
2238	0.00205724
2250	0.00102862
2262	0.000800037
2274	0.000800037
2286	0.00102862
2298	0.000457164
2310	0
2322	0.000914328
2334	0.00217153
2346	0.00354302
2358	0.00468593
2370	0.00525739
2382	0.00365731
2394	0.00342873
2406	0.00388589
2418	0.00274298
2430	0.00148578
2442	0.0012572
2454	0.0012572
2466	0.00137149
2478	0.00171436
2490	0.00171436
2502	0.0012572
2514	0.00182866
2526	0.0025144
2538	0.00331444
2550	0.00274298
2562	0.00400018
2574	0.00514309
2586	0.00514309
2598	0.00594313
2610	0.00617171
2622	0.00445735
2634	0.00331444
2646	0.00262869
2658	0.00285727
2670	0.00297157
2682	0.00274298
2694	0.00365731
2706	0.00308586
2718	0.00240011
2730	0.00285727
2742	0.00285727
2754	0.00320015
2766	0.00285727
2778	0.00331444
2790	0.00400018
2802	0.00571455
2814	0.00742891
2826	0.0109719
2838	0.0266298
2850	0.0523453
2862	0.0318872
2874	0.0276584
2886	0.0571455
2898	0.0625172
2910	0.0408019
2922	0.0418305
2934	0.0554311
2946	0.125263
2958	0.165265
2970	0.0938329
2982	0.0589742
2994	0.0464021
3006	0.0476593
3018	0.0665174
3030	0.0254869
3042	0.0202295
3054	0.0168008
3066	0.0190866
3078	0.0230868
3090	0.0196581
3102	0.015315
3114	0.012572
3126	0.00800037
3138	0.00548597
3150	0.00434306
3162	0.00434306
3174	0.00411448
3186	0.00422877
3198	0.00240011
3210	0.00240011
3222	0.00297157
3234	0.00205724
3246	0.00148578
3258	0.00160007
3270	0.00148578
3282	0.00137149
3294	0.00148578
3306	0.00148578
3318	0.00148578
3330	0.00160007
3342	0.00137149
3354	0.00148578
3366	0.00148578
3378	0.00137149
3390	0.00137149
3402	0.00182866
3414	0.00137149
3426	0.00182866
3438	0.00102862
3450	0.000685746
3462	0.00148578
3474	0.00137149
3486	0.00160007
3498	0.000914328
3510	0.00114291
3522	0.00137149
3534	0.0012572
3546	0.00137149
3558	0.00194295
3570	0.00571455
3582	0.00971473
3594	0.0107434
3606	0.00434306
3618	0.00217153
3630	0.00365731
3642	0.0012572
3654	0.000914328
3666	0.00148578
3678	0.00308586
3690	0.00240011
3702	0.00160007
3714	0.00228582
3726	0.00320015
3738	0.00240011
3750	0.00205724
3762	0.00194295
3774	0.00148578
3786	0.00102862
3798	0.00171436
3810	0.00102862
3822	0.00217153
3834	0.0025144
3846	0.00160007
3858	0.00308586
3870	0.00297157
3882	0.00274298
3894	0.0037716
3906	0.00285727
3918	0.00320015
3930	0.00320015
3942	0.00354302
3954	0.00274298
3966	0.00274298
