Infrared Spectrum: 3-n-Propyl-2,4-pentanedione
Formula: C 8 H 14 O 2
CAS: 1540-35-8
Origin: Sadtler Research Labs Under US-EPA Contract
1/CM	ABSORBANCE
450	0.0384106
462	0.00362527
474	0.0135516
486	0.00984002
498	0.0329727
510	0.024859
522	0.0283116
534	0.0319369
546	0.0269306
558	0.0340085
570	0.0339222
582	0.0381517
594	0.0409138
606	0.0414317
618	0.0438485
630	0.0290022
642	0.0230464
654	0.01804
666	0.011739
678	0.00707791
690	0.00043158
702	0.00362527
714	0.0086316
726	0.0201979
738	0.0142421
750	0.00189895
762	0.00492001
774	0.00656002
786	0.00250316
798	0.00638738
810	0.00725054
822	0.00362527
834	0.0064737
846	0.00906318
858	0.0100127
870	0.0119116
882	0.0138106
894	0.0187306
906	0.029779
918	0.0305559
930	0.0319369
942	0.0471285
954	0.0637875
966	0.0704339
978	0.0649096
990	0.0601623
1002	0.0560191
1014	0.0539475
1026	0.0407412
1038	0.0388422
1050	0.0378064
1062	0.0413454
1074	0.0467833
1086	0.0550696
1098	0.079497
1110	0.111175
1122	0.0993497
1134	0.119289
1146	0.218121
1158	0.331194
1170	0.298308
1182	0.260847
1194	0.240994
1206	0.179883
1218	0.152693
1230	0.171855
1242	0.164087
1254	0.14268
1266	0.125331
1278	0.107636
1290	0.0963287
1302	0.0942571
1314	0.0974508
1326	0.10332
1338	0.126194
1350	0.234952
1362	0.423466
1374	0.287346
1386	0.165554
1398	0.132927
1410	0.117303
1422	0.125676
1434	0.130855
1446	0.125762
1458	0.132668
1470	0.132236
1482	0.0905455
1494	0.066636
1506	0.0633559
1518	0.0637875
1530	0.0653412
1542	0.0691391
1554	0.0713833
1566	0.0786339
1578	0.0906318
1590	0.102284
1602	0.113678
1614	0.123
1626	0.117649
1638	0.100558
1650	0.0837265
1662	0.0752676
1674	0.0880423
1686	0.124899
1698	0.271636
1710	0.747324
1722	0.758372
1734	0.40042
1746	0.276988
1758	0.179883
1770	0.168661
1782	0.147082
1794	0.117131
1806	0.0890781
1818	0.0391011
1830	0.0164864
1842	0.00889055
1854	0.00517896
1866	0.0043158
1878	0.00405685
1890	0.00371159
1902	0.00284843
1914	0.00181264
1926	0.00164
1938	0.00146737
1950	0.00164
1962	0.00103579
1974	0.00146737
1986	0.00164
1998	0.00146737
2010	0.000949476
2022	0.000604212
2034	0.000517896
2046	0.000690528
2058	0.000517896
2070	0.000345264
2082	0.000172632
2094	0.000258948
2106	0.000258948
2118	0.00086316
2130	0.00043158
2142	0.000517896
2154	0.00043158
2166	0.000345264
2178	0.000776844
2190	0.000258948
2202	0.000345264
2214	0.000345264
2226	0.000345264
2238	0.000604212
2250	0.00043158
2262	0.000517896
2274	0.000690528
2286	0.00043158
2298	0.00103579
2310	0.00129474
2322	0.00138106
2334	0.00233053
2346	0.00345264
2358	0.00138106
2370	0.0021579
2382	0.00233053
2394	0.00164
2406	0.00207158
2418	0.00224422
2430	0.0021579
2442	0.00198527
2454	0.00198527
2466	0.00250316
2478	0.00258948
2490	0.00284843
2502	0.00328001
2514	0.00336632
2526	0.00328001
2538	0.00353896
2550	0.00397054
2562	0.00405685
2574	0.00414317
2586	0.00414317
2598	0.00457475
2610	0.00466106
2622	0.00492001
2634	0.00500633
2646	0.00509264
2658	0.0059558
2670	0.00656002
2682	0.00725054
2694	0.00664633
2706	0.00656002
2718	0.00681896
2730	0.00828634
2742	0.0101853
2754	0.0103579
2766	0.00958108
2778	0.00992634
2790	0.0115663
2802	0.0132927
2814	0.0157095
2826	0.0200253
2838	0.0266716
2850	0.038238
2862	0.0658591
2874	0.13284
2886	0.1886
2898	0.134653
2910	0.126367
2922	0.171078
2934	0.242807
2946	0.306681
2958	0.33154
2970	0.488894
2982	0.285188
2994	0.0983139
3006	0.0721602
3018	0.0677581
3030	0.0476464
3042	0.036339
3054	0.0308148
3066	0.0259811
3078	0.0228737
3090	0.0194211
3102	0.0168316
3114	0.0130337
3126	0.0113937
3138	0.00992634
3150	0.00880423
3162	0.00768212
3174	0.00768212
3186	0.00733686
3198	0.00716423
3210	0.00621475
3222	0.00500633
3234	0.00422948
3246	0.00371159
3258	0.00328001
3270	0.00258948
3282	0.00310738
3294	0.0026758
3306	0.00181264
3318	0.00250316
3330	0.0021579
3342	0.00189895
3354	0.00224422
3366	0.00319369
3378	0.00319369
3390	0.00509264
3402	0.00664633
3414	0.00958108
3426	0.0145011
3438	0.0158821
3450	0.0128611
3462	0.0132927
3474	0.0144148
3486	0.0105306
3498	0.00837265
3510	0.00690528
3522	0.00604212
3534	0.00604212
3546	0.00768212
3558	0.0128611
3570	0.0264127
3582	0.0294338
3594	0.0179537
3606	0.0111348
3618	0.0037979
3630	0.00224422
3642	0.00310738
3654	0.00543791
3666	0.00043158
3678	0.00440212
3690	0.000949476
3702	0.00086316
3714	0.00492001
3726	0.00198527
3738	0.00448843
3750	0.00328001
3762	0.00250316
3774	0.00250316
3786	0.00250316
3798	0.00328001
3810	0.00233053
3822	0.00552422
3834	0.00198527
3846	0.00371159
3858	0.00776844
3870	0.0048337
3882	0.00250316
3894	0.00189895
3906	0.00517896
3918	0.0059558
3930	0.00233053
3942	0.00630107
3954	0.0026758
3966	0.00794107
