Infrared Spectrum: Benzene, 1-fluoro-4-isothiocyanato-
Formula: C 7 H 4 F N S
CAS: 1544-68-9
Origin: Sadtler Research Labs Under US-EPA Contract
1/CM	ABSORBANCE
450	0.00240647
462	0.00240647
474	0.00558302
486	0.0128024
498	0.0321505
510	0.0644935
522	0.0545789
534	0.0341719
546	0.0258937
558	0.0174229
570	0.00895209
582	0.0105885
594	0.011166
606	0.0180004
618	0.0188668
630	0.0130912
642	0.00943338
654	0.01338
666	0.00616058
678	0.00221396
690	0.00288777
702	0.00192518
714	0.00250273
726	0.00125137
738	0.00231022
750	0.00308029
762	0.00221396
774	0.00346532
786	0.00356158
798	0.00462043
810	0.0128987
822	0.0454342
834	0.100494
846	0.0656486
858	0.0202144
870	0.0122249
882	0.00827827
894	0.00683439
906	0.0102997
918	0.0127062
930	0.0305141
942	0.0463006
954	0.0260862
966	0.00981842
978	0.00500547
990	0.00336907
1002	0.00365784
1014	0.00943338
1026	0.00298403
1038	0.00192518
1050	0.00192518
1062	0.00288777
1074	0.00616058
1086	0.0146314
1098	0.0156902
1110	0.00702691
1122	0.00365784
1134	0.00250273
1146	0.0134763
1158	0.0362896
1170	0.00385036
1182	0.00548676
1194	0.00866331
1206	0.0164603
1218	0.0394662
1230	0.163448
1242	0.238722
1254	0.0669963
1266	0.0310917
1278	0.00721942
1290	0.00548676
1302	0.00510173
1314	0.00462043
1326	0.00519799
1338	0.0037541
1350	0.00327281
1362	0.0016364
1374	0.00154014
1386	0.00202144
1398	0.00182892
1410	0.00365784
1422	0.00490921
1434	0.0150164
1446	0.00779698
1458	0.00154014
1470	0.00635309
1482	0.00779698
1494	0.0471669
1506	0.521724
1518	0.08028
1530	0.0149201
1542	0.00875957
1554	0.00558302
1566	0.0079895
1578	0.0122249
1590	0.0176154
1602	0.0168453
1614	0.00952964
1626	0.0079895
1638	0.00808576
1650	0.00404288
1662	0.00462043
1674	0.00192518
1686	0.000770072
1698	9.6259e-05
1710	0.00385036
1722	0.00356158
1734	0.00144389
1746	0.00500547
1758	0.00452417
1770	0.00385036
1782	0.00519799
1794	0.00481295
1806	0.00635309
1818	0.00616058
1830	0.00394662
1842	0.00558302
1854	0.0101072
1866	0.0141501
1878	0.0175191
1890	0.0152089
1902	0.01338
1914	0.0146314
1926	0.0194443
1938	0.0292627
1950	0.0450492
1962	0.0685364
1974	0.0967403
1986	0.139479
1998	0.218604
2010	0.307162
2022	0.373485
2034	0.542034
2046	0.96259
2058	0.581597
2070	0.235064
2082	0.198679
2094	0.274819
2106	0.454535
2118	0.30774
2130	0.128121
2142	0.0979917
2154	0.0947189
2166	0.102227
2178	0.0774885
2190	0.0523649
2202	0.0409101
2214	0.0280114
2226	0.0183855
2238	0.0138613
2250	0.0096259
2262	0.00644935
2274	0.00500547
2286	0.00413914
2298	0.00452417
2310	0.00519799
2322	0.00481295
2334	0.00202144
2346	0.00288777
2358	0.00279151
2370	0.00231022
2382	0.00365784
2394	0.00308029
2406	0.00462043
2418	0.00644935
2430	0.00413914
2442	0.00317655
2454	0.00317655
2466	0.00442791
2478	0.00654561
2490	0.00721942
2502	0.00490921
2514	0.00481295
2526	0.00481295
2538	0.00519799
2550	0.00596806
2562	0.00866331
2574	0.00490921
2586	0.0016364
2598	0.00134763
2610	0.00144389
2622	0.00192518
2634	0.00154014
2646	0.00173266
2658	0.00259899
2670	0.00462043
2682	0.00664187
2694	0.00866331
2706	0.0141501
2718	0.00818202
2730	0.00221396
2742	0.00125137
2754	0.00105885
2766	0.00125137
2778	0.000481295
2790	0.000481295
2802	0.000385036
2814	0.000673813
2826	0.000673813
2838	0.00105885
2850	0.00202144
2862	0.0021177
2874	0.00134763
2886	0.00096259
2898	0.000385036
2910	0.000673813
2922	0.00105885
2934	0.00144389
2946	0.0016364
2958	0.00192518
2970	0.00288777
2982	0.00356158
2994	0.00259899
3006	0.000770072
3018	0.000577554
3030	0.00125137
3042	0.00259899
3054	0.00616058
3066	0.00770072
3078	0.00346532
3090	0.00365784
3102	0.0021177
3114	0.00173266
3126	0.00192518
3138	0.00096259
3150	0.000288777
3162	0.000385036
3174	0
3186	0.000385036
3198	0.000288777
3210	0.000577554
3222	9.6259e-05
3234	0.000288777
3246	0.000192518
3258	0.000385036
3270	0.000192518
3282	0.00096259
3294	0.000481295
3306	0.000673813
3318	0.000385036
3330	0.000866331
3342	0.000481295
3354	0.000673813
3366	0.00105885
3378	0.000673813
3390	0.000770072
3402	0.000673813
3414	0.000577554
3426	0.000673813
3438	0.000770072
3450	0.00096259
3462	0.000481295
3474	0.000577554
3486	0.000866331
3498	0.00134763
3510	0.00105885
3522	0.000770072
3534	0.000577554
3546	0.000770072
3558	0.000770072
3570	0.000673813
3582	0.000673813
3594	9.6259e-05
3606	0.000673813
3618	0.00096259
3630	0.000866331
3642	0.00096259
3654	0.00115511
3666	0.00105885
3678	0.00154014
3690	0.00115511
3702	0.00115511
3714	0.00105885
3726	0.00096259
3738	0.00154014
3750	0.00134763
3762	0.00134763
3774	0.00182892
3786	0.00105885
3798	0.0021177
3810	0.00144389
3822	0.00134763
3834	0.000866331
3846	0.00173266
3858	0.000673813
3870	0.00259899
3882	0.00231022
3894	0.00144389
3906	0.00192518
3918	0.00154014
3930	0.00125137
3942	0.000577554
3954	0.00250273
3966	0.00154014
