Infrared Spectrum: 3-Decenoic acid
Formula: C 10 H 18 O 2
CAS: 15469-77-9
Origin: Sadtler Research Labs Under US-EPA Contract
1/CM	ABSORBANCE
450	0.0147513
462	0.0203217
474	0.00433255
486	0.00345573
498	0.0174334
510	0.022488
522	0.0255311
534	0.0327005
546	0.0419845
558	0.0629767
570	0.0887142
582	0.0919636
594	0.088611
606	0.0877342
618	0.0828343
630	0.0687535
642	0.0574063
654	0.0413656
666	0.0279553
678	0.0232617
690	0.0196512
702	0.0220754
714	0.0239838
726	0.0224364
738	0.0170723
750	0.00979982
762	0.0107282
774	0.00706619
786	0.00459044
798	0.00629252
810	0.00577674
822	0.00582831
834	0.00711776
846	0.00665356
858	0.0118114
870	0.0144418
882	0.0143387
894	0.0133071
906	0.011244
918	0.0134103
930	0.0130492
942	0.0203217
954	0.0446665
966	0.0879405
978	0.0617904
990	0.032752
1002	0.0207344
1014	0.0197544
1026	0.0212501
1038	0.0256858
1050	0.0363625
1062	0.049618
1074	0.0653493
1086	0.0952646
1098	0.171909
1110	0.337526
1122	0.325096
1134	0.233133
1146	0.169692
1158	0.12487
1170	0.0881468
1182	0.0747365
1194	0.0626157
1206	0.0581284
1218	0.0540022
1230	0.0417782
1242	0.0368783
1254	0.0368267
1266	0.0377035
1278	0.0396635
1290	0.0419329
1302	0.0419845
1314	0.0436866
1326	0.0445118
1338	0.0560653
1350	0.0734986
1362	0.0801006
1374	0.08335
1386	0.0604494
1398	0.0321847
1410	0.0253248
1422	0.0363625
1434	0.0358983
1446	0.0423971
1458	0.051939
1470	0.0447181
1482	0.0197028
1494	0.0111408
1506	0.00851037
1518	0.005622
1530	0.00247574
1542	0.00969666
1554	0.0051578
1566	0.00077367
1578	0.000722092
1590	0.00103156
1602	0.00242417
1614	0.00345573
1626	0.00618936
1638	0.0107798
1650	0.025789
1662	0.0319268
1674	0.0146482
1686	0.0160408
1698	0.0160408
1710	0.0225912
1722	0.038993
1734	0.0688051
1746	0.135599
1758	0.281203
1770	0.359034
1782	0.441714
1794	0.304465
1806	0.149989
1818	0.0625125
1830	0.0255311
1842	0.012585
1854	0.00732408
1866	0.00587989
1878	0.00376519
1890	0.0046936
1902	0.00345573
1914	0.00185681
1926	0.00077367
1938	0.00201154
1950	0.00237259
1962	0.0030431
1974	0.0021147
1986	0.00195996
1998	0.00113472
2010	0.00195996
2022	0.00185681
2034	0.00237259
2046	0.000979982
2058	0.000567358
2070	0.00108314
2082	0.00108314
2094	0.00144418
2106	0.000979982
2118	0.000825248
2130	0.000825248
2142	0.000876826
2154	0.00185681
2166	0.00113472
2178	0.00201154
2190	0.00221785
2202	0.00180523
2214	0.00170207
2226	0.00247574
2238	0.00232101
2250	0.00195996
2262	0.00170207
2274	0.00216628
2286	0.00185681
2298	0.00190839
2310	0.00103156
2322	0.00237259
2334	0
2346	0.00149576
2358	0.00025789
2370	0.00273363
2382	0.00154734
2394	0.00263048
2406	0.00232101
2418	0.00242417
2430	0.00201154
2442	0.00237259
2454	0.00190839
2466	0.0021147
2478	0.0025789
2490	0.0021147
2502	0.00216628
2514	0.0025789
2526	0.00273363
2538	0.00237259
2550	0.00288837
2562	0.00314626
2574	0.00355888
2586	0.0035073
2598	0.00366204
2610	0.00386835
2622	0.00443571
2634	0.00464202
2646	0.00551885
2658	0.00587989
2670	0.00665356
2682	0.00722092
2694	0.00696303
2706	0.00655041
2718	0.00649883
2730	0.00706619
2742	0.00763354
2754	0.00758197
2766	0.0082009
2778	0.00861353
2790	0.00995455
2802	0.013204
2814	0.016505
2826	0.0229006
2838	0.0352794
2850	0.0762839
2862	0.174076
2874	0.175056
2886	0.136372
2898	0.116308
2910	0.170311
2922	0.300236
2934	0.513923
2946	0.381161
2958	0.21833
2970	0.262996
2982	0.123168
2994	0.0629252
3006	0.0460076
3018	0.0365688
3030	0.033371
3042	0.0324941
3054	0.0240353
3066	0.0167628
3078	0.0126366
3090	0.0101609
3102	0.00964509
3114	0.00825248
3126	0.00737565
3138	0.00706619
3150	0.00639567
3162	0.0068083
3174	0.00624094
3186	0.00613778
3198	0.0060862
3210	0.00551885
3222	0.00526096
3234	0.00510622
3246	0.00453886
3258	0.0042294
3270	0.00433255
3282	0.00448729
3294	0.00376519
3306	0.0030431
3318	0.00397151
3330	0.00412624
3342	0.00376519
3354	0.00206312
3366	0.00366204
3378	0.00386835
3390	0.00263048
3402	0.00242417
3414	0.00314626
3426	0.00324941
3438	0.00252732
3450	0.00366204
3462	0.00319784
3474	0.00216628
3486	0.00309468
3498	0.00319784
3510	0.0051578
3522	0.00495149
3534	0.00794301
3546	0.0104703
3558	0.0264595
3570	0.0908289
3582	0.199452
3594	0.0572516
3606	0.0119661
3618	0.00943877
3630	0.00753039
3642	0.00448729
3654	0.00675672
3666	0.00144418
3678	0.0110377
3690	0.00685987
3702	0.00309468
3714	0.00598305
3726	0.00541569
3738	0.00876826
3750	0.00644725
3762	0.0035073
3774	0.00464202
3786	0.00309468
3798	0.00582831
3810	0.00355888
3822	0.00943877
3834	0.00655041
3846	0.00221785
3858	0.0115019
3870	0.0106251
3882	0.00696303
3894	0.00675672
3906	0.00742723
3918	0.00386835
3930	0.00753039
3942	0.00644725
3954	0.00464202
3966	0.0068083
