Infrared Spectrum: Butanoic acid, cyclohexyl ester
Formula: C 10 H 18 O 2
CAS: 1551-44-6
Origin: Sadtler Research Labs Under US-EPA Contract
1/CM	ABSORBANCE
450	0
462	0.03159
474	0.0262772
486	0.0334567
498	0.0232617
510	0.019672
522	0.0216822
534	0.0294362
546	0.0246977
558	0.025272
570	0.0274259
582	0.0244105
594	0.0239797
606	0.0255592
618	0.0285746
630	0.0261336
642	0.0274259
654	0.0271387
666	0.0246977
678	0.0232617
690	0.0239797
702	0.0261336
714	0.0269951
726	0.0333131
738	0.028431
750	0.0298669
762	0.03159
774	0.0305849
786	0.0381952
798	0.0430773
810	0.048103
822	0.0430773
834	0.0413542
846	0.0396311
858	0.041785
870	0.0458055
882	0.0466671
894	0.0654775
906	0.0715083
918	0.0776827
930	0.0710775
942	0.0778263
954	0.134258
966	0.162545
978	0.100083
990	0.0501133
1002	0.0717955
1014	0.161109
1026	0.211366
1038	0.246689
1050	0.258751
1062	0.144596
1074	0.161253
1086	0.245541
1098	0.268084
1110	0.197294
1122	0.201602
1134	0.18394
1146	0.150914
1158	0.246259
1170	0.481461
1182	1.03342
1194	0.737483
1206	0.447286
1218	0.286751
1230	0.292782
1242	0.343757
1254	0.453604
1266	0.377357
1278	0.219551
1290	0.206771
1302	0.201171
1314	0.13756
1326	0.128083
1338	0.151201
1350	0.198299
1362	0.222997
1374	0.144309
1386	0.127652
1398	0.0739494
1410	0.0561441
1422	0.0666262
1434	0.0959188
1446	0.138135
1458	0.197438
1470	0.133252
1482	0.0621749
1494	0.0396311
1506	0.0298669
1518	0.0272823
1530	0.02599
1542	0.0231182
1554	0.0249848
1566	0.0255592
1578	0.0255592
1590	0.0258464
1602	0.0265643
1614	0.0267079
1626	0.025272
1638	0.0269951
1650	0.0261336
1662	0.0287182
1674	0.0292926
1686	0.0333131
1698	0.0472414
1710	0.0735186
1722	0.107406
1734	0.307428
1746	0.912377
1758	0.724847
1770	0.189827
1782	0.0809853
1794	0.0560005
1806	0.0419286
1818	0.0344618
1830	0.0295797
1842	0.0272823
1854	0.0265643
1866	0.0244105
1878	0.0234053
1890	0.0225438
1902	0.022831
1914	0.0218258
1926	0.0219694
1938	0.0222566
1950	0.0216822
1962	0.0224002
1974	0.022113
1986	0.0218258
1998	0.0222566
2010	0.0236925
2022	0.0246977
2034	0.0251284
2046	0.0246977
2058	0.0249848
2070	0.0269951
2082	0.0251284
2094	0.0238361
2106	0.0229746
2118	0.0211079
2130	0.0206771
2142	0.0203899
2154	0.0206771
2166	0.0201027
2178	0.0203899
2190	0.0203899
2202	0.0203899
2214	0.0205335
2226	0.0199591
2238	0.0203899
2250	0.0208207
2262	0.0205335
2274	0.0211079
2286	0.0213951
2298	0.0202463
2310	0.0203899
2322	0.0206771
2334	0.0208207
2346	0.0219694
2358	0.0232617
2370	0.0225438
2382	0.0211079
2394	0.0205335
2406	0.0208207
2418	0.0212515
2430	0.0203899
2442	0.0203899
2454	0.0198156
2466	0.019672
2478	0.0203899
2490	0.0211079
2502	0.0203899
2514	0.0211079
2526	0.0211079
2538	0.0209643
2550	0.0205335
2562	0.0218258
2574	0.0211079
2586	0.0212515
2598	0.0216822
2610	0.0201027
2622	0.0185232
2634	0.0186668
2646	0.0205335
2658	0.0234053
2670	0.0294362
2682	0.0295797
2694	0.0290054
2706	0.0282874
2718	0.0278567
2730	0.0268515
2742	0.0267079
2754	0.0274259
2766	0.0277131
2778	0.0300105
2790	0.0333131
2802	0.0373337
2814	0.0387696
2826	0.0427901
2838	0.0502568
2850	0.0838571
2862	0.294074
2874	0.385542
2886	0.254156
2898	0.175325
2910	0.204186
2922	0.347634
2934	0.725565
2946	1.43591
2958	0.789033
2970	0.444127
2982	0.33988
2994	0.15594
3006	0.0766776
3018	0.0492517
3030	0.0403491
3042	0.0343182
3054	0.0301541
3066	0.0282874
3078	0.0277131
3090	0.0258464
3102	0.0262772
3114	0.025272
3126	0.0241233
3138	0.0244105
3150	0.0257028
3162	0.0244105
3174	0.0239797
3186	0.022831
3198	0.0224002
3210	0.0224002
3222	0.0229746
3234	0.0201027
3246	0.0203899
3258	0.0190976
3270	0.0192412
3282	0.0206771
3294	0.0198156
3306	0.0203899
3318	0.019672
3330	0.0209643
3342	0.0209643
3354	0.0198156
3366	0.0202463
3378	0.0195284
3390	0.0203899
3402	0.0218258
3414	0.0222566
3426	0.0202463
3438	0.0218258
3450	0.0203899
3462	0.0241233
3474	0.0271387
3486	0.0277131
3498	0.0215386
3510	0.018954
3522	0.0206771
3534	0.0185232
3546	0.0195284
3558	0.0192412
3570	0.0201027
3582	0.0211079
3594	0.0201027
3606	0.0198156
3618	0.0190976
3630	0.0225438
3642	0.019672
3654	0.0205335
3666	0.0254156
3678	0.0209643
3690	0.0213951
3702	0.0222566
3714	0.019672
3726	0.0224002
3738	0.0219694
3750	0.0218258
3762	0.0212515
3774	0.022113
3786	0.0203899
3798	0.0211079
3810	0.0211079
3822	0.0211079
3834	0.0216822
3846	0.0199591
3858	0.0224002
3870	0.0198156
3882	0.0188104
3894	0.0205335
3906	0.0215386
3918	0.0198156
3930	0.0222566
3942	0.0215386
3954	0.0199591
3966	0.0254156
