Infrared Spectrum: Benzothiazin-4-one,(4H)1,3-, 2,3-dihydro-2-imino-3-isopropyl-
Formula: C 11 H 12 N 2 O S
CAS: 15568-03-3
Origin: Sadtler Research Labs Under US-EPA Contract
1/CM	ABSORBANCE
450	0.0114437
462	0.00753608
474	0.0210731
486	0.0332146
498	0.0404715
510	0.0231665
522	0.00823386
534	0.0164677
546	0.00879209
558	0.00251203
570	0.0019538
582	0.00139557
594	0.00237247
606	0.0111646
618	0.0217709
630	0.00767564
642	0.00851298
654	0.0238642
666	0.0267949
678	0.0237247
690	0.0300048
702	0.0117228
714	0.00683829
726	0.0424253
738	0.310235
750	0.116251
762	0.0316794
774	0.0688016
786	0.103272
798	0.0933636
810	0.0682434
822	0.0439605
834	0.0337728
846	0.0554041
858	0.0738257
870	0.0990855
882	0.0244225
894	0.00725696
906	0.00907121
918	0.0153513
930	0.00851298
942	0.00600095
954	0.00767564
966	0.00502405
978	0.00488449
990	0.00641962
1002	0.00837342
1014	0.0143744
1026	0.0327959
1038	0.0601491
1050	0.0358661
1062	0.0897352
1074	0.219942
1086	0.326982
1098	0.200264
1110	0.0932241
1122	0.101458
1134	0.0908516
1146	0.0664291
1158	0.117786
1170	0.160351
1182	0.118344
1194	0.164259
1206	0.0609864
1218	0.0499614
1230	0.0591722
1242	0.0689412
1254	0.0936427
1266	0.141232
1278	0.1323
1290	0.0802453
1302	0.108854
1314	0.215476
1326	0.873906
1338	1.26634
1350	0.262786
1362	0.133696
1374	0.152954
1386	0.170678
1398	0.12295
1410	0.165654
1422	0.111925
1434	0.16998
1446	0.313026
1458	0.117926
1470	0.0801057
1482	0.0605677
1494	0.0334937
1506	0.0307025
1518	0.0358661
1530	0.0531712
1542	0.0863858
1554	0.147651
1566	0.269764
1578	0.385038
1590	0.660105
1602	0.381688
1614	0.160211
1626	0.0890374
1638	0.0622424
1650	0.0626611
1662	0.0766168
1674	0.181564
1686	0.663594
1698	0.534364
1710	0.128672
1722	0.0653127
1734	0.0540086
1746	0.031819
1758	0.0168864
1770	0.0145139
1782	0.00990855
1794	0.00683829
1806	0.00725696
1818	0.0100481
1830	0.00711741
1842	0.00725696
1854	0.00362848
1866	0.0029307
1878	0.00209335
1890	0.00209335
1902	0.00265158
1914	0.00446582
1926	0.00530317
1938	0.00837342
1950	0.0039076
1962	0.00600095
1974	0.00209335
1986	0.00125601
1998	0.00153513
2010	0.000279114
2022	0.000279114
2034	0.000279114
2046	0.000279114
2058	0.000418671
2070	0.000976899
2082	0.000558228
2094	0.000279114
2106	0.000418671
2118	0
2130	0.000279114
2142	0.000697785
2154	0.000697785
2166	0.00125601
2178	0.00181424
2190	0.0019538
2202	0.00251203
2214	0.0019538
2226	0.00181424
2238	0.00209335
2250	0.0019538
2262	0.0029307
2274	0.0029307
2286	0.0039076
2298	0.00544272
2310	0.00697785
2322	0.00614051
2334	0.0039076
2346	0.00488449
2358	0.00516361
2370	0.00376804
2382	0.00474494
2394	0.00167468
2406	0.00139557
2418	0.00111646
2430	0.000418671
2442	0.000418671
2454	0.000279114
2466	0.00111646
2478	0.000697785
2490	0.000837342
2502	0.00167468
2514	0.00125601
2526	0.00181424
2538	0.00167468
2550	0.00167468
2562	0.00181424
2574	0.0019538
2586	0.00223291
2598	0.00279114
2610	0.00237247
2622	0.000558228
2634	0.00125601
2646	0.00111646
2658	0.00307025
2670	0.00251203
2682	0.00139557
2694	0.00139557
2706	0.00237247
2718	0.00265158
2730	0.00404715
2742	0.0039076
2754	0.0029307
2766	0.00334937
2778	0.00334937
2790	0.0039076
2802	0.00432627
2814	0.00558228
2826	0.00739652
2838	0.00976899
2850	0.0118623
2862	0.0168864
2874	0.0287487
2886	0.0450769
2898	0.0473098
2910	0.0450769
2922	0.0473098
2934	0.0808035
2946	0.122671
2958	0.0703367
2970	0.132579
2982	0.145139
2994	0.0688016
3006	0.0442396
3018	0.0427044
3030	0.0209336
3042	0.0152117
3054	0.017026
3066	0.0491241
3078	0.0801057
3090	0.039076
3102	0.00990855
3114	0.00809431
3126	0.00865253
3138	0.0101877
3150	0.00781519
3162	0.00614051
3174	0.00516361
3186	0.00376804
3198	0.00307025
3210	0.00237247
3222	0.00237247
3234	0.00237247
3246	0.00209335
3258	0.00265158
3270	0.00307025
3282	0.00279114
3294	0.00334937
3306	0.00488449
3318	0.0125601
3330	0.0530317
3342	0.0477285
3354	0.0107459
3366	0.00962943
3378	0.00516361
3390	0.00460538
3402	0.00320981
3414	0.00307025
3426	0.0019538
3438	0.0019538
3450	0.00223291
3462	0.00153513
3474	0.00139557
3486	0.00111646
3498	0.000837342
3510	0.000976899
3522	0.00111646
3534	0.000697785
3546	0.00111646
3558	0.000976899
3570	0.00139557
3582	0.00125601
3594	0.000837342
3606	0.00125601
3618	0.00139557
3630	0.00125601
3642	0.000837342
3654	0.000697785
3666	0.00167468
3678	0.00111646
3690	0.00181424
3702	0.000976899
3714	0.00153513
3726	0.00237247
3738	0.00167468
3750	0.00111646
3762	0.00181424
3774	0.00209335
3786	0.00153513
3798	0.00153513
3810	0.00251203
3822	0.0029307
3834	0.00223291
3846	0.00251203
3858	0.00139557
3870	0.00237247
3882	0.00139557
3894	0.00223291
3906	0.00167468
3918	0.00153513
3930	0.00334937
3942	0.00279114
3954	0.00237247
3966	0.0019538
