Infrared Spectrum: Benzenethiol, 4-(1,1-dimethylethyl)-2-methyl-
Formula: C 11 H 16 S
CAS: 15570-10-2
Origin: Sadtler Research Labs Under US-EPA Contract
1/CM	ABSORBANCE
450	0.0144079
462	0.0218944
474	0.00805148
486	0.02253
498	0.0153967
510	0.027827
522	0.0235894
534	0.0260614
546	0.0228831
558	0.0321353
570	0.00452013
582	0.0309346
594	0.0405399
606	0.0396924
618	0.0120066
630	0.0202699
642	0.0129247
654	0.0168092
666	0.00981715
678	0.0237307
690	0.00148317
702	0.0454132
714	0.0349604
726	0.0235894
738	0.0141254
750	0.016668
762	0.00247195
774	0.0160323
786	0.0148317
798	0.0331947
810	0.0769834
822	0.0800204
834	0.0155379
846	0.0103822
858	0.0142667
870	0.0269089
882	0.0367967
894	0.025567
906	0.0194224
918	0.0209056
930	0.0226713
942	0.0140548
954	0.00981715
966	0.00960527
978	0.013066
990	0.0153967
1002	0.0156792
1014	0.0137723
1026	0.0152554
1038	0.029169
1050	0.0502158
1062	0.0965471
1074	0.0318528
1086	0.0141254
1098	0.0126422
1110	0.0175155
1122	0.101844
1134	0.0298752
1146	0.012501
1158	0.0158204
1170	0.0153261
1182	0.0113003
1194	0.032559
1206	0.044495
1218	0.0133485
1230	0.00699207
1242	0.0146904
1254	0.0300165
1266	0.10368
1278	0.0370792
1290	0.0267676
1302	0.0180805
1314	0.0129954
1326	0.00713333
1338	0.0102409
1350	0.0194931
1362	0.0639174
1374	0.0735227
1386	0.0709801
1398	0.0978184
1410	0.0453425
1422	0.027262
1434	0.0377148
1446	0.0606686
1458	0.0948521
1470	0.115193
1482	0.19373
1494	0.178969
1506	0.0419524
1518	0.0192105
1530	0.0161736
1542	0.0182924
1554	0.0185043
1566	0.0201993
1578	0.0201287
1590	0.0192812
1602	0.0284627
1614	0.0179393
1626	0.0106647
1638	0.00925214
1650	0.00741583
1662	0.00734521
1674	0.00459076
1686	0.00819273
1698	0.00649768
1710	0.00748646
1722	0.00621518
1734	0.0107353
1746	0.0109472
1758	0.0154673
1770	0.0107353
1782	0.00791022
1794	0.0070627
1806	0.00960527
1818	0.00692145
1830	0.00882837
1842	0.00692145
1854	0.00847524
1866	0.00748646
1878	0.0128541
1890	0.0107353
1902	0.010029
1914	0.00678019
1926	0.0081221
1938	0.00459076
1950	0.00713333
1962	0.00466138
1974	0.00572079
1986	0.00395511
1998	0.00621518
2010	0.00402574
2022	0.00529703
2034	0.00395511
2046	0.00423762
2058	0.00310759
2070	0.00543828
2082	0.00324884
2094	0.00430825
2106	0.00331947
2118	0.00310759
2130	0.00247195
2142	0.00360198
2154	0.00324884
2166	0.00289571
2178	0.00437887
2190	0.00388449
2202	0.00268383
2214	0.00317821
2226	0.00331947
2238	0.00148317
2250	0.00324884
2262	0.00310759
2274	0.00395511
2286	0.00416699
2298	0.0081221
2310	0.00670956
2322	0.00769834
2334	0.00685082
2346	0.00833399
2358	0.00762772
2370	0.00875775
2382	0.00459076
2394	0.0044495
2406	0.00240132
2418	0.00430825
2430	0.00105941
2442	0.00331947
2454	0.00197756
2466	0.00275445
2478	0.00105941
2490	0.0033901
2502	0.000494389
2514	0.00240132
2526	0.000776897
2538	0.00211881
2550	0.00070627
2562	0.00437887
2574	0.00296633
2586	0.00826336
2598	0.00501452
2610	0.00346072
2622	0.00070627
2634	0.00310759
2646	0.0033901
2658	0.0036726
2670	0.00310759
2682	0.00346072
2694	0.00204818
2706	0.00381386
2718	0.00635643
2730	0.00635643
2742	0.00755709
2754	0.00847524
2766	0.00663894
2778	0.00487326
2790	0.00904026
2802	0.00755709
2814	0.0113003
2826	0.0129954
2838	0.0180099
2850	0.025567
2862	0.0612336
2874	0.133414
2886	0.151424
2898	0.121902
2910	0.173248
2922	0.191752
2934	0.185467
2946	0.194648
2958	0.418041
2970	0.70627
2982	0.36041
2994	0.0985953
3006	0.044495
3018	0.044495
3030	0.057561
3042	0.0354548
3054	0.0387742
3066	0.0456957
3078	0.0526171
3090	0.0331947
3102	0.0259907
3114	0.0131366
3126	0.0127835
3138	0.0096759
3150	0.00861649
3162	0.00600329
3174	0.0114416
3186	0.00713333
3198	0.00918151
3210	0.00932276
3222	0.00762772
3234	0.00600329
3246	0.00791022
3258	0.00487326
3270	0.00437887
3282	0.00572079
3294	0.00452013
3306	0.00233069
3318	0.00324884
3330	0.00395511
3342	0.00162442
3354	0.00317821
3366	0.00416699
3378	0.00226006
3390	0.000988778
3402	0.00459076
3414	0
3426	0.00268383
3438	0.00204818
3450	0.0033901
3462	0.000211881
3474	0.00515577
3486	0.000141254
3498	0.00501452
3510	0.00275445
3522	0.00649768
3534	0.00162442
3546	0.00663894
3558	0.00296633
3570	0.0052264
3582	0.00268383
3594	0.00600329
3606	0.00233069
3618	0.00642706
3630	0.00402574
3642	0.00642706
3654	0.00296633
3666	0.00720395
3678	0.00374323
3690	0.00536765
3702	0.0044495
3714	0.00529703
3726	0.00331947
3738	0.00536765
3750	0.0033901
3762	0.00282508
3774	0.00416699
3786	0.00346072
3798	0.00254257
3810	0.00331947
3822	0.00430825
3834	0.00233069
3846	0.00487326
3858	0.00317821
3870	0.00452013
3882	0.00409637
3894	0.00833399
3906	0.00402574
3918	0.00621518
3930	0.00466138
3942	0.00762772
3954	0.00346072
3966	0.00699207
