Infrared Spectrum: Butyric acid, heptafluoro-, butyl ester
Formula: C 8 H 9 F 7 O 2
CAS: 1559-07-5
Origin: Sadtler Research Labs Under US-EPA Contract
1/CM	ABSORBANCE
450	0.00259662
462	0.00678472
474	0.00552829
486	0.00452315
498	0.00385305
510	0.00762234
522	0.0133182
534	0.0208567
546	0.00963263
558	0.00259662
570	0.00410434
582	0.00393681
594	0.0149934
606	0.0134857
618	0.03518
630	0.0139883
642	0.020773
654	0.0252124
666	0.0129831
678	0.0090463
690	0.00435562
702	0.00427186
714	0.022532
726	0.0625702
738	0.0482469
750	0.0605599
762	0.0290654
774	0.00913006
786	0.0141558
798	0.0286466
810	0.0287304
822	0.0377767
834	0.0339236
846	0.0243747
858	0.00980015
870	0.00695225
882	0.00644967
894	0.00929758
906	0.019014
918	0.0427186
930	0.0741294
942	0.125811
954	0.124638
966	0.177157
978	0.131506
990	0.052435
1002	0.0409596
1014	0.0385305
1026	0.0306569
1038	0.0196841
1050	0.0237884
1062	0.046823
1074	0.0884527
1086	0.241235
1098	0.147924
1110	0.114251
1122	0.136281
1134	0.197008
1146	0.324494
1158	0.220127
1170	0.145411
1182	0.203374
1194	0.257401
1206	0.239894
1218	0.58692
1230	0.782253
1242	0.833599
1254	0.379777
1266	0.300538
1278	0.193993
1290	0.203458
1302	0.295512
1314	0.2084
1326	0.097834
1338	0.0732918
1350	0.0861073
1362	0.0549479
1374	0.0202704
1386	0.0179251
1398	0.0197678
1410	0.00862749
1422	0.00586334
1434	0.00745482
1446	0.0118942
1458	0.0210243
1470	0.0337561
1482	0.0189302
1494	0.00670096
1506	0.00427186
1518	0.00402058
1530	0.00268038
1542	0.000753858
1554	0.00083762
1566	0.00125643
1578	0.00201029
1590	0.00142395
1602	0.00167524
1614	0.00142395
1626	0.00108891
1638	0.000586334
1650	8.3762e-05
1662	0.000753858
1674	0.00100514
1686	0.00134019
1698	0.00150772
1710	0.00276415
1722	0.00427186
1734	0.00653344
1746	0.0152447
1758	0.0249611
1770	0.0492521
1782	0.183439
1794	0.480291
1806	0.134941
1818	0.048917
1830	0.0226157
1842	0.0128156
1854	0.00778987
1866	0.00427186
1878	0.00309919
1890	0.00234534
1902	0.00201029
1914	0.00167524
1926	0.00142395
1938	0.00125643
1950	0.00150772
1962	0.001759
1974	0.00192653
1986	0.00201029
1998	0.00159148
2010	0.00134019
2022	0.00117267
2034	0.00142395
2046	0.00150772
2058	0.00159148
2070	0.00167524
2082	0.00134019
2094	0.00125643
2106	0.00159148
2118	0.00117267
2130	0.00134019
2142	0.00142395
2154	0.00108891
2166	0.00117267
2178	0.00125643
2190	0.00150772
2202	0.00125643
2214	0.00134019
2226	0.00209405
2238	0.00385305
2250	0.00519324
2262	0.00703601
2274	0.0066172
2286	0.00376929
2298	0.00251286
2310	0.00251286
2322	0.00293167
2334	0.003518
2346	0.00385305
2358	0.00276415
2370	0.00268038
2382	0.00251286
2394	0.00234534
2406	0.00226157
2418	0.00309919
2430	0.0024291
2442	0.00259662
2454	0.00268038
2466	0.00251286
2478	0.00234534
2490	0.00209405
2502	0.001759
2514	0.00134019
2526	0.00100514
2538	0.000921382
2550	0.00100514
2562	0.00100514
2574	0.00134019
2586	0.00125643
2598	0.00083762
2610	0.00041881
2622	0.000335048
2634	0
2646	0
2658	0.00041881
2670	0.000586334
2682	0.000335048
2694	0.000502572
2706	0.000753858
2718	0.00108891
2730	0.00100514
2742	0.00142395
2754	0.00192653
2766	0.001759
2778	0.00209405
2790	0.0024291
2802	0.00234534
2814	0.00284791
2826	0.00402058
2838	0.00527701
2850	0.0103865
2862	0.0169199
2874	0.0273064
2886	0.0505922
2898	0.0385305
2910	0.0368553
2922	0.0497546
2934	0.055618
2946	0.0883689
2958	0.0806628
2970	0.14273
2982	0.125308
2994	0.0448964
3006	0.0243747
3018	0.0130669
3030	0.0083762
3042	0.00628215
3054	0.00494196
3066	0.00376929
3078	0.00301543
3090	0.00293167
3102	0.00209405
3114	0.00201029
3126	0.00226157
3138	0.00167524
3150	0.00201029
3162	0.00134019
3174	0.00167524
3186	0.00209405
3198	0.00150772
3210	0.00117267
3222	0.00100514
3234	0.000921382
3246	0.00134019
3258	0.00100514
3270	0.000502572
3282	0.000753858
3294	0.000921382
3306	0.000586334
3318	0.000502572
3330	0.000502572
3342	0.000753858
3354	0.00083762
3366	0.00108891
3378	0.000670096
3390	0.000586334
3402	0.00125643
3414	0.000753858
3426	0.00083762
3438	0.000670096
3450	0.00083762
3462	0.000670096
3474	0.000670096
3486	0.00159148
3498	0.00041881
3510	0.00083762
3522	0.000502572
3534	0.00125643
3546	0.00167524
3558	0.00284791
3570	0.00778987
3582	0.00502572
3594	0
3606	0.000586334
3618	0.00150772
3630	0.00134019
3642	0.00108891
3654	0.00159148
3666	0.00142395
3678	0.00226157
3690	0.00184276
3702	0.00142395
3714	0.00134019
3726	0.00083762
3738	0.00226157
3750	0.001759
3762	0.00184276
3774	0.000921382
3786	0.00184276
3798	0.001759
3810	0.00209405
3822	0.00167524
3834	0.00184276
3846	0.00134019
3858	0.00217781
3870	0.00259662
3882	0.001759
3894	0.00108891
3906	0.00125643
3918	0.001759
3930	0.00209405
3942	0.00217781
3954	0.00217781
3966	0.0024291
