Infrared Spectrum: Benzenamine, 4-ethoxy-
Formula: C 8 H 11 N O
CAS: 156-43-4
Origin: Sadtler Research Labs Under US-EPA Contract
1/CM	ABSORBANCE
450	0.057922
462	0.0622999
474	0.057922
486	0.0548912
498	0.0622999
510	0.0651623
522	0.0425996
534	0.0355278
546	0.0333388
558	0.0308132
570	0.0225627
582	0.0247516
594	0.0309816
606	0.0399056
618	0.0523656
630	0.0764436
642	0.141943
654	0.220912
666	0.181511
678	0.119717
690	0.119548
702	0.109782
714	0.105573
726	0.0944601
738	0.0835155
750	0.077959
762	0.0582588
774	0.0266037
786	0.0399056
798	0.0850309
810	0.176965
822	0.246674
834	0.165516
846	0.0762752
858	0.0388953
870	0.0264353
882	0.0244148
894	0.0464723
906	0.0639836
918	0.0665093
930	0.0446202
942	0.0127967
954	0.00319918
966	0.00084189
978	0.00420945
990	0.00808214
1002	0.0207105
1014	0.048998
1026	0.108435
1038	0.236739
1050	0.317898
1062	0.208452
1074	0.122242
1086	0.134029
1098	0.142616
1110	0.134197
1122	0.139922
1134	0.0756017
1146	0.0404107
1158	0.0530391
1170	0.0791377
1182	0.0491664
1194	0.0809898
1206	0.162148
1218	0.431553
1230	1.16063
1242	1.28927
1254	0.524834
1266	0.297356
1278	0.158275
1290	0.126115
1302	0.117528
1314	0.0804847
1326	0.0580904
1338	0.0266037
1350	0.021384
1362	0.0217208
1374	0.0353594
1386	0.0951336
1398	0.149688
1410	0.0762752
1422	0.0341807
1434	0.0304764
1446	0.0461356
1458	0.0382218
1470	0.0774539
1482	0.196834
1494	0.226468
1506	1.10641
1518	1.50867
1530	0.210473
1542	0.0439467
1554	0.0404107
1566	0.0442834
1578	0.0456304
1590	0.0584272
1602	0.0974909
1614	0.199023
1626	0.202054
1638	0.109782
1650	0.0367064
1662	0.0257618
1674	0.00825052
1686	0.00471458
1698	0.000336756
1710	0.0122916
1722	0.0173429
1734	0.00606161
1746	0.00387269
1758	0.00976592
1770	0.00656674
1782	0.0106078
1794	0.00639836
1806	0.0175113
1818	0.0208789
1830	0.0149856
1842	0.0210472
1854	0.0260986
1866	0.0198686
1878	0.0158275
1890	0.0102711
1902	0.0133019
1914	0.0144805
1926	0.0170062
1938	0.0176797
1950	0.0185216
1962	0.0202054
1974	0.0197002
1986	0.0180164
1998	0.0176797
2010	0.0141438
2022	0.0127967
2034	0.0139754
2046	0.0129651
2058	0.0131335
2070	0.0139754
2082	0.0139754
2094	0.0116181
2106	0.00858728
2118	0.00639836
2130	0.0069035
2142	0.00673512
2154	0.0053881
2166	0.00639836
2178	0.00606161
2190	0.00488296
2202	0.00471458
2214	0.00319918
2226	0.00387269
2238	0.00420945
2250	0.00387269
2262	0.00505134
2274	0.00488296
2286	0.00404107
2298	0.00218891
2310	0.000505134
2322	0.00370432
2334	0.0053881
2346	0.00420945
2358	0.00875566
2370	0.00353594
2382	0.00168378
2394	0.00387269
2406	0.00488296
2418	0.00454621
2430	0.00488296
2442	0.00606161
2454	0.00774539
2466	0.00825052
2478	0.00707188
2490	0.00555647
2502	0.00471458
2514	0.00606161
2526	0.00724025
2538	0.00589323
2550	0.00319918
2562	0.00218891
2574	0.00269405
2586	0.00252567
2598	0.00471458
2610	0.00387269
2622	0.00336756
2634	0.00319918
2646	0.00202054
2658	0.00336756
2670	0.00269405
2682	0.00319918
2694	0.00404107
2706	0.00572485
2718	0.00757701
2730	0.00976592
2742	0.0109446
2754	0.0104394
2766	0.0101027
2778	0.0099343
2790	0.0106078
2802	0.0111129
2814	0.0136386
2826	0.0181848
2838	0.0254251
2850	0.0377167
2862	0.0592691
2874	0.0988379
2886	0.134702
2898	0.143121
2910	0.145815
2922	0.119717
2934	0.128809
2946	0.164
2958	0.122748
2970	0.138407
2982	0.222259
2994	0.221754
3006	0.153224
3018	0.139417
3030	0.127125
3042	0.158107
3054	0.0907557
3066	0.0535442
3078	0.0511869
3090	0.0367064
3102	0.0292978
3114	0.0250883
3126	0.0175113
3138	0.00942917
3150	0.00521972
3162	0.0030308
3174	0.00202054
3186	0.00134702
3198	0.00084189
3210	0.00454621
3222	0.00454621
3234	0.00437783
3246	0.00404107
3258	0.00505134
3270	0.00572485
3282	0.00353594
3294	0.00370432
3306	0.00336756
3318	0.00336756
3330	0.00218891
3342	0.00387269
3354	0.00437783
3366	0.00639836
3378	0.0106078
3390	0.0215524
3402	0.0405791
3414	0.027614
3426	0.0119548
3438	0.0114497
3450	0.0139754
3462	0.0203737
3474	0.0292978
3486	0.0335072
3498	0.0237413
3510	0.0126283
3522	0.00757701
3534	0.00555647
3546	0.00454621
3558	0.00387269
3570	0.00218891
3582	0.00286243
3594	0.00336756
3606	0.00235729
3618	0.00286243
3630	0.00269405
3642	0.00218891
3654	0.0015154
3666	0.0015154
3678	0.00437783
3690	0.00336756
3702	0.00218891
3714	0.000336756
3726	0.000336756
3738	0.00336756
3750	0.00168378
3762	0.000336756
3774	0
3786	0
3798	0.00134702
3810	0.000336756
3822	0.00319918
3834	0.000336756
3846	0.00101027
3858	0.000336756
3870	0.00555647
3882	0.00252567
3894	0.00353594
3906	0.000336756
3918	0.00101027
3930	0.00622999
3942	0.00084189
3954	0.00134702
3966	0.00202054
