Infrared Spectrum: Ethene, 1,2-dichloro-, (E)-
Formula: C 2 H 2 Cl 2
CAS: 156-60-5
Origin: Sadtler Research Labs Under US-EPA Contract
1/CM	ABSORBANCE
450	0
462	0.012196
474	0.00747498
486	0.00806511
498	0.00531117
510	0.00432762
522	0.00354078
534	0.00629472
546	0.0078684
558	0.0098355
570	0.00845853
582	0.00688485
594	0.00904866
606	0.00668814
618	0.00531117
630	0.00727827
642	0.00570459
654	0.00432762
666	0.0102289
678	0.0059013
690	0.00885195
702	0.00747498
714	0.00609801
726	0.00806511
738	0.0110158
750	0.0245887
762	0.027146
774	0.021048
786	0.0202611
798	0.172711
810	1.0642
822	1.78691
834	1.4767
846	0.131796
858	0.181563
870	0.225233
882	0.262608
894	0.329293
906	0.245691
918	0.291918
930	0.232708
942	0.160712
954	0.100716
966	0.0619637
978	0.0405223
990	0.0277361
1002	0.0112125
1014	0.0110158
1026	0.0127861
1038	0.0116059
1050	0.0114092
1062	0.0123927
1074	0.0123927
1086	0.0127861
1098	0.0141631
1110	0.0131796
1122	0.0139664
1134	0.0163269
1146	0.0214414
1158	0.0316703
1170	0.0381617
1182	0.0531117
1194	0.282869
1206	0.299983
1218	0.0928471
1230	0.0391453
1242	0.0298999
1254	0.0220315
1266	0.01495
1278	0.0119993
1290	0.0110158
1302	0.0112125
1314	0.0108191
1326	0.0108191
1338	0.00924537
1350	0.0098355
1362	0.0098355
1374	0.00708156
1386	0.0104256
1398	0.0078684
1410	0.0098355
1422	0.00904866
1434	0.00944208
1446	0.0116059
1458	0.00570459
1470	0.00708156
1482	0.0123927
1494	0.0104256
1506	0.00865524
1518	0.00668814
1530	0.0098355
1542	0.0100322
1554	0.0078684
1566	0.0143598
1578	0.00806511
1590	0.0147533
1602	0.0159335
1614	0.0131796
1626	0.0236052
1638	0.0446532
1650	0.125501
1662	0.110354
1674	0.0352111
1686	0.0129829
1698	0.0143598
1710	0.0118026
1722	0.0100322
1734	0.00865524
1746	0.00826182
1758	0.0112125
1770	0.00904866
1782	0.0078684
1794	0.0123927
1806	0.0123927
1818	0.0123927
1830	0.012196
1842	0.00767169
1854	0.0100322
1866	0.00767169
1878	0.00747498
1890	0.00767169
1902	0.00767169
1914	0.00708156
1926	0.00668814
1938	0.00747498
1950	0.00668814
1962	0.00708156
1974	0.00668814
1986	0.00747498
1998	0.00727827
2010	0.00727827
2022	0.00688485
2034	0.00747498
2046	0.00727827
2058	0.00767169
2070	0.00747498
2082	0.0104256
2094	0.0137697
2106	0.0125894
2118	0.00668814
2130	0.00668814
2142	0.00609801
2154	0.00629472
2166	0.00649143
2178	0.00609801
2190	0.00629472
2202	0.00570459
2214	0.00570459
2226	0.0059013
2238	0.0059013
2250	0.00570459
2262	0.00609801
2274	0.00609801
2286	0.00708156
2298	0.0100322
2310	0.0131796
2322	0.0145565
2334	0.01495
2346	0.0127861
2358	0.0153434
2370	0.0139664
2382	0.00885195
2394	0.00511446
2406	0.00491775
2418	0.00491775
2430	0.00570459
2442	0.00609801
2454	0.00629472
2466	0.00649143
2478	0.00668814
2490	0.00550788
2502	0.00550788
2514	0.00472104
2526	0.00432762
2538	0.00373749
2550	0.00354078
2562	0.00314736
2574	0.00354078
2586	0.00314736
2598	0.00275394
2610	0.00255723
2622	0.00275394
2634	0.00275394
2646	0.00255723
2658	0.00275394
2670	0.00314736
2682	0.00295065
2694	0.00295065
2706	0.00354078
2718	0.0039342
2730	0.00452433
2742	0.00550788
2754	0.00649143
2766	0.00963879
2778	0.00865524
2790	0.00491775
2802	0.00472104
2814	0.00452433
2826	0.00472104
2838	0.00491775
2850	0.00491775
2862	0.00511446
2874	0.00531117
2886	0.00531117
2898	0.00550788
2910	0.00570459
2922	0.00550788
2934	0.00609801
2946	0.00570459
2958	0.00609801
2970	0.00649143
2982	0.00649143
2994	0.00668814
3006	0.00668814
3018	0.00727827
3030	0.00845853
3042	0.0100322
3054	0.0110158
3066	0.0157368
3078	0.0509479
3090	0.220709
3102	0.208316
3114	0.0371782
3126	0.0118026
3138	0.0098355
3150	0.00904866
3162	0.00767169
3174	0.0078684
3186	0.0078684
3198	0.00747498
3210	0.00767169
3222	0.00826182
3234	0.00767169
3246	0.00806511
3258	0.00826182
3270	0.00767169
3282	0.00767169
3294	0.00806511
3306	0.00826182
3318	0.00806511
3330	0.00806511
3342	0.00845853
3354	0.00904866
3366	0.00845853
3378	0.00885195
3390	0.00963879
3402	0.00885195
3414	0.0098355
3426	0.00924537
3438	0.00924537
3450	0.0102289
3462	0.0098355
3474	0.00885195
3486	0.0098355
3498	0.0104256
3510	0.0102289
3522	0.00944208
3534	0.0098355
3546	0.0104256
3558	0.0131796
3570	0.0110158
3582	0.0098355
3594	0.0100322
3606	0.013573
3618	0.00944208
3630	0.00472104
3642	0.0141631
3654	0.0159335
3666	0.0108191
3678	0.00747498
3690	0.0139664
3702	0.0112125
3714	0.0102289
3726	0.00963879
3738	0.0155401
3750	0.00491775
3762	0.0100322
3774	0.0131796
3786	0.0137697
3798	0.0165236
3810	0.0078684
3822	0.00531117
3834	0.00944208
3846	0.00747498
3858	0.00924537
3870	0.00963879
3882	0.00452433
3894	0.0157368
3906	0.00727827
3918	0.0108191
3930	0.012196
3942	0.0133763
3954	0.0153434
3966	0.00904866
