Infrared Spectrum: Benzene, 2-butenyl-
Formula: C 10 H 12
CAS: 1560-06-1
Origin: Sadtler Research Labs Under US-EPA Contract
1/CM	ABSORBANCE
450	0
462	0.0498484
474	0.0503271
486	0.0357855
498	0.0496689
510	0.043565
522	0.0518232
534	0.0797095
546	0.0682199
558	0.0648687
570	0.0693569
582	0.0652876
594	0.0384186
606	0.0395556
618	0.0408721
630	0.0436248
642	0.0378201
654	0.0431461
666	0.0578672
678	0.137637
690	0.332482
702	0.460365
714	0.265938
726	0.245292
738	0.360369
750	0.28766
762	0.119923
774	0.0523617
786	0.0366233
798	0.044702
810	0.0353666
822	0.0356658
834	0.0357855
846	0.0362643
858	0.0415303
870	0.0377603
882	0.0409918
894	0.0475744
906	0.0596625
918	0.0637916
930	0.0792907
942	0.135183
954	0.265818
966	0.422305
978	0.224707
990	0.100953
1002	0.0718702
1014	0.0689978
1026	0.111067
1038	0.113341
1050	0.102569
1062	0.121479
1074	0.0942512
1086	0.0678608
1098	0.0525413
1110	0.0437445
1122	0.0403934
1134	0.0394359
1146	0.0394957
1158	0.0414107
1170	0.0502074
1182	0.0533192
1194	0.0707931
1206	0.0596625
1218	0.0441036
1230	0.0457791
1242	0.0523019
1254	0.0549948
1266	0.059842
1278	0.0661853
1290	0.055294
1302	0.058346
1314	0.0655868
1326	0.0605003
1338	0.0581664
1350	0.0528405
1362	0.0594829
1374	0.0714513
1386	0.0833599
1398	0.0691175
1410	0.0646892
1422	0.0828812
1434	0.132191
1446	0.194546
1458	0.193649
1470	0.112084
1482	0.0935929
1494	0.250977
1506	0.146852
1518	0.0561916
1530	0.0457193
1542	0.0461382
1554	0.040154
1566	0.0441036
1578	0.0549948
1590	0.0746828
1602	0.152118
1614	0.133687
1626	0.0574483
1638	0.0451807
1650	0.0458988
1662	0.0446421
1674	0.0484122
1686	0.0527208
1698	0.0612184
1710	0.0581066
1722	0.0552342
1734	0.0513444
1746	0.0461382
1758	0.0427272
1770	0.0431461
1782	0.0493697
1794	0.0655868
1806	0.0555932
1818	0.0399745
1830	0.0375209
1842	0.0376406
1854	0.0421886
1866	0.0478138
1878	0.0466169
1890	0.0412311
1902	0.0354863
1914	0.0357257
1926	0.0438642
1938	0.0546357
1950	0.0581066
1962	0.0445823
1974	0.0323745
1986	0.0330328
1998	0.0347682
2010	0.0343493
2022	0.0311178
2034	0.0301604
2046	0.0298013
2058	0.0296218
2070	0.0295619
2082	0.0297415
2094	0.0294423
2106	0.0294423
2118	0.0294423
2130	0.0296218
2142	0.029921
2154	0.0298013
2166	0.0298013
2178	0.0297415
2190	0.0298013
2202	0.0296816
2214	0.0301604
2226	0.0298612
2238	0.029921
2250	0.0308785
2262	0.0304596
2274	0.0301005
2286	0.0295619
2298	0.0293226
2310	0.0311178
2322	0.0318958
2334	0.033691
2346	0.033691
2358	0.033691
2370	0.0332123
2382	0.0321352
2394	0.0318958
2406	0.0327934
2418	0.032195
2430	0.0318958
2442	0.0315966
2454	0.0311178
2466	0.0306391
2478	0.0312375
2490	0.0312974
2502	0.0307588
2514	0.0306391
2526	0.0306391
2538	0.0302202
2550	0.0305793
2562	0.0308186
2574	0.0308785
2586	0.0313572
2598	0.0318958
2610	0.032554
2622	0.032195
2634	0.0327336
2646	0.0317163
2658	0.0304596
2670	0.0307588
2682	0.031058
2694	0.0316564
2706	0.033332
2718	0.0353666
2730	0.0376406
2742	0.0473949
2754	0.0448217
2766	0.0385981
2778	0.0390768
2790	0.0403934
2802	0.0417099
2814	0.0473949
2826	0.0634924
2838	0.10227
2850	0.144279
2862	0.19299
2874	0.250259
2886	0.203223
2898	0.286404
2910	0.360069
2922	0.449533
2934	0.490405
2946	0.343553
2958	0.287301
2970	0.279522
2982	0.256184
2994	0.203283
3006	0.223151
3018	0.31818
3030	0.546238
3042	0.541809
3054	0.270725
3066	0.346605
3078	0.403275
3090	0.241522
3102	0.169113
3114	0.108613
3126	0.0646892
3138	0.0472153
3150	0.040154
3162	0.0387776
3174	0.0373414
3186	0.0339304
3198	0.0318958
3210	0.0318359
3222	0.0316564
3234	0.0312974
3246	0.0308186
3258	0.0306391
3270	0.0311178
3282	0.0306391
3294	0.0304596
3306	0.0298612
3318	0.0315966
3330	0.0303997
3342	0.0308186
3354	0.0309982
3366	0.0316564
3378	0.0311777
3390	0.0312375
3402	0.0323745
3414	0.0316564
3426	0.0323147
3438	0.0318958
3450	0.0314769
3462	0.0319556
3474	0.0308186
3486	0.0318958
3498	0.0322548
3510	0.0308785
3522	0.0317761
3534	0.0311178
3546	0.0312375
3558	0.0308186
3570	0.0323147
3582	0.0313572
3594	0.0328533
3606	0.0330328
3618	0.0330926
3630	0.0345887
3642	0.0349477
3654	0.0365635
3666	0.0348879
3678	0.0328533
3690	0.0333918
3702	0.0330328
3714	0.0329131
3726	0.0317163
3738	0.0324942
3750	0.0335714
3762	0.0322548
3774	0.032195
3786	0.032195
3798	0.0323147
3810	0.0324942
3822	0.0352469
3834	0.0340501
3846	0.0328533
3858	0.0342296
3870	0.0317163
3882	0.0335714
3894	0.034469
3906	0.0326139
3918	0.033691
3930	0.0324942
3942	0.0341099
3954	0.0329131
3966	0.0339304
