Infrared Spectrum: 1-Propanol, 2-dodecyloxy-3-tetradecyloxy-,
Formula: C 29 H 60 O 3
CAS: 1561-56-4
Origin: Sadtler Research Labs Under US-EPA Contract
1/CM	ABSORBANCE
450	0.0105833
462	0.014911
474	0.0168388
486	0.0157372
498	0.0180191
510	0.0169962
522	0.0169962
534	0.0168781
546	0.0156585
558	0.0117242
570	0.0182158
582	0.0167601
594	0.0152257
606	0.0140061
618	0.0141241
630	0.013652
642	0.0144389
654	0.0158946
666	0.0174289
678	0.0141635
690	0.0150684
702	0.0154225
714	0.0213239
726	0.0220714
738	0.0175863
750	0.0153831
762	0.013416
774	0.0127078
786	0.0115275
798	0.0139274
810	0.0176257
822	0.0180978
834	0.0170749
846	0.0184912
858	0.0171929
870	0.017783
882	0.0174683
894	0.0193174
906	0.0198289
918	0.0193568
930	0.0188453
942	0.0210485
954	0.0214419
966	0.0239599
978	0.0275401
990	0.0276975
1002	0.0301367
1014	0.0373759
1026	0.0489033
1038	0.0614144
1050	0.0576768
1062	0.0642078
1074	0.0732567
1086	0.0872628
1098	0.10418
1110	0.113229
1122	0.0954855
1134	0.0660569
1146	0.0359595
1158	0.0210485
1170	0.013652
1182	0.00838006
1194	0.00306875
1206	0.0104259
1218	0.0136914
1230	0.0145963
1242	0.0178224
1254	0.0197895
1266	0.0210485
1278	0.0213239
1290	0.0230157
1302	0.0256123
1314	0.0248648
1326	0.0246681
1338	0.0297433
1350	0.0328907
1362	0.0306089
1374	0.0302548
1386	0.0269106
1398	0.0254943
1410	0.0217567
1422	0.0213632
1434	0.0297433
1446	0.0428839
1458	0.0634996
1470	0.0455592
1482	0.0207731
1494	0.0116455
1506	0.00987509
1518	0.00924561
1530	0.00885218
1542	0.00873415
1554	0.00924561
1566	0.0086948
1578	0.00920626
1590	0.00900955
1602	0.00904889
1614	0.00920626
1626	0.00845875
1638	0.00877349
1650	0.00790794
1662	0.00853743
1674	0.0084194
1686	0.00916692
1698	0.00928495
1710	0.00932429
1722	0.0100325
1734	0.01078
1746	0.0104259
1758	0.00952101
1770	0.0089702
1782	0.00885218
1794	0.00818334
1806	0.00826203
1818	0.00826203
1830	0.00771123
1842	0.00798663
1854	0.00771123
1866	0.00778991
1878	0.0075932
1890	0.00771123
1902	0.00743583
1914	0.0075932
1926	0.00716043
1938	0.00739648
1950	0.00700305
1962	0.00723911
1974	0.00723911
1986	0.00716043
1998	0.00708174
2010	0.00700305
2022	0.00739648
2034	0.00716043
2046	0.006767
2058	0.00696371
2070	0.0070424
2082	0.00660962
2094	0.00653094
2106	0.00629488
2118	0.00613751
2130	0.00562605
2142	0.00578342
2154	0.00617685
2166	0.00594079
2178	0.00566539
2190	0.00578342
2202	0.00550802
2214	0.00554736
2226	0.00535065
2238	0.0053113
2250	0.0050359
2262	0.00527196
2274	0.00546868
2286	0.00621619
2298	0.00755386
2310	0.0089702
2322	0.00908823
2334	0.00865546
2346	0.00889152
2358	0.00845875
2370	0.00873415
2382	0.00637357
2394	0.00389496
2406	0.00354087
2418	0.00369824
2430	0.00342284
2442	0.00322613
2454	0.00330481
2466	0.00314744
2478	0.00306875
2490	0.0031081
2502	0.00279335
2514	0.00306875
2526	0.00330481
2538	0.00350153
2550	0.0033835
2562	0.00302941
2574	0.00350153
2586	0.00389496
2598	0.00409167
2610	0.00436707
2622	0.00444576
2634	0.0050359
2646	0.00538999
2658	0.0064916
2670	0.00708174
2682	0.00727845
2694	0.00767188
2706	0.0073178
2718	0.00877349
2730	0.0107013
2742	0.0126291
2754	0.0151077
2766	0.017665
2778	0.0217567
2790	0.0278548
2802	0.033953
2814	0.0436707
2826	0.05988
2838	0.0987116
2850	0.207102
2862	0.227835
2874	0.167562
2886	0.148008
2898	0.18267
2910	0.248569
2922	0.370768
2934	0.348107
2946	0.195771
2958	0.131288
2970	0.0706207
2982	0.0261238
2994	0.0120783
3006	0.00641291
3018	0.00405233
3030	0.00342284
3042	0.00299007
3054	0.00287204
3066	0.00291138
3078	0.00330481
3090	0.00314744
3102	0.00322613
3114	0.00275401
3126	0.00259664
3138	0.00291138
3150	0.00275401
3162	0.00291138
3174	0.00239992
3186	0.00334416
3198	0.00232124
3210	0.00243927
3222	0.00279335
3234	0.00184912
3246	0.00196715
3258	0.00271467
3270	0.00200649
3282	0.00263598
3294	0.00243927
3306	0.00255729
3318	0.00220321
3330	0.00271467
3342	0.00196715
3354	0.00287204
3366	0.00295072
3378	0.00334416
3390	0.00350153
3402	0.00369824
3414	0.00354087
3426	0.00361956
3438	0.00483919
3450	0.00538999
3462	0.00601948
3474	0.00688502
3486	0.00692437
3498	0.00782926
3510	0.00778991
3522	0.00849809
3534	0.00900955
3546	0.00940298
3558	0.00983575
3570	0.00979641
3582	0.00936363
3594	0.0107013
3606	0.00983575
3618	0.00672765
3630	0.00472116
3642	0.00385561
3654	0.00263598
3666	0.000904889
3678	0.000511459
3690	0.000314744
3702	0
3714	0
3726	0
3738	0.000236058
3750	0
3762	0
3774	0
3786	0
3798	0
3810	0
3822	0
3834	0
3846	0
3858	0
3870	0
3882	0
3894	0
3906	0
3918	0
3930	0
3942	0
3954	0
3966	0
