Infrared Spectrum: 1,2-Propanediol, 3-(dodecyloxy)-
Formula: C 15 H 32 O 3
CAS: 1561-07-5
Origin: Sadtler Research Labs Under US-EPA Contract
1/CM	ABSORBANCE
450	0.00415367
462	0.0142846
474	0.0135754
486	0.00850996
498	0.00850996
510	0.00840865
522	0.0104348
534	0.00800341
546	0.00800341
558	0.00952305
570	0.00699032
582	0.00699032
594	0.00374843
606	0.00324189
618	0.00182356
630	0.00212749
642	0.00486283
654	0.00830734
666	0.0126636
678	0.00668639
690	0.00486283
702	0.0079021
714	0.0128662
726	0.0139806
738	0.0103335
750	0.00861126
762	0.00699032
774	0.00729425
786	0.00780079
798	0.0110427
810	0.0110427
822	0.0130689
834	0.015399
846	0.0191474
858	0.0219841
870	0.0203631
882	0.0182356
894	0.0208697
906	0.0256312
918	0.0316084
930	0.0345464
942	0.0335333
954	0.0345464
966	0.0391053
978	0.0466021
990	0.0515663
1002	0.0616972
1014	0.0848969
1026	0.121166
1038	0.153281
1050	0.175366
1062	0.194412
1074	0.174251
1086	0.17101
1098	0.2012
1110	0.262796
1122	0.306764
1134	0.234632
1146	0.116505
1158	0.0706124
1170	0.0577461
1182	0.0521741
1194	0.0482231
1206	0.0456904
1218	0.0462982
1230	0.0505532
1242	0.0546056
1254	0.0578474
1266	0.0532885
1278	0.0460956
1290	0.0462982
1302	0.0508571
1314	0.0515663
1326	0.0559226
1338	0.0635207
1350	0.0748674
1362	0.0772988
1374	0.0728412
1386	0.0695993
1398	0.0593671
1410	0.0473113
1422	0.0361673
1434	0.0362686
1446	0.0526807
1458	0.0886454
1470	0.0836812
1482	0.0409288
1494	0.0170199
1506	0.00942174
1518	0.00648378
1530	0.0044576
1542	0.00344451
1554	0.00314058
1566	0.00182356
1578	0.00212749
1590	0.00172225
1602	0.00162094
1614	0.00172225
1626	0.00131702
1638	0.00151964
1650	0.00141833
1662	0.00131702
1674	0.0011144
1686	0.00273534
1698	0.00273534
1710	0.0044576
1722	0.00668639
1734	0.0108401
1746	0.0162094
1758	0.0107388
1770	0.00547069
1782	0.00395105
1794	0.00212749
1806	0.00151964
1818	0.000911781
1830	0
1842	0.000506545
1854	0.000303927
1866	0.000709163
1878	0.000405236
1890	0.000303927
1902	0.000202618
1914	0.000506545
1926	0.000607854
1938	0.00101309
1950	0.000911781
1962	0.00131702
1974	0.00131702
1986	0.00182356
1998	0.00192487
2010	0.00233011
2022	0.00283665
2034	0.0033432
2046	0.00374843
2058	0.00354581
2070	0.00384974
2082	0.00415367
2094	0.00384974
2106	0.00374843
2118	0.0033432
2130	0.00314058
2142	0.00253272
2154	0.00253272
2166	0.00314058
2178	0.00283665
2190	0.00303927
2202	0.00273534
2214	0.00243142
2226	0.00202618
2238	0.00212749
2250	0.00212749
2262	0.00233011
2274	0.00273534
2286	0.00395105
2298	0.00688901
2310	0.00921912
2322	0.00840865
2334	0.00607854
2346	0.00699032
2358	0.00729425
2370	0.00486283
2382	0.00628116
2394	0.00202618
2406	0.00172225
2418	0.00202618
2430	0.00202618
2442	0.00212749
2454	0.00202618
2466	0.00202618
2478	0.0022288
2490	0.00283665
2502	0.00273534
2514	0.0033432
2526	0.00395105
2538	0.0044576
2550	0.0044576
2562	0.00496414
2574	0.00547069
2586	0.00617985
2598	0.0067877
2610	0.00729425
2622	0.00810472
2634	0.00911781
2646	0.0104348
2658	0.0118532
2670	0.0134741
2682	0.0155003
2694	0.016716
2706	0.0177291
2718	0.0188435
2730	0.020667
2742	0.0228958
2754	0.0240102
2766	0.0261377
2778	0.0302914
2790	0.0371804
2802	0.0457917
2814	0.0545042
2826	0.0693967
2838	0.101106
2850	0.201605
2862	0.452446
2874	0.418204
2886	0.331584
2898	0.301293
2910	0.400778
2922	0.638145
2934	1.01309
2946	0.705212
2958	0.378288
2970	0.292378
2982	0.124104
2994	0.0585566
3006	0.0357621
3018	0.0244155
3030	0.0179317
3042	0.0134741
3054	0.0106374
3066	0.00810472
3078	0.00668639
3090	0.0056733
3102	0.00516676
3114	0.00496414
3126	0.00395105
3138	0.00354581
3150	0.00303927
3162	0.00283665
3174	0.00273534
3186	0.00253272
3198	0.00233011
3210	0.00182356
3222	0.00151964
3234	0.00162094
3246	0.00202618
3258	0.00172225
3270	0.00202618
3282	0.00172225
3294	0.00212749
3306	0.00263403
3318	0.00202618
3330	0.00263403
3342	0.00303927
3354	0.00344451
3366	0.00354581
3378	0.00354581
3390	0.00425498
3402	0.00425498
3414	0.00425498
3426	0.00476152
3438	0.00587592
3450	0.00628116
3462	0.00597723
3474	0.00648378
3486	0.00658509
3498	0.00739556
3510	0.00749687
3522	0.00891519
3534	0.00992828
3546	0.0121571
3558	0.0195526
3570	0.0280626
3582	0.0317097
3594	0.0406249
3606	0.0490336
3618	0.0601775
3630	0.0575435
3642	0.0357621
3654	0.0255299
3666	0.023605
3678	0.0194513
3690	0.0145885
3702	0.00780079
3714	0.00557199
3726	0.00506545
3738	0.00466021
3750	0.00364712
3762	0.00354581
3774	0.00263403
3786	0.00253272
3798	0.0033432
3810	0.00243142
3822	0.00283665
3834	0.00273534
3846	0.00192487
3858	0.00314058
3870	0.00435629
3882	0.00344451
3894	0.00273534
3906	0.0033432
3918	0.00253272
3930	0.00374843
3942	0.00364712
3954	0.00405236
3966	0.00364712
