Infrared Spectrum: Acetamide, N,N-dibutyl-
Formula: C 10 H 21 N O
CAS: 1563-90-2
Origin: Sadtler Research Labs Under US-EPA Contract
1/CM	ABSORBANCE
450	0.00577146
462	0.0126972
474	0.00894576
486	0.00442479
498	0.0204887
510	0.0201039
522	0.0254906
534	0.0199115
546	0.025202
558	0.0157753
570	0.0289535
582	0.0372259
594	0.0496346
606	0.0427088
618	0.0338592
630	0.0311659
642	0.0279916
654	0.023663
666	0.0198153
678	0.0223163
690	0.0212582
702	0.0227011
714	0.0233744
726	0.0319354
738	0.0319354
750	0.027703
762	0.0245287
774	0.0296268
786	0.0206811
798	0.0263563
810	0.0190458
822	0.0237592
834	0.0193344
846	0.0185649
858	0.0182763
870	0.0200077
882	0.0209696
894	0.0221239
906	0.0252982
918	0.0269335
930	0.0368412
942	0.0351097
954	0.0440555
966	0.053386
978	0.0472298
990	0.0399193
1002	0.0378031
1014	0.0329935
1026	0.0396307
1038	0.0545403
1050	0.0442479
1062	0.0402078
1074	0.0418431
1086	0.0371297
1098	0.0578108
1110	0.062428
1122	0.0447288
1134	0.034244
1146	0.043286
1158	0.0568489
1170	0.0501155
1182	0.0597346
1194	0.0857062
1206	0.0794538
1218	0.118507
1230	0.153328
1242	0.0970567
1254	0.105329
1266	0.107734
1278	0.102636
1290	0.124086
1302	0.116006
1314	0.0913815
1326	0.0658908
1338	0.0591575
1350	0.0827243
1362	0.134571
1374	0.158811
1386	0.136591
1398	0.116872
1410	0.221335
1422	0.321567
1434	0.186611
1446	0.152847
1458	0.160928
1470	0.151597
1482	0.108984
1494	0.0543479
1506	0.0566565
1518	0.0396307
1530	0.0306849
1542	0.0433821
1554	0.0300116
1566	0.0250097
1578	0.0313583
1590	0.0249135
1602	0.0267411
1614	0.0283763
1626	0.0388612
1638	0.0597346
1650	0.0739709
1662	0.168142
1674	0.760486
1686	0.679589
1698	0.124567
1710	0.0590613
1722	0.047326
1734	0.0463641
1746	0.0323202
1758	0.0373221
1770	0.0449212
1782	0.0419393
1794	0.0404964
1806	0.033763
1818	0.0189496
1830	0.0151982
1842	0.0104848
1854	0.00913815
1866	0.00913815
1878	0.00904195
1890	0.0096191
1902	0.00798385
1914	0.00846481
1926	0.00846481
1938	0.00836862
1950	0.00836862
1962	0.0075029
1974	0.00788766
1986	0.00798385
1998	0.00702194
2010	0.0075029
2022	0.00634861
2034	0.00836862
2046	0.00606003
2058	0.00740671
2070	0.00577146
2082	0.00682956
2094	0.00586765
2106	0.00577146
2118	0.00596384
2130	0.00692575
2142	0.0053867
2154	0.0064448
2166	0.00615622
2178	0.00557908
2190	0.00577146
2202	0.00557908
2214	0.00634861
2226	0.00490574
2238	0.00567527
2250	0.00461717
2262	0.00471336
2274	0.00375145
2286	0.00519431
2298	0.00471336
2310	0.00702194
2322	0.0053867
2334	0.00577146
2346	0.00298192
2358	0.00788766
2370	0.00355907
2382	0.00346288
2394	0.00461717
2406	0.00404002
2418	0.00384764
2430	0.0031743
2442	0.00298192
2454	0.00202001
2466	0.00240478
2478	0.00125048
2490	0.00115429
2502	0.0010581
2514	0.0021162
2526	0.00163525
2538	0.00259716
2550	0.00221239
2562	0.0043286
2574	0.00278954
2586	0.00471336
2598	0.0031743
2610	0.00442479
2622	0.00375145
2634	0.00442479
2646	0.00471336
2658	0.00500193
2670	0.00519431
2682	0.00663718
2694	0.00625241
2706	0.00721432
2718	0.00779147
2730	0.00798385
2742	0.0102924
2754	0.00875338
2766	0.00933053
2778	0.00923434
2790	0.0128896
2802	0.0137553
2814	0.0183725
2826	0.0213544
2838	0.0314545
2850	0.0463641
2862	0.0997501
2874	0.186995
2886	0.208446
2898	0.145248
2910	0.162948
2922	0.219893
2934	0.324452
2946	0.356772
2958	0.29117
2970	0.490189
2982	0.252982
2994	0.10379
3006	0.0610813
3018	0.0445364
3030	0.0315506
3042	0.0259716
3054	0.0183725
3066	0.0162563
3078	0.0125048
3090	0.0115429
3102	0.00942672
3114	0.0103886
3126	0.00673337
3138	0.00740671
3150	0.00577146
3162	0.00634861
3174	0.00509812
3186	0.00557908
3198	0.00500193
3210	0.00529051
3222	0.00298192
3234	0.00375145
3246	0.0031743
3258	0.00269335
3270	0.00471336
3282	0.0021162
3294	0.00384764
3306	0.00173144
3318	0.00346288
3330	0.00394383
3342	0.008561
3354	0.00346288
3366	0.00404002
3378	0.00250097
3390	0.00557908
3402	0.00394383
3414	0.00404002
3426	0.00298192
3438	0.00384764
3450	0.00394383
3462	0.00355907
3474	0.0031743
3486	0.00307811
3498	0.00221239
3510	0.00288573
3522	0.00384764
3534	0.00327049
3546	0.00788766
3558	0.00586765
3570	0.0132744
3582	0.0107734
3594	0.0119277
3606	0.00663718
3618	0.00788766
3630	0.0108696
3642	0.00615622
3654	0.00567527
3666	0.00702194
3678	0.0104848
3690	0.0121201
3702	0.00817624
3714	0.0120239
3726	0.0117353
3738	0.0161601
3750	0.0186611
3762	0.0111582
3774	0.00827243
3786	0.0101962
3798	0.0115429
3810	0.0100039
3822	0.0145248
3834	0.0119277
3846	0.0140439
3858	0.0124086
3870	0.0156791
3882	0.0144286
3894	0.0133705
3906	0.0142363
3918	0.0144286
3930	0.0108696
3942	0.0101962
3954	0
3966	0.000673337
