Infrared Spectrum: Acrylophenone, 4'-fluoro-3-(2-furyl)-,
Formula: C 13 H 9 F O 2
CAS: 1565-90-8
Origin: Sadtler Research Labs Under US-EPA Contract
1/CM	ABSORBANCE
450	0.0108415
462	0.00271037
474	0.00232318
486	0.0161654
498	0.022167
510	0.018779
522	0.00784072
534	0.0129711
546	0.00493675
558	0.00561434
570	0.0166494
582	0.130485
594	0.350219
606	0.0306853
618	0.0126807
630	0.0093895
642	0.00832471
654	0.00445275
666	0.00580794
678	0.0131647
690	0.0417204
702	0.110835
714	0.0383324
726	0.0677593
738	0.267649
750	0.110351
762	0.0343636
774	0.0299109
786	0.0230382
798	0.0808272
810	0.151781
822	0.0910879
834	0.173754
846	0.132615
858	0.0637905
870	0.0499483
882	0.081408
894	0.0366868
906	0.0124871
918	0.0243933
930	0.055853
942	0.0450115
954	0.0580794
966	0.122354
978	0.121096
990	0.0790848
1002	0.160783
1014	0.736156
1026	0.170463
1038	0.0497547
1050	0.0279749
1062	0.0481091
1074	0.0367836
1086	0.0475283
1098	0.0272973
1110	0.0147134
1122	0.0111319
1134	0.0199406
1146	0.0655329
1158	0.550109
1170	0.0510131
1182	0.0774392
1194	0.133099
1206	0.142972
1218	0.53133
1230	0.491352
1242	0.606059
1254	0.193404
1266	0.193211
1278	0.298819
1290	0.437144
1302	0.301529
1314	0.285654
1326	0.270747
1338	0.0567242
1350	0.0347508
1362	0.0171334
1374	0.0186822
1386	0.0595314
1398	0.0513035
1410	0.0995094
1422	0.0300077
1434	0.0224574
1446	0.0274909
1458	0.020231
1470	0.0733736
1482	0.177433
1494	0.0911847
1506	0.250129
1518	0.0846023
1530	0.0322341
1542	0.0612738
1554	0.160783
1566	0.115578
1578	0.0907007
1590	0.243837
1602	0.656975
1614	0.902167
1626	0.64865
1638	0.19534
1650	0.0859575
1662	0.169689
1674	0.375774
1686	0.354865
1698	0.0644681
1710	0.0313629
1722	0.0357188
1734	0.0125839
1746	0.00648553
1758	0.00745352
1770	0.00851831
1782	0.00890551
1794	0.00251677
1806	0.00542074
1818	0.00503355
1830	0.00454955
1842	0.00532395
1854	0.00513035
1866	0.00174238
1878	0.00774392
1890	0.00600154
1902	0.00832471
1914	0.00687273
1926	0.00522715
1938	0.00503355
1950	0.00348476
1962	0.00300077
1974	0.00290397
1986	0.00425916
1998	0.00309757
2010	0.00358156
2022	0.00638873
2034	0.00822792
2046	0.00677593
2058	0.00542074
2070	0.00367836
2082	0.00358156
2094	0.00600154
2106	0.00300077
2118	0.000580794
2130	0
2142	0
2154	9.6799e-05
2166	0.00125839
2178	0.00174238
2190	0.00145199
2202	0.00096799
2214	0.00106479
2226	0.00135519
2238	0.00096799
2250	0.00116159
2262	0.00174238
2274	0.00125839
2286	0.00183918
2298	0.00493675
2310	0.00793752
2322	0.00774392
2334	0.00706633
2346	0.00687273
2358	0.00561434
2370	0.00532395
2382	0.00638873
2394	0.00503355
2406	0.00571114
2418	0.00464635
2430	0.00377516
2442	0.00396876
2454	0.00425916
2466	0.00580794
2478	0.00600154
2490	0.00319437
2502	0.00280717
2514	0.00271037
2526	0.00300077
2538	0.00425916
2550	0.00629194
2562	0.00861511
2574	0.00909911
2586	0.00725993
2598	0.00561434
2610	0.00503355
2622	0.00609834
2634	0.00764712
2646	0.00571114
2658	0.00406556
2670	0.00319437
2682	0.00338797
2694	0.00445275
2706	0.00416236
2718	0.00319437
2730	0.00338797
2742	0.00435595
2754	0.00387196
2766	0.00329117
2778	0.00396876
2790	0.00396876
2802	0.00367836
2814	0.00406556
2826	0.00416236
2838	0.00348476
2850	0.00387196
2862	0.00542074
2874	0.00609834
2886	0.00532395
2898	0.00406556
2910	0.00358156
2922	0.00387196
2934	0.00445275
2946	0.00358156
2958	0.00377516
2970	0.00280717
2982	0.00271037
2994	0.00329117
3006	0.00377516
3018	0.00474315
3030	0.00638873
3042	0.0111319
3054	0.0260389
3066	0.0237158
3078	0.0278781
3090	0.0237158
3102	0.0136487
3114	0.0161654
3126	0.0218766
3138	0.00871191
3150	0.00396876
3162	0.00435595
3174	0.00338797
3186	0.00280717
3198	0.00241997
3210	0.00203278
3222	0.00183918
3234	0.00232318
3246	0.00251677
3258	0.00241997
3270	0.00367836
3282	0.00474315
3294	0.00503355
3306	0.00445275
3318	0.00387196
3330	0.00338797
3342	0.00551754
3354	0.00706633
3366	0.00387196
3378	0.00203278
3390	0.00271037
3402	0.00241997
3414	0.00232318
3426	0.00232318
3438	0.00183918
3450	0.00145199
3462	0.00174238
3474	0.00222638
3486	0.00174238
3498	0.00261357
3510	0.00145199
3522	0.00116159
3534	0.00174238
3546	0.00174238
3558	0.00203278
3570	0.00193598
3582	0.00290397
3594	0.00222638
3606	0.00232318
3618	0.00164558
3630	0.00106479
3642	0.00241997
3654	0.00232318
3666	0.00203278
3678	0.00232318
3690	0.00241997
3702	0.00212958
3714	0.00261357
3726	0.00212958
3738	0.00222638
3750	0.00251677
3762	0.00232318
3774	0.00135519
3786	0.00212958
3798	0.000871191
3810	0.00125839
3822	0.00193598
3834	0.00106479
3846	0.00193598
3858	0.00193598
3870	0.00193598
3882	0.00096799
3894	0.00116159
3906	0.00183918
3918	0.00174238
3930	0.00280717
3942	0.00106479
3954	0.00116159
3966	0.000871191
