Infrared Spectrum: Benzofuro[2,3-b]benzofuran-10b-carboxylic acid, 5a,10b-dihydro-2,5a,8-trimethyl ether, ethyl ester
Formula: C 20 H 20 O 4
CAS: 1569-28-4
Origin: Sadtler Research Labs Under US-EPA Contract
1/CM	ABSORBANCE
450	0.0383773
462	0.00843703
474	0.00130662
486	0.00507715
498	0.00515182
510	0.0132529
522	0.0162394
534	0.0066451
546	0.00507715
558	0.0132902
570	0.0106023
582	0.019114
594	0.0361374
606	0.0166874
618	0.00791438
630	0.00369587
642	0.00552514
654	0.00914634
666	0.0263191
678	0.0272897
690	0.0160154
702	0.0186287
714	0.0122822
726	0.0127302
738	0.0170234
750	0.0262071
762	0.0730214
774	0.0501369
786	0.0645097
798	0.143318
810	0.0997138
822	0.038228
834	0.0419612
846	0.0754106
858	0.116103
870	0.0963166
882	0.107553
894	0.11614
906	0.100274
918	0.084333
930	0.129019
942	0.209806
954	0.121702
966	0.0620085
978	0.0493902
990	0.0648084
1002	0.0666376
1014	0.0619711
1026	0.123793
1038	0.216414
1050	0.149403
1062	0.105799
1074	0.266774
1086	0.354206
1098	0.163813
1110	0.082877
1122	0.0702215
1134	0.085229
1146	0.0739547
1158	0.0869089
1170	0.0909781
1182	0.135814
1194	0.23269
1206	0.181583
1218	0.148507
1230	0.189721
1242	0.266364
1254	0.340617
1266	0.27887
1278	0.284731
1290	0.18498
1302	0.0964286
1314	0.0740294
1326	0.0263937
1338	0.0145968
1350	0.0149701
1362	0.0312842
1374	0.0452837
1386	0.112855
1398	0.0377053
1410	0.0428571
1422	0.0900448
1434	0.127153
1446	0.104828
1458	0.0727601
1470	0.0707068
1482	0.118678
1494	0.266065
1506	0.0943753
1518	0.0299029
1530	0.0229965
1542	0.017322
1554	0.0174714
1566	0.0231458
1578	0.0397586
1590	0.0870582
1602	0.0813464
1614	0.0704082
1626	0.0919114
1638	0.0209806
1650	0.0100423
1662	0.0107516
1674	0.0123196
1686	0.0163887
1698	0.027327
1710	0.0432305
1722	0.0680189
1734	0.196516
1746	0.291488
1758	0.170159
1770	0.0442758
1782	0.0168741
1794	0.00981832
1806	0.00586112
1818	0.00395719
1830	0.00231458
1842	0.00261324
1854	0.0055998
1866	0.00873569
1878	0.00496516
1890	0.00335988
1902	0.00242658
1914	0.00130662
1926	0.000522648
1938	0.000261324
1950	0.00037332
1962	0.000671976
1974	0.000447984
1986	0.000970632
1998	0.00108263
2010	0.00134395
2022	0.00179194
2034	0.00201593
2046	0.00201593
2058	0.00227725
2070	0.0019786
2082	0.00156794
2094	0.00171727
2106	0.00145595
2118	0.000895968
2130	0.00123196
2142	0.00126929
2154	0.000970632
2166	0.000671976
2178	0.00100796
2190	0.00149328
2202	0.00179194
2214	0.00182927
2226	0.00190393
2238	0.00156794
2250	0.00111996
2262	0.00167994
2274	0.00145595
2286	0.00194126
2298	0.0026879
2310	0.00369587
2322	0.00436784
2334	0.00418118
2346	0.00377053
2358	0.00503982
2370	0.00306122
2382	0.00369587
2394	0.00235192
2406	0.0026879
2418	0.00272524
2430	0.00238925
2442	0.0019786
2454	0.00134395
2466	0.00123196
2478	0.00138128
2490	0.00123196
2502	0.00145595
2514	0.00242658
2526	0.00194126
2538	0.00257591
2550	0.0019786
2562	0.0019786
2574	0.00209059
2586	0.0017546
2598	0.00138128
2610	0.00134395
2622	0.000298656
2634	0.000261324
2646	0.00037332
2658	0.000597312
2670	0.00037332
2682	0.0009333
2694	0.00126929
2706	0.00160528
2718	0.00209059
2730	0.00321055
2742	0.00615978
2754	0.00391986
2766	0.00272524
2778	0.0029119
2790	0.00317322
2802	0.00399452
2814	0.00574913
2826	0.0075784
2838	0.0102663
2850	0.0153808
2862	0.0291936
2874	0.0470383
2886	0.0439398
2898	0.0400572
2910	0.0497262
2922	0.0702215
2934	0.103372
2946	0.0865356
2958	0.056334
2970	0.0577153
2982	0.0836983
2994	0.0875809
3006	0.0670483
3018	0.055326
3030	0.0531234
3042	0.0559607
3054	0.0422225
3066	0.0302763
3078	0.0212046
3090	0.0140742
3102	0.00918367
3114	0.00604778
3126	0.00481583
3138	0.00253858
3150	0.0017546
3162	0.00123196
3174	0.00123196
3186	0.00119462
3198	0.000970632
3210	0.0009333
3222	0.00130662
3234	0.000634644
3246	0.000335988
3258	0.0009333
3270	0.000709308
3282	0.000335988
3294	0.000597312
3306	0.000485316
3318	0.00141862
3330	0.00130662
3342	0.00115729
3354	0.00115729
3366	0.00138128
3378	0.0009333
3390	0.00119462
3402	0.00164261
3414	0.000895968
3426	0.00138128
3438	0.00149328
3450	0.00265057
3462	0.0027999
3474	0.00276257
3486	0.00216526
3498	0.00153061
3510	0.000821304
3522	0.00141862
3534	0.0017546
3546	0.00123196
3558	0.00126929
3570	0.000597312
3582	0.00164261
3594	0.00167994
3606	0.00138128
3618	0.000597312
3630	0.0017546
3642	0.00164261
3654	0.00153061
3666	0.00126929
3678	0.000783972
3690	0.00153061
3702	0.00164261
3714	0.000485316
3726	0.0026879
3738	0.00145595
3750	0.0010453
3762	0.00167994
3774	0.0009333
3786	0.000970632
3798	0.00108263
3810	0.00018666
3822	0.000858636
3834	0.00153061
3846	0.00111996
3858	0.00119462
3870	0.00156794
3882	0.000970632
3894	0.00235192
3906	0.0019786
3918	0.00201593
3930	0.00138128
3942	0.00126929
3954	0.00246391
3966	0.00250124
