Infrared Spectrum: Cyclohexanethiol
Formula: C 6 H 12 S
CAS: 1569-69-3
Origin: Sadtler Research Labs Under US-EPA Contract
1/CM	ABSORBANCE
450	0.00101762
462	0.00203525
474	0.00237446
486	0.00356168
498	0.00262886
510	0.00305287
522	0.00313767
534	0.00262886
546	0.00322248
558	0.00322248
570	0.00262886
582	0.00322248
594	0.00237446
606	0.00288327
618	0.00322248
630	0.00585134
642	0.00347688
654	0.00559693
666	0.00500332
678	0.00449451
690	0.00703857
702	0.0083954
714	0.0122115
726	0.010261
738	0.0109395
750	0.00551213
762	0.00381609
774	0.0042401
786	0.0041553
798	0.00576654
810	0.0137379
822	0.0149252
834	0.00907381
846	0.00915862
858	0.010261
870	0.0130595
882	0.018402
894	0.0146707
906	0.00881941
918	0.00788659
930	0.00636015
942	0.0044097
954	0.00381609
966	0.0044097
978	0.00703857
990	0.0214549
1002	0.0288327
1014	0.0195893
1026	0.0144163
1038	0.00788659
1050	0.00466411
1062	0.00483371
1074	0.00373129
1086	0.00398569
1098	0.00457931
1110	0.00500332
1122	0.00610574
1134	0.00652975
1146	0.00500332
1158	0.0040705
1170	0.00508812
1182	0.0083106
1194	0.0141619
1206	0.0294263
1218	0.0292567
1230	0.0129747
1242	0.00669936
1254	0.0161972
1266	0.040281
1278	0.0302743
1290	0.0106003
1302	0.00636015
1314	0.00669936
1326	0.00678416
1338	0.0137379
1350	0.0169604
1362	0.00898901
1374	0.00466411
1386	0.00322248
1398	0.00330728
1410	0.0040705
1422	0.00542733
1434	0.0224725
1446	0.0638559
1458	0.0795443
1470	0.0351928
1482	0.00890421
1494	0.00347688
1506	0.00195045
1518	0.00212005
1530	0.00212005
1542	0.00127203
1554	0.00186564
1566	0.00220485
1578	0.00186564
1590	0.00178084
1602	0.00186564
1614	0.00186564
1626	0.00186564
1638	0.00135683
1650	0.00186564
1662	0.00178084
1674	0.00186564
1686	0.00118723
1698	0.00144163
1710	0.00169604
1722	0.00161124
1734	0.00144163
1746	0.00161124
1758	0.00169604
1770	0.00169604
1782	0.00186564
1794	0.00161124
1806	0.00152644
1818	0.00152644
1830	0.00152644
1842	0.00144163
1854	0.00135683
1866	0.00135683
1878	0.00127203
1890	0.00135683
1902	0.00144163
1914	0.00118723
1926	0.00135683
1938	0.00127203
1950	0.00127203
1962	0.00118723
1974	0.00118723
1986	0.00161124
1998	0.00110243
2010	0.00101762
2022	0.00101762
2034	0.00101762
2046	0.00101762
2058	0.00084802
2070	0.00101762
2082	0.000932822
2094	0.000932822
2106	0.000932822
2118	0.00127203
2130	0.00135683
2142	0.00135683
2154	0.00169604
2166	0.00186564
2178	0.00186564
2190	0.00178084
2202	0.00186564
2214	0.00127203
2226	0.00135683
2238	0.00118723
2250	0.00118723
2262	0.00101762
2274	0.000593614
2286	0.000763218
2298	0.00084802
2310	0.000932822
2322	0.00084802
2334	0.000339208
2346	0.000932822
2358	0.00084802
2370	0.00127203
2382	0.00152644
2394	0.00101762
2406	0.000932822
2418	0.000932822
2430	0.00042401
2442	0.000339208
2454	0.000339208
2466	0.000763218
2478	0.00144163
2490	0.00135683
2502	0.000763218
2514	0.000254406
2526	0.000763218
2538	0.000763218
2550	0.000593614
2562	0.000678416
2574	0.0043249
2586	0.00958263
2598	0.008565
2610	0.0042401
2622	0.00322248
2634	0.00330728
2646	0.0042401
2658	0.00661456
2670	0.0083106
2682	0.00661456
2694	0.0041553
2706	0.00347688
2718	0.00339208
2730	0.00245926
2742	0.00203525
2754	0.00169604
2766	0.00271366
2778	0.00398569
2790	0.00644495
2802	0.00805619
2814	0.00771698
2826	0.00695376
2838	0.0198437
2850	0.0892117
2862	0.213955
2874	0.175116
2886	0.0694528
2898	0.0681808
2910	0.127457
2922	0.266787
2934	0.672904
2946	0.752363
2958	0.297909
2970	0.0440122
2982	0.00780178
2994	0.00339208
3006	0.00288327
3018	0.00152644
3030	0.00203525
3042	0.00152644
3054	0.00110243
3066	0.00220485
3078	0.00279847
3090	0.00262886
3102	0.00161124
3114	0.00118723
3126	0.00118723
3138	0.00135683
3150	0.00169604
3162	0.00220485
3174	0.00237446
3186	0.00152644
3198	0.00118723
3210	0.00178084
3222	0.00135683
3234	0.00169604
3246	0.00169604
3258	0.00169604
3270	0.00169604
3282	0.00127203
3294	0.00118723
3306	0.000932822
3318	0.00237446
3330	0.00203525
3342	0.000254406
3354	0.00228965
3366	0.00118723
3378	0.00220485
3390	0.00186564
3402	0.00203525
3414	0.00254406
3426	0.00212005
3438	0.00262886
3450	0.00330728
3462	0.00296807
3474	0.00178084
3486	0.00262886
3498	0.00271366
3510	0.00186564
3522	0.00245926
3534	0.00195045
3546	0.00220485
3558	0.00212005
3570	0.00195045
3582	0.00212005
3594	0.00296807
3606	0.00305287
3618	0.00356168
3630	0.00313767
3642	0.00279847
3654	0.00356168
3666	0.00398569
3678	0.00271366
3690	0.00305287
3702	0.00288327
3714	0.00322248
3726	0.0043249
3738	0.00288327
3750	0.00313767
3762	0.00288327
3774	0.00390089
3786	0.00271366
3798	0.00305287
3810	0.00322248
3822	0.00347688
3834	0.00279847
3846	0.00262886
3858	0.00237446
3870	0.00262886
3882	0.00364649
3894	0.00254406
3906	0.00254406
3918	0.00339208
3930	0.0044097
3942	0.00457931
3954	0.0040705
3966	0.00339208
