Infrared Spectrum: 5-Hexen-3-ol, 3-methyl-
Formula: C 7 H 14 O
CAS: 1569-44-4
Origin: Sadtler Research Labs Under US-EPA Contract
1/CM	ABSORBANCE
450	0.0365049
462	0.0352069
474	0.0304207
486	0.0225519
498	0.017279
510	0.0157377
522	0.0177657
534	0.0176035
546	0.0130606
558	0.00997801
570	0.00511069
582	0.00429947
594	0.0088423
606	0.0188203
618	0.0316376
630	0.0295284
642	0.0267703
654	0.0213351
666	0.0107081
678	0.00567854
690	0.00348825
702	0.00381273
714	0.00040561
726	0.00624639
738	0.0177657
750	0.0275815
762	0.0350447
774	0.0279871
786	0.0238499
798	0.0169545
810	0.00794996
822	0.00770659
834	0.0118438
846	0.0213351
858	0.046564
870	0.0733343
882	0.0619772
894	0.0699272
906	0.190231
918	0.373972
930	0.311346
942	0.147236
954	0.0821766
966	0.0623828
978	0.0858271
990	0.193476
1002	0.251154
1014	0.167355
1026	0.101078
1038	0.0915867
1050	0.088423
1062	0.0739833
1074	0.0756868
1086	0.0856648
1098	0.0948316
1110	0.118438
1122	0.154294
1134	0.173277
1146	0.178955
1158	0.195991
1170	0.189501
1182	0.14967
1194	0.110164
1206	0.0880985
1218	0.0830689
1230	0.0856648
1242	0.0905322
1254	0.0988066
1266	0.108947
1278	0.102051
1290	0.095075
1302	0.0941015
1314	0.090451
1326	0.0915056
1338	0.0961296
1350	0.110407
1362	0.134581
1374	0.187879
1386	0.201994
1398	0.109596
1410	0.0576777
1422	0.059868
1434	0.0855837
1446	0.120223
1458	0.146263
1470	0.128578
1482	0.0625451
1494	0.021254
1506	0.0124117
1518	0.00916679
1530	0.00794996
1542	0.0073821
1554	0.00640864
1566	0.00608415
1578	0.00681425
1590	0.00559742
1602	0.00697649
1614	0.0116004
1626	0.0297718
1638	0.0819332
1650	0.073821
1662	0.0138719
1674	0.00438059
1686	0.003326
1698	0.00348825
1710	0.00446171
1722	0.00235254
1734	0.000973464
1746	0.00202805
1758	0.00235254
1770	0.00227142
1782	0.00202805
1794	0.00275815
1806	0.003326
1818	0.00705761
1830	0.0201994
1842	0.0265269
1854	0.0158999
1866	0.00584078
1878	0.00210917
1890	0.00170356
1902	0.00202805
1914	0.00194693
1926	0.00186581
1938	0.00121683
1950	0.00113571
1962	0.00137907
1974	0.00219029
1986	0.00300151
1998	0.0025959
2010	0.00154132
2022	0.00121683
2034	0.00105459
2046	0.00129795
2058	0.00105459
2070	0.000892342
2082	0.00137907
2094	0.00105459
2106	0.000973464
2118	0.00081122
2130	0.00113571
2142	0.00105459
2154	0.000730098
2166	0.000648976
2178	0.00113571
2190	0.000648976
2202	0.000486732
2214	0.00040561
2226	0.000730098
2238	0.000567854
2250	0.000730098
2262	0.00105459
2274	0.00105459
2286	0.00162244
2298	0.00178468
2310	0.00308264
2322	0.00454283
2334	0.00381273
2346	0.00210917
2358	0.00446171
2370	0.000730098
2382	0.00210917
2394	0.00202805
2406	0.00121683
2418	0.00121683
2430	0.00129795
2442	0.0014602
2454	0.00129795
2466	0.00105459
2478	0.0014602
2490	0.000973464
2502	0.000730098
2514	0.000892342
2526	0.000973464
2538	0.00113571
2550	0.00105459
2562	0.00178468
2574	0.00186581
2586	0.00243366
2598	0.0025959
2610	0.00275815
2622	0.00251478
2634	0.00251478
2646	0.00283927
2658	0.00324488
2670	0.00340712
2682	0.00381273
2694	0.00421834
2706	0.00527293
2718	0.006652
2730	0.00868005
2742	0.0108703
2754	0.0109515
2766	0.0101402
2778	0.0104647
2790	0.0123305
2802	0.0163055
2814	0.0231198
2826	0.0356126
2838	0.0552441
2850	0.0840424
2862	0.119574
2874	0.150644
2886	0.217894
2898	0.267135
2910	0.287172
2922	0.380219
2934	0.503119
2946	0.476997
2958	0.3919
2970	0.631778
2982	0.8083
2994	0.436517
3006	0.153807
3018	0.0930469
3030	0.0563798
3042	0.0357748
3054	0.0402365
3066	0.0649787
3078	0.143586
3090	0.166625
3102	0.0610037
3114	0.0152509
3126	0.0111137
3138	0.0095724
3150	0.00965352
3162	0.0100591
3174	0.00892342
3186	0.00794996
3198	0.00713874
3210	0.0055163
3222	0.00454283
3234	0.00308264
3246	0.00251478
3258	0.00275815
3270	0.00219029
3282	0.00154132
3294	0.00251478
3306	0.0014602
3318	0.00235254
3330	0.00210917
3342	0.00227142
3354	0.00186581
3366	0.00210917
3378	0.00170356
3390	0.00154132
3402	0.00267703
3414	0.00243366
3426	0.00267703
3438	0.00292039
3450	0.00243366
3462	0.00121683
3474	0.00154132
3486	0.00105459
3498	0.00121683
3510	0.000892342
3522	0.00162244
3534	0.0014602
3546	0.00186581
3558	0.00162244
3570	0.00210917
3582	0.00454283
3594	0.0164678
3606	0.0413722
3618	0.047213
3630	0.0519181
3642	0.0668445
3654	0.0403988
3666	0.0116004
3678	0.00324488
3690	0.00251478
3702	0.00186581
3714	0.00113571
3726	0.00081122
3738	0.000324488
3750	8.1122e-05
3762	8.1122e-05
3774	8.1122e-05
3786	0.000324488
3798	0.00137907
3810	0.000730098
3822	0.00154132
3834	0.00154132
3846	0.00105459
3858	0.00081122
3870	0.00210917
3882	0.00235254
3894	0.00178468
3906	0.00081122
3918	0.000243366
3930	0.00194693
3942	0.00219029
3954	8.1122e-05
3966	0.000486732
