Infrared Spectrum: 1,4-Di-n-butylbenzene
Formula: C 14 H 22
CAS: 1571-86-4
Origin: Sadtler Research Labs Under US-EPA Contract
1/CM	ABSORBANCE
450	0.00495122
462	0.00189311
474	0.00582496
486	0.00495122
498	0.00291248
510	0.00174749
522	0.00203874
534	0.0030581
546	0.00859182
558	0.0281054
570	0.0815494
582	0.105432
594	0.0482015
606	0.0151449
618	0.0066987
630	0.00407747
642	0.0030581
654	0.00145624
666	0.00407747
678	0.00509684
690	0.00698995
702	0.00436872
714	0.00247561
726	0.00291248
738	0.00203874
750	0.00072812
762	0.00203874
774	0.00378622
786	0.00626183
798	0.0132518
810	0.0339304
822	0.0972768
834	0.153342
846	0.0489297
858	0.0107762
870	0.00495122
882	0.00480559
894	0.00495122
906	0.00640746
918	0.00946556
930	0.0106306
942	0.00597058
954	0.00349498
966	0.0036406
978	0.0042231
990	0.00582496
1002	0.0132518
1014	0.0901413
1026	0.0498034
1038	0.0173293
1050	0.0104849
1062	0.00917431
1074	0.00713558
1086	0.00698995
1098	0.00495122
1110	0.00830057
1122	0.0493665
1134	0.119557
1146	0.0314548
1158	0.012378
1170	0.00888306
1182	0.013543
1194	0.0371341
1206	0.0330566
1218	0.0230086
1230	0.021698
1242	0.0202417
1254	0.0521334
1266	0.217417
1278	0.148536
1290	0.030581
1302	0.012378
1314	0.00611621
1326	0.00160186
1338	0.011213
1350	0.0509684
1362	0.144313
1374	0.143148
1386	0.08985
1398	0.135139
1410	0.0528615
1422	0.0267948
1434	0.0227173
1446	0.0371341
1458	0.079802
1470	0.123926
1482	0.136013
1494	0.0885394
1506	0.139217
1518	0.12247
1530	0.0717926
1542	0.0152905
1554	0.00815494
1566	0.00553371
1578	0
1590	0.00218436
1602	0.00480559
1614	0.00495122
1626	0.00524246
1638	0.00757245
1650	0.0107762
1662	0.0106306
1674	0.00626183
1686	0.00495122
1698	0.00495122
1710	0.00742682
1722	0.00698995
1734	0.00524246
1746	0.00611621
1758	0.00946556
1770	0.0163099
1782	0.0151449
1794	0.00582496
1806	0.0042231
1818	0.00393185
1830	0.00320373
1842	0.0036406
1854	0.00436872
1866	0.00509684
1878	0.00771807
1890	0.0107762
1902	0.0122324
1914	0.0078637
1926	0.00436872
1938	0.00349498
1950	0.00320373
1962	0.00247561
1974	0.00247561
1986	0.00218436
1998	0.00218436
2010	0.00262123
2022	0.00218436
2034	0.00218436
2046	0.00203874
2058	0.00160186
2070	0.00131062
2082	0.00131062
2094	0.00116499
2106	0.00131062
2118	0.00116499
2130	0.00101937
2142	0.00116499
2154	0.00101937
2166	0.00116499
2178	0.00145624
2190	0.00160186
2202	0.00203874
2214	0.00174749
2226	0.00145624
2238	0.000291248
2250	0.000145624
2262	0.000291248
2274	0.00101937
2286	0.00247561
2298	0.00334935
2310	0.00334935
2322	0.0036406
2334	0.00378622
2346	0.00407747
2358	0.00451434
2370	0.0036406
2382	0.00524246
2394	0.00393185
2406	0.00203874
2418	0.00145624
2430	0.00131062
2442	0.00145624
2454	0.00131062
2466	0.00131062
2478	0.00145624
2490	0.00160186
2502	0.00145624
2514	0.00131062
2526	0.000873744
2538	0.00145624
2550	0.00218436
2562	0.00393185
2574	0.00393185
2586	0.00334935
2598	0.00320373
2610	0.00276686
2622	0.00291248
2634	0.00349498
2646	0.00436872
2658	0.00495122
2670	0.00538809
2682	0.00480559
2694	0.00524246
2706	0.00698995
2718	0.0113587
2730	0.012378
2742	0.0103393
2754	0.00990243
2766	0.00888306
2778	0.00990243
2790	0.0139799
2802	0.0141255
2814	0.0202417
2826	0.0234455
2838	0.0275229
2850	0.0452891
2862	0.113732
2874	0.259502
2886	0.275084
2898	0.255279
2910	0.343527
2922	0.373526
2934	0.305082
2946	0.399155
2958	0.935197
2970	1.45624
2982	0.591379
2994	0.180574
3006	0.0717926
3018	0.0521334
3030	0.0749964
3042	0.104267
3054	0.0668414
3066	0.0626183
3078	0.0634921
3090	0.0688802
3102	0.056939
3114	0.0339304
3126	0.0221348
3138	0.0164555
3150	0.011213
3162	0.00990243
3174	0.0100481
3186	0.0107762
3198	0.0116499
3210	0.0101937
3222	0.00961118
3234	0.00917431
3246	0.0078637
3258	0.00611621
3270	0.00480559
3282	0.00436872
3294	0.00393185
3306	0.00262123
3318	0.00291248
3330	0.00276686
3342	0.00218436
3354	0.00247561
3366	0.00218436
3378	0.00276686
3390	0.0030581
3402	0.00291248
3414	0.00262123
3426	0.00276686
3438	0.00320373
3450	0.00291248
3462	0.00276686
3474	0.00203874
3486	0.00232998
3498	0.00174749
3510	0.00101937
3522	0.00116499
3534	0.00160186
3546	0.00101937
3558	0.00116499
3570	0.00131062
3582	0.00116499
3594	0.000582496
3606	0.000145624
3618	0.000582496
3630	0.00116499
3642	0.000436872
3654	0.000291248
3666	0.000873744
3678	0.00116499
3690	0.00131062
3702	0.00072812
3714	0.00131062
3726	0.00189311
3738	0.00116499
3750	0
3762	0.000291248
3774	0.00145624
3786	0.00072812
3798	0.00131062
3810	0.00218436
3822	0.00145624
3834	0.00072812
3846	0.00247561
3858	0.00116499
3870	0.00116499
3882	0.00203874
3894	0.0030581
3906	0.00320373
3918	0.00174749
3930	0.000873744
3942	0.00116499
3954	0.00101937
3966	0.000291248
