Infrared Spectrum: 1,4-Butanediol, dipropionate
Formula: C 10 H 18 O 4
CAS: 1572-92-5
Origin: Sadtler Research Labs Under US-EPA Contract
1/CM	ABSORBANCE
450	0.029832
462	0.0116585
474	0.0113156
486	0.0111441
498	0.00720082
510	0.00582923
522	0.00565778
534	0.00548634
546	0.00548634
558	0.00805806
570	0.0121728
582	0.0147445
594	0.014916
606	0.016459
618	0.0178306
630	0.0128586
642	0.00754371
654	0.00497199
666	0.00565778
678	0.00565778
690	0.00274317
702	0.00137158
714	0.00257172
726	0.00411475
738	0.00908674
750	0.0135444
762	0.0116585
774	0.01303
786	0.0157732
798	0.0272602
810	0.0449194
822	0.0435478
834	0.0370328
846	0.0330895
858	0.0284604
870	0.0265744
882	0.0255458
894	0.0255458
906	0.0209167
918	0.018002
930	0.0349754
942	0.065836
954	0.0706366
966	0.0666933
978	0.0696079
990	0.0975539
1002	0.139387
1014	0.207624
1026	0.268316
1038	0.253229
1050	0.247914
1062	0.342382
1074	0.435649
1086	0.497885
1098	0.321636
1110	0.217053
1122	0.201794
1134	0.205566
1146	0.250143
1158	0.432906
1170	1.08338
1182	1.68019
1194	1.20288
1206	0.867355
1218	0.644644
1230	0.475768
1242	0.382329
1254	0.349411
1266	0.321122
1278	0.318893
1290	0.224083
1302	0.138359
1314	0.117442
1326	0.195451
1338	0.302949
1350	0.380615
1362	0.252714
1374	0.1279
1386	0.144874
1398	0.127214
1410	0.0651502
1422	0.0649788
1434	0.106812
1446	0.128929
1458	0.156361
1470	0.236941
1482	0.108527
1494	0.0432049
1506	0.0269173
1518	0.0168019
1530	0.0104583
1542	0.0113156
1554	0.00634358
1566	0.00342896
1578	0.00360041
1590	0.00188593
1602	0.00120014
1614	0.00257172
1626	0.00600068
1638	0.00600068
1650	0.0102869
1662	0.0089153
1674	0.016459
1686	0.0257172
1698	0.0420048
1710	0.0738941
1722	0.146931
1734	0.315807
1746	0.790032
1758	1.71448
1770	0.86667
1782	0.311864
1794	0.149846
1806	0.0682363
1818	0.0336038
1830	0.0200594
1842	0.0123443
1854	0.00771516
1866	0.00720082
1878	0.00565778
1890	0.00600068
1902	0.00531489
1914	0.00565778
1926	0.00548634
1938	0.00548634
1950	0.00531489
1962	0.00565778
1974	0.00617213
1986	0.00617213
1998	0.00651502
2010	0.00702937
2022	0.00840095
2034	0.00840095
2046	0.0085724
2058	0.00737226
2070	0.00600068
2082	0.00480054
2094	0.0039433
2106	0.00308606
2118	0.00308606
2130	0.00274317
2142	0.00257172
2154	0.00205738
2166	0.00188593
2178	0.00188593
2190	0.00222882
2202	0.00171448
2214	0.00154303
2226	0.00120014
2238	0.00171448
2250	0.00137158
2262	0.00137158
2274	0.00171448
2286	0.00154303
2298	0.00154303
2310	0.00188593
2322	0.00222882
2334	0.00377186
2346	0.0042862
2358	0.0039433
2370	0.0039433
2382	0.00325751
2394	0.00205738
2406	0.00171448
2418	0.00120014
2430	0.00120014
2442	0.00085724
2454	0.00120014
2466	0.00120014
2478	0.000685792
2490	0.000171448
2502	0
2514	0.000514344
2526	0.000342896
2538	0.000685792
2550	0.000685792
2562	0.000685792
2574	0.000685792
2586	0.00120014
2598	0.00120014
2610	0.00171448
2622	0.00205738
2634	0.00222882
2646	0.00240027
2658	0.00171448
2670	0.00188593
2682	0.00240027
2694	0.00342896
2706	0.00445765
2718	0.00531489
2730	0.00617213
2742	0.00754371
2754	0.0102869
2766	0.011487
2778	0.0121728
2790	0.0120014
2802	0.0126872
2814	0.014916
2826	0.0195451
2838	0.0272602
2850	0.0447479
2862	0.0781803
2874	0.0968681
2886	0.138359
2898	0.19185
2910	0.196479
2922	0.226826
2934	0.274831
2946	0.374442
2958	0.502514
2970	0.456737
2982	0.408561
2994	0.375814
3006	0.172477
3018	0.0936106
3030	0.0505772
3042	0.0289747
3054	0.0190307
3066	0.0137158
3078	0.0104583
3090	0.00874385
3102	0.00685792
3114	0.00651502
3126	0.00600068
3138	0.00548634
3150	0.00497199
3162	0.00497199
3174	0.0046291
3186	0.00480054
3198	0.00411475
3210	0.00342896
3222	0.00222882
3234	0.00154303
3246	0.00102869
3258	0.000685792
3270	0.000514344
3282	0.000514344
3294	0.000514344
3306	0.000171448
3318	0.000685792
3330	0.000685792
3342	0.000514344
3354	0.00085724
3366	0.000685792
3378	0.000171448
3390	0.000514344
3402	0.000514344
3414	0.00102869
3426	0.00085724
3438	0.00102869
3450	0.00154303
3462	0.00222882
3474	0.0039433
3486	0.00942964
3498	0.0152589
3510	0.00737226
3522	0.00205738
3534	0.00102869
3546	0.00102869
3558	0.00257172
3570	0.00840095
3582	0.0101154
3594	0.00925819
3606	0.00291462
3618	0.00274317
3630	0.00325751
3642	0.00257172
3654	0.00548634
3666	0.0101154
3678	0.0120014
3690	0.00497199
3702	0.00085724
3714	0.000685792
3726	0.000342896
3738	0.00085724
3750	0
3762	0
3774	0
3786	0
3798	0
3810	0.000342896
3822	0
3834	0
3846	0
3858	0
3870	0
3882	0
3894	0
3906	0
3918	0.000514344
3930	0
3942	0
3954	0.00154303
3966	0
