Infrared Spectrum: 3-Heptanol, 3,6-dimethyl-
Formula: C 9 H 20 O
CAS: 1573-28-0
Origin: Sadtler Research Labs Under US-EPA Contract
1/CM	ABSORBANCE
450	0.00566751
462	0.0155452
474	0.0126305
486	0.0119827
498	0.0283376
510	0.016031
522	0.00971574
534	0.00744873
546	0.00971574
558	0.00825838
570	0.0129543
582	0.0134401
594	0.00259086
606	0.00437208
618	0.00728681
630	0.00404822
642	0.00356244
654	0.00534366
666	0.00356244
678	0.00712488
690	0.00631523
702	0.00858224
714	0.00874417
726	0.0170025
738	0.0204031
750	0.0187838
762	0.0165168
774	0.015869
786	0.0192696
798	0.0150594
810	0.0108492
822	0.011497
834	0.0144117
846	0.0121447
858	0.0144117
870	0.0246132
882	0.0605614
894	0.0999102
906	0.0738396
918	0.0991005
930	0.147679
942	0.107359
954	0.0605614
966	0.0408061
978	0.0398345
990	0.0710868
1002	0.0957
1014	0.0897087
1026	0.082098
1038	0.0777259
1050	0.0697914
1062	0.0629904
1074	0.0728681
1086	0.0892229
1098	0.0999102
1110	0.110759
1122	0.10493
1134	0.125819
1146	0.150432
1158	0.179741
1170	0.186866
1182	0.145412
1194	0.101368
1206	0.086632
1218	0.0893848
1230	0.0890609
1242	0.0863082
1254	0.093433
1266	0.098129
1278	0.0950523
1290	0.093595
1302	0.091328
1314	0.0903564
1326	0.115293
1338	0.124523
1350	0.110598
1362	0.130029
1374	0.241922
1386	0.269288
1398	0.129705
1410	0.0542462
1422	0.043397
1434	0.0503599
1446	0.0885752
1458	0.183142
1470	0.239979
1482	0.119989
1494	0.0393487
1506	0.0231558
1518	0.016031
1530	0.0116589
1542	0.0111731
1554	0.00939188
1566	0.00842031
1578	0.00939188
1590	0.00793452
1602	0.00696295
1614	0.00777259
1626	0.00550559
1638	0.00647716
1650	0.00518173
1662	0.00550559
1674	0.00566751
1686	0.00631523
1698	0.00566751
1710	0.00372437
1722	0.00356244
1734	0.00307665
1746	0.00178122
1758	0.00178122
1770	0.00194315
1782	0.00210508
1794	0.00210508
1806	0.00242894
1818	0.00226701
1830	0.00178122
1842	0.00178122
1854	0.00145736
1866	0.00210508
1878	0.00145736
1890	0.0011335
1902	0.0011335
1914	0.000809645
1926	0.000323858
1938	0.000647716
1950	0.000161929
1962	0.000485787
1974	0.000161929
1986	0.000323858
1998	0.00145736
2010	0.00307665
2022	0.00485787
2034	0.0050198
2046	0.0050198
2058	0.00599137
2070	0.00421015
2082	0.00129543
2094	0.000323858
2106	0.000485787
2118	0.000647716
2130	0.000809645
2142	0.000647716
2154	0.000323858
2166	0.000971574
2178	0.000809645
2190	0.00194315
2202	0.00161929
2214	0.00145736
2226	0.00161929
2238	0.00161929
2250	0.00161929
2262	0.00259086
2274	0.00178122
2286	0.00275279
2298	0.00323858
2310	0.00242894
2322	0
2334	0.000161929
2346	0.0038863
2358	0
2370	0.0105254
2382	0.0103635
2394	0.00599137
2406	0.00421015
2418	0.0050198
2430	0.00421015
2442	0.00437208
2454	0.00469594
2466	0.00518173
2478	0.0050198
2490	0.00534366
2502	0.00550559
2514	0.0061533
2526	0.00663909
2538	0.00696295
2550	0.00874417
2562	0.0111731
2574	0.0123066
2586	0.0132782
2598	0.0142498
2610	0.0145736
2622	0.0140878
2634	0.013764
2646	0.0131162
2658	0.0124685
2670	0.0108492
2682	0.0119827
2694	0.0144117
2706	0.0171645
2718	0.0194315
2730	0.0246132
2742	0.0263944
2754	0.0238036
2766	0.0238036
2778	0.025099
2790	0.0288234
2802	0.0344909
2814	0.045664
2826	0.0589422
2838	0.0778878
2850	0.136344
2862	0.242408
2874	0.398507
2886	0.514772
2898	0.453887
2910	0.471861
2922	0.637838
2934	0.911013
2946	0.961049
2958	1.08832
2970	1.61929
2982	0.910527
2994	0.322239
3006	0.101853
3018	0.0518173
3030	0.0383772
3042	0.0312523
3054	0.027366
3066	0.0262325
3078	0.0272041
3090	0.0246132
3102	0.0216985
3114	0.0173264
3126	0.0153833
3138	0.0147355
3150	0.0142498
3162	0.013602
3174	0.0139259
3186	0.0124685
3198	0.00906802
3210	0.00939188
3222	0.00728681
3234	0.00518173
3246	0.00469594
3258	0.00421015
3270	0.00307665
3282	0.00259086
3294	0.00242894
3306	0.00534366
3318	0.00631523
3330	0.00582944
3342	0.00340051
3354	0.00372437
3366	0.00437208
3378	0.00469594
3390	0.00356244
3402	0.00340051
3414	0.00404822
3426	0.00421015
3438	0.00469594
3450	0.0061533
3462	0.00599137
3474	0.0050198
3486	0.00518173
3498	0.00323858
3510	0.00404822
3522	0.00469594
3534	0.00307665
3546	0.00210508
3558	0.00194315
3570	0.00275279
3582	0.00210508
3594	0.000323858
3606	0.00372437
3618	0.00663909
3630	0.0328716
3642	0.0672005
3654	0.036596
3666	0.00955381
3678	0.00291472
3690	0.00291472
3702	0
3714	0.00161929
3726	0
3738	0.000161929
3750	0.000809645
3762	0.000323858
3774	0.00161929
3786	0.000809645
3798	0.00226701
3810	0.00275279
3822	0.00210508
3834	0.00291472
3846	0.0061533
3858	0.00453401
3870	0.000971574
3882	0.00340051
3894	0.00550559
3906	0.00437208
3918	0.00161929
3930	0.00129543
3942	0
3954	0
3966	0.00145736
