Infrared Spectrum: 2-Butyne-1,4-diol, diacetate
Formula: C 8 H 10 O 4
CAS: 1573-17-7
Origin: Sadtler Research Labs Under US-EPA Contract
1/CM	ABSORBANCE
450	0.0134985
462	0.0134985
474	0.0186525
486	0.0400048
498	0.045895
510	0.0365688
522	0.0326419
534	0.0724013
546	0.0373051
558	0.0515399
570	0.040741
582	0.0711741
594	0.0746101
606	0.0947352
618	0.0809912
630	0.073383
642	0.0797641
654	0.0925264
666	0.0446679
678	0.0373051
690	0.0250337
702	0.00932626
714	0.00392685
726	0.00147257
738	0.00417228
750	0.00417228
762	0.00662656
774	0.00760827
786	0.0196342
798	0.0230702
810	0.0419682
822	0.0657747
834	0.066511
846	0.0409865
858	0.0316602
870	0.0377959
882	0.0427045
894	0.0515399
906	0.0603753
918	0.0554667
930	0.0419682
942	0.0463859
954	0.0937535
966	0.23512
978	0.195852
990	0.186771
1002	0.334028
1014	0.620197
1026	0.850899
1038	0.642776
1050	0.343108
1062	0.22064
1074	0.192906
1086	0.183826
1098	0.145784
1110	0.106516
1122	0.103325
1134	0.188489
1146	0.394894
1158	0.540432
1170	0.30973
1182	0.292796
1194	0.488893
1206	1.38716
1218	2.35586
1230	1.86697
1242	0.963059
1254	0.479566
1266	0.397593
1278	0.28126
1290	0.136458
1302	0.0851635
1314	0.0628296
1326	0.0581664
1338	0.0748555
1350	0.1664
1362	0.475639
1374	0.40692
1386	0.42999
1398	0.248864
1410	0.135231
1422	0.108725
1434	0.135967
1446	0.152411
1458	0.107007
1470	0.0640567
1482	0.0451588
1494	0.0390231
1506	0.0338691
1518	0.0296968
1530	0.0274879
1542	0.0225794
1554	0.0211068
1566	0.0184071
1578	0.0201251
1590	0.0169345
1602	0.0176708
1614	0.0174254
1626	0.0161982
1638	0.0174254
1650	0.0164437
1662	0.0184071
1674	0.020616
1686	0.0294514
1698	0.0382868
1710	0.0638113
1722	0.107743
1734	0.195361
1746	0.405447
1758	0.932872
1770	1.73321
1782	1.27009
1794	0.643267
1806	0.349735
1818	0.152165
1830	0.066511
1842	0.0449133
1854	0.0321511
1866	0.0215977
1878	0.0152165
1890	0.0125168
1902	0.0110443
1914	0.0110443
1926	0.0139894
1938	0.0152165
1950	0.0132531
1962	0.0122714
1974	0.0122714
1986	0.0139894
1998	0.0152165
2010	0.0144803
2022	0.015462
2034	0.0176708
2046	0.0159528
2058	0.0127623
2070	0.00981712
2082	0.00834455
2094	0.00957169
2106	0.00908084
2118	0.00834455
2130	0.00858998
2142	0.00908084
2154	0.00760827
2166	0.00589027
2178	0.00564484
2190	0.00515399
2202	0.00589027
2214	0.0044177
2226	0.00466313
2238	0.00515399
2250	0.00490856
2262	0.00368142
2274	0.00392685
2286	0.00343599
2298	0.00539942
2310	0.00736284
2322	0.0078537
2334	0.00760827
2346	0.00736284
2358	0.00858998
2370	0.00269971
2382	0.0044177
2394	0.00343599
2406	0.00466313
2418	0.00490856
2430	0.00589027
2442	0.00564484
2454	0.00638113
2466	0.00564484
2478	0.0044177
2490	0.00343599
2502	0.00269971
2514	0.00147257
2526	0.000245428
2538	0.000981712
2550	0.000490856
2562	0.000736284
2574	0.00220885
2586	0.00343599
2598	0.00294514
2610	0.001718
2622	0.00196342
2634	0.00220885
2646	0.001718
2658	0.00294514
2670	0.00417228
2682	0.00368142
2694	0.00319056
2706	0.00294514
2718	0.00269971
2730	0.00392685
2742	0.00392685
2754	0.00343599
2766	0.00319056
2778	0.00319056
2790	0.00539942
2802	0.00809912
2814	0.00883541
2826	0.00883541
2838	0.0100625
2850	0.0157074
2862	0.0262608
2874	0.0343599
2886	0.040741
2898	0.0387776
2910	0.0377959
2922	0.0439316
2934	0.0677381
2946	0.121241
2958	0.148484
2970	0.100871
2982	0.0601299
2994	0.0449133
3006	0.0272425
3018	0.0238065
3030	0.0252791
3042	0.0220885
3054	0.020616
3066	0.0196342
3078	0.0164437
3090	0.0130077
3102	0.0117805
3114	0.00883541
3126	0.00687198
3138	0.00466313
3150	0.00269971
3162	0.00220885
3174	0.00147257
3186	0.001718
3198	0.00147257
3210	0.00196342
3222	0
3234	0.001718
3246	0.00196342
3258	0.000981712
3270	0.00196342
3282	0.00343599
3294	0.00245428
3306	0.00220885
3318	0.00589027
3330	0.00417228
3342	0.00539942
3354	0.00269971
3366	0.00294514
3378	0.00245428
3390	0.00294514
3402	0.00319056
3414	0.00343599
3426	0.00269971
3438	0.00319056
3450	0.00392685
3462	0.00392685
3474	0.0044177
3486	0.0078537
3498	0.00981712
3510	0.0159528
3522	0.0198797
3534	0.0179162
3546	0.0218431
3558	0.0387776
3570	0.0422136
3582	0.0593936
3594	0.0451588
3606	0.0304331
3618	0.0157074
3630	0.0176708
3642	0.018898
3654	0.0240519
3666	0.0255245
3678	0.0233157
3690	0.0169345
3702	0.00981712
3714	0.00957169
3726	0.00809912
3738	0.00858998
3750	0.0117805
3762	0.00760827
3774	0.00760827
3786	0.00539942
3798	0.00515399
3810	0.00687198
3822	0.00687198
3834	0.00981712
3846	0.0044177
3858	0.00319056
3870	0.001718
3882	0.00589027
3894	0.00760827
3906	0.00957169
3918	0.00736284
3930	0.00711741
3942	0.00539942
3954	0.00834455
3966	0.00908084
