Infrared Spectrum: Benzaldehyde, 2,4-dimethyl-
Formula: C 9 H 10 O
CAS: 15764-16-6
Origin: Sadtler Research Labs Under US-EPA Contract
1/CM	ABSORBANCE
450	0.00543766
462	0.0112224
474	0.00115695
486	0.00173542
498	0.00381793
510	0.0069417
522	0.00971838
534	0.0223291
546	0.0237175
558	0.00647892
570	0.006826
582	0.00775156
594	0.00902421
606	0.0104125
618	0.0130735
630	0.00798295
642	0.00624753
654	0.00150403
666	0.00138834
678	0.00312376
690	0.00520627
702	0.00960268
714	0.0225605
726	0.0155031
738	0.0135363
750	0.0157345
762	0.0338986
774	0.112108
786	0.187773
798	0.167295
810	0.202813
822	0.108753
834	0.0282296
846	0.00937129
858	0.00844573
870	0.0139991
882	0.0168915
894	0.00960268
906	0.00763587
918	0.0104125
930	0.0230233
942	0.044774
954	0.0209408
966	0.00960268
978	0.00728878
990	0.00902421
1002	0.00994977
1014	0.00971838
1026	0.0116852
1038	0.0180484
1050	0.0218664
1062	0.0188583
1074	0.0160816
1086	0.0161973
1098	0.0192054
1110	0.0304278
1122	0.0537982
1134	0.0668717
1146	0.0384107
1158	0.027304
1170	0.0232547
1182	0.0580789
1194	0.187426
1206	0.178402
1218	0.0668717
1230	0.0757802
1242	0.0752017
1254	0.0274197
1266	0.0172386
1278	0.0407246
1290	0.0791354
1302	0.0690699
1314	0.0138834
1326	0.0124951
1338	0.0158502
1350	0.0222134
1362	0.0262628
1374	0.0422287
1386	0.0746233
1398	0.0657148
1410	0.0590044
1422	0.0539139
1434	0.0524098
1446	0.0645578
1458	0.0750861
1470	0.0643264
1482	0.050443
1494	0.0494018
1506	0.0426915
1518	0.029965
1530	0.0262628
1542	0.0301964
1554	0.0450054
1566	0.0802923
1578	0.114307
1590	0.0902421
1602	0.15156
1614	0.329384
1626	0.159775
1638	0.0350556
1650	0.0264942
1662	0.0245273
1674	0.0362125
1686	0.0606242
1698	0.247703
1710	1.01673
1722	0.917924
1734	0.219936
1746	0.0615497
1758	0.0492861
1770	0.028461
1782	0.021982
1794	0.0194368
1806	0.00971838
1818	0.00613183
1830	0.00416502
1842	0.00358655
1854	0.00347085
1866	0.0046278
1878	0.00566906
1890	0.0070574
1902	0.006826
1914	0.00601614
1926	0.00636323
1938	0.00520627
1950	0.00393363
1962	0.00300807
1974	0.00335515
1986	0.00358655
1998	0.00254529
2010	0.00289237
2022	0.00196681
2034	0.00127264
2046	0.00069417
2058	0.000809865
2070	0.00161973
2082	0.0024296
2094	0.00161973
2106	0.00150403
2118	0.00115695
2130	0.00138834
2142	0.00196681
2154	0.00138834
2166	0.00115695
2178	0.000347085
2190	0.00023139
2202	0
2214	0
2226	0.000347085
2238	0.00023139
2250	0.00023139
2262	0.000809865
2274	0.00104126
2286	0.00208251
2298	0.00370224
2310	0.00543766
2322	0.006826
2334	0.00566906
2346	0.00613183
2358	0.00439641
2370	0.00323946
2382	0.00370224
2394	0.00289237
2406	0.00277668
2418	0.00300807
2430	0.00254529
2442	0.0021982
2454	0.00173542
2466	0.00150403
2478	0.00185112
2490	0.00254529
2502	0.00277668
2514	0.00138834
2526	0.00185112
2538	0.00173542
2550	0.00254529
2562	0.00323946
2574	0.00370224
2586	0.0045121
2598	0.00474349
2610	0.0046278
2622	0.00474349
2634	0.00439641
2646	0.00543766
2658	0.00809865
2670	0.0126108
2682	0.0227919
2694	0.0424601
2706	0.0814493
2718	0.180484
2730	0.189393
2742	0.0992663
2754	0.0816807
2766	0.045121
2778	0.0323946
2790	0.0386421
2802	0.0458152
2814	0.0571533
2826	0.0801766
2838	0.107018
2850	0.101812
2862	0.0823748
2874	0.0827219
2886	0.0710367
2898	0.0601614
2910	0.0629381
2922	0.0923246
2934	0.155378
2946	0.142305
2958	0.084573
2970	0.0782098
2982	0.0873497
2994	0.0850358
3006	0.0904735
3018	0.120207
3030	0.107712
3042	0.0813336
3054	0.0798295
3066	0.064095
3078	0.0437327
3090	0.024643
3102	0.0187426
3114	0.0180484
3126	0.0141148
3138	0.00856143
3150	0.00555336
3162	0.0045121
3174	0.00335515
3186	0.00266098
3198	0.00196681
3210	0.00150403
3222	0.00173542
3234	0.00173542
3246	0.00208251
3258	0.00196681
3270	0.00173542
3282	0.00196681
3294	0.00266098
3306	0.0024296
3318	0.0021982
3330	0.00266098
3342	0.00300807
3354	0.00254529
3366	0.00266098
3378	0.00312376
3390	0.00659461
3402	0.0129578
3414	0.0153874
3426	0.00798295
3438	0.00266098
3450	0.0021982
3462	0.00185112
3474	0.0024296
3486	0.00150403
3498	0.00150403
3510	0.00092556
3522	0.000809865
3534	0.00196681
3546	0.00104126
3558	0.00161973
3570	0.00254529
3582	0.00335515
3594	0.0021982
3606	0.00092556
3618	0.00208251
3630	0.00196681
3642	0.00069417
3654	0.00046278
3666	0.00115695
3678	0.00092556
3690	0.000347085
3702	0.00092556
3714	0.000809865
3726	0.000809865
3738	0.00069417
3750	0.00173542
3762	0.00127264
3774	0.00092556
3786	0.000578475
3798	0.00069417
3810	0.00185112
3822	0.00104126
3834	0.00196681
3846	0.0024296
3858	0.00185112
3870	0.00161973
3882	0.00092556
3894	0.00185112
3906	0.00277668
3918	0.00196681
3930	0.00254529
3942	0.000809865
3954	0.00312376
3966	0.00254529
