Infrared Spectrum: 3-Bromobenzyl alcohol
Formula: C 7 H 7 Br O
CAS: 15852-73-0
Origin: Sadtler Research Labs Under US-EPA Contract
1/CM	ABSORBANCE
450	0.0182277
462	0.00738192
474	0.00857438
486	0.00897187
498	0.0137417
510	0.0177166
522	0.0116407
534	0.00834725
546	0.00170352
558	0.00664373
570	0.00153317
582	0.0085176
594	0.0348086
606	0.0727971
618	0.0282216
630	0.00516734
642	0.00306634
654	0.0337297
666	0.271428
678	0.266487
690	0.270803
702	0.172283
714	0.0515599
726	0.0258935
738	0.0261774
750	0.0445754
762	0.179608
774	0.495213
786	0.338035
798	0.08228
810	0.0443483
822	0.0882423
834	0.193293
846	0.151045
858	0.0685951
870	0.0777373
882	0.096476
894	0.0568976
906	0.0254392
918	0.0201583
930	0.0290166
942	0.0398056
954	0.064677
966	0.128445
978	0.138042
990	0.181652
1002	0.299422
1014	0.381361
1026	0.504639
1038	0.551997
1050	0.368187
1062	0.334855
1074	0.402542
1086	0.163084
1098	0.108174
1110	0.0542855
1122	0.047585
1134	0.0543991
1146	0.0723996
1158	0.100281
1170	0.153941
1182	0.239856
1194	0.391355
1206	0.428265
1218	0.201129
1230	0.105732
1242	0.0863117
1254	0.0789865
1266	0.0732514
1278	0.0647905
1290	0.0679137
1302	0.0699011
1314	0.0622353
1326	0.0697308
1338	0.0784755
1350	0.0942047
1362	0.166093
1374	0.296867
1386	0.287043
1398	0.204479
1410	0.178188
1422	0.280399
1434	0.307429
1446	0.105505
1458	0.124925
1470	0.252746
1482	0.230997
1494	0.0547398
1506	0.0178302
1518	0.00800654
1530	0.00806333
1542	0.0178302
1554	0.0611564
1566	0.259446
1578	0.42588
1590	0.203344
1602	0.175746
1614	0.0406006
1626	0.00647338
1638	0.00210101
1650	0.00272563
1662	0.00437237
1674	0.014991
1686	0.00749549
1698	0.00210101
1710	0.00085176
1722	0.00539448
1734	0.01289
1746	0.0141392
1758	0.0149342
1770	0.0153317
1782	0.0110161
1794	0.0109593
1806	0.00664373
1818	0.00130603
1830	0.00210101
1842	0.0045995
1854	0.0124925
1866	0.0248146
1878	0.0110161
1890	0.00261206
1902	0.00130603
1914	0.00369096
1926	0.0134578
1938	0.019704
1950	0.00897187
1962	0.00374774
1974	0.00357739
1986	0.00380453
1998	0.00499699
2010	0.00624624
2022	0.00749549
2034	0.00783619
2046	0.00783619
2058	0.00749549
2070	0.00681408
2082	0.00579197
2094	0.00454272
2106	0.0031799
2118	0.00244171
2130	0.00170352
2142	0.00210101
2154	0.00227136
2166	0.00266885
2178	0.00272563
2190	0.00198744
2202	0.00221458
2214	0.00193066
2226	0.00227136
2238	0.00232814
2250	0.0024985
2262	0.00238493
2274	0.00221458
2286	0.00164674
2298	0.000397488
2310	0.000624624
2322	0.00232814
2334	0.00448594
2346	0.00369096
2358	0.0017603
2370	0.00147638
2382	0.0024985
2394	0.00516734
2406	0.00471307
2418	0.00431558
2430	0.0042588
2442	0.00374774
2454	0.00386131
2466	0.00442915
2478	0.00442915
2490	0.0045995
2502	0.00511056
2514	0.00505378
2526	0.00499699
2538	0.00499699
2550	0.00476986
2562	0.00528091
2574	0.00454272
2586	0.00488342
2598	0.0053377
2610	0.00442915
2622	0.00516734
2634	0.00664373
2646	0.00749549
2658	0.00760906
2670	0.00794976
2682	0.00834725
2694	0.00829046
2706	0.00880152
2718	0.00988042
2730	0.0111297
2742	0.0123789
2754	0.0142528
2766	0.017092
2778	0.0193633
2790	0.0226
2802	0.0260639
2814	0.0300387
2826	0.0394081
2838	0.0584307
2850	0.0879016
2862	0.12112
2874	0.184321
2886	0.258708
2898	0.212543
2910	0.18046
2922	0.181993
2934	0.197097
2946	0.175576
2958	0.154396
2970	0.107265
2982	0.0656991
2994	0.0423609
3006	0.0366257
3018	0.052582
3030	0.0653584
3042	0.0677433
3054	0.0831886
3066	0.141051
3078	0.157008
3090	0.0989177
3102	0.0471307
3114	0.0121518
3126	0.00465629
3138	0.0039181
3150	0.00312312
3162	0.00261206
3174	0.00204422
3186	0.00198744
3198	0.00153317
3210	0.00153317
3222	0.0010789
3234	0.00147638
3246	0.00170352
3258	0.0010789
3270	0.00085176
3282	0.0010789
3294	0.00130603
3306	0.00056784
3318	0.000511056
3330	0.00136282
3342	0.00102211
3354	0.00124925
3366	0.00136282
3378	0.00221458
3390	0.00198744
3402	0.00215779
3414	0.00295277
3426	0.00272563
3438	0.00272563
3450	0.00261206
3462	0.00295277
3474	0.00363418
3486	0.00193066
3498	0.0024985
3510	0.00119246
3522	0.00153317
3534	0.000681408
3546	0.0010789
3558	0.00085176
3570	0.00164674
3582	0.00204422
3594	0.00550805
3606	0.00800654
3618	0.0193633
3630	0.038897
3642	0.0953971
3654	0.155077
3666	0.145935
3678	0.106073
3690	0.05968
3702	0.0266885
3714	0.0104483
3726	0.00414523
3738	0.00278242
3750	0
3762	0.000227136
3774	0.00028392
3786	0.000227136
3798	0.0010789
3810	0.000227136
3822	0.000227136
3834	0.00136282
3846	0.00181709
3858	0.0017603
3870	0.00215779
3882	0.000794976
3894	0.00431558
3906	0.00323669
3918	0.00238493
3930	0.0024985
3942	0.00028392
3954	0.000794976
3966	0.000170352
