Infrared Spectrum: Benzene, 1-bromo-4-ethyl-
Formula: C 8 H 9 Br
CAS: 1585-07-5
Origin: Sadtler Research Labs Under US-EPA Contract
1/CM	ABSORBANCE
450	0.0104489
462	0.0102941
474	0.0182662
486	0.0380803
498	0.0982193
510	0.127941
522	0.0755414
534	0.0240711
546	0.0078947
558	0.00727551
570	0.00843649
582	0.016486
594	0.0850615
606	0.0687303
618	0.0116098
630	0.00890088
642	0.00472134
654	0.00193497
666	0.00479874
678	0.00154798
690	0.00518573
702	0.0117646
714	0.0182662
726	0.0127708
738	0.0186532
750	0.0315014
762	0.0509285
774	0.123606
786	0.0563465
798	0.093885
810	0.214627
822	0.3202
834	0.200928
846	0.0633898
858	0.0167182
870	0.00874609
882	0.00595972
894	0.00603712
906	0.00425694
918	0.00208977
930	0.00139318
942	0.00216717
954	0.0147058
966	0.0398605
978	0.0311918
990	0.0200463
1002	0.0658665
1014	0.463465
1026	0.0694269
1038	0.0296438
1050	0.0368419
1062	0.0904794
1074	0.487382
1086	0.148451
1098	0.0362227
1110	0.045588
1122	0.0336686
1134	0.0167182
1146	0.00890088
1158	0.00696591
1170	0.00944268
1182	0.0223683
1194	0.0272444
1206	0.0273218
1218	0.0263931
1230	0.0360679
1242	0.0129256
1254	0.0186532
1266	0.0246903
1278	0.0135448
1290	0.0110681
1302	0.0167956
1314	0.0297986
1326	0.0538697
1338	0.0240711
1350	0.0151702
1362	0.0198915
1374	0.0284054
1386	0.0501546
1398	0.0709749
1410	0.0747674
1422	0.0573527
1434	0.0530957
1446	0.079721
1458	0.100077
1470	0.128173
1482	0.3065
1494	0.763386
1506	0.0779408
1518	0.0213621
1530	0.00998447
1542	0.00565013
1554	0.00982967
1566	0.0131578
1578	0.0222135
1590	0.045975
1602	0.0357583
1614	0.0125386
1626	0.0133126
1638	0.0229875
1650	0.0202011
1662	0.011842
1674	0.0104489
1686	0.00595972
1698	0.00998447
1710	0.0245355
1722	0.0115325
1734	0.00410215
1746	0.00611452
1758	0.00866869
1770	0.0175696
1782	0.0147058
1794	0.00123838
1806	0.00162538
1818	0.00123838
1830	0.00116099
1842	0.00123838
1854	0.00247677
1866	0.00626932
1878	0.0199689
1890	0.0332816
1902	0.0235293
1914	0.00619192
1926	0.00255417
1938	0.00185758
1950	0.00162538
1962	0.00108359
1974	0.00147058
1986	0.00108359
1998	0.00100619
2010	0.00077399
2022	0.00139318
2034	0.00178018
2046	0.00077399
2058	0.000232197
2070	0.000154798
2082	0.00116099
2094	0.00154798
2106	0.000541793
2118	0.000696591
2130	0.000232197
2142	0.00077399
2154	0.00108359
2166	0.000309596
2178	0
2190	0.00077399
2202	0.00178018
2214	0.00185758
2226	0.00232197
2238	0.00224457
2250	0.00224457
2262	0.00263157
2274	0.00270896
2286	0.00448914
2298	0.00565013
2310	0.00379255
2322	0.00239937
2334	0.00224457
2346	0.00356035
2358	0.00278636
2370	0.00239937
2382	0.00239937
2394	0.00232197
2406	0.00185758
2418	0.00239937
2430	0.00185758
2442	0.00193497
2454	0.00108359
2466	0.000386995
2478	0.000541793
2490	0.00100619
2502	0.00170278
2514	0.00286376
2526	0.00309596
2538	0.00325076
2550	0.00448914
2562	0.00510833
2574	0.00348295
2586	0.00410215
2598	0.00433434
2610	0.00417955
2622	0.00325076
2634	0.00448914
2646	0.00495354
2658	0.00464394
2670	0.00417955
2682	0.00325076
2694	0.00263157
2706	0.00294116
2718	0.00309596
2730	0.00425694
2742	0.00665631
2754	0.00611452
2766	0.0077399
2778	0.0109133
2790	0.0106037
2802	0.0117646
2814	0.0147058
2826	0.0182662
2838	0.0254643
2850	0.0418729
2862	0.0748448
2874	0.144504
2886	0.192491
2898	0.16633
2910	0.15712
2922	0.147987
2934	0.211377
2946	0.334673
2958	0.249767
2970	0.439162
2982	0.640709
2994	0.167646
3006	0.0853711
3018	0.07469
3030	0.147213
3042	0.121903
3054	0.0888541
3066	0.0613774
3078	0.0647056
3090	0.0797984
3102	0.0594424
3114	0.0199689
3126	0.0103715
3138	0.00905568
3150	0.0110681
3162	0.0120742
3174	0.00890088
3186	0.00712071
3198	0.00650152
3210	0.00549533
3222	0.00464394
3234	0.00386995
3246	0.00270896
3258	0.00278636
3270	0.00185758
3282	0.00247677
3294	0.00232197
3306	0.00154798
3318	0.00216717
3330	0.00193497
3342	0.00386995
3354	0.00294116
3366	0.00208977
3378	0.00170278
3390	0.00193497
3402	0.00301856
3414	0.00239937
3426	0.00325076
3438	0.00154798
3450	0.00301856
3462	0.00263157
3474	0.00232197
3486	0.00255417
3498	0.00356035
3510	0.00216717
3522	0.00286376
3534	0.00317336
3546	0.00325076
3558	0.00255417
3570	0.00317336
3582	0.00448914
3594	0.00379255
3606	0.00232197
3618	0.00487614
3630	0.00371515
3642	0.00309596
3654	0.00371515
3666	0.00417955
3678	0.00526313
3690	0.00263157
3702	0.00410215
3714	0.00410215
3726	0.00572753
3738	0.00665631
3750	0.00503093
3762	0.00433434
3774	0.00294116
3786	0.00433434
3798	0.00611452
3810	0.00386995
3822	0.000541793
3834	0.00301856
3846	0.00611452
3858	0.00309596
3870	0.00371515
3882	0.0076625
3894	0.000154798
3906	0.00526313
3918	0.00897828
3930	0.00441174
3942	0.00626932
3954	0.0104489
3966	0.00139318
