Infrared Spectrum: Benzenemethanol, 2-(phenylmethyl)-
Formula: C 14 H 14 O
CAS: 1586-00-1
Origin: Sadtler Research Labs Under US-EPA Contract
1/CM	ABSORBANCE
450	0.0823216
462	0.0742841
474	0.0348501
486	0.0125586
498	0.021224
510	0.0118679
522	0.00464668
534	0.00577696
546	0.0115539
558	0.0350385
570	0.035478
582	0.0141912
594	0.0469692
606	0.101913
618	0.116481
630	0.0442063
642	0.00828868
654	0.00797471
666	0.0228567
678	0.060658
690	0.213999
702	0.326021
714	0.27271
726	0.556032
738	0.563316
750	0.612232
762	0.191581
774	0.0787424
786	0.0556974
798	0.0259963
810	0.0194658
822	0.00734678
834	0.000753516
846	0.00967012
858	0.0101097
870	0.0173309
882	0.00998409
894	0.0155099
906	0.0189635
918	0.025494
930	0.0467808
942	0.0882242
954	0.0860264
966	0.105743
978	0.145052
990	0.241753
1002	0.433397
1014	0.482376
1026	0.384607
1038	0.299899
1050	0.195537
1062	0.10185
1074	0.0972664
1086	0.0492925
1098	0.0534368
1110	0.0371735
1122	0.0204705
1134	0.0192775
1146	0.0292615
1158	0.0538764
1170	0.0887265
1182	0.130484
1194	0.136763
1206	0.116732
1218	0.0955082
1230	0.0645512
1242	0.0556346
1254	0.0495437
1266	0.05036
1278	0.0600929
1290	0.0608464
1302	0.0574556
1314	0.0615371
1326	0.0683816
1338	0.0633581
1350	0.0637977
1362	0.0875334
1374	0.149385
1386	0.178458
1398	0.116418
1410	0.074912
1422	0.0673141
1434	0.0997153
1446	0.200372
1458	0.213747
1470	0.0951314
1482	0.139589
1494	0.396977
1506	0.0997781
1518	0.0126842
1530	0.00709561
1542	0.00923057
1554	0.00835147
1566	0.0191519
1578	0.0377386
1590	0.0754144
1602	0.17042
1614	0.0590254
1626	0.0122446
1638	0.00238613
1650	0.00288848
1662	0.000941895
1674	0.00257451
1686	0.00558858
1698	0.00634209
1710	0.00238613
1722	0.00521182
1734	0.00740957
1746	0.00646768
1758	0.00979571
1770	0.0147564
1782	0.0167657
1794	0.0327779
1806	0.041255
1818	0.0202193
1830	0.0126842
1842	0.0143168
1854	0.0128098
1866	0.0131237
1878	0.0129354
1890	0.0134377
1902	0.0143168
1914	0.0256823
1926	0.0231706
1938	0.0347873
1950	0.0413806
1962	0.0188379
1974	0.00659326
1986	0.00596533
1998	0.0062793
2010	0.00596533
2022	0.00433272
2034	0.00301406
2046	0.00232334
2058	0.00282568
2070	0.00257451
2082	0.00156982
2094	0.00106748
2106	0.00106748
2118	0.000502344
2130	0.000439551
2142	0.000502344
2154	6.2793e-05
2166	0.000125586
2178	0.000313965
2190	6.2793e-05
2202	0.000439551
2214	0.000816309
2226	0.000941895
2238	0.000941895
2250	0.00106748
2262	0.00194658
2274	0.00169541
2286	0.00144424
2298	0.00138145
2310	0.00364199
2322	0.00634209
2334	0.00722119
2346	0.00401875
2358	0.00301406
2370	0.00163262
2382	0.00326524
2394	0.00295127
2406	0.00332803
2418	0.00313965
2430	0.00226055
2442	0.00232334
2454	0.00251172
2466	0.00213496
2478	0.00219775
2490	0.00257451
2502	0.00263731
2514	0.00263731
2526	0.00276289
2538	0.00219775
2550	0.00188379
2562	0.00213496
2574	0.00276289
2586	0.00345361
2598	0.00433272
2610	0.00502344
2622	0.00496065
2634	0.00558858
2646	0.00508623
2658	0.00483506
2670	0.00521182
2682	0.00546299
2694	0.0062793
2706	0.00728399
2718	0.00847705
2730	0.0101725
2742	0.0120563
2754	0.0151959
2766	0.0176448
2778	0.0205333
2790	0.0226683
2802	0.0234846
2814	0.0278801
2826	0.0378014
2838	0.0580835
2850	0.0975803
2862	0.144487
2874	0.167846
2886	0.216699
2898	0.245332
2910	0.238425
2922	0.273401
2934	0.269759
2946	0.220215
2958	0.157799
2970	0.126088
2982	0.0953198
2994	0.074912
3006	0.103922
3018	0.238362
3030	0.437416
3042	0.308376
3054	0.237546
3066	0.43189
3078	0.457635
3090	0.21425
3102	0.11039
3114	0.0629186
3126	0.0217264
3138	0.0112399
3150	0.0117423
3162	0.0114283
3174	0.0054002
3186	0.00144424
3198	0.000816309
3210	0.000879102
3222	0.000879102
3234	0.000439551
3246	0.00100469
3258	0.0017582
3270	0.00207217
3282	0.00219775
3294	0.00370479
3306	0.0044583
3318	0.00577696
3330	0.00615371
3342	0.00847705
3354	0.00960733
3366	0.0117423
3378	0.0141284
3390	0.0162634
3402	0.0187123
3414	0.0219148
3426	0.0247404
3438	0.0278801
3450	0.0308942
3462	0.0335943
3474	0.0364827
3486	0.0383665
3498	0.0389317
3510	0.0392456
3522	0.0390572
3534	0.0389317
3546	0.0400619
3558	0.0454621
3570	0.0543787
3582	0.0665606
3594	0.0717096
3606	0.077047
3618	0.0832007
3630	0.0676281
3642	0.0836403
3654	0.101536
3666	0.0590254
3678	0.0325896
3690	0.0179588
3702	0.0071584
3714	0.00276289
3726	0
3738	6.2793e-05
3750	6.2793e-05
3762	6.2793e-05
3774	6.2793e-05
3786	6.2793e-05
3798	6.2793e-05
3810	6.2793e-05
3822	6.2793e-05
3834	0.000125586
3846	0.000313965
3858	0.00138145
3870	0.00169541
3882	0.00113027
3894	0.000753516
3906	0.00213496
3918	0.00113027
3930	6.2793e-05
3942	6.2793e-05
3954	6.2793e-05
3966	6.2793e-05
