Infrared Spectrum: 1,2,3-Propanetricarboxylic acid, 2-hydroxy-, tripropyl ester
Formula: C 15 H 26 O 7
CAS: 1587-21-9
Origin: Sadtler Research Labs Under US-EPA Contract
1/CM	ABSORBANCE
450	0.0106997
462	0.0115299
474	0
486	0.0140203
498	0.0241666
510	0.00913166
522	0.0252735
534	0.0186323
546	0.0120833
558	0.0207538
570	0.021215
582	0.0205693
594	0.0201081
606	0.0219529
618	0.016603
630	0.0175254
642	0.0149427
654	0.010792
666	0.0101463
678	0.0059033
690	0.00184478
702	0.00258269
714	0.00608777
726	0.00885494
738	0.00341284
750	0.0114376
762	0.0103308
774	0.0141126
786	0.0142048
798	0.0160496
810	0.0186323
822	0.0176176
834	0.015035
846	0.0157729
858	0.0198314
870	0.0275795
882	0.0294242
894	0.043629
906	0.0539598
918	0.0519306
930	0.0527607
942	0.0731455
954	0.0888262
966	0.159389
978	0.20062
990	0.141956
1002	0.13264
1014	0.0686258
1026	0.0687181
1038	0.117881
1050	0.157267
1062	0.224141
1074	0.182172
1086	0.15367
1098	0.163724
1110	0.183002
1122	0.183279
1134	0.217407
1146	0.297194
1158	0.462486
1170	0.708119
1182	0.857638
1194	0.792702
1206	0.642352
1218	0.493848
1230	0.406313
1242	0.363698
1254	0.330123
1266	0.302544
1278	0.271644
1290	0.242958
1302	0.21298
1314	0.222757
1326	0.247477
1338	0.261036
1350	0.235209
1362	0.158374
1374	0.127013
1386	0.152287
1398	0.152932
1410	0.119634
1422	0.103953
1434	0.0848599
1446	0.0714852
1458	0.0893796
1470	0.102201
1482	0.0579261
1494	0.0253657
1506	0.018909
1518	0.0161418
1530	0.0106075
1542	0.00682569
1554	0.00940838
1566	0.00802479
1578	0.00867047
1590	0.00719464
1602	0.00608777
1614	0.00737912
1626	0.00747136
1638	0.0092239
1650	0.0103308
1662	0.015035
1674	0.0200159
1686	0.0304389
1698	0.0477798
1710	0.0863357
1722	0.175346
1734	0.331784
1746	0.714022
1758	0.92239
1770	0.450034
1782	0.161234
1794	0.0708396
1806	0.0391093
1818	0.0244433
1830	0.0164185
1842	0.0119911
1854	0.00848599
1866	0.00664121
1878	0.00581106
1890	0.0059033
1902	0.00405852
1914	0.00507314
1926	0.0037818
1938	0.00396628
1950	0.00387404
1962	0.00313613
1974	0.00249045
1986	0.00239821
1998	0.00276717
2010	0.00267493
2022	0.00267493
2034	0.0033206
2046	0.00405852
2058	0.0033206
2070	0.00322836
2082	0.00341284
2094	0.00313613
2106	0.00341284
2118	0.00258269
2130	0.00276717
2142	0.00193702
2154	0.00175254
2166	0.00156806
2178	0.00119911
2190	0.0016603
2202	0.00101463
2214	0.00119911
2226	0.000830151
2238	0.00129135
2250	0.00092239
2262	0.00129135
2274	0.00175254
2286	0.00110687
2298	0.00092239
2310	0.000737912
2322	0.00147582
2334	0.00276717
2346	0.00285941
2358	0.00221374
2370	0.00322836
2382	0.00184478
2394	0.00193702
2406	0.00184478
2418	0.00184478
2430	0.00147582
2442	0.00101463
2454	0.000553434
2466	0.000553434
2478	0.000645673
2490	0.000737912
2502	0.000830151
2514	0.00092239
2526	0.000461195
2538	0.000368956
2550	0.000553434
2562	0.000276717
2574	0.00092239
2586	0.00092239
2598	0.00092239
2610	0.00147582
2622	0.00138358
2634	0.00129135
2646	0.00129135
2658	0.00119911
2670	0.00202926
2682	0.0021215
2694	0.00285941
2706	0.00221374
2718	0.00313613
2730	0.00479643
2742	0.00645673
2754	0.00820927
2766	0.00793255
2778	0.00774808
2790	0.00793255
2802	0.00848599
2814	0.0109764
2826	0.0133747
2838	0.0186323
2850	0.0259192
2862	0.0437213
2874	0.0641983
2886	0.112347
2898	0.135684
2910	0.115391
2922	0.124892
2934	0.18909
2946	0.241574
2958	0.267678
2970	0.349494
2982	0.381777
2994	0.193517
3006	0.0811703
3018	0.0427989
3030	0.0278562
3042	0.0202003
3054	0.0156806
3066	0.012729
3078	0.0111609
3090	0.00977733
3102	0.00867047
3114	0.00839375
3126	0.00645673
3138	0.00581106
3150	0.00618001
3162	0.00562658
3174	0.00516538
3186	0.00461195
3198	0.00433523
3210	0.00387404
3222	0.00267493
3234	0.00258269
3246	0.00249045
3258	0.00285941
3270	0.00230598
3282	0.00249045
3294	0.00267493
3306	0.00230598
3318	0.00221374
3330	0.00387404
3342	0.00249045
3354	0.00230598
3366	0.0033206
3378	0.00488867
3390	0.00479643
3402	0.00627225
3414	0.00774808
3426	0.0108842
3438	0.0131902
3450	0.016603
3462	0.0201081
3474	0.0225986
3486	0.0249045
3498	0.0256424
3510	0.029332
3522	0.033206
3534	0.0392938
3546	0.047872
3558	0.0472264
3570	0.0372646
3582	0.0275795
3594	0.0235209
3606	0.0221374
3618	0.0166953
3630	0.0101463
3642	0.00322836
3654	0.00433523
3666	0.00239821
3678	0.00313613
3690	0.00322836
3702	0.000830151
3714	0.00350508
3726	0.00258269
3738	0.00202926
3750	0.00156806
3762	0.00202926
3774	0.00322836
3786	0.00119911
3798	0.00387404
3810	0.00175254
3822	0.0059033
3834	0.00359732
3846	0.00424299
3858	0.00322836
3870	0.0037818
3882	0.0037818
3894	0.00359732
3906	0.00341284
3918	0.0021215
3930	0.00249045
3942	0.00341284
3954	0.00341284
3966	0.00138358
