Infrared Spectrum: Pentanal, 3-methyl-
Formula: C 6 H 12 O
CAS: 15877-57-3
Origin: Sadtler Research Labs Under US-EPA Contract
1/CM	ABSORBANCE
450	0.00392033
462	0.00188477
474	0.00882075
486	0.00701136
498	0.00829301
510	0.0149274
522	0.0177169
534	0.0208833
546	0.0198278
558	0.0188477
570	0.0150782
582	0.00746371
594	0.00851918
606	0.00927309
618	0.0118364
630	0.0122133
642	0.011384
654	0.0134196
666	0.0195263
678	0.0189231
690	0.0131934
702	0.0102532
714	0.00618206
726	0.00392033
738	0.00354338
750	0.00437268
762	0.0067098
774	0.00866996
786	0.00866996
798	0.00550354
810	0.00324181
822	0.00263868
834	0.00324181
846	0.00550354
858	0.010404
870	0.0146259
882	0.0132688
894	0.00761449
906	0.0075391
918	0.00934848
930	0.0146259
942	0.0233712
954	0.0259345
966	0.0260099
978	0.0302318
990	0.0373185
1002	0.0509643
1014	0.0674749
1026	0.0629515
1038	0.0416912
1050	0.0284224
1062	0.0245775
1074	0.0297041
1086	0.0389018
1098	0.0437268
1110	0.0456116
1122	0.0530753
1134	0.060539
1146	0.0677765
1158	0.068832
1170	0.0574479
1182	0.0413897
1194	0.0293271
1206	0.0276685
1218	0.0264622
1230	0.0208833
1242	0.0209587
1254	0.0259345
1266	0.0278193
1278	0.0272162
1290	0.0279701
1302	0.0285732
1314	0.0278947
1326	0.0306087
1338	0.0340013
1350	0.0511151
1362	0.0646101
1374	0.0868504
1386	0.116102
1398	0.0955204
1410	0.0609159
1422	0.0572218
1434	0.0474209
1446	0.0571464
1458	0.0983099
1470	0.116178
1482	0.0649117
1494	0.0217126
1506	0.00527737
1518	0.00211095
1530	0.00158321
1542	0
1554	0.00278947
1566	0.00392033
1578	0.00429729
1590	0.00429729
1602	0.00459885
1614	0.00520198
1626	0.0042219
1638	0.00625745
1650	0.00761449
1662	0.0147766
1674	0.0223911
1686	0.034906
1698	0.0490041
1710	0.0824024
1722	0.201219
1734	0.591292
1746	0.75391
1758	0.358183
1770	0.157492
1782	0.112483
1794	0.0695105
1806	0.0415404
1818	0.0248036
1830	0.0144751
1842	0.0103286
1854	0.00866996
1866	0.00580511
1878	0.00482502
1890	0.00346799
1902	0.00361877
1914	0.00286486
1926	0.00294025
1938	0.00278947
1950	0.00256329
1962	0.00263868
1974	0.00203556
1986	0.00188477
1998	0.00180938
2010	0.00173399
2022	0.00173399
2034	0.00180938
2046	0.00120626
2058	0.00120626
2070	0.000829301
2082	0.000829301
2094	0.000527737
2106	0.00075391
2118	0.000376955
2130	0.000829301
2142	0.00113086
2154	0.00120626
2166	0.00120626
2178	0.00128165
2190	0.000904692
2202	0.00135704
2214	0.00128165
2226	0.00150782
2238	0.00135704
2250	0.00128165
2262	0.00113086
2274	0.00158321
2286	0.00113086
2298	0.00150782
2310	0.00218634
2322	0.00407111
2334	0.00542815
2346	0.00399572
2358	0.00459885
2370	0.00459885
2382	0.00188477
2394	0.00188477
2406	0.00203556
2418	0.00196017
2430	0.00188477
2442	0.00143243
2454	0.00180938
2466	0.00173399
2478	0.00188477
2490	0.0016586
2502	0.00196017
2514	0.00180938
2526	0.00188477
2538	0.00196017
2550	0.00278947
2562	0.00369416
2574	0.00520198
2586	0.00678519
2598	0.00904692
2610	0.0109317
2622	0.0135704
2634	0.0183954
2646	0.0242005
2658	0.0299302
2670	0.0397311
2682	0.0680781
2694	0.141735
2706	0.262888
2718	0.244418
2730	0.132688
2742	0.088509
2754	0.0761449
2766	0.0704152
2778	0.0741847
2790	0.0988376
2802	0.14852
2814	0.173776
2826	0.138267
2838	0.0920524
2850	0.094088
2862	0.148897
2874	0.249393
2886	0.339636
2898	0.332399
2910	0.306238
2922	0.372507
2934	0.421511
2946	0.40289
2958	0.445184
2970	0.699025
2982	0.561889
2994	0.182899
3006	0.0541307
3018	0.0317396
3030	0.0244267
3042	0.0208833
3054	0.0187724
3066	0.0168122
3078	0.0155305
3090	0.0128919
3102	0.0107809
3114	0.0107055
3126	0.0106301
3138	0.0102532
3150	0.00980083
3162	0.00965005
3174	0.00874536
3186	0.00829301
3198	0.00625745
3210	0.00550354
3222	0.00392033
3234	0.00278947
3246	0.00241251
3258	0.00188477
3270	0.00173399
3282	0.00120626
3294	0.00173399
3306	0.00120626
3318	0.00173399
3330	0.00158321
3342	0.00173399
3354	0.00196017
3366	0.00203556
3378	0.00180938
3390	0.0024879
3402	0.00233712
3414	0.00233712
3426	0.00346799
3438	0.00490041
3450	0.010027
3462	0.0144751
3474	0.0118364
3486	0.00497581
3498	0.00196017
3510	0.00188477
3522	0.00173399
3534	0.00196017
3546	0.0016586
3558	0.00301564
3570	0.0192247
3582	0.0201294
3594	0.00316642
3606	0.00188477
3618	0.00158321
3630	0.00241251
3642	0.00113086
3654	0.00135704
3666	0.00158321
3678	0.00211095
3690	0.00218634
3702	0.00188477
3714	0.00188477
3726	0.00180938
3738	0.00180938
3750	0.00211095
3762	0.00173399
3774	0.00143243
3786	0.000980083
3798	0.00120626
3810	0.00128165
3822	0.00203556
3834	0.00196017
3846	0.00316642
3858	0.00226173
3870	0.0024879
3882	0.00233712
3894	0.00226173
3906	0.00188477
3918	0.00173399
3930	0.00150782
3942	0.00128165
3954	0.00180938
3966	0.000829301
