Infrared Spectrum: Hexadecane, 6,11-dipentyl-
Formula: C 26 H 54
CAS: 15874-03-0
Origin: Sadtler Research Labs Under US-EPA Contract
1/CM	ABSORBANCE
450	0.0213313
462	0.00692084
474	0.00492991
486	0.00701564
498	0.00748967
510	0.00464549
522	0.00530914
534	0.00407666
546	0.00559355
558	0.00587797
570	0.00388705
582	0.00483511
594	0.00549875
606	0.00549875
618	0.00568836
630	0.00445588
642	0.00369743
654	0.00293899
666	0.0032234
678	0.00369743
690	0.00549875
702	0.00682603
714	0.0116611
726	0.0186768
738	0.0164014
750	0.0115663
762	0.0112819
774	0.010239
786	0.00549875
798	0.00464549
810	0.00568836
822	0.00654161
834	0.00673123
846	0.00682603
858	0.006352
870	0.00616239
882	0.006352
894	0.00663642
906	0.00654161
918	0.00568836
930	0.00426627
942	0.00511952
954	0.00540394
966	0.00568836
978	0.00483511
990	0.0047403
1002	0.00521433
1014	0.00568836
1026	0.00540394
1038	0.00540394
1050	0.00578317
1062	0.00578317
1074	0.00606758
1086	0.00644681
1098	0.00730006
1110	0.00711045
1122	0.00663642
1134	0.0078689
1146	0.00720526
1158	0.00597278
1170	0.006352
1182	0.00654161
1194	0.00711045
1206	0.00777409
1218	0.0079637
1230	0.00957541
1242	0.0103339
1254	0.00938579
1266	0.010239
1278	0.0123248
1290	0.0147897
1302	0.0164014
1314	0.016117
1326	0.0157378
1338	0.0227534
1350	0.0273989
1362	0.0313808
1374	0.0310964
1386	0.0332769
1398	0.0148845
1410	0.0128936
1422	0.0144105
1434	0.021521
1446	0.0484459
1458	0.0873163
1470	0.0794474
1482	0.0262613
1494	0.0124196
1506	0.00815332
1518	0.00559355
1530	0.00398185
1542	0.00293899
1554	0.00218054
1566	0.00208573
1578	0.00170651
1590	0.00208573
1602	0.00227534
1614	0.00208573
1626	0.00170651
1638	0.00132728
1650	0.00132728
1662	0.00094806
1674	0.00113767
1686	0.0015169
1698	0.00227534
1710	0.00464549
1722	0.00815332
1734	0.00758448
1746	0.00568836
1758	0.00464549
1770	0.00341302
1782	0.00255976
1794	0.00208573
1806	0.00218054
1818	0.00094806
1830	0.000284418
1842	0.000284418
1854	9.4806e-05
1866	9.4806e-05
1878	0
1890	9.4806e-05
1902	0.000189612
1914	0.000189612
1926	9.4806e-05
1938	9.4806e-05
1950	0.000189612
1962	0.000284418
1974	0.000284418
1986	0.00047403
1998	0.000758448
2010	0.000853254
2022	0.00123248
2034	0.00180131
2046	0.00123248
2058	0.00123248
2070	0.00104287
2082	0.00094806
2094	0.00094806
2106	0.000853254
2118	0.000853254
2130	0.00094806
2142	0.00094806
2154	0.00113767
2166	0.000853254
2178	0.00113767
2190	0.00104287
2202	0.00094806
2214	0.00104287
2226	0.00104287
2238	0.000663642
2250	0.00113767
2262	0.00094806
2274	0.00132728
2286	0.00218054
2298	0.00398185
2310	0.00455069
2322	0.0032234
2334	0.00218054
2346	0.00341302
2358	0.0032234
2370	0.00227534
2382	0.00426627
2394	0.00227534
2406	0.00208573
2418	0.00208573
2430	0.00180131
2442	0.00170651
2454	0.00189612
2466	0.00180131
2478	0.00199093
2490	0.00199093
2502	0.00227534
2514	0.00265457
2526	0.00331821
2538	0.00379224
2550	0.00388705
2562	0.00445588
2574	0.00502472
2586	0.00540394
2598	0.00578317
2610	0.006352
2622	0.00701564
2634	0.00730006
2646	0.00805851
2658	0.00910138
2670	0.0100494
2682	0.0106183
2694	0.0104287
2706	0.0108079
2718	0.0113767
2730	0.01223
2742	0.0141261
2754	0.0133676
2766	0.0138417
2778	0.0162118
2790	0.0203833
2802	0.0263561
2814	0.0345094
2826	0.0465497
2838	0.0700616
2850	0.157378
2862	0.35922
2874	0.323099
2886	0.269628
2898	0.25389
2910	0.402546
2922	0.63757
2934	0.94806
2946	0.594718
2958	0.375906
2970	0.456396
2982	0.158136
2994	0.0781201
3006	0.0499628
3018	0.0349834
3030	0.0256924
3042	0.0200041
3054	0.0157378
3066	0.0134625
3078	0.01223
3090	0.0105235
3102	0.00967021
3114	0.0079637
3126	0.00720526
3138	0.00663642
3150	0.00597278
3162	0.00540394
3174	0.00492991
3186	0.00445588
3198	0.00417146
3210	0.0031286
3222	0.00274937
3234	0.00218054
3246	0.0016117
3258	0.0015169
3270	0.00208573
3282	0.0015169
3294	0.00208573
3306	0.0016117
3318	0.00170651
3330	0.00132728
3342	0.00208573
3354	0.0016117
3366	0.0016117
3378	0.00180131
3390	0.00218054
3402	0.00199093
3414	0.00208573
3426	0.00132728
3438	0.00180131
3450	0.00104287
3462	0.00113767
3474	0.00208573
3486	0.00132728
3498	0.00104287
3510	0.0016117
3522	0.000758448
3534	0.0016117
3546	0.00142209
3558	0.00132728
3570	0.0016117
3582	0.00227534
3594	0.00189612
3606	0.00142209
3618	0.0016117
3630	0.0016117
3642	0.00274937
3654	0.00255976
3666	0.00227534
3678	0.00246496
3690	0.00265457
3702	0.00218054
3714	0.0015169
3726	0.0016117
3738	0.00274937
3750	0.00284418
3762	0.00218054
3774	0.00255976
3786	0.00189612
3798	0.00341302
3810	0.0016117
3822	0.00274937
3834	0.00218054
3846	0.0016117
3858	0.00208573
3870	0.00218054
3882	0.00170651
3894	0.00293899
3906	0.00246496
3918	0.0016117
3930	0.00208573
3942	0.0016117
3954	0.00246496
3966	0.0031286
