Infrared Spectrum: Citric acid, trimethyl ester
Formula: C 9 H 14 O 7
CAS: 1587-20-8
Origin: Sadtler Research Labs Under US-EPA Contract
1/CM	ABSORBANCE
450	0.00582262
462	0.00291131
474	0.00416619
486	0.00140546
498	0.00712769
510	0.00496931
522	0.00978803
534	0.00572223
546	0.0120468
558	0.00983822
570	0.012348
582	0.00742886
594	0.0132013
606	0.013904
618	0.0163636
630	0.00988842
642	0.0145566
654	0.0140546
666	0.00757945
678	0.00747906
690	0.00808139
702	0.00557165
714	0.00622418
726	0.010541
738	0.00697711
750	0.00742886
762	0.00642496
774	0.0130005
786	0.013653
798	0.0146067
810	0.0146569
822	0.0198772
834	0.0119464
846	0.0164138
858	0.0151589
870	0.0185722
882	0.0222364
894	0.0231399
906	0.0141048
918	0.0101394
930	0.00712769
942	0.00858335
954	0.0121974
966	0.0231901
978	0.0330283
990	0.0470327
1002	0.0929611
1014	0.102799
1026	0.0600332
1038	0.0450751
1050	0.053809
1062	0.0670605
1074	0.0724314
1086	0.0720298
1098	0.0766478
1110	0.0889957
1122	0.0901
1134	0.100792
1146	0.127545
1158	0.194154
1170	0.299915
1182	0.357439
1194	0.358794
1206	0.363964
1218	0.304784
1230	0.241438
1242	0.206552
1254	0.1803
1266	0.156659
1278	0.13638
1290	0.121522
1302	0.105008
1314	0.10556
1326	0.116151
1338	0.139893
1350	0.151187
1362	0.122476
1374	0.0789567
1386	0.0649021
1398	0.0559674
1410	0.05662
1422	0.0562184
1434	0.105209
1446	0.13392
1458	0.0447237
1470	0.0303178
1482	0.0212827
1494	0.0148075
1506	0.00928608
1518	0.00853315
1530	0.00692691
1542	0.0010039
1554	0.00316229
1566	0.00948686
1578	0.0113441
1590	0.00943666
1602	0.00963744
1614	0.0104908
1626	0.0134523
1638	0.0133017
1650	0.0134021
1662	0.0135025
1674	0.0156608
1686	0.0177188
1698	0.0245454
1710	0.0429669
1722	0.0841268
1734	0.158867
1746	0.264678
1758	0.470578
1770	0.431175
1782	0.19561
1794	0.098081
1806	0.0584772
1818	0.0316229
1830	0.0179196
1842	0.0124986
1854	0.0119966
1866	0.00988842
1878	0.0099888
1890	0.00863354
1902	0.00742886
1914	0.00652535
1926	0.00687672
1938	0.00652535
1950	0.00737867
1962	0.00637477
1974	0.00687672
1986	0.00627438
1998	0.00727828
2010	0.00788062
2022	0.00823198
2034	0.00767984
2046	0.00752925
2058	0.00737867
2070	0.00722808
2082	0.00667594
2094	0.00687672
2106	0.00587281
2118	0.00552145
2130	0.00517009
2142	0.00416619
2154	0.00416619
2166	0.00411599
2178	0.0040658
2190	0.00411599
2202	0.00391521
2214	0.00336307
2226	0.00351365
2238	0.00351365
2250	0.0040156
2262	0.0039654
2274	0.0039654
2286	0.00431677
2298	0.00833237
2310	0.0103402
2322	0.0123982
2334	0.010541
2346	0.0137032
2358	0.0138036
2370	0.0125488
2382	0.00712769
2394	0.00316229
2406	0.00316229
2418	0.00326268
2430	0.00255995
2442	0.0030619
2454	0.00266034
2466	0.00266034
2478	0.00230897
2490	0.00235917
2502	0.00255995
2514	0.00205799
2526	0.00185722
2538	0.00170663
2550	0.00220858
2562	0.00190741
2574	0.00235917
2586	0.00210819
2598	0.00271053
2610	0.00225878
2622	0.00230897
2634	0.00190741
2646	0.00220858
2658	0.00170663
2670	0.00185722
2682	0.00125488
2694	0.0020078
2706	0.00115449
2718	0.00165644
2730	0.00070273
2742	0.00175683
2754	0.00115449
2766	0.00180702
2778	0.00125488
2790	0.00276073
2802	0.00220858
2814	0.0030619
2826	0.00381482
2838	0.00773003
2850	0.0189235
2862	0.0153095
2874	0.0080312
2886	0.00913549
2898	0.0147071
2910	0.0191745
2922	0.0208309
2934	0.0228387
2946	0.0368431
2958	0.116101
2970	0.096525
2982	0.0271053
2994	0.0300166
3006	0.036542
3018	0.0289625
3030	0.0266034
3042	0.0198772
3054	0.0110429
3066	0.00888452
3078	0.00617399
3090	0.00657555
3102	0.00557165
3114	0.00522028
3126	0.0040156
3138	0.00361404
3150	0.00240936
3162	0.00281092
3174	0.00165644
3186	0.00235917
3198	0.00190741
3210	0.00240936
3222	0.00040156
3234	0.00160624
3246	5.0195e-05
3258	0.00135527
3270	0.0010541
3282	0.00155605
3294	0.00060234
3306	0.00205799
3318	0.00080312
3330	0.00110429
3342	0.00135527
3354	0.00215839
3366	0.00165644
3378	0.00261014
3390	0.00160624
3402	0.00250975
3414	0.00366424
3426	0.00461794
3438	0.00672613
3450	0.00888452
3462	0.0124484
3474	0.0138036
3486	0.0151087
3498	0.0151087
3510	0.0169157
3522	0.0174177
3534	0.0199274
3546	0.0251477
3558	0.028059
3570	0.0242944
3582	0.0211823
3594	0.012348
3606	0.0123982
3618	0.00883432
3630	0.00727828
3642	0.00311209
3654	0.00261014
3666	0.0010541
3678	0.00140546
3690	0.00090351
3702	0.00115449
3714	0.000752925
3726	0.00185722
3738	0.000351365
3750	0.000752925
3762	0.000250975
3774	0.00080312
3786	0.00060234
3798	0.000652535
3810	0.00010039
3822	0.000351365
3834	0.000250975
3846	0.00060234
3858	0.00140546
3870	0.00050195
3882	0.00235917
3894	0.00110429
3906	0.00155605
3918	0.000552145
3930	0.00150585
3942	0.00145566
3954	0
3966	0.00010039
