Infrared Spectrum: Butyramide, N-tetrahydro-2-pyranyl-,
Formula: C 9 H 17 N O 2
CAS: 15879-40-0
Origin: Sadtler Research Labs Under US-EPA Contract
1/CM	ABSORBANCE
450	0.0264804
462	0.0288142
474	0.0471261
486	0.0393166
498	0.0360851
510	0.0356363
522	0.0293528
534	0.0216331
546	0.0200174
558	0.0266599
570	0.0366237
582	0.0389576
594	0.0231591
606	0.0140929
618	0.0145418
630	0.00861734
642	0.00834805
654	0.00583466
666	0.00332127
678	0.000538584
690	0.00260316
702	0.00439844
714	0.00682206
726	0.0157087
738	0.0138237
750	0.015978
762	0.0108614
774	0.00960475
786	0.0175937
798	0.0324048
810	0.0318662
822	0.0262111
834	0.0261213
846	0.0364442
858	0.0534993
870	0.0653482
882	0.0657072
894	0.0830317
906	0.0709136
918	0.0437151
930	0.0357261
942	0.0263906
954	0.0236079
966	0.0356363
978	0.0621167
990	0.0785435
1002	0.0549356
1014	0.0682206
1026	0.130158
1038	0.340026
1050	0.340654
1062	0.201341
1074	0.341103
1086	0.710303
1098	0.298735
1110	0.113013
1122	0.108076
1134	0.0764789
1146	0.0581671
1158	0.112205
1170	0.322791
1182	0.399988
1194	0.383023
1206	0.342629
1218	0.167859
1230	0.124503
1242	0.122887
1254	0.124323
1266	0.133928
1278	0.12935
1290	0.111666
1302	0.111756
1314	0.127734
1326	0.103677
1338	0.123515
1350	0.123874
1362	0.141109
1374	0.20915
1386	0.185632
1398	0.11777
1410	0.0951498
1422	0.111487
1434	0.162114
1446	0.242812
1458	0.36902
1470	0.495228
1482	0.664792
1494	0.89764
1506	0.538494
1518	0.216062
1530	0.118219
1542	0.0825829
1554	0.0523324
1566	0.0440741
1578	0.0438946
1590	0.0470363
1602	0.0495497
1614	0.038419
1626	0.0297119
1638	0.0506269
1650	0.0624757
1662	0.0938931
1674	0.130517
1686	0.169115
1698	0.310314
1710	0.638402
1722	0.790821
1734	0.429521
1746	0.19012
1758	0.112923
1770	0.0630143
1782	0.0400347
1794	0.0287245
1806	0.0155292
1818	0.00987404
1830	0.00987404
1842	0.00655277
1854	0.00287245
1866	0.00475749
1878	0.00152599
1890	0.00359056
1902	0.00296221
1914	0.00368032
1926	0.00368032
1938	0.00368032
1950	0.00269292
1962	0.00421891
1974	0.0044882
1986	0.00385985
1998	0.00332127
2010	0.00170552
2022	0.00179528
2034	0.00116693
2046	0.00107717
2058	0.00116693
2070	0.00197481
2082	0.00188504
2094	0.00233386
2106	0.00251339
2118	0.00188504
2130	0.00251339
2142	0.00233386
2154	0.0022441
2166	0.00242363
2178	0.00197481
2190	0.00197481
2202	0.00197481
2214	0.00152599
2226	0.00134646
2238	0.00215434
2250	0.00269292
2262	0.0032315
2274	0.00287245
2286	0.00368032
2298	0.00646301
2310	0.00924569
2322	0.0103229
2334	0.0111307
2346	0.00709136
2358	0.0119386
2370	0.0100536
2382	0.00619372
2394	0.000269292
2406	0.000269292
2418	0.00044882
2430	0.000179528
2442	8.9764e-05
2454	0.000179528
2466	0.00044882
2478	0.000718112
2490	0.00107717
2502	0.00134646
2514	0.00161575
2526	0.00134646
2538	0.00170552
2550	0.00197481
2562	0.00197481
2574	0.0022441
2586	0.00269292
2598	0.00332127
2610	0.00439844
2622	0.00565513
2634	0.00727088
2646	0.00942522
2658	0.0114
2670	0.0130158
2682	0.0124772
2694	0.0127465
2706	0.0150804
2718	0.0184914
2730	0.0216331
2742	0.0225308
2754	0.0196583
2766	0.0170552
2778	0.0184016
2790	0.0221717
2802	0.0275575
2814	0.0363544
2826	0.0523324
2838	0.0998176
2850	0.217767
2862	0.28536
2874	0.260764
2886	0.236169
2898	0.189133
2910	0.22055
2922	0.3385
2934	0.528261
2946	0.807337
2958	0.647468
2970	0.539482
2982	0.412196
2994	0.158433
3006	0.0691183
3018	0.0398552
3030	0.0296221
3042	0.0235182
3054	0.020915
3066	0.0202867
3078	0.0192993
3090	0.0175937
3102	0.0140929
3114	0.0123874
3126	0.0117591
3138	0.0114
3150	0.0114
3162	0.0112205
3174	0.0114
3186	0.0111307
3198	0.0105922
3210	0.0099638
3222	0.00942522
3234	0.00888664
3246	0.00888664
3258	0.00969451
3270	0.0099638
3282	0.00960475
3294	0.0108614
3306	0.0114
3318	0.0114898
3330	0.0118488
3342	0.012567
3354	0.012926
3366	0.0147213
3378	0.015978
3390	0.0184016
3402	0.0236079
3414	0.0307891
3426	0.0356363
3438	0.0405733
3450	0.0614883
3462	0.0721703
3474	0.0438946
3486	0.0232489
3498	0.0173245
3510	0.0151701
3522	0.0149906
3534	0.0138237
3546	0.0119386
3558	0.012567
3570	0.0134646
3582	0.0161575
3594	0.00960475
3606	0.00987404
3618	0.00942522
3630	0.00978428
3642	0.00852758
3654	0.00727088
3666	0.0211843
3678	0.00377009
3690	0.0099638
3702	0.0123874
3714	0.00987404
3726	0.0118488
3738	0.00646301
3750	0.0166961
3762	0.012567
3774	0.0117591
3786	0.0146315
3798	0.0100536
3810	0.0196583
3822	0.00682206
3834	0.0118488
3846	0.0114
3858	0.00915593
3870	0.00987404
3882	0.0115796
3894	0.0114
3906	0.0145418
3918	0.0134646
3930	0.014452
3942	0.0173245
3954	0.0164268
3966	0.017504
