Infrared Spectrum: Heptadecane, 6,9,12-tripropyl-,
Formula: C 26 H 54
CAS: 15874-06-3
Origin: Sadtler Research Labs Under US-EPA Contract
1/CM	ABSORBANCE
450	0.00337006
462	0.00249634
474	0.00224671
486	0.00361969
498	0.0014978
510	0.00361969
522	0.00449341
534	0.00224671
546	0.00436859
558	0.00461823
570	0.00324524
582	0.00536713
594	0.00411896
606	0.00337006
618	0.00374451
630	0.00249634
642	0.00212189
654	0.00174744
666	0.00174744
678	0.00299561
690	0.00187225
702	0.00411896
714	0.00786347
726	0.0164758
738	0.0205948
750	0.0169751
762	0.012981
774	0.00986054
786	0.00524231
798	0.00436859
810	0.00287079
822	0.00249634
834	0.00224671
846	0.00212189
858	0.00324524
870	0.00262116
882	0.00374451
894	0.00636567
906	0.00611603
918	0.00312043
930	0.0014978
942	0.00199707
954	0.00274597
966	0.00287079
978	0.00274597
990	0.00324524
1002	0.0051175
1014	0.00674012
1026	0.00748902
1038	0.00686493
1050	0.00698975
1062	0.00761384
1074	0.00898682
1086	0.00973573
1098	0.00998536
1110	0.00936127
1122	0.00861237
1134	0.0109839
1146	0.0117328
1158	0.00761384
1170	0.0066153
1182	0.00773865
1194	0.00823792
1206	0.00861237
1218	0.00911164
1230	0.00973573
1242	0.011608
1254	0.0141043
1266	0.0164758
1278	0.0167255
1290	0.0188474
1302	0.0209693
1314	0.0205948
1326	0.0223422
1338	0.032078
1350	0.0393174
1362	0.0491779
1374	0.0499268
1386	0.0579151
1398	0.0233408
1410	0.019097
1422	0.0209693
1434	0.0313291
1446	0.0726435
1458	0.147783
1470	0.130683
1482	0.0404407
1494	0.0175992
1506	0.0112335
1518	0.00711457
1530	0.00374451
1542	0.00324524
1554	0.00237152
1566	0.00137299
1578	0.00199707
1590	0.00124817
1602	0.00212189
1614	0.00199707
1626	0.00124817
1638	0.00187225
1650	0.000374451
1662	0.000998536
1674	0.000873719
1686	0.00274597
1698	0.00424378
1710	0.00873719
1722	0.016351
1734	0.0152277
1746	0.00911164
1758	0.00761384
1770	0.0073642
1782	0.00611603
1794	0.00536713
1806	0.00549195
1818	0.00299561
1830	0.000998536
1842	0.000374451
1854	0.000499268
1866	0.000374451
1878	0.000748902
1890	0.000499268
1902	0.000374451
1914	0.000249634
1926	0.000124817
1938	0
1950	0.000249634
1962	0.000124817
1974	0.000124817
1986	0.000124817
1998	0.000124817
2010	0.000374451
2022	0.000748902
2034	0.00124817
2046	0.00137299
2058	0.00112335
2070	0.000748902
2082	0.000499268
2094	0.000624085
2106	0.000374451
2118	0.000374451
2130	0.000499268
2142	0.000124817
2154	0.000499268
2166	0.000624085
2178	0.000624085
2190	0.000499268
2202	0.000624085
2214	0.000374451
2226	0.000374451
2238	0.000624085
2250	0.000873719
2262	0.000998536
2274	0.00162262
2286	0.00237152
2298	0.00399414
2310	0.00524231
2322	0.00561677
2334	0.00386933
2346	0.00536713
2358	0.00611603
2370	0.00386933
2382	0.00486786
2394	0.00199707
2406	0.00224671
2418	0.00212189
2430	0.00199707
2442	0.00174744
2454	0.00199707
2466	0.00174744
2478	0.00187225
2490	0.00224671
2502	0.00274597
2514	0.00337006
2526	0.00399414
2538	0.00486786
2550	0.00574158
2562	0.0066153
2574	0.00761384
2586	0.00848756
2598	0.00873719
2610	0.00961091
2622	0.00998536
2634	0.0108591
2646	0.0121072
2658	0.0132306
2670	0.014354
2682	0.0147284
2694	0.0154773
2706	0.016351
2718	0.0174744
2730	0.0202204
2742	0.0233408
2754	0.0208444
2766	0.0210941
2778	0.0245889
2790	0.0304553
2802	0.0386933
2814	0.0499268
2826	0.0669019
2838	0.100103
2850	0.224421
2862	0.462821
2874	0.505883
2886	0.468563
2898	0.397792
2910	0.616846
2922	0.935254
2934	1.24817
2946	0.859739
2958	0.670018
2970	0.873719
2982	0.263988
2994	0.129685
3006	0.0842515
3018	0.0625333
3030	0.0478049
3042	0.0355728
3054	0.0277094
3066	0.0225919
3078	0.02047
3090	0.0178488
3102	0.0161014
3114	0.0137299
3126	0.0119824
3138	0.0106094
3150	0.00986054
3162	0.00898682
3174	0.00836274
3186	0.00748902
3198	0.00674012
3210	0.00536713
3222	0.00374451
3234	0.00312043
3246	0.00287079
3258	0.00262116
3270	0.00249634
3282	0.00224671
3294	0.00224671
3306	0.00174744
3318	0.00249634
3330	0.00224671
3342	0.00262116
3354	0.00174744
3366	0.00237152
3378	0.00224671
3390	0.00162262
3402	0.00187225
3414	0.00162262
3426	0.00212189
3438	0.00262116
3450	0.00162262
3462	0.00174744
3474	0.00112335
3486	0.000748902
3498	0.0014978
3510	0.00162262
3522	0.000748902
3534	0.000748902
3546	0.00137299
3558	0.00174744
3570	0.00312043
3582	0.00274597
3594	0.00199707
3606	0.00187225
3618	0.00212189
3630	0.00386933
3642	0.00312043
3654	0.00262116
3666	0.00299561
3678	0.00262116
3690	0.00287079
3702	0.00287079
3714	0.00262116
3726	0.00274597
3738	0.00324524
3750	0.00199707
3762	0.00187225
3774	0.00249634
3786	0.00174744
3798	0.00212189
3810	0.00224671
3822	0.00262116
3834	0.00187225
3846	0.00137299
3858	0.00312043
3870	0.00212189
3882	0.00249634
3894	0.0014978
3906	0.00124817
3918	0.00249634
3930	0.00124817
3942	0.000998536
3954	0.00237152
3966	0.00187225
