Infrared Spectrum: Isobutyramide, N-tetrahydro-2-pyranyl-,
Formula: C 9 H 17 N O 2
CAS: 15879-39-7
Origin: Sadtler Research Labs Under US-EPA Contract
1/CM	ABSORBANCE
450	0.0218167
462	0.0263619
474	0.0329978
486	0.0370884
498	0.0310888
510	0.0310888
522	0.0351795
534	0.0329978
546	0.0302707
558	0.0247256
570	0.019726
582	0.0162716
594	0.0132718
606	0.0159989
618	0.015908
630	0.00790856
642	0.00936301
654	0.00699953
666	0.00218167
678	0.00127264
690	0.00190896
702	0.0029998
714	0.00445425
726	0.00890849
738	0.00690863
750	0.0090903
762	0.0091812
774	0.00790856
786	0.00736314
798	0.0153626
810	0.0324524
822	0.0203623
834	0.0204532
846	0.0282708
858	0.0508148
870	0.0566326
882	0.0533601
894	0.06845
906	0.0632685
918	0.0572689
930	0.0574507
942	0.0450879
954	0.0553599
966	0.0568144
978	0.0626322
990	0.0716316
1002	0.0489058
1014	0.0579052
1026	0.10272
1038	0.299707
1050	0.314615
1062	0.171807
1074	0.303071
1086	0.662683
1098	0.295162
1110	0.112992
1122	0.0948118
1134	0.0781766
1146	0.0749041
1158	0.138627
1170	0.33725
1182	0.379611
1194	0.339432
1206	0.340795
1218	0.160444
1230	0.11472
1242	0.107538
1254	0.09463
1266	0.0916302
1278	0.0821763
1290	0.0633594
1302	0.0751768
1314	0.0892667
1326	0.0707225
1338	0.0863578
1350	0.0907212
1362	0.104175
1374	0.17008
1386	0.179443
1398	0.123264
1410	0.0844489
1422	0.0890849
1434	0.125083
1446	0.19935
1458	0.31907
1470	0.431698
1482	0.655138
1494	0.90903
1506	0.559872
1518	0.22653
1530	0.118628
1542	0.0789038
1554	0.0505421
1566	0.0422699
1578	0.0394519
1590	0.0395428
1602	0.0411791
1614	0.0282708
1626	0.0199987
1638	0.0349977
1650	0.0480877
1662	0.0838126
1674	0.125446
1686	0.165807
1698	0.306252
1710	0.56369
1722	0.62514
1734	0.312252
1746	0.130173
1758	0.075904
1770	0.0439061
1782	0.0301798
1794	0.0223621
1806	0.0119083
1818	0.00736314
1830	0.00699953
1842	0.00527237
1854	0.00281799
1866	0.00399973
1878	0.00199987
1890	0.00418154
1902	0.00363612
1914	0.00336341
1926	0.0031816
1938	0.00327251
1950	0.00254528
1962	0.00327251
1974	0.00399973
1986	0.00372702
1998	0.0030907
2010	0.00199987
2022	0.00199987
2034	0.00109084
2046	0.000727224
2058	0.000727224
2070	0.00118174
2082	0.00127264
2094	0.00163625
2106	0.00181806
2118	0.00136354
2130	0.00181806
2142	0.00199987
2154	0.00181806
2166	0.00190896
2178	0.00145445
2190	0.00181806
2202	0.00154535
2214	0.00109084
2226	0.00154535
2238	0.00190896
2250	0.00227257
2262	0.00281799
2274	0.00281799
2286	0.00381793
2298	0.00663592
2310	0.00881759
2322	0.00763585
2334	0.00718134
2346	0.00563599
2358	0.00818127
2370	0.00745405
2382	0.00572689
2394	0.000636321
2406	0.000636321
2418	0.000727224
2430	0.000545418
2442	0.000636321
2454	0.000636321
2466	0.00109084
2478	0.00136354
2490	0.00154535
2502	0.00127264
2514	0.00172716
2526	0.00172716
2538	0.00190896
2550	0.00254528
2562	0.00281799
2574	0.0030907
2586	0.00345431
2598	0.00345431
2610	0.00445425
2622	0.00545418
2634	0.00727224
2646	0.00818127
2658	0.0091812
2670	0.0100902
2682	0.0090903
2694	0.00972662
2706	0.0114538
2718	0.0151808
2730	0.0188169
2742	0.0185442
2754	0.0155444
2766	0.0139991
2778	0.0150899
2790	0.0167262
2802	0.0209986
2814	0.0282708
2826	0.0404518
2838	0.0793583
2850	0.189624
2862	0.250165
2874	0.217076
2886	0.191078
2898	0.174625
2910	0.202168
2922	0.278709
2934	0.435516
2946	0.686772
2958	0.546418
2970	0.532601
2982	0.442152
2994	0.160807
3006	0.0647229
3018	0.0321797
3030	0.0211804
3042	0.0156353
3054	0.0137264
3066	0.0134536
3078	0.0138173
3090	0.0131809
3102	0.0113629
3114	0.0103629
3126	0.00999933
3138	0.00945391
3150	0.00936301
3162	0.00981752
3174	0.0104538
3186	0.0103629
3198	0.00990843
3210	0.00872669
3222	0.00772675
3234	0.00672682
3246	0.00636321
3258	0.00681772
3270	0.00699953
3282	0.00645411
3294	0.00736314
3306	0.00745405
3318	0.00763585
3330	0.00763585
3342	0.00799946
3354	0.00836308
3366	0.0101811
3378	0.0111811
3390	0.01309
3402	0.0166352
3414	0.0203623
3426	0.0228167
3438	0.029089
3450	0.0488149
3462	0.0639957
3474	0.0442698
3486	0.0226348
3498	0.0142718
3510	0.0106357
3522	0.00890849
3534	0.00799946
3546	0.00681772
3558	0.00690863
3570	0.00681772
3582	0.00945391
3594	0.00509057
3606	0.00490876
3618	0.00527237
3630	0.0060905
3642	0.00481786
3654	0.00418154
3666	0.0129991
3678	0.0029089
3690	0.00499966
3702	0.00690863
3714	0.00518147
3726	0.00627231
3738	0.00181806
3750	0.0089994
3762	0.00663592
3774	0.00545418
3786	0.00754495
3798	0.00499966
3810	0.0115447
3822	0.00363612
3834	0.00627231
3846	0.00672682
3858	0.00572689
3870	0.00627231
3882	0.00636321
3894	0.00672682
3906	0.00872669
3918	0.00818127
3930	0.00799946
3942	0.0101811
3954	0.00936301
3966	0.0090903
