Infrared Spectrum: Heptadecane, 6,12-diethyl-9-pentyl-,
Formula: C 26 H 54
CAS: 15874-05-2
Origin: Sadtler Research Labs Under US-EPA Contract
1/CM	ABSORBANCE
450	0.00302345
462	0.00568409
474	0.00616784
486	0.00435377
498	0.00338626
510	0.00532127
522	0.00749816
534	0.00447471
546	0.0060469
558	0.00713534
570	0.00435377
582	0.00737722
594	0.00689347
606	0.00532127
618	0.00532127
630	0.00447471
642	0.00411189
654	0.00338626
666	0.0035072
678	0.00495846
690	0.0050794
702	0.00677253
714	0.0129404
726	0.0204385
738	0.0183826
750	0.0164476
762	0.0166894
774	0.0199548
786	0.0151173
798	0.013666
810	0.01161
822	0.00846566
834	0.00544221
846	0.00374908
858	0.00387002
870	0.00459564
882	0.00556315
894	0.00653065
906	0.00689347
918	0.00616784
930	0.00580502
942	0.00677253
954	0.00834472
966	0.00943316
978	0.00894941
990	0.00979598
1002	0.0126985
1014	0.0163266
1026	0.0172941
1038	0.0162057
1050	0.0159638
1062	0.0163266
1074	0.0165685
1086	0.0183826
1098	0.0205595
1110	0.0198338
1122	0.0171732
1134	0.0171732
1146	0.0168104
1158	0.0137869
1170	0.0133032
1182	0.0134241
1194	0.0129404
1206	0.0126985
1218	0.0131822
1230	0.0140288
1242	0.015601
1254	0.0181407
1266	0.0232201
1278	0.021527
1290	0.023462
1302	0.0260017
1314	0.0262435
1326	0.0268482
1338	0.0374908
1350	0.0469239
1362	0.0541802
1374	0.056478
1386	0.0699022
1398	0.0270901
1410	0.0222526
1422	0.0258807
1434	0.037128
1446	0.0784888
1458	0.155768
1470	0.132548
1482	0.0437796
1494	0.0191082
1506	0.0122147
1518	0.00749816
1530	0.00338626
1542	0.00314439
1554	0.00266064
1566	0.00181407
1578	0.00302345
1590	0.0025397
1602	0.00374908
1614	0.0035072
1626	0.0025397
1638	0.00266064
1650	0.000483752
1662	0.00181407
1674	0.00169313
1686	0.00483752
1698	0.00894941
1710	0.0186245
1722	0.0355558
1734	0.0349511
1746	0.021406
1758	0.0147544
1770	0.0130613
1782	0.0105216
1794	0.00882847
1806	0.00870754
1818	0.00471658
1830	0.00108844
1842	0.000120938
1854	0
1866	0
1878	0.000120938
1890	0.000241876
1902	0
1914	0.000241876
1926	0.00060469
1938	0.000120938
1950	0.000241876
1962	0.000241876
1974	0.000120938
1986	0.000120938
1998	0.000241876
2010	0.000362814
2022	0.000967504
2034	0.00133032
2046	0.00133032
2058	0.00133032
2070	0.000967504
2082	0.000846566
2094	0.000967504
2106	0.000967504
2118	0.000846566
2130	0.000725628
2142	0.000483752
2154	0.000846566
2166	0.00108844
2178	0.00108844
2190	0.000967504
2202	0.000967504
2214	0.000967504
2226	0.00108844
2238	0.00133032
2250	0.00157219
2262	0.00145126
2274	0.00205595
2286	0.00314439
2298	0.00568409
2310	0.00737722
2322	0.00761909
2334	0.00580502
2346	0.00725628
2358	0.0070144
2370	0.00568409
2382	0.00640971
2394	0.0025397
2406	0.00266064
2418	0.0025397
2430	0.0025397
2442	0.00193501
2454	0.00217688
2466	0.00193501
2478	0.00229782
2490	0.00241876
2502	0.00302345
2514	0.00362814
2526	0.00435377
2538	0.00532127
2550	0.00616784
2562	0.0070144
2574	0.00786097
2586	0.00894941
2598	0.0095541
2610	0.0105216
2622	0.0110054
2634	0.0113682
2646	0.0126985
2658	0.0143916
2670	0.0160848
2682	0.0166894
2694	0.0174151
2706	0.0178988
2718	0.0193501
2730	0.0217688
2742	0.0239457
2754	0.0229782
2766	0.023462
2778	0.0272111
2790	0.0336208
2802	0.0428121
2814	0.0549059
2826	0.0740141
2838	0.111142
2850	0.230387
2862	0.487138
2874	0.49246
2886	0.43574
2898	0.385429
2910	0.57252
2922	0.913203
2934	1.20938
2946	0.837133
2958	0.619323
2970	0.805931
2982	0.298596
2994	0.142223
3006	0.08768
3018	0.0626459
3030	0.0466821
3042	0.0357976
3054	0.029267
3066	0.0246714
3078	0.0224945
3090	0.019592
3102	0.0172941
3114	0.0149963
3126	0.0130613
3138	0.0113682
3150	0.00991692
3162	0.00882847
3174	0.00774003
3186	0.00737722
3198	0.0060469
3210	0.0050794
3222	0.00338626
3234	0.00290251
3246	0.00302345
3258	0.00205595
3270	0.00217688
3282	0.00229782
3294	0.00229782
3306	0.00181407
3318	0.00217688
3330	0.00169313
3342	0.00241876
3354	0.00181407
3366	0.00181407
3378	0.00229782
3390	0.00181407
3402	0.00193501
3414	0.00193501
3426	0.00241876
3438	0.00278157
3450	0.00181407
3462	0.00193501
3474	0.00169313
3486	0.00108844
3498	0.00181407
3510	0.00145126
3522	0.00145126
3534	0.00133032
3546	0.00278157
3558	0.00205595
3570	0.00483752
3582	0.00338626
3594	0.00302345
3606	0.00229782
3618	0.00193501
3630	0.00483752
3642	0.00314439
3654	0.00278157
3666	0.00314439
3678	0.00374908
3690	0.00278157
3702	0.00338626
3714	0.00229782
3726	0.00326533
3738	0.00399095
3750	0.00217688
3762	0.00181407
3774	0.00205595
3786	0.00169313
3798	0.00266064
3810	0.00229782
3822	0.00302345
3834	0.00217688
3846	0.00241876
3858	0.00314439
3870	0.00169313
3882	0.00290251
3894	0.00169313
3906	0.00290251
3918	0.00326533
3930	0.00205595
3942	0.00169313
3954	0.00278157
3966	0.00266064
