Infrared Spectrum: Cyclohexanone, 5-methyl-2-(1-methylethylidene)-
Formula: C 10 H 16 O
CAS: 15932-80-6
Origin: Sadtler Research Labs Under US-EPA Contract
1/CM	ABSORBANCE
450	0.0126643
462	0.00958535
474	0.00917869
486	0.00923679
498	0.00761018
510	0.0066226
522	0.0153366
534	0.0164403
546	0.00946916
558	0.00970153
570	0.00790065
582	0.00348558
594	0.000639023
606	0.00447316
618	0.0106891
630	0.0226563
642	0.033752
654	0.0339844
666	0.0200421
678	0.0205649
690	0.0119091
702	0.0101082
714	0.00604167
726	0.00406651
738	0.00470553
750	0.00197516
762	0.000929488
774	0.00273037
786	0.00336939
798	0.00156851
810	0.00133614
822	0.00209135
834	0.00424079
846	0.00534456
858	0.00929488
870	0.0183574
882	0.0216106
894	0.0161499
906	0.013768
918	0.0140004
930	0.0209135
942	0.0237019
954	0.0205649
966	0.0192869
978	0.0186479
990	0.0253285
1002	0.0355529
1014	0.0545493
1026	0.0740686
1038	0.0522256
1050	0.0290465
1062	0.0282332
1074	0.0418851
1086	0.0589063
1098	0.0755209
1110	0.0715125
1122	0.0970734
1134	0.110202
1146	0.0680269
1158	0.0425822
1170	0.0429307
1182	0.0512961
1194	0.0957373
1206	0.174686
1218	0.1048
1230	0.071861
1242	0.0700602
1254	0.0491467
1266	0.0634956
1278	0.149241
1290	0.170503
1302	0.0528646
1314	0.0392709
1326	0.0494371
1338	0.0607653
1350	0.0548398
1362	0.0713382
1374	0.110435
1386	0.126643
1398	0.0620433
1410	0.0434536
1422	0.0641347
1434	0.0740105
1446	0.108402
1458	0.126004
1470	0.0959115
1482	0.0485077
1494	0.0274199
1506	0.0215525
1518	0.0206811
1530	0.0208554
1542	0.0235277
1554	0.0286979
1566	0.0347977
1578	0.0470553
1590	0.0632633
1602	0.0806912
1614	0.112526
1626	0.151797
1638	0.119149
1650	0.059313
1662	0.0538522
1674	0.0869652
1686	0.221973
1698	0.482172
1710	0.341645
1722	0.170329
1734	0.115489
1746	0.056873
1758	0.0457773
1770	0.0221915
1782	0.0293951
1794	0.039968
1806	0.0188221
1818	0.00801683
1830	0.00575121
1842	0.0033113
1854	0.00302084
1866	0.00273037
1878	0.00278846
1890	0.00278846
1902	0.00273037
1914	0.00307893
1926	0.00302084
1938	0.00243991
1950	0.00214944
1962	0.00185898
1974	0.00156851
1986	0.00174279
1998	0.00104567
2010	0.000813302
2022	0.00058093
2034	0.00110377
2046	0.000871395
2058	0.00156851
2070	0.00243991
2082	0.00307893
2094	0.00238181
2106	0.0016266
2118	0.00139423
2130	0.00220753
2142	0.0016847
2154	0.00174279
2166	0.00180088
2178	0.00203325
2190	0.00255609
2202	0.00278846
2214	0.00342749
2226	0.00307893
2238	0.00243991
2250	0.00220753
2262	0.00214944
2274	0.00220753
2286	0.00284656
2298	0.00290465
2310	0.00336939
2322	0.00447316
2334	0.00255609
2346	0.000174279
2358	0.00546074
2370	5.8093e-05
2382	5.8093e-05
2394	0.00185898
2406	0.00273037
2418	0.00214944
2430	0.0016847
2442	0.00145232
2454	0.00145232
2466	0.00151042
2478	0.00110377
2490	0.000755209
2502	0.000174279
2514	0.00058093
2526	0.000871395
2538	0.00110377
2550	0.00145232
2562	0.00156851
2574	0.00180088
2586	0.00127805
2598	0.00116186
2610	0.000639023
2622	0.00139423
2634	0.00278846
2646	0.00302084
2658	0.00511218
2670	0.00424079
2682	0.00482172
2694	0.00551883
2706	0.00511218
2718	0.0066226
2730	0.0117348
2742	0.0154527
2754	0.011851
2766	0.0105148
2778	0.0099339
2790	0.0127224
2802	0.0166727
2814	0.0225982
2826	0.0351463
2838	0.0580349
2850	0.133382
2862	0.19467
2874	0.241783
2886	0.29581
2898	0.239982
2910	0.320034
2922	0.501865
2934	0.572042
2946	0.396833
2958	0.458935
2970	0.500762
2982	0.200188
2994	0.0947497
3006	0.0676203
3018	0.0583835
3030	0.0458935
3042	0.0339263
3054	0.0248638
3066	0.019345
3078	0.0166727
3090	0.0115605
3102	0.00894632
3114	0.00714544
3126	0.00714544
3138	0.00650642
3150	0.00697116
3162	0.00708735
3174	0.00546074
3186	0.00639023
3198	0.00679688
3210	0.00441507
3222	0.00342749
3234	0.00336939
3246	0.00464744
3258	0.00482172
3270	0.0041827
3282	0.00267228
3294	0.00453125
3306	0.00377605
3318	0.00226563
3330	0.002498
3342	0.00453125
3354	0.00406651
3366	0.00487981
3378	0.00609977
3390	0.00691307
3402	0.00389223
3414	0.002498
3426	0.00284656
3438	0.00261419
3450	0.00319512
3462	0.00214944
3474	0.00348558
3486	0.00267228
3498	0.00185898
3510	0.000116186
3522	0.00191707
3534	0.00598358
3546	0.00627404
3558	0.00482172
3570	0.00604167
3582	0.00458935
3594	0.0041246
3606	0.00156851
3618	0.00336939
3630	0.00302084
3642	0.0041827
3654	0.0041246
3666	0.00371795
3678	0.00203325
3690	0.00406651
3702	0.0016266
3714	0.00139423
3726	0.00174279
3738	0.000639023
3750	0.00435697
3762	0.00267228
3774	0.00220753
3786	0.00365986
3798	0.00203325
3810	0.00470553
3822	0.00191707
3834	0.00296274
3846	0.00563502
3858	0.00255609
3870	0.00302084
3882	0.00325321
3894	0.00383414
3906	0.00139423
3918	0.00429888
3930	0.00290465
3942	0.004996
3954	0.00238181
3966	0.00737781
