Infrared Spectrum: Benzenesulfonyl chloride, 2,4,5-trichloro-
Formula: C 6 H 2 Cl 4 O 2 S
CAS: 15945-07-0
Origin: Sadtler Research Labs Under US-EPA Contract
1/CM	ABSORBANCE
450	0.00873729
462	0.0151493
474	0.0853999
486	0.028819
498	0.0138106
510	0.0174041
522	0.0452366
534	0.0486188
546	0.0839907
558	0.403324
570	0.649307
582	0.0558059
594	0.0291713
606	0.0458708
618	0.074126
630	0.12507
642	0.0902618
654	0.16009
666	0.027762
678	0.03051
690	0.113937
702	0.00718712
714	0.000281848
726	0.00225478
738	0.00641204
750	0.0035231
762	0.0020434
774	0.0029594
786	0.00176155
798	0.00169109
810	0.00916006
822	0.00986468
834	0.00359356
846	0.00817359
858	0.0214909
870	0.124929
882	0.185386
894	0.0507326
906	0.0419249
918	0.0050028
930	0.00253663
942	0.00218432
954	0.00133878
966	7.0462e-05
978	0.00070462
990	0.00126832
1002	0.00225478
1014	0.00302987
1026	0.00711666
1038	0.0138106
1050	0.0381904
1062	0.186231
1074	0.15255
1086	0.0266346
1098	0.0235343
1110	0.0632044
1122	0.109427
1134	0.0791288
1146	0.0894867
1158	0.116756
1170	0.0776491
1182	0.308694
1194	0.50331
1206	0.0691937
1218	0.0477028
1230	0.0451661
1242	0.0552422
1254	0.0276211
1266	0.0193066
1278	0.00951237
1290	0.0153607
1302	0.0298759
1314	0.0822996
1326	0.107807
1338	0.0685595
1350	0.0569333
1362	0.0558764
1374	0.0825815
1386	0.0898391
1398	0.185315
1410	0.551929
1422	0.10675
1434	0.23633
1446	0.263669
1458	0.146138
1470	0.0515782
1482	0.0209977
1494	0.0146561
1506	0.0205749
1518	0.0294531
1530	0.0652478
1542	0.0610201
1554	0.0312147
1566	0.0670094
1578	0.0380495
1590	0.0176155
1602	0.00641204
1614	0.00380495
1626	0.00514373
1638	0.00458003
1650	0.00627112
1662	0.0014797
1674	0.00542557
1686	0.00753943
1698	0.0085259
1710	0.00373449
1722	0.0055665
1734	0.0128241
1746	0.0116262
1758	0.00894867
1770	0.0110625
1782	0.00662343
1794	0.00838498
1806	0.00605973
1818	0.0020434
1830	0.00345264
1842	0.00253663
1854	0.000281848
1866	0.00162063
1878	0.000493234
1890	0.00190247
1902	0.00105693
1914	0.000916006
1926	0.000493234
1938	0.000493234
1950	0
1962	0.000281848
1974	0.000563696
1986	0.000563696
1998	0.000493234
2010	0.000211386
2022	0.000563696
2034	0.000140924
2046	0.000281848
2058	0.00035231
2070	0.000634158
2082	0.000211386
2094	0.000775082
2106	0.000140924
2118	0.00035231
2130	0.000845544
2142	0
2154	0.00035231
2166	0.000634158
2178	0.000916006
2190	0.000845544
2202	0.00070462
2214	0.00070462
2226	0.000563696
2238	0.000281848
2250	0.00035231
2262	0.00070462
2274	0.00105693
2286	0.00140924
2298	0.00239571
2310	0.0040868
2322	0.00591881
2334	0.00598927
2346	0.00507326
2358	0.00436864
2370	0.00126832
2382	0.00126832
2394	0.000281848
2406	0.000281848
2418	0.000563696
2430	0.00105693
2442	0.000986468
2454	0.000986468
2466	0.00155016
2478	0.00197294
2490	0.00267756
2502	0.0035231
2514	0.0040868
2526	0.00190247
2538	0.000845544
2550	0.00105693
2562	0.00190247
2574	0.00281848
2586	0.00359356
2598	0.00239571
2610	0.000845544
2622	0.000986468
2634	0.000986468
2646	0.000634158
2658	0.000986468
2670	0.00162063
2682	0.00169109
2694	0.00133878
2706	0.00126832
2718	0.000916006
2730	0.00155016
2742	0.0014797
2754	0.00253663
2766	0.0029594
2778	0.00387541
2790	0.00246617
2802	0.00260709
2814	0.00197294
2826	0.00197294
2838	0.00190247
2850	0.00176155
2862	0.00190247
2874	0.00232525
2886	0.00232525
2898	0.00197294
2910	0.00211386
2922	0.00162063
2934	0.00225478
2946	0.0035231
2958	0.00288894
2970	0.00359356
2982	0.00507326
2994	0.00436864
3006	0.00373449
3018	0.00317079
3030	0.00288894
3042	0.00281848
3054	0.00317079
3066	0.00443911
3078	0.00965329
3090	0.0190247
3102	0.0310033
3114	0.00479142
3126	0.00288894
3138	0.00253663
3150	0.00260709
3162	0.00253663
3174	0.00246617
3186	0.00218432
3198	0.00239571
3210	0.00218432
3222	0.00218432
3234	0.00232525
3246	0.00232525
3258	0.00162063
3270	0.00169109
3282	0.00169109
3294	0.00126832
3306	0.00112739
3318	0.000634158
3330	0.00070462
3342	0.000634158
3354	0.00070462
3366	0.000916006
3378	0.000211386
3390	0.000563696
3402	0.00070462
3414	0.000422772
3426	0.00035231
3438	0.000493234
3450	0.000281848
3462	0.000211386
3474	0.000493234
3486	0.000775082
3498	0.00070462
3510	0.000422772
3522	0.000281848
3534	0.00070462
3546	0.000916006
3558	0.000986468
3570	0.00281848
3582	0.0040868
3594	0.00218432
3606	0.00169109
3618	0.00119785
3630	0.00246617
3642	0.00112739
3654	0.00162063
3666	0.00133878
3678	0.00239571
3690	0.0020434
3702	0.00253663
3714	0.0020434
3726	0.00310033
3738	0.00169109
3750	0.00126832
3762	0.000986468
3774	0.00105693
3786	0.00218432
3798	0.00070462
3810	0.000634158
3822	0.000634158
3834	0.000775082
3846	0.00119785
3858	0.00183201
3870	0.000634158
3882	0.000845544
3894	0
3906	0.00267756
3918	0.00176155
3930	0.00232525
3942	0.000986468
3954	0.00239571
3966	0.0014797
