Infrared Spectrum: Phenol, 2,3,4-trichloro-
Formula: C 6 H 3 Cl 3 O
CAS: 15950-66-0
Origin: Sadtler Research Labs Under US-EPA Contract
1/CM	ABSORBANCE
450	0
462	0.038518
474	0.0184307
486	0.0270247
498	0.0606762
510	0.0523928
522	0.0295098
534	0.0502184
546	0.0141854
558	0.0626435
570	0.0374826
582	0.0344798
594	0.0247468
606	0.0174988
618	0.0223653
630	0.0254716
642	0.0261964
654	0.0323054
666	0.0317877
678	0.125701
690	0.105096
702	0.0322019
714	0.0345834
726	0.0278531
738	0.0235043
750	0.0279566
762	0.0465943
774	0.165358
786	0.234525
798	0.133156
810	0.203876
822	0.085423
834	0.0256787
846	0.0249539
858	0.0212263
870	0.0171881
882	0.0216405
894	0.0261964
906	0.0470085
918	0.150759
930	0.158835
942	0.0307523
954	0.0219511
966	0.0220547
978	0.0230901
990	0.0254716
1002	0.0195696
1014	0.0180165
1026	0.0148066
1038	0.0206051
1050	0.0194661
1062	0.0234007
1074	0.0319948
1086	0.0406924
1098	0.0330302
1110	0.0266106
1122	0.0371719
1134	0.0548778
1146	0.0509432
1158	0.0786927
1170	0.150655
1182	0.271697
1194	0.462423
1206	0.275839
1218	0.152622
1230	0.0684419
1242	0.0363436
1254	0.0622293
1266	0.18907
1278	0.289299
1290	0.156971
1302	0.0969162
1314	0.106442
1326	0.0529105
1338	0.0184307
1350	0.0200873
1362	0.0179129
1374	0.0245397
1386	0.0571557
1398	0.132949
1410	0.0848017
1422	0.0375861
1434	0.0996084
1446	0.722523
1458	0.870693
1470	0.106132
1482	0.0651285
1494	0.0423491
1506	0.0222617
1518	0.0241255
1530	0.0128393
1542	0.0173952
1554	0.0502184
1566	0.0830415
1578	0.0932922
1590	0.129843
1602	0.0727907
1614	0.0517715
1626	0.024022
1638	0.0155314
1650	0.0100437
1662	0.0136677
1674	0.012011
1686	0.0111826
1698	0.00838698
1710	0.0148066
1722	0.0124252
1734	0.0103543
1746	0.014496
1758	0.0121145
1770	0.0102508
1782	0.0121145
1794	0.0100437
1806	0.0125287
1818	0.0130464
1830	0.0104578
1842	0.0126322
1854	0.0173952
1866	0.0250574
1878	0.0227795
1890	0.0132535
1902	0.0135641
1914	0.0125287
1926	0.0128393
1938	0.0129429
1950	0.0140818
1962	0.0145996
1974	0.0135641
1986	0.0134606
1998	0.0140818
2010	0.0130464
2022	0.0111826
2034	0.0110791
2046	0.0121145
2058	0.0114933
2070	0.0111826
2082	0.0107685
2094	0.0109756
2106	0.0115968
2118	0.0121145
2130	0.0115968
2142	0.0106649
2154	0.0101472
2166	0.0118039
2178	0.0114933
2190	0.0122181
2202	0.0130464
2214	0.0111826
2226	0.0113897
2238	0.0113897
2250	0.0122181
2262	0.0123216
2274	0.0124252
2286	0.0126322
2298	0.0142889
2310	0.0145996
2322	0.0147031
2334	0.0121145
2346	0.0145996
2358	0.0130464
2370	0.0168775
2382	0.0152208
2394	0.0102508
2406	0.00911178
2418	0.00880115
2430	0.00797281
2442	0.00838698
2454	0.00952596
2466	0.00973304
2478	0.0118039
2490	0.012011
2502	0.0128393
2514	0.0126322
2526	0.00952596
2538	0.0102508
2550	0.00880115
2562	0.00797281
2574	0.00952596
2586	0.0105614
2598	0.00983659
2610	0.00838698
2622	0.00807635
2634	0.00766218
2646	0.00921533
2658	0.0074551
2670	0.00766218
2682	0.00662675
2694	0.00507361
2706	0.00600549
2718	0.00735155
2730	0.00652321
2742	0.00693738
2754	0.00714447
2766	0.00797281
2778	0.00786927
2790	0.00714447
2802	0.00662675
2814	0.00621258
2826	0.00673029
2838	0.00693738
2850	0.00559132
2862	0.00704092
2874	0.00704092
2886	0.00590195
2898	0.00559132
2910	0.00465943
2922	0.00279566
2934	0.00517715
2946	0.00880115
2958	0.00849053
2970	0.00911178
2982	0.00973304
2994	0.00942241
3006	0.0102508
3018	0.0105614
3030	0.0119074
3042	0.0118039
3054	0.010872
3066	0.0123216
3078	0.0155314
3090	0.0142889
3102	0.012011
3114	0.0102508
3126	0.00994013
3138	0.0105614
3150	0.0123216
3162	0.0127358
3174	0.0117004
3186	0.010872
3198	0.0129429
3210	0.0114933
3222	0.0111826
3234	0.0103543
3246	0.00994013
3258	0.00994013
3270	0.0114933
3282	0.0134606
3294	0.00994013
3306	0.00921533
3318	0.00911178
3330	0.00869761
3342	0.010872
3354	0.00994013
3366	0.0104578
3378	0.0114933
3390	0.00786927
3402	0.00590195
3414	0.00983659
3426	0.0101472
3438	0.00900824
3450	0.0102508
3462	0.0105614
3474	0.0102508
3486	0.0100437
3498	0.0109756
3510	0.0134606
3522	0.0135641
3534	0.0140818
3546	0.0207086
3558	0.0822131
3570	0.380417
3582	0.223239
3594	0.0349975
3606	0.0187413
3618	0.0152208
3630	0.0147031
3642	0.0266106
3654	0.0323054
3666	0.0197767
3678	0.0165669
3690	0.0151173
3702	0.016774
3714	0.0153244
3726	0.0169811
3738	0.0225724
3750	0.030131
3762	0.0206051
3774	0.0187413
3786	0.0191555
3798	0.0174988
3810	0.0184307
3822	0.0193625
3834	0.0182236
3846	0.0182236
3858	0.0199838
3870	0.0214334
3882	0.0206051
3894	0.0159456
3906	0.0178094
3918	0.0202944
3930	0.0180165
3942	0.0220547
3954	0.016774
3966	0.0271283
