Infrared Spectrum: 2-Thiazolamine, 4-methyl-
Formula: C 4 H 6 N 2 S
CAS: 1603-91-4
Origin: Sadtler Research Labs Under US-EPA Contract
1/CM	ABSORBANCE
450	0.0710178
462	0.061073
474	0.057914
486	0.057329
498	0.0527661
510	0.0394283
522	0.0218786
534	0.0168477
546	0.0343974
558	0.0643489
570	0.0765167
582	0.133612
594	0.155607
606	0.114541
618	0.0796756
630	0.133963
642	0.150225
654	0.127177
666	0.133729
678	0.21317
690	0.329583
702	0.24359
714	0.17655
726	0.132325
738	0.152682
750	0.139462
762	0.0880995
774	0.061307
786	0.0460972
798	0.0368544
810	0.0322914
822	0.0341634
834	0.0668059
846	0.0720708
858	0.055925
870	0.0135718
882	0.00701988
894	0.00421193
906	0.00198897
918	0.000350994
930	0.00935984
942	0.0374394
954	0.0969913
966	0.109276
978	0.060605
990	0.0380243
1002	0.0320575
1014	0.0150927
1026	0.0101788
1038	0.0140398
1050	0.0133378
1062	0.0195387
1074	0.0548721
1086	0.140164
1098	0.168594
1110	0.13642
1122	0.0768677
1134	0.0840046
1146	0.0718368
1158	0.0422363
1170	0.0174327
1182	0.0167307
1194	0.0177837
1206	0.0229316
1218	0.0304195
1230	0.0397793
1242	0.058733
1254	0.0990973
1266	0.177252
1278	0.225104
1290	0.246515
1302	0.295069
1314	0.59669
1326	0.743288
1338	0.551295
1350	0.265234
1362	0.236102
1374	0.286879
1386	0.247685
1398	0.0972253
1410	0.0391943
1422	0.0492562
1434	0.0677418
1446	0.107521
1458	0.0983953
1470	0.0767507
1482	0.0822496
1494	0.177135
1506	0.526374
1518	1.04491
1530	1.16998
1542	0.684321
1554	0.4061
1566	0.260087
1578	0.269329
1590	0.500751
1602	0.759317
1614	0.712635
1626	0.327009
1638	0.115594
1650	0.056978
1662	0.0390773
1674	0.0318235
1686	0.0290155
1698	0.0169647
1710	0.0113488
1722	0.00935984
1734	0.0058499
1746	0.0060839
1758	0.00690288
1770	0.00947684
1782	0.0122848
1794	0.00971083
1806	0.00959384
1818	0.0057329
1830	0.00163797
1842	0.00257396
1854	0.00233996
1866	0.00292495
1878	0.00374394
1890	0.00198897
1902	0.00304195
1914	0.00514791
1926	0.00514791
1938	0.00421193
1950	0.00444592
1962	0.00620089
1974	0.0104128
1986	0.0122848
1998	0.0100618
2010	0.00631789
2022	0.00467992
2034	0.00479692
2046	0.00631789
2058	0.00643489
2070	0.00830686
2082	0.00690288
2094	0.00620089
2106	0.00807286
2118	0.00725388
2130	0.00292495
2142	0.000350994
2154	0.000233996
2166	0.000350994
2178	0.00152097
2190	0.00292495
2202	0.00374394
2214	0.00339294
2226	0.00257396
2238	0.00257396
2250	0.00292495
2262	0.00386093
2274	0.00620089
2286	0.00795586
2298	0.00935984
2310	0.00971083
2322	0.00842386
2334	0.00666889
2346	0.00982783
2358	0.00854085
2370	0.00748787
2382	0.00737087
2394	0.000233996
2406	0.000116998
2418	0.000935984
2430	0.00105298
2442	0.000701988
2454	0.00058499
2466	0.000116998
2478	0.000467992
2490	0.000350994
2502	0.000116998
2514	0.000350994
2526	0.000935984
2538	0.000935984
2550	0.00105298
2562	0.00128698
2574	0.00187197
2586	0.00362694
2598	0.00701988
2610	0.00959384
2622	0.00842386
2634	0.00503091
2646	0.00386093
2658	0.00479692
2670	0.00549891
2682	0.00737087
2694	0.00889185
2706	0.00842386
2718	0.00643489
2730	0.00725388
2742	0.00912584
2754	0.00889185
2766	0.00772187
2778	0.00971083
2790	0.0131038
2802	0.0146247
2814	0.0133378
2826	0.0141568
2838	0.0205916
2850	0.0312385
2862	0.0513621
2874	0.0683268
2886	0.0661039
2898	0.0534681
2910	0.0459802
2922	0.10366
2934	0.188601
2946	0.175965
2958	0.0909074
2970	0.124603
2982	0.119338
2994	0.0951194
3006	0.0615409
3018	0.0284305
3030	0.0233996
3042	0.0239846
3054	0.0235166
3066	0.0266755
3078	0.0250376
3090	0.0208256
3102	0.0202407
3114	0.0233996
3126	0.0215276
3138	0.0142738
3150	0.00655189
3162	0.0060839
3174	0.00701988
3186	0.00725388
3198	0.00737087
3210	0.00690288
3222	0.00678588
3234	0.00818986
3246	0.00865785
3258	0.00912584
3270	0.00807286
3282	0.00526491
3294	0.00257396
3306	0.00233996
3318	0.00163797
3330	0.00198897
3342	0.00222296
3354	0.00386093
3366	0.00924284
3378	0.0251546
3390	0.0793246
3402	0.196557
3414	0.232124
3426	0.139579
3438	0.0483202
3450	0.0200067
3462	0.0179007
3474	0.0291325
3486	0.0787397
3498	0.148704
3510	0.168126
3522	0.100501
3534	0.0458632
3546	0.0141568
3558	0.00538191
3570	0.00514791
3582	0.00210596
3594	0.00292495
3606	0.000467992
3618	0.00198897
3630	0.00479692
3642	0.00128698
3654	0.00292495
3666	0.00269095
3678	0.00795586
3690	0.00409493
3702	0.00409493
3714	0.00292495
3726	0.00409493
3738	0.00339294
3750	0.00187197
3762	0.000701988
3774	0.000818986
3786	0
3798	0
3810	0
3822	0.00128698
3834	0.000701988
3846	0.00245696
3858	0.00666889
3870	0.00538191
3882	0.00304195
3894	0.00245696
3906	0.00374394
3918	0.00315895
3930	0.00269095
3942	0.00245696
3954	0.00444592
3966	0.00479692
