Infrared Spectrum: Butanedioic acid, methyl-, dimethyl ester
Formula: C 7 H 12 O 4
CAS: 1604-11-1
Origin: Sadtler Research Labs Under US-EPA Contract
1/CM	ABSORBANCE
450	0.0303514
462	0.00963072
474	0.0148838
486	0
498	0.00919296
510	0.0161971
522	0.00904704
534	0.00744192
546	0.0102144
558	0.0065664
570	0.010944
582	0.0102144
594	0.00496128
606	0.00992256
618	0.0102144
630	0.0180941
642	0.030935
654	0.0153216
666	0.00700416
678	0.00846336
690	0.00612864
702	0.00554496
714	0.00539904
726	0.003648
738	0.00554496
750	0.0140083
762	0.0207206
774	0.0192614
786	0.0170726
798	0.0132787
810	0.0196992
822	0.0361882
834	0.0627456
846	0.058368
858	0.0332698
870	0.027287
882	0.0357504
894	0.0350208
906	0.0293299
918	0.0227635
930	0.0170726
942	0.0112358
954	0.00919296
966	0.00860928
978	0.019991
990	0.0579302
1002	0.0979123
1014	0.152632
1026	0.109294
1038	0.0671232
1050	0.115277
1062	0.21567
1074	0.150298
1086	0.134246
1098	0.140229
1110	0.147963
1122	0.190717
1134	0.214502
1146	0.3022
1158	0.715446
1170	1.03122
1182	0.715446
1194	0.623516
1206	0.569964
1218	0.449142
1230	0.407117
1242	0.397486
1254	0.417623
1266	0.370637
1278	0.349478
1290	0.363779
1302	0.253609
1314	0.177001
1326	0.158469
1338	0.160074
1350	0.208957
1362	0.199764
1374	0.151173
1386	0.11732
1398	0.0679987
1410	0.0577843
1422	0.0767539
1434	0.200494
1446	0.26966
1458	0.138624
1470	0.140667
1482	0.0717926
1494	0.0373555
1506	0.0299136
1518	0.0262656
1530	0.0242227
1542	0.0261197
1554	0.0224717
1566	0.0210125
1578	0.0192614
1590	0.0167808
1602	0.0156134
1614	0.0137165
1626	0.0131328
1638	0.0148838
1650	0.0161971
1662	0.0140083
1674	0.0186778
1686	0.0252442
1698	0.0373555
1710	0.0643507
1722	0.120384
1734	0.25142
1746	0.659412
1758	1.39076
1770	1.0445
1782	0.356337
1794	0.124032
1806	0.0507802
1818	0.0290381
1830	0.019991
1842	0.0138624
1854	0.0102144
1866	0.0100685
1878	0.0087552
1890	0.00933888
1902	0.00890112
1914	0.00919296
1926	0.00831744
1938	0.00817152
1950	0.00890112
1962	0.00933888
1974	0.0112358
1986	0.0131328
1998	0.0137165
2010	0.0143002
2022	0.0160512
2034	0.0153216
2046	0.0161971
2058	0.0143002
2070	0.012841
2082	0.0112358
2094	0.0103603
2106	0.00963072
2118	0.0080256
2130	0.00744192
2142	0.00612864
2154	0.00569088
2166	0.00598272
2178	0.0058368
2190	0.00598272
2202	0.00525312
2214	0.00481536
2226	0.00452352
2238	0.00452352
2250	0.0043776
2262	0.00466944
2274	0.0043776
2286	0.00466944
2298	0.00408576
2310	0.0051072
2322	0.00598272
2334	0.00642048
2346	0.00539904
2358	0.00612864
2370	0.0051072
2382	0.00393984
2394	0.00525312
2406	0.00481536
2418	0.00452352
2430	0.00481536
2442	0.00423168
2454	0.00379392
2466	0.00350208
2478	0.00321024
2490	0.00321024
2502	0.00335616
2514	0.00335616
2526	0.00335616
2538	0.00393984
2550	0.00306432
2562	0.0029184
2574	0.00408576
2586	0.00496128
2598	0.00598272
2610	0.00642048
2622	0.00539904
2634	0.0043776
2646	0.00569088
2658	0.00408576
2670	0.0014592
2682	0.0007296
2694	0.00102144
2706	0.0014592
2718	0.0014592
2730	0.0021888
2742	0.00248064
2754	0.00350208
2766	0.003648
2778	0.00350208
2790	0.00539904
2802	0.00525312
2814	0.00700416
2826	0.0105062
2838	0.0213043
2850	0.0550118
2862	0.0417331
2874	0.0256819
2886	0.0503424
2898	0.0720845
2910	0.0728141
2922	0.0846336
2934	0.100685
2946	0.150006
2958	0.321024
2970	0.273746
2982	0.171164
2994	0.192468
3006	0.127826
3018	0.0825907
3030	0.0750029
3042	0.0499046
3054	0.0293299
3066	0.0198451
3078	0.016489
3090	0.0161971
3102	0.014592
3114	0.0125491
3126	0.00904704
3138	0.0080256
3150	0.00685824
3162	0.00321024
3174	0.00481536
3186	0.00525312
3198	0.00452352
3210	0.00481536
3222	0.00379392
3234	0.00335616
3246	0.0043776
3258	0.00496128
3270	0.00408576
3282	0.00408576
3294	0.0043776
3306	0.00248064
3318	0.00408576
3330	0.0043776
3342	0.00233472
3354	0.00393984
3366	0.00379392
3378	0.00335616
3390	0.00408576
3402	0.00393984
3414	0.00466944
3426	0.0065664
3438	0.00408576
3450	0.0051072
3462	0.0058368
3474	0.0080256
3486	0.00904704
3498	0.0148838
3510	0.0135706
3522	0.00933888
3534	0.0058368
3546	0.0029184
3558	0.00306432
3570	0.00393984
3582	0.00306432
3594	0.00379392
3606	0.003648
3618	0.003648
3630	0.00569088
3642	0.00452352
3654	0.0051072
3666	0.00335616
3678	0.00539904
3690	0.00321024
3702	0.00408576
3714	0.00525312
3726	0.00379392
3738	0.00350208
3750	0.00233472
3762	0.00204288
3774	0.00204288
3786	0.0014592
3798	0.00379392
3810	0.00452352
3822	0.00306432
3834	0.00160512
3846	0.0007296
3858	0.0007296
3870	0.00058368
3882	0.00189696
3894	0.0014592
3906	0.00058368
3918	0.00277248
3930	0.00175104
3942	0.00087552
3954	0.00248064
3966	0.00058368
