Infrared Spectrum: Bis(dimethylamino)phosphinic chloride
Formula: C 4 H 12 Cl N 2 O P
CAS: 1605-65-8
Origin: Sadtler Research Labs Under US-EPA Contract
1/CM	ABSORBANCE
450	0.081669
462	0.0884585
474	0.0762505
486	0.0594728
498	0.0447189
510	0.0347958
522	0.0567309
534	0.174567
546	0.291227
558	0.15792
570	0.0325109
582	0.017757
594	0.0107064
606	0.0104453
618	0.00900905
630	0.0151457
642	0.0234366
654	0.0809509
666	0.223333
678	0.17757
690	0.0471343
702	0.0302913
714	0.0295732
726	0.0665887
738	0.202312
750	0.206621
762	0.064826
774	0.0199766
786	0.00757283
798	0.00411283
810	0.000522264
822	0.00300302
834	0.00300302
846	0.00476566
858	0.00672415
870	0.00829094
882	0.0170389
894	0.0334249
906	0.0612355
918	0.0778173
930	0.0831053
942	0.106542
954	0.186644
966	0.404167
978	0.599167
990	0.65283
1002	0.345869
1014	0.138596
1026	0.0810815
1038	0.0630634
1050	0.0681555
1062	0.0898947
1074	0.0853249
1086	0.0480483
1098	0.0355792
1110	0.0321845
1122	0.0344041
1134	0.0453064
1146	0.0769034
1158	0.116595
1170	0.142839
1182	0.147344
1194	0.127824
1206	0.0915268
1218	0.0711585
1230	0.0893071
1242	0.142578
1254	0.237304
1266	0.25382
1278	0.241417
1290	0.362843
1302	0.409977
1314	0.288681
1326	0.134875
1338	0.0715502
1350	0.0488317
1362	0.03114
1374	0.0250687
1386	0.0208253
1398	0.020303
1410	0.0205641
1422	0.0236324
1434	0.0368849
1446	0.0699181
1458	0.0947909
1470	0.100014
1482	0.0856513
1494	0.0576449
1506	0.0309441
1518	0.0193238
1530	0.0165819
1542	0.0126649
1554	0.0152109
1566	0.0141664
1578	0.0116857
1590	0.0118815
1602	0.0114898
1614	0.01038
1626	0.00855207
1638	0.00868264
1650	0.00776868
1662	0.00659358
1674	0.00417811
1686	0.00202377
1698	0.00339472
1710	0.00391698
1722	0.00548377
1734	0.00600604
1746	0.00456981
1758	0.00254604
1770	0.00176264
1782	0.00150151
1794	0.000326415
1806	0.000718113
1818	0.000848679
1830	0.00110981
1842	0.000979245
1854	0.000848679
1866	0.00150151
1878	0.000522264
1890	0.000848679
1902	0.00130566
1914	0.00163208
1926	0.00169736
1938	0.00235019
1950	0.00235019
1962	0.00228491
1974	0.00202377
1986	0.00202377
1998	0.000979245
2010	0.00156679
2022	0.00104453
2034	0.00169736
2046	0.00163208
2058	0.00104453
2070	0.000848679
2082	0.000913962
2094	0.00104453
2106	0.000783396
2118	0.00163208
2130	0.00163208
2142	0.00202377
2154	0.00221962
2166	0.00143623
2178	0.00143623
2190	0.00130566
2202	0.000848679
2214	0.00065283
2226	0.00065283
2238	0.00104453
2250	0.00104453
2262	0.000913962
2274	0.000391698
2286	0.000848679
2298	0.00137094
2310	0.00254604
2322	0.00437396
2334	0.00404755
2346	0.000587547
2358	0.0042434
2370	0.000456981
2382	0.000913962
2394	0.00163208
2406	0.00169736
2418	0.00215434
2430	0.00228491
2442	0.00235019
2454	0.00235019
2466	0.00241547
2478	0.00261132
2490	0.00274189
2502	0.00248075
2514	0.00352528
2526	0.0030683
2538	0.00313358
2550	0.00346
2562	0.00365585
2574	0.00372113
2586	0.00332943
2598	0.00378641
2610	0.0038517
2622	0.00430868
2634	0.00391698
2646	0.00359057
2658	0.00391698
2670	0.00391698
2682	0.00443924
2694	0.00489623
2706	0.00659358
2718	0.00639773
2730	0.00855207
2742	0.0107717
2754	0.0145581
2766	0.0181487
2778	0.0257215
2790	0.0376683
2802	0.0730517
2814	0.126192
2826	0.118946
2838	0.0880015
2850	0.116204
2862	0.171694
2874	0.167255
2886	0.184424
2898	0.237304
2910	0.259565
2922	0.260544
2934	0.287572
2946	0.286201
2958	0.197612
2970	0.107325
2982	0.0711585
2994	0.0729864
3006	0.0761853
3018	0.0576449
3030	0.0387128
3042	0.0273536
3054	0.0219351
3066	0.020303
3078	0.0171041
3090	0.014297
3102	0.0126649
3114	0.0105106
3126	0.00966188
3138	0.00763811
3150	0.00718113
3162	0.00522264
3174	0.00515736
3186	0.00443924
3198	0.00430868
3210	0.00319887
3222	0.00332943
3234	0.00248075
3246	0.00215434
3258	0.00293774
3270	0.00143623
3282	0.00137094
3294	0.00150151
3306	0.00137094
3318	0.00110981
3330	0.00110981
3342	0.00176264
3354	0.00110981
3366	0.00189321
3378	0.00169736
3390	0.000783396
3402	0.000783396
3414	0.000979245
3426	0.000783396
3438	0.000848679
3450	0.000979245
3462	0.00150151
3474	0.00248075
3486	0.00202377
3498	0.0030683
3510	0.00215434
3522	0.00293774
3534	0.0030683
3546	0.00215434
3558	0.00359057
3570	0.00156679
3582	0.00378641
3594	0.00339472
3606	0.00378641
3618	0.00443924
3630	0.00235019
3642	0.00391698
3654	0.00300302
3666	0.00535321
3678	0.00326415
3690	0.00509207
3702	0.00456981
3714	0.00365585
3726	0.00496151
3738	0.00463509
3750	0.00522264
3762	0.00522264
3774	0.00620189
3786	0.00581019
3798	0.00626717
3810	0.00535321
3822	0.00476566
3834	0.00535321
3846	0.00522264
3858	0.00522264
3870	0.00548377
3882	0.00600604
3894	0.00430868
3906	0.00450453
3918	0.00463509
3930	0.00522264
3942	0.00483094
3954	0.00137094
3966	0.00169736
