Infrared Spectrum: 1H-Indole, 4-methyl-
Formula: C 9 H 9 N
CAS: 16096-32-5
Origin: Sadtler Research Labs Under US-EPA Contract
1/CM	ABSORBANCE
450	0.0595515
462	0.0604538
474	0.00981247
486	0.0103764
498	0.0197377
510	0.0124066
522	0.0060905
534	0.00496263
546	0.00665443
558	0.0111659
570	0.00812066
582	0.0254899
594	0.029099
606	0.0480473
618	0.0329338
630	0.0133089
642	0.00654165
654	0.0235725
666	0.0306781
678	0.0286479
690	0.0674466
702	0.153616
714	0.283885
726	0.272832
738	0.523106
750	0.59732
762	0.27114
774	0.0480473
786	0.0704919
798	0.191963
810	0.253658
822	0.129254
834	0.0781614
846	0.135006
858	0.140645
870	0.109065
882	0.0706047
894	0.184407
906	0.195911
918	0.0522204
930	0.0210912
942	0.0240236
954	0.0234597
966	0.0177076
978	0.0101508
990	0.00947411
1002	0.0122938
1014	0.01376
1026	0.0155646
1038	0.0215423
1050	0.0284223
1062	0.0978991
1074	0.23189
1086	0.165684
1098	0.0428591
1110	0.0647397
1122	0.0777102
1134	0.0499646
1146	0.0484984
1158	0.0691384
1170	0.0411673
1182	0.0142112
1194	0.0163541
1206	0.0252643
1218	0.0288735
1230	0.0835752
1242	0.0923726
1254	0.0270689
1266	0.043423
1278	0.0789509
1290	0.0537994
1302	0.029663
1314	0.0801916
1326	0.187452
1338	0.260651
1350	0.237078
1362	0.147187
1374	0.079966
1386	0.0981247
1398	0.210009
1410	0.227379
1422	0.144367
1434	0.130043
1446	0.11211
1458	0.127788
1470	0.102862
1482	0.0633863
1494	0.155759
1506	0.201889
1518	0.116735
1530	0.0616945
1542	0.0787253
1554	0.111208
1566	0.0788381
1578	0.0863948
1590	0.135796
1602	0.127562
1614	0.0973352
1626	0.0521076
1638	0.0177076
1650	0.00845903
1662	0.00812066
1674	0.0218807
1686	0.0528971
1698	0.0461299
1710	0.0208656
1722	0.0215423
1734	0.0237981
1746	0.00992526
1758	0.00563935
1770	0.00969968
1782	0.00879739
1794	0.0116171
1806	0.0209784
1818	0.0126321
1830	0.00124066
1842	0.000789509
1854	0.00146623
1866	0.0086846
1878	0.0315804
1890	0.0301141
1902	0.00789509
1914	0.00304525
1926	0.00157902
1938	0.00135344
1950	0.000789509
1962	0.000451148
1974	0.000563935
1986	0.000225574
1998	0.000225574
2010	0.000563935
2022	0.000225574
2034	0
2046	0.000451148
2058	0.000563935
2070	0.000902296
2082	0.00157902
2094	0.00146623
2106	0.00124066
2118	0.00124066
2130	0.00270689
2142	0.00428591
2154	0.00304525
2166	0.00157902
2178	0.000902296
2190	0.000225574
2202	0
2214	0.00146623
2226	0.00281968
2238	0.00327082
2250	0.0025941
2262	0.00191738
2274	0.00315804
2286	0.00417312
2298	0.00473705
2310	0.00710558
2322	0.00563935
2334	0.00203017
2346	0.00214295
2358	0.00135344
2370	0.000676722
2382	0.00236853
2394	0.00304525
2406	0.00439869
2418	0.00563935
2430	0.00563935
2442	0.00530099
2454	0.00654165
2466	0.0112787
2478	0.0124066
2490	0.00902296
2502	0.00891017
2514	0.0111659
2526	0.010602
2538	0.00755673
2550	0.00812066
2562	0.00958689
2574	0.00733115
2586	0.00688001
2598	0.00710558
2610	0.00688001
2622	0.00721837
2634	0.00676722
2646	0.00642886
2658	0.00733115
2670	0.00845903
2682	0.00676722
2694	0.00620329
2706	0.00733115
2718	0.00992526
2730	0.0142112
2742	0.0172564
2754	0.0112787
2766	0.00462427
2778	0.00473705
2790	0.00755673
2802	0.010602
2814	0.0119554
2826	0.0142112
2838	0.022219
2850	0.0424079
2862	0.0880866
2874	0.107599
2886	0.0927109
2898	0.0998165
2910	0.12181
2922	0.174143
2934	0.211137
2946	0.169857
2958	0.114479
2970	0.122148
2982	0.121472
2994	0.0834624
3006	0.0667699
3018	0.0707174
3030	0.136923
3042	0.196475
3054	0.258846
3066	0.313661
3078	0.191287
3090	0.058762
3102	0.032821
3114	0.0345128
3126	0.0438741
3138	0.054025
3150	0.0331594
3162	0.00428591
3174	0.00270689
3186	0.00236853
3198	0.0025941
3210	0.00248131
3222	0.00293246
3234	0.00315804
3246	0.00225574
3258	0.00135344
3270	0.00101508
3282	0.00157902
3294	0.00191738
3306	0.00236853
3318	0.00203017
3330	0.00180459
3342	0.00169181
3354	0.00135344
3366	0.00157902
3378	0.00146623
3390	0.00248131
3402	0.00293246
3414	0.00293246
3426	0.00439869
3438	0.00654165
3450	0.0116171
3462	0.0230085
3474	0.0464682
3486	0.0941771
3498	0.143691
3510	0.313209
3522	0.499534
3534	0.241815
3546	0.0145495
3558	0.00563935
3570	0.00484984
3582	0.00169181
3594	0.000676722
3606	0.00270689
3618	0.00203017
3630	0.00225574
3642	0.00406033
3654	0.00428591
3666	0.0034964
3678	0.000789509
3690	0.00281968
3702	0.00304525
3714	0.00394755
3726	0.00360918
3738	0.00281968
3750	0.000902296
3762	0.0025941
3774	0.00304525
3786	0.00157902
3798	0.00225574
3810	0.00327082
3822	0.00135344
3834	0.00248131
3846	0.00315804
3858	0.00541378
3870	0.00530099
3882	0.0104892
3894	0.00902296
3906	0.00834624
3918	0.00744394
3930	0.00304525
3942	0.00507541
3954	0.00372197
3966	0.0051882
