Infrared Spectrum: Benzoic acid, 5-(1,1-dimethylethyl)-2-hydroxy-
Formula: C 11 H 14 O 3
CAS: 16094-31-8
Origin: Sadtler Research Labs Under US-EPA Contract
1/CM	ABSORBANCE
450	0.00161949
462	0.00504899
474	0.00704954
486	0.0130512
498	0.0124796
510	0.0248639
522	0.0334377
534	0.0451551
546	0.0764017
558	0.068209
570	0.0310561
582	0.0525857
594	0.153089
606	0.11546
618	0.0446788
630	0.0265787
642	0.0447741
654	0.092025
666	0.0820223
678	0.117079
690	0.119556
702	0.0527763
714	0.022387
726	0.0161949
738	0.00724006
750	0.00743059
762	0.0309608
774	0.0287697
786	0.0398204
798	0.0586826
810	0.0281029
822	0.0685901
834	0.114126
846	0.0368672
858	0.00733533
870	0.00400109
882	0.00266739
894	0.00543005
906	0.00771638
918	0.00771638
930	0.00895482
942	0.00533478
954	0.0047632
966	0.00438214
978	0.00314371
990	0.00390582
1002	0.00762112
1014	0.0135275
1026	0.0135275
1038	0.015528
1050	0.0408683
1062	0.175095
1074	0.171094
1086	0.0501089
1098	0.0543957
1110	0.0824986
1122	0.115555
1134	0.17338
1146	0.198054
1158	0.349905
1170	0.563772
1182	0.254641
1194	0.166521
1206	0.168808
1218	0.1569
1230	0.219869
1242	0.141086
1254	0.162901
1266	0.190719
1278	0.105648
1290	0.0792596
1302	0.117461
1314	0.0957403
1326	0.0689711
1338	0.0748775
1350	0.0981219
1362	0.125367
1374	0.175381
1386	0.155852
1398	0.174428
1410	0.154518
1422	0.0759254
1434	0.0731628
1446	0.0567773
1458	0.0632553
1470	0.0807839
1482	0.152994
1494	0.275503
1506	0.165188
1518	0.0742107
1530	0.032485
1542	0.0215297
1554	0.0225776
1566	0.0268644
1578	0.0522047
1590	0.0942161
1602	0.0625884
1614	0.0574442
1626	0.0467746
1638	0.0241018
1650	0.0248639
1662	0.0284839
1674	0.0430593
1686	0.0729722
1698	0.217774
1710	0.888242
1722	0.491372
1734	0.108601
1746	0.0501089
1758	0.06135
1770	0.06135
1782	0.0260071
1794	0.0149564
1806	0.010098
1818	0.00676374
1830	0.00447741
1842	0.00333424
1854	0.00485846
1866	0.00438214
1878	0.00181002
1890	0.00161949
1902	0.00295318
1914	0.00543005
1926	0.0047632
1938	0.00362003
1950	0.00190528
1962	0.00152422
1974	0.00142896
1986	0.000762112
1998	0.000285792
2010	0
2022	0.000190528
2034	0.00047632
2046	0.000857376
2058	0.0010479
2070	0.00200054
2082	0.00114317
2094	0.000666848
2106	0.000381056
2118	0.000857376
2130	0.00181002
2142	0.00114317
2154	0.000381056
2166	0.000571584
2178	0.000571584
2190	0
2202	0.000190528
2214	0.000285792
2226	0.000381056
2238	0.000381056
2250	0.00095264
2262	0.00123843
2274	0.00314371
2286	0.00790691
2298	0.0166712
2310	0.0227681
2322	0.016957
2334	0.0084785
2346	0.0153375
2358	0.0123843
2370	0.00895482
2382	0.015528
2394	0.00257213
2406	0.0013337
2418	0.000857376
2430	0.0013337
2442	0.00123843
2454	0.00095264
2466	0.00190528
2478	0.00247686
2490	0.00161949
2502	0.00161949
2514	0.00142896
2526	0.00181002
2538	0.00219107
2550	0.0023816
2562	0.00304845
2574	0.00314371
2586	0.00266739
2598	0.00266739
2610	0.00304845
2622	0.00276266
2634	0.00285792
2646	0.00333424
2658	0.00352477
2670	0.00314371
2682	0.00295318
2694	0.00228634
2706	0.00285792
2718	0.00409635
2730	0.00457267
2742	0.00495373
2754	0.00562058
2766	0.00571584
2778	0.00552531
2790	0.00647795
2802	0.00685901
2814	0.00762112
2826	0.00876429
2838	0.0109554
2850	0.0152422
2862	0.0321992
2874	0.0633506
2886	0.0712575
2898	0.0664943
2910	0.0831655
2922	0.0957403
2934	0.0889766
2946	0.105076
2958	0.213487
2970	0.394869
2982	0.18224
2994	0.0505852
3006	0.0213391
3018	0.0157186
3030	0.0176238
3042	0.0239113
3054	0.0233397
3066	0.0214344
3078	0.0248639
3090	0.0198149
3102	0.0127654
3114	0.0118127
3126	0.0115269
3138	0.0108601
3150	0.0103838
3162	0.0105743
3174	0.0112412
3186	0.0120985
3198	0.0147659
3210	0.017338
3222	0.0217202
3234	0.0287697
3246	0.0414398
3258	0.0600163
3270	0.0823081
3282	0.098503
3294	0.0955498
3306	0.0822128
3318	0.0709717
3330	0.0603974
3342	0.0520141
3354	0.0452504
3366	0.0408683
3378	0.0348666
3390	0.0286745
3402	0.0251497
3414	0.0232444
3426	0.0191481
3438	0.0157186
3450	0.0129559
3462	0.0116222
3474	0.0100027
3486	0.00885955
3498	0.00914534
3510	0.00866902
3522	0.0114317
3534	0.0264834
3546	0.0315324
3558	0.0239113
3570	0.080117
3582	0.298081
3594	0.0549673
3606	0.00733533
3618	0.0060969
3630	0.00685901
3642	0.0071448
3654	0.0144801
3666	0.00381056
3678	0.00314371
3690	0.00219107
3702	0.00142896
3714	0.00247686
3726	0.00171475
3738	0.00323898
3750	0.00200054
3762	0
3774	0
3786	0
3798	9.5264e-05
3810	0
3822	0
3834	0
3846	0.000285792
3858	0.000190528
3870	0.000571584
3882	0.0013337
3894	0.000285792
3906	0.00219107
3918	9.5264e-05
3930	0.00095264
3942	0
3954	0
3966	0
