Infrared Spectrum: Triphenylene, 1,2,3,4,5,6,7,8,9,10,11,12-dodecahydro-
Formula: C 18 H 24
CAS: 1610-39-5
Origin: Sadtler Research Labs Under US-EPA Contract
1/CM	ABSORBANCE
450	0
462	0.00610444
474	0.00991216
486	0.0113627
498	0.0100935
510	0.0117858
522	0.0121484
534	0.0100935
546	0.00918688
558	0.011121
570	0.0103352
582	0.00979128
594	0.0106374
606	0.0124506
618	0.0122089
630	0.0105166
642	0.0113627
654	0.0108792
666	0.0116045
678	0.0110605
690	0.0119067
702	0.00900556
714	0.00954952
726	0.0087638
738	0.00882424
750	0.0100935
762	0.0099726
774	0.011121
786	0.0128737
798	0.0104561
810	0.0129342
822	0.0128737
834	0.0120276
846	0.0093682
858	0.00942864
870	0.0102748
882	0.012088
894	0.00894512
906	0.00948908
918	0.00888468
930	0.00882424
942	0.0102144
954	0.00942864
966	0.0116649
978	0.00894512
990	0.0087638
1002	0.0100935
1014	0.0134177
1026	0.0157144
1038	0.0124506
1050	0.00912644
1062	0.00948908
1074	0.0113023
1086	0.0123298
1098	0.0108792
1110	0.00858248
1122	0.00858248
1134	0.0106979
1146	0.00991216
1158	0.00900556
1170	0.009066
1182	0.00882424
1194	0.00797808
1206	0.009066
1218	0.0099726
1230	0.0113023
1242	0.017165
1254	0.0323958
1266	0.020187
1278	0.0143243
1290	0.0107583
1302	0.0169836
1314	0.033242
1326	0.0161979
1338	0.0132968
1350	0.0149891
1362	0.0132364
1374	0.0100935
1386	0.0110001
1398	0.0111814
1410	0.0137199
1422	0.0213958
1434	0.0506487
1446	0.0505278
1458	0.0456322
1470	0.0194617
1482	0.0105166
1494	0.00773632
1506	0.00803852
1518	0.00713192
1530	0.00731324
1542	0.00779676
1554	0.00888468
1566	0.0106374
1578	0.0142034
1590	0.0072528
1602	0.00840116
1614	0.00809896
1626	0.00731324
1638	0.0069506
1650	0.00676928
1662	0.00676928
1674	0.00731324
1686	0.00779676
1698	0.00900556
1710	0.0072528
1722	0.00682972
1734	0.00737368
1746	0.00689016
1758	0.00701104
1770	0.00676928
1782	0.00646708
1794	0.00616488
1806	0.0063462
1818	0.00628576
1830	0.00598356
1842	0.006044
1854	0.00610444
1866	0.00586268
1878	0.00598356
1890	0.00592312
1902	0.00598356
1914	0.00592312
1926	0.00610444
1938	0.00622532
1950	0.00628576
1962	0.00622532
1974	0.0063462
1986	0.00646708
1998	0.0063462
2010	0.00658796
2022	0.00646708
2034	0.00652752
2046	0.00646708
2058	0.00640664
2070	0.00646708
2082	0.00658796
2094	0.00652752
2106	0.00676928
2118	0.00646708
2130	0.00658796
2142	0.00658796
2154	0.00652752
2166	0.00682972
2178	0.00676928
2190	0.0066484
2202	0.00676928
2214	0.00689016
2226	0.00701104
2238	0.00719236
2250	0.00713192
2262	0.00737368
2274	0.00749456
2286	0.00894512
2298	0.0111814
2310	0.0131155
2322	0.0122693
2334	0.00979128
2346	0.0108792
2358	0.0108188
2370	0.0096704
2382	0.0111814
2394	0.00773632
2406	0.00828028
2418	0.00803852
2430	0.00821984
2442	0.00803852
2454	0.00803852
2466	0.00828028
2478	0.00834072
2490	0.00834072
2502	0.00852204
2514	0.00888468
2526	0.00894512
2538	0.009066
2550	0.00894512
2562	0.00912644
2574	0.0093682
2586	0.00960996
2598	0.010033
2610	0.0100935
2622	0.0100935
2634	0.0106979
2646	0.0119671
2658	0.0137199
2670	0.0168023
2682	0.0161375
2694	0.0138408
2706	0.0131155
2718	0.0126924
2730	0.0129946
2742	0.0139012
2754	0.0152913
2766	0.0166814
2778	0.0194617
2790	0.0230881
2802	0.0273793
2814	0.0333024
2826	0.0514344
2838	0.0930776
2850	0.123237
2862	0.174974
2874	0.210271
2886	0.1291
2898	0.102204
2910	0.111572
2922	0.232392
2934	0.55774
2946	0.499718
2958	0.101721
2970	0.0378959
2982	0.0294947
2994	0.0228463
3006	0.019643
3018	0.0138408
3030	0.0105166
3042	0.0107583
3054	0.0116045
3066	0.0103957
3078	0.00864292
3090	0.007555
3102	0.00707148
3114	0.00731324
3126	0.00731324
3138	0.00676928
3150	0.00701104
3162	0.00658796
3174	0.00707148
3186	0.00713192
3198	0.007555
3210	0.007555
3222	0.00773632
3234	0.00803852
3246	0.007555
3258	0.00707148
3270	0.00731324
3282	0.00731324
3294	0.00749456
3306	0.00749456
3318	0.00773632
3330	0.00743412
3342	0.00797808
3354	0.00803852
3366	0.0078572
3378	0.0081594
3390	0.00900556
3402	0.00900556
3414	0.00930776
3426	0.00918688
3438	0.00882424
3450	0.00870336
3462	0.00918688
3474	0.0093682
3486	0.00948908
3498	0.00870336
3510	0.00864292
3522	0.00852204
3534	0.00882424
3546	0.00888468
3558	0.00858248
3570	0.00858248
3582	0.00864292
3594	0.00864292
3606	0.00834072
3618	0.00852204
3630	0.00852204
3642	0.0087638
3654	0.009066
3666	0.00870336
3678	0.00894512
3690	0.00840116
3702	0.0084616
3714	0.0084616
3726	0.0084616
3738	0.00930776
3750	0.00840116
3762	0.009066
3774	0.009066
3786	0.00858248
3798	0.00834072
3810	0.009066
3822	0.00991216
3834	0.00918688
3846	0.009066
3858	0.00924732
3870	0.00834072
3882	0.010033
3894	0.00912644
3906	0.00912644
3918	0.00954952
3930	0.00985172
3942	0.0106374
3954	0.0101539
3966	0.0087638
