Infrared Spectrum: Salicylaldehyde, 5-nitro-, methyl-pentyl hydrazone
Formula: C 13 H 19 N 3 O 3
CAS: 1617-62-5
Origin: Sadtler Research Labs Under US-EPA Contract
1/CM	ABSORBANCE
450	0.0070074
462	0.0040392
474	0.0098532
486	0.0062118
498	0.0040698
510	0.0048654
522	0.0103122
534	0.0102204
546	0.007191
558	0.0076194
570	0.0077112
582	0.011475
594	0.0069156
606	0.0072216
618	0.0056916
630	0.0098226
642	0.0370566
654	0.0113832
666	0.0123012
678	0.0271728
690	0.0515916
702	0.0267444
714	0.0250308
726	0.0261936
738	0.0163098
750	0.042534
762	0.0248166
774	0.019584
786	0.0243882
798	0.017748
810	0.0136476
822	0.0297126
834	0.0382194
846	0.011934
858	0.0156978
870	0.016371
882	0.0112914
894	0.016218
906	0.0371178
918	0.0223074
930	0.012393
942	0.0154836
954	0.0114444
966	0.0118728
978	0.0126684
990	0.0128826
1002	0.0186048
1014	0.0262242
1026	0.0314568
1038	0.041157
1050	0.0556308
1062	0.031671
1074	0.0246636
1086	0.0476748
1098	0.0795906
1110	0.0339354
1122	0.0270504
1134	0.0211752
1146	0.0190332
1158	0.0208998
1170	0.023715
1182	0.0362916
1194	0.0402696
1206	0.0299268
1218	0.019737
1230	0.024327
1242	0.0314262
1254	0.0342108
1266	0.0526932
1278	0.123624
1290	0.150858
1302	0.0803556
1314	0.07191
1326	0.090882
1338	0.215822
1350	0.306
1362	0.0986544
1374	0.0501228
1386	0.0528462
1398	0.039321
1410	0.0398718
1422	0.0389538
1434	0.0471546
1446	0.0661878
1458	0.0830178
1470	0.109426
1482	0.136813
1494	0.0954414
1506	0.0495108
1518	0.050796
1530	0.0638316
1542	0.0920754
1554	0.0940644
1566	0.077418
1578	0.0594252
1590	0.0711756
1602	0.0489906
1614	0.0364752
1626	0.0487458
1638	0.0325278
1650	0.0161568
1662	0.0078336
1674	0.007956
1686	0.0070686
1698	0.005355
1710	0.0064566
1722	0.007497
1734	0.0108018
1746	0.0065178
1758	0.002142
1770	0.0042228
1782	0.0041922
1794	0.0033354
1806	0.003366
1818	0.0024786
1830	0.001683
1842	0.0011628
1854	0.001071
1866	0.0010404
1878	0.0014994
1890	0.0024174
1902	0.00306
1914	0.0016218
1926	0.0011628
1938	0.0005814
1950	0.0004896
1962	0.0006732
1974	0.000459
1986	0.0005202
1998	0.0003366
2010	0.0006732
2022	0.0004896
2034	0.001071
2046	0.0013158
2058	0.0007038
2070	0.0007344
2082	0.0004896
2094	0.0003672
2106	0.0005508
2118	0.0006732
2130	0.0002754
2142	9.18e-05
2154	0.0001224
2166	0.0003366
2178	0.0007038
2190	0.0007038
2202	0.0011016
2214	0.001224
2226	0.0015606
2238	0.0021114
2250	0.0021114
2262	0.00153
2274	0.001836
2286	0.0031518
2298	0.0039168
2310	0.0041004
2322	0.0029376
2334	0.0018972
2346	0.003366
2358	0.0026928
2370	0.0027234
2382	0.0046206
2394	0.0034272
2406	0.0033966
2418	0.0038556
2430	0.0043758
2442	0.004743
2454	0.0048042
2466	0.0043758
2478	0.004437
2490	0.0046206
2502	0.0052938
2514	0.0062118
2526	0.0065178
2538	0.0067932
2550	0.0070686
2562	0.0077724
2574	0.0082314
2586	0.0087516
2598	0.0089964
2610	0.0091188
2622	0.0095778
2634	0.0104346
2646	0.0112608
2658	0.0113526
2670	0.011475
2682	0.0121176
2694	0.0127296
2706	0.0136782
2718	0.0147798
2730	0.0153612
2742	0.0164016
2754	0.0172584
2766	0.0190944
2778	0.0226746
2790	0.0281826
2802	0.0345168
2814	0.0369342
2826	0.0383724
2838	0.0449514
2850	0.055692
2862	0.068238
2874	0.0798354
2886	0.0882504
2898	0.0824976
2910	0.0853128
2922	0.0954414
2934	0.106213
2946	0.103183
2958	0.110344
2970	0.13923
2982	0.101684
2994	0.056457
3006	0.0423504
3018	0.0290394
3030	0.0241128
3042	0.0226746
3054	0.0222156
3066	0.0234396
3078	0.0242658
3090	0.0229806
3102	0.0222462
3114	0.020961
3126	0.0204408
3138	0.0196146
3150	0.0194616
3162	0.0193086
3174	0.0187884
3186	0.0184212
3198	0.018054
3210	0.0171054
3222	0.0158508
3234	0.0149634
3246	0.0139842
3258	0.013158
3270	0.012393
3282	0.012393
3294	0.0109242
3306	0.0097308
3318	0.0092106
3330	0.0085986
3342	0.008721
3354	0.0070074
3366	0.0067626
3378	0.0061506
3390	0.0059364
3402	0.0053244
3414	0.0045594
3426	0.003978
3438	0.0041004
3450	0.0037332
3462	0.0033354
3474	0.0032742
3486	0.0025398
3498	0.0026316
3510	0.0021114
3522	0.002295
3534	0.002448
3546	0.0022644
3558	0.0021726
3570	0.00306
3582	0.0030906
3594	0.001836
3606	0.0012852
3618	0.0021726
3630	0.0024786
3642	0.0017748
3654	0.0021114
3666	0.0023868
3678	0.0011016
3690	0.00153
3702	0.0019584
3714	0.0021114
3726	0.0017442
3738	0.0019278
3750	0.0028458
3762	0.0014994
3774	0.0014382
3786	0.0008568
3798	0.0005202
3810	0.0023562
3822	0.0004284
3834	0.0018054
3846	0.0014382
3858	0.0014688
3870	0.0011016
3882	0.0008874
3894	0.0019584
3906	0.0015912
3918	0.0014688
3930	0.0034578
3942	0.0014994
3954	0.0029682
3966	0.0020808
