Infrared Spectrum: Salicylaldehyde, 5-nitro-, iso-butylmethyl hydrazone
Formula: C 12 H 17 N 3 O 3
CAS: 1617-63-6
Origin: Sadtler Research Labs Under US-EPA Contract
1/CM	ABSORBANCE
450	0
462	0.0090662
474	0.0118279
486	0.0105447
498	0.0076993
510	0.00691821
522	0.00800615
534	0.0103773
546	0.00901041
558	0.00803405
570	0.0083967
582	0.0102378
594	0.00917778
606	0.00928937
618	0.00861986
630	0.0115489
642	0.0290955
654	0.0130274
666	0.0125532
678	0.0251622
690	0.04614
702	0.0278681
714	0.0261386
726	0.0237674
738	0.017965
750	0.0316899
762	0.0202804
774	0.0140596
786	0.0181882
798	0.0148407
810	0.0153428
822	0.0238232
834	0.0356232
846	0.0148686
858	0.0154265
870	0.0167097
882	0.0129158
894	0.014227
906	0.0289282
918	0.0209778
930	0.0151475
942	0.0186345
954	0.0158449
966	0.0125532
978	0.0112979
990	0.0125532
1002	0.015566
1014	0.0207546
1026	0.0295977
1038	0.0475906
1050	0.0483996
1062	0.0273939
1074	0.0237674
1086	0.0410908
1098	0.0732549
1110	0.0339494
1122	0.0267523
1134	0.0219542
1146	0.019304
1158	0.0196388
1170	0.0227352
1182	0.0282586
1194	0.030323
1206	0.0302951
1218	0.0219263
1230	0.0235442
1242	0.0304903
1254	0.0291792
1266	0.0391102
1278	0.0873424
1290	0.114374
1302	0.063296
1314	0.0535045
1326	0.0567684
1338	0.119506
1350	0.27896
1362	0.101123
1374	0.0494317
1386	0.0419835
1398	0.043462
1410	0.0365996
1422	0.0359579
1434	0.0366553
1446	0.0499059
1458	0.0594743
1470	0.0836601
1482	0.109045
1494	0.0847202
1506	0.0442152
1518	0.0352605
1530	0.0473395
1542	0.0851107
1554	0.0774393
1566	0.0672294
1578	0.0497386
1590	0.0584142
1602	0.0473953
1614	0.033001
1626	0.045861
1638	0.035149
1650	0.0216473
1662	0.013669
1674	0.016096
1686	0.0152312
1698	0.0138364
1710	0.0135575
1722	0.0137806
1734	0.016096
1746	0.0126369
1758	0.0102378
1770	0.0109631
1782	0.00967991
1794	0.00878724
1806	0.00789457
1818	0.00728086
1830	0.00728086
1842	0.0063045
1854	0.00613712
1866	0.00613712
1878	0.00619291
1890	0.00728086
1902	0.00800615
1914	0.00711348
1926	0.0062766
1938	0.00599764
1950	0.00580237
1962	0.00596974
1974	0.0055792
1986	0.00594185
1998	0.00596974
2010	0.00588606
2022	0.00599764
2034	0.00633239
2046	0.00652766
2058	0.00641608
2070	0.0062766
2082	0.00636029
2094	0.00641608
2106	0.00641608
2118	0.00633239
2130	0.00613712
2142	0.00613712
2154	0.00605343
2166	0.0062766
2178	0.00675083
2190	0.00675083
2202	0.00708558
2214	0.00714138
2226	0.006974
2238	0.0076993
2250	0.00758771
2262	0.00755982
2274	0.00781088
2286	0.00861986
2298	0.0100984
2310	0.0109631
2322	0.0102936
2334	0.00995887
2346	0.00956833
2358	0.0111863
2370	0.0101262
2382	0.010182
2394	0.00795036
2406	0.00797826
2418	0.00822932
2430	0.00842459
2442	0.00887093
2454	0.00873145
2466	0.00861986
2478	0.00864776
2490	0.00881514
2502	0.00931726
2514	0.00967991
2526	0.00990308
2538	0.0100984
2550	0.0104052
2562	0.0107679
2574	0.0114653
2586	0.0116047
2598	0.0120232
2610	0.0116884
2622	0.0118
2634	0.012609
2646	0.0135575
2658	0.0139759
2670	0.0138922
2682	0.0144501
2694	0.0157333
2706	0.0164586
2718	0.0168492
2730	0.0173234
2742	0.0178255
2754	0.0189972
2766	0.020643
2778	0.024409
2790	0.0292908
2802	0.0347863
2814	0.0370738
2826	0.0374922
2838	0.0416208
2850	0.0476185
2862	0.0521376
2874	0.0627102
2886	0.0729759
2898	0.0681499
2910	0.0690705
2922	0.0695726
2934	0.0771324
2946	0.0853897
2958	0.0986403
2970	0.122938
2982	0.0906899
2994	0.0523887
3006	0.0422624
3018	0.0298487
3030	0.0251064
3042	0.0236837
3054	0.0234884
3066	0.0238511
3078	0.0250506
3090	0.023879
3102	0.0239069
3114	0.0229584
3126	0.022791
3138	0.0223447
3150	0.0225958
3162	0.0225121
3174	0.0227352
3186	0.0220099
3198	0.0216473
3210	0.0211173
3222	0.0201409
3234	0.0196109
3246	0.018774
3258	0.0179371
3270	0.0172118
3282	0.0167655
3294	0.0163471
3306	0.015566
3318	0.0146175
3330	0.0137248
3342	0.013139
3354	0.0125811
3366	0.0124137
3378	0.011521
3390	0.0110189
3402	0.0108794
3414	0.0102378
3426	0.00931726
3438	0.0097357
3450	0.00926147
3462	0.00948464
3474	0.00867566
3486	0.00873145
3498	0.00806194
3510	0.0083409
3522	0.00822932
3534	0.00786667
3546	0.00914989
3558	0.00761561
3570	0.00995887
3582	0.00831301
3594	0.00848038
3606	0.00772719
3618	0.00850828
3630	0.00954043
3642	0.00881514
3654	0.00850828
3666	0.00778298
3678	0.0100426
3690	0.00772719
3702	0.00772719
3714	0.00814563
3726	0.00993098
3738	0.00803405
3750	0.00873145
3762	0.00800615
3774	0.00728086
3786	0.00820142
3798	0.0090941
3810	0.00803405
3822	0.00873145
3834	0.00808984
3846	0.00864776
3858	0.00848038
3870	0.0090662
3882	0.00962412
3894	0.00850828
3906	0.0097357
3918	0.0083688
3930	0.0090941
3942	0.00772719
3954	0.00887093
3966	0.00965202
