Infrared Spectrum: Butanoic acid, 2-cyano-2-ethyl-, ethyl ester
Formula: C 9 H 15 N O 2
CAS: 1619-56-3
Origin: Sadtler Research Labs Under US-EPA Contract
1/CM	ABSORBANCE
450	0.0171126
462	0.023891
474	0.0205574
486	0.00744511
498	0.0243355
510	0.00744511
522	0.00888968
534	0.00644502
546	0.013779
558	0.0191128
570	0.0120011
582	0.00833407
594	0.0124456
606	0.0150013
618	0.0120011
630	0.0113343
642	0.00533381
654	0.0063339
666	0.00677838
678	0.00788959
690	0.0107787
702	0.00755623
714	0.00933416
726	0.0104454
738	0.0177794
750	0.035781
762	0.0223353
774	0.0254467
786	0.038559
798	0.0368922
810	0.032114
822	0.0356698
834	0.0424482
846	0.0288915
858	0.0548938
870	0.0501156
882	0.0190017
894	0.0135568
906	0.0105565
918	0.0150013
930	0.0364477
942	0.0531158
954	0.0482265
966	0.0344475
978	0.023002
990	0.0285581
1002	0.0535603
1014	0.13479
1026	0.218464
1038	0.17046
1050	0.0998978
1062	0.0663392
1074	0.0563383
1086	0.0673393
1098	0.104231
1110	0.124122
1122	0.157347
1134	0.292137
1146	0.408147
1158	0.313139
1170	0.203351
1182	0.170904
1194	0.141235
1206	0.200129
1218	0.512935
1230	1.02598
1242	0.83963
1254	0.314584
1266	0.141568
1278	0.114232
1290	0.101009
1302	0.10512
1314	0.102009
1326	0.0867855
1338	0.0850076
1350	0.067006
1362	0.0573384
1374	0.0893413
1386	0.0815628
1398	0.096453
1410	0.0445595
1422	0.0341141
1434	0.0420037
1446	0.0915637
1458	0.153903
1470	0.158347
1482	0.0820073
1494	0.0371144
1506	0.0225576
1518	0.0152236
1530	0.0142235
1542	0.0172238
1554	0.0163348
1566	0.0132234
1578	0.0125567
1590	0.00977865
1602	0.0084452
1614	0.0100009
1626	0.0102231
1638	0.0111121
1650	0.0126678
1662	0.0138901
1674	0.0157792
1686	0.0191128
1698	0.0306694
1710	0.0476709
1722	0.0740066
1734	0.131567
1746	0.490155
1758	0.899413
1770	0.359476
1782	0.102676
1794	0.0473375
1806	0.0226687
1818	0.0148902
1830	0.0116677
1842	0.00977865
1854	0.00833407
1866	0.00777847
1878	0.00811183
1890	0.0084452
1902	0.00622278
1914	0.0047782
1926	0.00344475
1938	0.00322251
1950	0.00400036
1962	0.00388924
1974	0.00411148
1986	0.00355587
1998	0.00444484
2010	0.00522269
2022	0.00466708
2034	0.00366699
2046	0.00388924
2058	0.00388924
2070	0.00488932
2082	0.00611165
2094	0.00655614
2106	0.00511157
2118	0.00388924
2130	0.00333363
2142	0.00277802
2154	0.00322251
2166	0.00311139
2178	0.00255578
2190	0.00322251
2202	0.00222242
2214	0.00166681
2226	0.00222242
2238	0.0047782
2250	0.00600053
2262	0.0026669
2274	0.00177794
2286	0.00133345
2298	0.000555605
2310	0.000111121
2322	0.00144457
2334	0.00344475
2346	0.00188906
2358	0.00244466
2370	0.0042226
2382	0.00366699
2394	0.0042226
2406	0.00377811
2418	0.00322251
2430	0.00355587
2442	0.00388924
2454	0.00344475
2466	0.00322251
2478	0.0026669
2490	0.00244466
2502	0.00200018
2514	0.00155569
2526	0.00133345
2538	0.00100009
2550	0.00155569
2562	0.00144457
2574	0.00133345
2586	0.00133345
2598	0.00144457
2610	0.00177794
2622	0.00233354
2634	0.0021113
2646	0.00166681
2658	0.00155569
2670	0.00166681
2682	0.00144457
2694	0.00244466
2706	0.00255578
2718	0.00244466
2730	0.00377811
2742	0.0042226
2754	0.00677838
2766	0.0102231
2778	0.00988977
2790	0.00922304
2802	0.00944528
2814	0.0100009
2826	0.0122233
2838	0.013779
2850	0.0201129
2862	0.0322251
2874	0.0535603
2886	0.0981198
2898	0.137234
2910	0.0948973
2922	0.090897
2934	0.139346
2946	0.268691
2958	0.233354
2970	0.223353
2982	0.524602
2994	0.423371
3006	0.148458
3018	0.0693395
3030	0.0343364
3042	0.0205574
3054	0.0156681
3066	0.0140012
3078	0.0144457
3090	0.0124456
3102	0.0108899
3114	0.00944528
3126	0.00822295
3138	0.00822295
3150	0.00755623
3162	0.00733399
3174	0.00733399
3186	0.00677838
3198	0.00622278
3210	0.00488932
3222	0.00388924
3234	0.00322251
3246	0.0026669
3258	0.00377811
3270	0.00200018
3282	0.0021113
3294	0.00244466
3306	0.00222242
3318	0.00255578
3330	0.00111121
3342	0.00200018
3354	0.00166681
3366	0.0026669
3378	0.00177794
3390	0.00222242
3402	0.0026669
3414	0.0021113
3426	0.00200018
3438	0.00277802
3450	0.00344475
3462	0.00411148
3474	0.00355587
3486	0.00833407
3498	0.0090008
3510	0.00455596
3522	0.00233354
3534	0.00133345
3546	0.00200018
3558	0.00288915
3570	0.000888968
3582	0.00188906
3594	0.00244466
3606	0.00144457
3618	0.00200018
3630	0.0021113
3642	0.00111121
3654	0.00111121
3666	0
3678	0.00233354
3690	0.00277802
3702	0.00288915
3714	0.00200018
3726	0.00333363
3738	0.0026669
3750	0.00377811
3762	0.00166681
3774	0.00155569
3786	0.00288915
3798	0.00100009
3810	0.00288915
3822	0.0026669
3834	0.000333363
3846	0.0021113
3858	0.00488932
3870	0.00244466
3882	0.00244466
3894	0.00122233
3906	0
3918	0.00222242
3930	0.00233354
3942	0.00144457
3954	0.00144457
3966	0.00433372
