Infrared Spectrum: Propanedioic acid, dimethyl-, diethyl ester
Formula: C 9 H 16 O 4
CAS: 1619-62-1
Origin: Sadtler Research Labs Under US-EPA Contract
1/CM	ABSORBANCE
450	0
462	0.00239441
474	0.00593398
486	0.00582988
498	0.00666272
510	0.00510114
522	0.00791198
534	0.00687093
546	0.00916124
558	0.00499704
570	0.0021862
582	0.00135336
594	0.000104105
606	0.000936945
618	0.00187389
630	0.00187389
642	0.00145747
654	0.00239441
666	0.00510114
678	0.0141583
690	0.0166568
702	0.0102023
714	0.00260262
726	0.00135336
738	0.00135336
750	0.0063504
762	0.0105146
774	0.00853661
786	0.0102023
798	0.0116598
810	0.00988997
822	0.00926534
834	0.0119721
846	0.0199882
858	0.0596522
870	0.0614219
882	0.0204046
894	0.0121803
906	0.0133254
918	0.00655861
930	0.00499704
942	0.00655861
954	0.0139501
966	0.0135336
978	0.00988997
990	0.0141583
1002	0.0257139
1014	0.0597563
1026	0.156886
1038	0.177603
1050	0.0716242
1062	0.0312315
1074	0.0314397
1086	0.0550715
1098	0.121699
1110	0.244647
1122	0.658048
1134	0.970987
1146	0.450879
1158	0.497934
1170	0.688134
1182	0.47347
1194	0.223097
1206	0.117951
1218	0.108582
1230	0.138356
1242	0.234653
1254	0.431099
1266	0.609743
1278	0.574972
1290	0.25818
1302	0.151473
1314	0.0868236
1326	0.0394558
1338	0.021862
1350	0.018843
1362	0.0388312
1374	0.0762049
1386	0.115765
1398	0.121386
1410	0.0407051
1422	0.0262345
1434	0.0350834
1446	0.068397
1458	0.0966094
1470	0.150015
1482	0.125447
1494	0.0312315
1506	0.0108269
1518	0.00645451
1530	0.00739145
1542	0.0041642
1554	0.00478883
1566	0.00395599
1578	0.00374778
1590	0.00322725
1602	0.00395599
1614	0.00385188
1626	0.00197799
1638	0.00291494
1650	0.00166568
1662	0.00582988
1674	0.0063504
1686	0.0123885
1698	0.0255057
1710	0.056529
1722	0.0977546
1734	0.269632
1746	0.879479
1758	0.900821
1770	0.43849
1782	0.11337
1794	0.0494499
1806	0.0318561
1818	0.0204046
1830	0.0105146
1842	0.00582988
1854	0.00478883
1866	0.00301904
1878	0.00385188
1890	0.00426831
1902	0.00447651
1914	0.00270673
1926	0.0020821
1938	0.00176978
1950	0.00166568
1962	0.00145747
1974	0.00229031
1986	0.00353957
1998	0.00385188
2010	0.00270673
2022	0.00281083
2034	0.00364367
2046	0.00239441
2058	0.00114515
2070	0.00114515
2082	0.00145747
2094	0.00176978
2106	0.00229031
2118	0.00260262
2130	0.00281083
2142	0.00229031
2154	0.00176978
2166	0.00104105
2178	0.000312315
2190	0
2202	0
2214	0.00020821
2226	0.000520525
2238	0.000520525
2250	0.00041642
2262	0.00062463
2274	0.00062463
2286	0.00145747
2298	0.00229031
2310	0.00249852
2322	0.00145747
2334	0.000520525
2346	0.00176978
2358	0.00145747
2370	0.00260262
2382	0.00333136
2394	0.00239441
2406	0.00270673
2418	0.00291494
2430	0.00249852
2442	0.00166568
2454	0.00135336
2466	0.000936945
2478	0.000728735
2490	0.00062463
2502	0.000728735
2514	0.00041642
2526	0.00083284
2538	0.00114515
2550	0.00083284
2562	0.000936945
2574	0.00104105
2586	0.00124926
2598	0.000936945
2610	0.00145747
2622	0.00176978
2634	0.00156157
2646	0.00145747
2658	0.00135336
2670	0.00135336
2682	0.000936945
2694	0.000936945
2706	0.00156157
2718	0.0021862
2730	0.00364367
2742	0.00364367
2754	0.00395599
2766	0.00468472
2778	0.00530935
2790	0.00478883
2802	0.00520525
2814	0.00739145
2826	0.00957766
2838	0.00988997
2850	0.0136378
2862	0.0182184
2874	0.0359162
2886	0.0679806
2898	0.0615261
2910	0.0761008
2922	0.0835963
2934	0.105979
2946	0.185932
2958	0.156157
2970	0.145539
2982	0.258389
2994	0.361765
3006	0.220703
3018	0.0810978
3030	0.0321684
3042	0.0186348
3054	0.0124926
3066	0.00905713
3078	0.00801608
3090	0.00728735
3102	0.00614219
3114	0.0062463
3126	0.00562167
3138	0.00530935
3150	0.00520525
3162	0.00510114
3174	0.00468472
3186	0.00489293
3198	0.00468472
3210	0.00468472
3222	0.00426831
3234	0.00333136
3246	0.00270673
3258	0.00187389
3270	0.00176978
3282	0.00176978
3294	0.00187389
3306	0.00176978
3318	0.00197799
3330	0.00187389
3342	0.00187389
3354	0.0021862
3366	0.00197799
3378	0.00197799
3390	0.0021862
3402	0.00229031
3414	0.00166568
3426	0.00166568
3438	0.00176978
3450	0.00229031
3462	0.0020821
3474	0.00374778
3486	0.00510114
3498	0.00759966
3510	0.00468472
3522	0.00135336
3534	0.000312315
3546	0.00083284
3558	0.00083284
3570	0.00114515
3582	0.00124926
3594	0.000520525
3606	0.00041642
3618	0.00124926
3630	0.00124926
3642	0.000728735
3654	0.00135336
3666	0.00166568
3678	0.00083284
3690	0.00083284
3702	0.00176978
3714	0.00176978
3726	0.00124926
3738	0.00176978
3750	0.0021862
3762	0.00197799
3774	0.00197799
3786	0.00187389
3798	0.00229031
3810	0.00249852
3822	0.00281083
3834	0.00156157
3846	0.00239441
3858	0.00156157
3870	0.00239441
3882	0.0020821
3894	0.00197799
3906	0.00145747
3918	0.00166568
3930	0.00166568
3942	0.00229031
3954	0.00229031
3966	0.00166568
