Infrared Spectrum: Diethylaminoacetone
Formula: C 7 H 15 N O
CAS: 1620-14-0
Origin: Sadtler Research Labs Under US-EPA Contract
1/CM	ABSORBANCE
450	0.0151907
462	0.0136282
474	0.0126734
486	0.0178816
498	0.0243051
510	0.0351556
522	0.0546865
534	0.0842867
546	0.0624989
558	0.0245655
570	0.0170136
582	0.0144095
594	0.0190101
606	0.026562
618	0.0193573
630	0.0156247
642	0.0086804
654	0.00407979
666	0.00182288
678	0.00164928
690	0.00251732
702	0.00347216
714	0.00286453
726	0.00416659
738	0.00755195
750	0.0186629
762	0.0421867
774	0.0494783
786	0.0350688
798	0.0276037
810	0.0310758
822	0.0223086
834	0.0105901
846	0.00850679
858	0.0125866
870	0.0164928
882	0.0102429
894	0.0065103
906	0.00920122
918	0.0144095
930	0.0178816
942	0.0227426
954	0.0395826
966	0.0407979
978	0.0364577
990	0.0424472
1002	0.0440096
1014	0.0410583
1026	0.0552073
1038	0.0986093
1050	0.124737
1062	0.163626
1074	0.198
1086	0.186455
1098	0.169615
1110	0.134112
1122	0.126994
1134	0.0993906
1146	0.117272
1158	0.212409
1170	0.200691
1182	0.132463
1194	0.156681
1206	0.284804
1218	0.325775
1230	0.178382
1242	0.102602
1254	0.135414
1266	0.108245
1278	0.0784708
1290	0.104599
1302	0.113019
1314	0.0940955
1326	0.0934879
1338	0.14123
1350	0.297564
1362	0.345827
1374	0.243659
1386	0.280203
1398	0.200517
1410	0.102516
1422	0.102516
1434	0.109026
1446	0.114494
1458	0.143661
1470	0.129164
1482	0.0873248
1494	0.0391486
1506	0.025694
1518	0.0218746
1530	0.0190969
1542	0.0203121
1554	0.0163192
1566	0.0139754
1578	0.0154511
1590	0.0113713
1602	0.0110241
1614	0.0101561
1626	0.00954844
1638	0.0118053
1650	0.0111109
1662	0.0186629
1674	0.0338536
1686	0.0626725
1698	0.0993906
1710	0.203989
1722	0.542004
1734	0.70806
1746	0.394177
1758	0.19149
1770	0.0960052
1782	0.0554678
1794	0.0344612
1806	0.0203121
1818	0.0104165
1830	0.00529504
1842	0.00286453
1854	0.0022569
1866	0.00156247
1878	0.00112845
1890	0.00121526
1902	0.00043402
1914	0
1926	0.000260412
1938	0.000173608
1950	0.000520824
1962	0.00086804
1974	0.00112845
1986	0.00147567
1998	0.000781236
2010	0.00043402
2022	0.000260412
2034	0.000347216
2046	0.00043402
2058	0.00086804
2070	0.00138886
2082	0.00138886
2094	0.00112845
2106	0.00173608
2118	0.00286453
2130	0.00295134
2142	0.00269092
2154	0.00190969
2166	0.00156247
2178	0.00173608
2190	0.00164928
2202	0.00121526
2214	0.00112845
2226	0.00112845
2238	0.00112845
2250	0.00182288
2262	0.00173608
2274	0.00190969
2286	0.00364577
2298	0.00399298
2310	0.00416659
2322	0.00269092
2334	0.00138886
2346	0.00182288
2358	0.0022569
2370	0.00347216
2382	0.00451381
2394	0.00243051
2406	0.0022569
2418	0.00243051
2430	0.00312494
2442	0.00295134
2454	0.00269092
2466	0.0020833
2478	0.00190969
2490	0.00182288
2502	0.0022569
2514	0.00260412
2526	0.00329855
2538	0.00451381
2550	0.00564226
2562	0.00755195
2574	0.00920122
2586	0.00998246
2598	0.00972205
2610	0.0105033
2622	0.0118921
2634	0.0141491
2646	0.017274
2658	0.021701
2670	0.0263884
2682	0.0312494
2694	0.0362841
2706	0.0414923
2718	0.0510408
2730	0.060676
2742	0.0651898
2754	0.0729154
2766	0.096092
2778	0.113887
2790	0.151386
2802	0.247912
2814	0.365618
2826	0.388361
2838	0.304161
2850	0.223173
2862	0.208243
2874	0.245916
2886	0.293918
2898	0.274214
2910	0.276992
2922	0.316401
2934	0.406069
2946	0.439402
2958	0.355462
2970	0.622298
2982	0.850766
2994	0.357459
3006	0.125519
3018	0.0839395
3030	0.0580719
3042	0.0440096
3054	0.0386278
3066	0.0340272
3078	0.0280377
3090	0.0229163
3102	0.0187497
3114	0.0160587
3126	0.0140622
3138	0.0121526
3150	0.0100693
3162	0.00911442
3174	0.0085936
3186	0.00815958
3198	0.00755195
3210	0.00633669
3222	0.00486102
3234	0.00416659
3246	0.00390618
3258	0.00312494
3270	0.00303814
3282	0.00269092
3294	0.0022569
3306	0.00286453
3318	0.00243051
3330	0.00277773
3342	0.00251732
3354	0.00286453
3366	0.0022569
3378	0.00269092
3390	0.00312494
3402	0.00381938
3414	0.00468742
3426	0.00755195
3438	0.0118921
3450	0.0109373
3462	0.00755195
3474	0.00512144
3486	0.00364577
3498	0.00234371
3510	0.0020833
3522	0.00260412
3534	0.00190969
3546	0.00251732
3558	0.000954844
3570	0.00381938
3582	0.00355896
3594	0.00277773
3606	0.00182288
3618	0.00199649
3630	0.00416659
3642	0.00199649
3654	0.00156247
3666	0.00164928
3678	0.00373257
3690	0.00260412
3702	0.00295134
3714	0.00338536
3726	0.00260412
3738	0.00312494
3750	0.0020833
3762	0.00269092
3774	0.00303814
3786	0.00190969
3798	0.00286453
3810	0.0022569
3822	0.00451381
3834	0.0020833
3846	0.00303814
3858	0.00321175
3870	0.00303814
3882	0.00243051
3894	0.0042534
3906	0.00407979
3918	0.00460061
3930	0.00303814
3942	0.00373257
3954	0.00338536
3966	0.00399298
