Infrared Spectrum: 1-Piperidinesuccinic acid, dimethyl ester
Formula: C 11 H 19 N O 4
CAS: 16217-48-4
Origin: Sadtler Research Labs Under US-EPA Contract
1/CM	ABSORBANCE
450	0.0224076
462	0.0128365
474	0.00168902
486	0.000112601
498	0.00146381
510	0.00495444
522	0.00596785
534	0.00506705
546	0.00900808
558	0.00574265
570	0.00439144
582	0.00540485
594	0.00371583
606	0.00371583
618	0.00563005
630	0.0118231
642	0.0163271
654	0.0126113
666	0.0145255
678	0.0103593
690	0.00776947
702	0.00608045
714	0.00653086
726	0.00867028
738	0.0186918
750	0.0238714
762	0.0114853
774	0.00371583
786	0.00821987
798	0.0138499
810	0.0157641
822	0.0150885
834	0.0278124
846	0.046279
858	0.065759
870	0.0326543
882	0.0129491
894	0.0184666
906	0.0182414
918	0.0136247
930	0.00934588
942	0.00889548
954	0.0101341
966	0.025673
978	0.0503326
990	0.0916572
1002	0.177684
1014	0.242205
1026	0.213041
1038	0.168001
1050	0.107759
1062	0.0994267
1074	0.090869
1086	0.100665
1098	0.152574
1110	0.257068
1122	0.21473
1134	0.226441
1146	0.503889
1158	0.846534
1170	0.729091
1182	0.532603
1194	0.462227
1206	0.426758
1218	0.431149
1230	0.433626
1242	0.374849
1254	0.382506
1266	0.360436
1278	0.335776
1290	0.330259
1302	0.271931
1314	0.223738
1326	0.152124
1338	0.159443
1350	0.197052
1362	0.13985
1374	0.10821
1386	0.093121
1398	0.0574265
1410	0.049657
1422	0.0683488
1434	0.191985
1446	0.226441
1458	0.138161
1470	0.0827617
1482	0.0388473
1494	0.0192548
1506	0.0130617
1518	0.00912068
1530	0.00664346
1542	0.00630566
1554	0.00574265
1566	0.00529225
1578	0.00529225
1590	0.00472924
1602	0.00371583
1614	0.00337803
1626	0.00495444
1638	0.00574265
1650	0.00810727
1662	0.00968369
1674	0.0128365
1686	0.0185792
1698	0.0325417
1710	0.0700378
1722	0.135234
1734	0.27317
1746	0.791135
1758	1.12601
1770	0.607145
1782	0.196151
1794	0.0896304
1806	0.0504452
1818	0.0254478
1830	0.0114853
1842	0.00855768
1854	0.00641826
1866	0.00461664
1878	0.00258982
1890	0.000900808
1902	0.00123861
1914	0.00213942
1926	0.00225202
1938	0.00270242
1950	0.00258982
1962	0.00292763
1974	0.00427884
1986	0.00484184
1998	0.00630566
2010	0.00686866
2022	0.00743167
2034	0.00731907
2046	0.00765687
2058	0.00788207
2070	0.00731907
2082	0.00630566
2094	0.00484184
2106	0.00416624
2118	0.00337803
2130	0.00258982
2142	0.00180162
2154	0.00101341
2166	0.000900808
2178	0.000900808
2190	0.00101341
2202	0.000900808
2214	0.000900808
2226	0.000788207
2238	0.000563005
2250	0
2262	0.000225202
2274	0.000675606
2286	0.00191422
2298	0.00405364
2310	0.00540485
2322	0.00427884
2334	0.00202682
2346	0.00394103
2358	0.00371583
2370	0.00281503
2382	0.00427884
2394	0.00146381
2406	0.00157641
2418	0.00191422
2430	0.00146381
2442	0.00112601
2454	0.000788207
2466	0.000788207
2478	0.00135121
2490	0.00202682
2502	0.00236462
2514	0.00213942
2526	0.00168902
2538	0.00157641
2550	0.00180162
2562	0.00236462
2574	0.00304023
2586	0.00484184
2598	0.00709386
2610	0.00934588
2622	0.00934588
2634	0.0103593
2646	0.0141877
2658	0.017228
2670	0.020606
2682	0.024547
2694	0.0283755
2706	0.0287133
2718	0.0283755
2730	0.0353567
2742	0.0460538
2754	0.0546115
2766	0.0606919
2778	0.0505578
2790	0.0653086
2802	0.110011
2814	0.163384
2826	0.161019
2838	0.119244
2850	0.142665
2862	0.201894
2874	0.149985
2886	0.087491
2898	0.112151
2910	0.147507
2922	0.263712
2934	0.49353
2946	1.03143
2958	0.477653
2970	0.25628
2982	0.108547
2994	0.105282
3006	0.0992015
3018	0.0695874
3030	0.0649708
3042	0.0421128
3054	0.027362
3066	0.0210564
3078	0.0185792
3090	0.0167775
3102	0.0148633
3114	0.0119357
3126	0.00945848
3138	0.00731907
3150	0.00608045
3162	0.00551745
3174	0.00461664
3186	0.00472924
3198	0.00416624
3210	0.00326543
3222	0.00258982
3234	0.00247722
3246	0.00213942
3258	0.00202682
3270	0.00236462
3282	0.00146381
3294	0.00123861
3306	0.00146381
3318	0.00168902
3330	0.00168902
3342	0.00180162
3354	0.00157641
3366	0.00168902
3378	0.00225202
3390	0.00191422
3402	0.00191422
3414	0.00157641
3426	0.00157641
3438	0.00225202
3450	0.00304023
3462	0.00315283
3474	0.00619306
3486	0.00889548
3498	0.00855768
3510	0.00619306
3522	0.00258982
3534	0.00157641
3546	0.00101341
3558	0.000900808
3570	0.00236462
3582	0.00281503
3594	0.00180162
3606	0.000900808
3618	0.000112601
3630	0.000675606
3642	0.00146381
3654	0.000337803
3666	0.000788207
3678	0.000450404
3690	0.00146381
3702	0.000675606
3714	0.000563005
3726	0.00157641
3738	0.00146381
3750	0.00123861
3762	0.00112601
3774	0.00236462
3786	0.00101341
3798	0.00146381
3810	0.00225202
3822	0.000788207
3834	0.000450404
3846	0.00191422
3858	0.000675606
3870	0.000112601
3882	0.00112601
3894	0.00101341
3906	0.00168902
3918	0.000225202
3930	0.00112601
3942	0.00202682
3954	0.00225202
3966	0.00123861
