Infrared Spectrum: 1,3-Propanediamine, N,N-diethyl-3-(2-pyridyl)-,
Formula: C 12 H 21 N 3
CAS: 16273-79-3
Origin: Sadtler Research Labs Under US-EPA Contract
1/CM	ABSORBANCE
450	0
462	0.0111333
474	0.015467
486	0.0206974
498	0.0163263
510	0.0230511
522	0.0263388
534	0.0257784
546	0.0277958
558	0.0351931
570	0.0315318
582	0.0297759
594	0.029477
606	0.0323164
618	0.0428146
630	0.0390038
642	0.0363513
654	0.0372106
666	0.035903
678	0.0409466
690	0.0505854
702	0.057385
714	0.0651185
726	0.0817437
738	0.121383
750	0.182952
762	0.11675
774	0.1067
786	0.102591
798	0.082603
810	0.0700874
822	0.056974
834	0.0530886
846	0.046289
858	0.0432629
870	0.0430014
882	0.0399752
894	0.0382193
906	0.0357909
918	0.032279
930	0.0291034
942	0.0214073
954	0.0244708
966	0.031233
978	0.0310835
990	0.0481197
1002	0.0449067
1014	0.041507
1026	0.045355
1038	0.0597013
1050	0.0764012
1062	0.0898882
1074	0.103749
1086	0.0987051
1098	0.0879081
1110	0.0838732
1122	0.0930638
1134	0.10147
1146	0.107036
1158	0.0762144
1170	0.0613451
1182	0.0547698
1194	0.0679578
1206	0.0796889
1218	0.054583
1230	0.0441969
1242	0.0418806
1254	0.0411334
1266	0.0413202
1278	0.0494273
1290	0.065791
1302	0.0695643
1314	0.061121
1326	0.062578
1338	0.0787549
1350	0.0926154
1362	0.0972107
1374	0.119814
1386	0.119627
1398	0.0693775
1410	0.0483812
1422	0.070573
1434	0.164085
1446	0.105206
1458	0.124147
1470	0.180262
1482	0.0988546
1494	0.0540973
1506	0.0390038
1518	0.0287672
1530	0.0231258
1542	0.0280574
1554	0.0412828
1566	0.085405
1578	0.133711
1590	0.204471
1602	0.0809218
1614	0.0490163
1626	0.0399005
1638	0.0351184
1650	0.0268245
1662	0.0255542
1674	0.0302616
1686	0.023873
1698	0.02802
1710	0.037771
1722	0.0328394
1734	0.0254795
1746	0.0135617
1758	0.0120673
1770	0.0121046
1782	0.0100872
1794	0.00978832
1806	0.00930264
1818	0.00866752
1830	0.00892904
1842	0.0095268
1854	0.00963888
1866	0.0108344
1878	0.00904112
1890	0.0082192
1902	0.00922792
1914	0.0108344
1926	0.00967624
1938	0.011619
1950	0.0104982
1962	0.0110586
1974	0.0112454
1986	0.00851808
1998	0.00788296
2010	0.00754672
2022	0.00721048
2034	0.00679952
2046	0.00679952
2058	0.00706104
2070	0.0070984
2082	0.00698632
2094	0.0070984
2106	0.00683688
2118	0.00646328
2130	0.006538
2142	0.00661272
2154	0.00668744
2166	0.00683688
2178	0.00735992
2190	0.00758408
2202	0.00735992
2214	0.00717312
2226	0.00721048
2238	0.00706104
2250	0.007472
2262	0.00792032
2274	0.008406
2286	0.0102366
2298	0.0121046
2310	0.0124782
2322	0.0102366
2334	0.00773352
2346	0.00967624
2358	0.00836864
2370	0.00844336
2382	0.00997512
2394	0.00750936
2406	0.00762144
2418	0.0080324
2430	0.00833128
2442	0.00825656
2454	0.00814448
2466	0.0082192
2478	0.00844336
2490	0.008406
2502	0.00836864
2514	0.00907848
2526	0.00960152
2538	0.0101619
2550	0.0104982
2562	0.012142
2574	0.0134496
2586	0.0141221
2598	0.0143836
2610	0.0152429
2622	0.0164758
2634	0.0178207
2646	0.020137
2658	0.0223039
2670	0.0250312
2682	0.0279826
2694	0.0307473
2706	0.035081
2718	0.0395642
2730	0.0443463
2742	0.0475966
2754	0.0559653
2766	0.0677337
2778	0.0839479
2790	0.119104
2802	0.183139
2814	0.2069
2826	0.18426
2838	0.151121
2850	0.132479
2862	0.126202
2874	0.143238
2886	0.167149
2898	0.161993
2910	0.173799
2922	0.208357
2934	0.268469
2946	0.279938
2958	0.248556
2970	0.340723
2982	0.320773
2994	0.135953
3006	0.0931758
3018	0.0955295
3030	0.0577959
3042	0.0514074
3054	0.0691907
3066	0.0910837
3078	0.113836
3090	0.05604
3102	0.0281321
3114	0.0202118
3126	0.0177834
3138	0.0181943
3150	0.0155791
3162	0.0128892
3174	0.0119178
3186	0.0113201
3198	0.0104608
3210	0.0101246
3222	0.00960152
3234	0.00930264
3246	0.00870488
3258	0.00926528
3270	0.00900376
3282	0.00993776
3294	0.0106102
3306	0.0124409
3318	0.0140474
3330	0.0160648
3342	0.0142715
3354	0.0118431
3366	0.0115069
3378	0.0108344
3390	0.0124409
3402	0.0120299
3414	0.0116563
3426	0.010797
3438	0.0108718
3450	0.00975096
3462	0.00889168
3474	0.0076588
3486	0.00721048
3498	0.00687424
3510	0.00713576
3522	0.00769616
3534	0.00806976
3546	0.0099004
3558	0.00777088
3570	0.00814448
3582	0.0076588
3594	0.00777088
3606	0.0067248
3618	0.00769616
3630	0.00993776
3642	0.0109465
3654	0.00937736
3666	0.00679952
3678	0.007472
3690	0.00829392
3702	0.00780824
3714	0.00650064
3726	0.00844336
3738	0.00799504
3750	0.00769616
3762	0.00799504
3774	0.00750936
3786	0.00694896
3798	0.00836864
3810	0.00777088
3822	0.00795768
3834	0.0078456
3846	0.00792032
3858	0.00810712
3870	0.00904112
3882	0.00750936
3894	0.00963888
3906	0.00967624
3918	0.00810712
3930	0.00769616
3942	0.00676216
3954	0.00967624
3966	0.0085928
