Infrared Spectrum: Pyridine, 2-methoxy-
Formula: C 6 H 7 N O
CAS: 1628-89-3
Origin: Sadtler Research Labs Under US-EPA Contract
1/CM	ABSORBANCE
450	0.032002
462	0.0202061
474	0.00731787
486	0.00928387
498	0.0103761
510	0.0202061
522	0.0395384
534	0.0241381
546	0.0159464
558	0.0104853
570	0.00677176
582	0.0155095
594	0.0422689
606	0.050679
618	0.0313467
630	0.0208614
642	0.0044781
654	0.00240288
666	0.001966
678	0.00524266
690	0.00731787
702	0.0124513
714	0.0285069
726	0.0740525
738	0.146904
750	0.087596
762	0.155969
774	0.271854
786	0.29479
798	0.221065
810	0.132923
822	0.089562
834	0.0432519
846	0.0233735
858	0.0218444
870	0.0145265
882	0.00589799
894	0.001966
906	0.00415044
918	0.00535188
930	0.00851932
942	0.0125605
954	0.0164925
966	0.0208614
978	0.0508975
990	0.064441
1002	0.0958969
1014	0.232752
1026	0.340445
1038	0.442458
1050	0.343503
1062	0.128336
1074	0.0351695
1086	0.0208614
1098	0.0231551
1110	0.0279608
1122	0.0361525
1134	0.13194
1146	0.127025
1158	0.0373539
1170	0.0144173
1182	0.0109222
1194	0.0105945
1206	0.0136527
1218	0.0233735
1230	0.0551571
1242	0.165908
1254	0.353552
1266	0.556268
1278	0.788364
1290	1.07431
1302	1.09222
1314	0.794153
1326	0.493574
1338	0.0638949
1350	0.0247934
1362	0.0241381
1374	0.0396476
1386	0.04773
1398	0.06739
1410	0.44923
1422	0.773619
1434	0.626825
1446	0.295009
1458	0.2274
1470	0.470856
1482	1.0837
1494	0.861871
1506	0.151928
1518	0.0618197
1530	0.0288346
1542	0.0486038
1554	0.116103
1566	0.324717
1578	0.562821
1590	0.689628
1602	0.847126
1614	0.647796
1626	0.191575
1638	0.0558124
1650	0.0247934
1662	0.0103761
1674	0.00666254
1686	0.0103761
1698	0.0145265
1710	0.0183493
1722	0.0188954
1734	0.0115775
1746	0.00502421
1758	0.00273055
1770	0.00251211
1782	0.00327666
1794	0.00906543
1806	0.0135435
1818	0.0128882
1830	0.0155095
1842	0.0140896
1854	0.00851932
1866	0.0054611
1878	0.00633488
1890	0.0113591
1902	0.0203153
1914	0.0242473
1926	0.0174755
1938	0.0139804
1950	0.0155095
1962	0.0111406
1974	0.00316744
1986	0.000873776
1998	0.00109222
2010	0.00229366
2022	0.00666254
2034	0.0125605
2046	0.0174755
2058	0.0180216
2070	0.0173663
2082	0.0178032
2094	0.0187862
2106	0.017694
2118	0.0148542
2130	0.0104853
2142	0.00491499
2154	0.00174755
2166	0.000764554
2178	0.00152911
2190	0.00174755
2202	0.00163833
2214	0.00185677
2226	0.0034951
2238	0.00469655
2250	0.00513343
2262	0.00360433
2274	0.00600721
2286	0.0105945
2298	0.0119052
2310	0.0089562
2322	0.00709943
2334	0.0054611
2346	0.00404121
2358	0.00491499
2370	0.000436888
2382	0.00141989
2394	0.00469655
2406	0.00677176
2418	0.00567954
2430	0.00371355
2442	0.00371355
2454	0.00425966
2466	0.00262133
2478	0.00109222
2490	0.000982998
2502	0.001966
2514	0.00283977
2526	0.0034951
2538	0.00491499
2550	0.010813
2562	0.0170386
2574	0.0197692
2586	0.0155095
2598	0.0104853
2610	0.00666254
2622	0.00371355
2634	0.001966
2646	0.00131066
2658	0.000764554
2670	0.000982998
2682	0.00109222
2694	0.000764554
2706	0.00185677
2718	0.00218444
2730	0.00458732
2742	0.00633488
2754	0.00425966
2766	0.00425966
2778	0.00393199
2790	0.00578877
2802	0.00567954
2814	0.00884698
2826	0.0239196
2838	0.0394291
2850	0.0525358
2862	0.0587614
2874	0.0700113
2886	0.0737249
2898	0.0543926
2910	0.0711035
2922	0.0821349
2934	0.0839917
2946	0.155204
2958	0.253286
2970	0.227946
2982	0.154768
2994	0.133688
3006	0.15302
3018	0.198566
3030	0.174537
3042	0.110205
3054	0.121127
3066	0.122438
3078	0.154768
3090	0.146139
3102	0.0801689
3114	0.035934
3126	0.0149634
3138	0.0110314
3150	0.00950231
3162	0.00851932
3174	0.0074271
3186	0.00600721
3198	0.00469655
3210	0.00382277
3222	0.00294899
3234	0.00207522
3246	0.00229366
3258	0.00240288
3270	0.00316744
3282	0.00109222
3294	0.00218444
3306	0.00327666
3318	0.00185677
3330	0.00283977
3342	0.00371355
3354	0.00273055
3366	0.00316744
3378	0.00305822
3390	0.00316744
3402	0.00404121
3414	0.00425966
3426	0.00262133
3438	0.00305822
3450	0.00207522
3462	0.00360433
3474	0.00491499
3486	0.00480577
3498	0.00273055
3510	0.00327666
3522	0.00425966
3534	0.00382277
3546	0.00251211
3558	0.00316744
3570	0.00404121
3582	0.00371355
3594	0.00240288
3606	0.00513343
3618	0.00229366
3630	0.00371355
3642	0.00131066
3654	0.00502421
3666	0.00273055
3678	0.00360433
3690	0.0054611
3702	0.00316744
3714	0.00513343
3726	0.00229366
3738	0.00141989
3750	0.000982998
3762	0.0034951
3774	0.00327666
3786	0.0034951
3798	0.00163833
3810	0.000436888
3822	0.00262133
3834	0.00152911
3846	0.00316744
3858	0.00218444
3870	0.00163833
3882	0.000873776
3894	0.00054611
3906	0.000109222
3918	0.000436888
3930	0.00229366
3942	0.00109222
3954	0
3966	0.000436888
