Infrared Spectrum: Benzenemethanol, 2,4-dimethyl-
Formula: C 9 H 12 O
CAS: 16308-92-2
Origin: Sadtler Research Labs Under US-EPA Contract
1/CM	ABSORBANCE
450	0.0269982
462	0.00300816
474	0.00398581
486	0.00609152
498	0.0212075
510	0.0223356
522	0.00827244
534	0.0093253
546	0.0111302
558	0.0251933
570	0.0570798
582	0.0600128
594	0.0200043
606	0.0055651
618	0.0018049
630	0.00157928
642	0.00451224
654	0.00353459
666	0.000526428
678	0.0038354
690	0.0109046
702	0.0271486
714	0.0317361
726	0.018425
738	0.0135367
750	0.042039
762	0.114837
774	0.113483
786	0.0666307
798	0.104759
810	0.26156
822	0.304802
834	0.108143
846	0.0278255
858	0.0306832
870	0.0540717
882	0.0400837
894	0.0262462
906	0.0357971
918	0.0579071
930	0.0785882
942	0.0999461
954	0.108143
966	0.169811
978	0.256596
990	0.359776
1002	0.625547
1014	0.717521
1026	0.42212
1038	0.332251
1050	0.272539
1062	0.144467
1074	0.0943058
1086	0.0747528
1098	0.0647506
1110	0.0704661
1122	0.0846045
1134	0.0696389
1146	0.0667812
1158	0.0851309
1170	0.0962611
1182	0.106338
1194	0.116566
1206	0.118747
1218	0.122658
1230	0.117845
1242	0.125064
1254	0.10521
1266	0.0863342
1278	0.0875375
1290	0.0854317
1302	0.0752792
1314	0.0766329
1326	0.0779113
1338	0.0774601
1350	0.0973892
1362	0.163719
1374	0.290889
1386	0.327213
1398	0.248775
1410	0.182069
1422	0.153115
1434	0.138225
1446	0.143564
1458	0.152589
1470	0.153943
1482	0.136796
1494	0.151762
1506	0.195831
1518	0.122883
1530	0.0779113
1542	0.063021
1554	0.0566286
1566	0.0547485
1578	0.0566286
1590	0.0501611
1602	0.0740007
1614	0.190417
1626	0.155221
1638	0.029856
1650	0.0100773
1662	0.0037602
1674	0.00451224
1686	0.00601632
1698	0.00654275
1710	0.00594112
1722	0.00767081
1734	0.0149656
1746	0.0173721
1758	0.0134615
1770	0.00774601
1782	0.00203051
1794	0.00157928
1806	0.00255694
1818	0.00541469
1830	0.00308336
1842	0.00075204
1854	0.00263214
1866	0.00541469
1878	0.0142136
1890	0.0193274
1902	0.0124087
1914	0.00699397
1926	0.00533948
1938	0.00473785
1950	0.0038354
1962	0.00398581
1974	0.00428663
1986	0.00646754
1998	0.00834764
2010	0.00782122
2022	0.00466265
2034	0.00248173
2046	0.00210571
2058	0.00210571
2070	0.00248173
2082	0.00285775
2094	0.00278255
2106	0.00157928
2118	0.00105286
2130	0.000526428
2142	0.00075204
2154	0.00120326
2166	0.00120326
2178	0.00075204
2190	7.5204e-05
2202	0.000902448
2214	0.00112806
2226	0.00127847
2238	0.00112806
2250	0.00150408
2262	0.00142888
2274	0.00157928
2286	0.0018049
2298	0.00135367
2310	0.00135367
2322	0.00165449
2334	0.0018801
2346	0.00225612
2358	0.000451224
2370	0.00157928
2382	0.00278255
2394	0.00579071
2406	0.00601632
2418	0.00624193
2430	0.00541469
2442	0.00518908
2454	0.00511387
2466	0.00518908
2478	0.00533948
2490	0.00548989
2502	0.00511387
2514	0.00488826
2526	0.00451224
2538	0.00488826
2550	0.00436183
2562	0.00360979
2574	0.00360979
2586	0.00353459
2598	0.00398581
2610	0.00488826
2622	0.00609152
2634	0.00631714
2646	0.0057155
2658	0.00669316
2670	0.0075956
2682	0.00879887
2694	0.0103029
2706	0.0124087
2718	0.0157176
2730	0.0233132
2742	0.0366243
2754	0.0327137
2766	0.0264718
2778	0.0289535
2790	0.0337666
2802	0.0391061
2814	0.0466265
2826	0.0605392
2838	0.085883
2850	0.136946
2862	0.244789
2874	0.41114
2886	0.509056
2898	0.498076
2910	0.443328
2922	0.531767
2934	0.699773
2946	0.587494
2958	0.417006
2970	0.361054
2982	0.313901
2994	0.289611
3006	0.377148
3018	0.431069
3030	0.331198
3042	0.269606
3054	0.23238
3066	0.153491
3078	0.0981412
3090	0.0663299
3102	0.0440695
3114	0.0358723
3126	0.0317361
3138	0.0213579
3150	0.0115062
3162	0.00804683
3174	0.00496346
3186	0.00428663
3198	0.00345938
3210	0.00323377
3222	0.00240653
3234	0.00233132
3246	0.00240653
3258	0.00225612
3270	0.0019553
3282	0.00225612
3294	0.0019553
3306	0.00075204
3318	0.00127847
3330	0.00157928
3342	0.00127847
3354	0.00150408
3366	0.000977652
3378	0.0018801
3390	0.00255694
3402	0.00330898
3414	0.00466265
3426	0.00436183
3438	0.00511387
3450	0.00436183
3462	0.0037602
3474	0.00338418
3486	0.00270734
3498	0.00270734
3510	0.00142888
3522	0.00270734
3534	0.00127847
3546	0.00218092
3558	0.00233132
3570	0.00360979
3582	0.00323377
3594	0.00511387
3606	0.00473785
3618	0.00955091
3630	0.0306832
3642	0.0960355
3654	0.164246
3666	0.104609
3678	0.0470777
3690	0.0248173
3702	0.010679
3714	0.00526428
3726	0.00533948
3738	0.00646754
3750	0.0018801
3762	0.0018801
3774	0.00300816
3786	0.0018049
3798	0.00263214
3810	0.000300816
3822	0.00165449
3834	0.00323377
3846	0.00323377
3858	0.00548989
3870	0.00684356
3882	0.00533948
3894	0.00684356
3906	0.00518908
3918	0.0038354
3930	0.00330898
3942	0.00338418
3954	0.00413622
3966	0.00360979
