Infrared Spectrum: N-Benzylmaleimide
Formula: C 11 H 9 N O 2
CAS: 1631-26-1
Origin: Sadtler Research Labs Under US-EPA Contract
1/CM	ABSORBANCE
450	0.00446055
462	0.0224202
474	0.0358018
486	0.0136164
498	0.00610392
510	0.00234766
522	0.00387364
534	0.00223028
546	0.000939064
558	0.00363887
570	0.0160815
582	0.0127947
594	0.00363887
606	0.0170205
618	0.0250026
630	0.0156119
642	0.0225375
654	0.00645606
666	0.0103297
678	0.035567
690	0.150602
702	0.212228
714	0.0946107
726	0.0700777
738	0.0248852
750	0.0113862
762	0.00798204
774	0.0113862
786	0.00915587
798	0.00997755
810	0.0262938
822	0.102241
834	0.171497
846	0.0439012
858	0.0238287
870	0.0301674
882	0.0342758
894	0.0206594
906	0.0193682
918	0.015025
930	0.0100949
942	0.00516485
954	0.00316934
966	0.00281719
978	0.00363887
990	0.00375626
1002	0.00563438
1014	0.00974279
1026	0.0333368
1038	0.0435491
1050	0.0106819
1062	0.0123252
1074	0.0250026
1086	0.024533
1098	0.0206594
1110	0.0239461
1122	0.0305196
1134	0.0876851
1146	0.14039
1158	0.0654997
1170	0.0253547
1182	0.0201899
1194	0.01256
1206	0.0118557
1218	0.0117383
1230	0.0123252
1242	0.013499
1254	0.0172553
1266	0.0199551
1278	0.0258243
1290	0.0399102
1302	0.0571655
1314	0.0656171
1326	0.0934369
1338	0.175018
1350	0.307543
1362	0.17537
1374	0.104471
1386	0.247561
1398	0.310009
1410	0.244861
1422	0.0788814
1434	0.111162
1446	0.13593
1458	0.04261
1470	0.0185465
1482	0.0113862
1494	0.0326325
1506	0.0292284
1518	0.0076299
1530	0.00610392
1542	0.00950802
1554	0.0100949
1566	0.0127947
1578	0.020542
1590	0.0239461
1602	0.0289936
1614	0.0161989
1626	0.00669083
1638	0.0106819
1650	0.0124426
1662	0.0145555
1674	0.0240635
1686	0.0429622
1698	0.0886242
1710	0.246504
1722	0.699485
1734	1.17383
1746	0.72261
1758	0.161636
1770	0.0707819
1782	0.0538788
1794	0.0356844
1806	0.0292284
1818	0.0226549
1830	0.01256
1842	0.00633868
1854	0.00493009
1866	0.00586915
1878	0.00516485
1890	0.00680821
1902	0.00516485
1914	0.00434317
1926	0.0041084
1938	0.00446055
1950	0.00539962
1962	0.00493009
1974	0.00105645
1986	0
1998	0.000586915
2010	0.000234766
2022	0.000586915
2034	0.00105645
2046	0.00105645
2058	0.00117383
2070	0.00199551
2082	0.00164336
2094	0.00176074
2106	0.00211289
2118	0.000704298
2130	0.00129121
2142	0.00234766
2154	0.00187813
2166	0.00211289
2178	0.00129121
2190	0.000821681
2202	0.000586915
2214	0.000352149
2226	0.000586915
2238	0.000704298
2250	0.000821681
2262	0.00152598
2274	0.00199551
2286	0.00246504
2298	0.00387364
2310	0.00586915
2322	0.00575177
2334	0.00575177
2346	0.00610392
2358	0.0048127
2370	0.00328672
2382	0.00293458
2394	0
2406	0.000352149
2418	0.000234766
2430	0.000352149
2442	0.000704298
2454	0.000704298
2466	0.000586915
2478	0.00129121
2490	0.00129121
2502	0.00164336
2514	0.00223028
2526	0.00258243
2538	0.00281719
2550	0.00199551
2562	0.00105645
2574	0.000821681
2586	0.000704298
2598	0.000821681
2610	0.00117383
2622	0.000939064
2634	0.00105645
2646	0.00129121
2658	0.000939064
2670	0.00105645
2682	0.00152598
2694	0.00129121
2706	0.00152598
2718	0.00211289
2730	0.0014086
2742	0.00152598
2754	0.00152598
2766	0.00152598
2778	0.00211289
2790	0.00293458
2802	0.00223028
2814	0.00246504
2826	0.00293458
2838	0.00258243
2850	0.00234766
2862	0.00269981
2874	0.00305196
2886	0.00305196
2898	0.00352149
2910	0.00493009
2922	0.00716036
2934	0.0160815
2946	0.0302848
2958	0.0233592
2970	0.00927326
2982	0.00704298
2994	0.00751251
3006	0.00845158
3018	0.0127947
3030	0.0294631
3042	0.0528223
3054	0.035567
3066	0.0448403
3078	0.0610392
3090	0.0294631
3102	0.022068
3114	0.0149076
3126	0.00680821
3138	0.00352149
3150	0.00281719
3162	0.00340411
3174	0.00281719
3186	0.00223028
3198	0.00176074
3210	0.00164336
3222	0.00129121
3234	0.0014086
3246	0.00164336
3258	0.00176074
3270	0.00117383
3282	0.00152598
3294	0.000939064
3306	0.00152598
3318	0.000821681
3330	0.00152598
3342	0.000821681
3354	0.000939064
3366	0.0014086
3378	0.000469532
3390	0.000586915
3402	0.000939064
3414	0
3426	0
3438	0.000469532
3450	0.000704298
3462	0.00176074
3474	0.00399102
3486	0.00997755
3498	0.0154946
3510	0.0117383
3522	0.00539962
3534	0.00305196
3546	0.00223028
3558	0.00199551
3570	0.00234766
3582	0.00176074
3594	0.00164336
3606	0.00164336
3618	0.00117383
3630	0.00211289
3642	0.00117383
3654	0.000939064
3666	0.00117383
3678	0.00223028
3690	0.000939064
3702	0.000586915
3714	0.00129121
3726	0.00117383
3738	0.000352149
3750	0.0014086
3762	0.000469532
3774	0.00129121
3786	0
3798	0.00164336
3810	0.00234766
3822	0.00187813
3834	0.00176074
3846	0.00117383
3858	0.00164336
3870	0.000469532
3882	0.00246504
3894	0.00129121
3906	0.0014086
3918	0.00176074
3930	0.00152598
3942	0.00152598
3954	0.00187813
3966	0.000234766
