Infrared Spectrum: Heptane, 3-methylene-
Formula: C 8 H 16
CAS: 1632-16-2
Origin: Sadtler Research Labs Under US-EPA Contract
1/CM	ABSORBANCE
450	0
462	0.0542327
474	0.0669669
486	0.0513862
498	0.0527345
510	0.0492888
522	0.0593263
534	0.0503375
546	0.0702628
558	0.0530342
570	0.0600754
582	0.0540829
594	0.0608245
606	0.0591765
618	0.0542327
630	0.0572289
642	0.0461427
654	0.0468918
666	0.0519855
678	0.049139
690	0.0468918
702	0.0429966
714	0.0540829
726	0.0578282
738	0.0671167
750	0.0584275
762	0.0498881
774	0.0611241
786	0.0750568
798	0.0755063
810	0.0648695
822	0.0608245
834	0.0591765
846	0.0522851
858	0.0605249
870	0.102173
882	0.253186
894	0.388917
906	0.200451
918	0.0785025
930	0.0702628
942	0.0651691
954	0.0557308
966	0.0537832
978	0.0545323
990	0.0557308
1002	0.059626
1014	0.0612739
1026	0.0576784
1038	0.0614237
1050	0.0690643
1062	0.0737085
1074	0.0777535
1086	0.0681654
1098	0.0726598
1110	0.0801505
1122	0.0713115
1134	0.0597758
1146	0.0503375
1158	0.0504873
1170	0.0522851
1182	0.0578282
1194	0.0617234
1206	0.0635211
1218	0.0582776
1230	0.0615736
1242	0.0678657
1254	0.0647196
1266	0.0641204
1278	0.0662178
1290	0.0657683
1302	0.0651691
1314	0.0674163
1326	0.0717609
1338	0.0807497
1350	0.0870419
1362	0.0897386
1374	0.125394
1386	0.155207
1398	0.110113
1410	0.0948323
1422	0.108016
1434	0.142323
1446	0.206444
1458	0.27371
1470	0.261575
1482	0.151911
1494	0.0820981
1506	0.0614237
1518	0.0558806
1530	0.0524349
1542	0.051536
1554	0.0489892
1566	0.0479405
1578	0.0486896
1590	0.0497382
1602	0.0522851
1614	0.0617234
1626	0.0933341
1638	0.171088
1650	0.202698
1662	0.122398
1674	0.0677159
1686	0.0546821
1698	0.0524349
1710	0.0546821
1722	0.0527345
1734	0.046742
1746	0.0470416
1758	0.0391015
1770	0.0518356
1782	0.0647196
1794	0.0642702
1806	0.0504873
1818	0.042697
1830	0.0397007
1842	0.0391015
1854	0.0377531
1866	0.0376033
1878	0.0376033
1890	0.0380528
1902	0.0385022
1914	0.038652
1926	0.0383524
1938	0.0382026
1950	0.0376033
1962	0.0373037
1974	0.0376033
1986	0.0374535
1998	0.0371539
2010	0.0379029
2022	0.0383524
2034	0.0389516
2046	0.0388018
2058	0.0382026
2070	0.0377531
2082	0.0379029
2094	0.0379029
2106	0.0380528
2118	0.0379029
2130	0.0383524
2142	0.0380528
2154	0.0380528
2166	0.0379029
2178	0.0379029
2190	0.0380528
2202	0.0382026
2214	0.0382026
2226	0.038652
2238	0.0385022
2250	0.0380528
2262	0.0380528
2274	0.0383524
2286	0.0379029
2298	0.0371539
2310	0.0367044
2322	0.0374535
2334	0.0379029
2346	0.0379029
2358	0.0383524
2370	0.0404498
2382	0.0413487
2394	0.0416483
2406	0.0407494
2418	0.0404498
2430	0.0407494
2442	0.0405996
2454	0.0403
2466	0.0400003
2478	0.0397007
2490	0.0397007
2502	0.0397007
2514	0.0403
2526	0.041049
2538	0.0417981
2550	0.0425472
2562	0.0431464
2574	0.0437457
2586	0.0441951
2598	0.0432962
2610	0.0435959
2622	0.0444948
2634	0.0452438
2646	0.046742
2658	0.0482401
2670	0.0494386
2682	0.0501877
2694	0.0504873
2706	0.0510866
2718	0.0524349
2730	0.0573788
2742	0.0633713
2754	0.0621728
2766	0.0609743
2778	0.0638208
2790	0.0696635
2802	0.0788022
2814	0.0928847
2826	0.121499
2838	0.178428
2850	0.285396
2862	0.468768
2874	0.640904
2886	0.730044
2898	0.660979
2910	0.672665
2922	0.904277
2934	1.29409
2946	1.31492
2958	1.11117
2970	1.49814
2982	1.08825
2994	0.445697
3006	0.250639
3018	0.169589
3030	0.133784
3042	0.115806
3054	0.106218
3066	0.131087
3078	0.213934
3090	0.206893
3102	0.112211
3114	0.0663676
3126	0.0590267
3138	0.0560304
3150	0.0552814
3162	0.0537832
3174	0.0537832
3186	0.053184
3198	0.0521353
3210	0.049139
3222	0.0470416
3234	0.0449442
3246	0.0429966
3258	0.0405996
3270	0.0416483
3282	0.0405996
3294	0.0400003
3306	0.0403
3318	0.0407494
3330	0.0408992
3342	0.0398505
3354	0.0389516
3366	0.0391015
3378	0.0394011
3390	0.0392513
3402	0.0383524
3414	0.0382026
3426	0.0377531
3438	0.0370041
3450	0.0368542
3462	0.0373037
3474	0.0376033
3486	0.0379029
3498	0.0383524
3510	0.0377531
3522	0.0374535
3534	0.0374535
3546	0.0383524
3558	0.0374535
3570	0.0413487
3582	0.0435959
3594	0.0397007
3606	0.0391015
3618	0.0383524
3630	0.0395509
3642	0.0405996
3654	0.0437457
3666	0.0407494
3678	0.0401502
3690	0.0403
3702	0.0395509
3714	0.0391015
3726	0.0383524
3738	0.0398505
3750	0.041049
3762	0.0401502
3774	0.0388018
3786	0.0389516
3798	0.0383524
3810	0.0371539
3822	0.0391015
3834	0.0392513
3846	0.0407494
3858	0.0404498
3870	0.0401502
3882	0.0404498
3894	0.0373037
3906	0.0389516
3918	0.0403
3930	0.0408992
3942	0.0420977
3954	0.042697
3966	0.0422475
