Infrared Spectrum: 2,4,4-Trimethyl-1-pentanol
Formula: C 8 H 18 O
CAS: 16325-63-6
Origin: Sadtler Research Labs Under US-EPA Contract
1/CM	ABSORBANCE
450	0.0340364
462	0.0117948
474	0.0190402
486	0.0269595
498	0.0208936
510	0.0136483
522	0.0224101
534	0.0106153
546	0.0325199
558	0.0299925
570	0.0153332
582	0.0155017
594	0.0187032
606	0.0170182
618	0.0220731
630	0.0156702
642	0.0165127
654	0.0163442
666	0.0171867
678	0.0129743
690	0.0197141
702	0.0121318
714	0.0126373
726	0.0143222
738	0.0168497
750	0.0166812
762	0.0161757
774	0.0149962
786	0.0153332
798	0.0180292
810	0.0173552
822	0.0208936
834	0.0207251
846	0.0208936
858	0.0283075
870	0.0269595
882	0.02915
894	0.0331939
906	0.0355529
918	0.0377433
930	0.0466737
942	0.0488641
954	0.0689153
966	0.0849225
978	0.083406
990	0.105985
1002	0.104974
1014	0.164453
1026	0.337331
1038	0.607769
1050	0.412649
1062	0.134798
1074	0.114746
1086	0.108512
1098	0.0914939
1110	0.0776771
1122	0.0625124
1134	0.0495381
1146	0.0473477
1158	0.0537505
1170	0.0653768
1182	0.0677358
1194	0.0832375
1206	0.101435
1218	0.103963
1230	0.107333
1242	0.121992
1254	0.102446
1266	0.0657138
1278	0.0621754
1290	0.0609959
1302	0.053582
1314	0.0497066
1326	0.0503806
1338	0.0601534
1350	0.0952008
1362	0.215339
1374	0.295207
1386	0.189559
1398	0.15805
1410	0.0763291
1422	0.0404393
1434	0.0429667
1446	0.0748127
1458	0.142885
1470	0.24213
1482	0.239266
1494	0.0968858
1506	0.029824
1518	0.0175237
1530	0.0112893
1542	0.00994132
1554	0.00893034
1566	0.00657138
1578	0.00623439
1590	0.00623439
1602	0.00657138
1614	0.00657138
1626	0.00505491
1638	0.0055604
1650	0.0055604
1662	0.00336994
1674	0.00421243
1686	0.00421243
1698	0.00370693
1710	0.00303295
1722	0.00269595
1734	0.00202196
1746	0.00202196
1758	0.00185347
1770	0.00202196
1782	0.00151647
1794	0.00134798
1806	0.00185347
1818	0.00168497
1830	0.00168497
1842	0.000842485
1854	0.00117948
1866	0.00134798
1878	0.00134798
1890	0.00134798
1902	0.00151647
1914	0.000842485
1926	0.00168497
1938	0.00168497
1950	0.00168497
1962	0.00202196
1974	0.00202196
1986	0.00202196
1998	0.00219046
2010	0.00168497
2022	0.00117948
2034	0.00202196
2046	0.00269595
2058	0.00336994
2070	0.00370693
2082	0.00235896
2094	0.00101098
2106	0.000842485
2118	0.00101098
2130	0
2142	0.000336994
2154	0
2166	0
2178	0.000505491
2190	0.000336994
2202	0.000505491
2214	0.000673988
2226	0.000505491
2238	0.000336994
2250	0.000673988
2262	0.00117948
2274	0.00134798
2286	0.00168497
2298	0.00269595
2310	0.00219046
2322	0.00235896
2334	0.00252746
2346	0.00353844
2358	0.00488641
2370	0.00320144
2382	0.00370693
2394	0.00454942
2406	0.00505491
2418	0.00488641
2430	0.00438092
2442	0.00454942
2454	0.00471792
2466	0.00471792
2478	0.00438092
2490	0.00438092
2502	0.00438092
2514	0.00488641
2526	0.00488641
2538	0.0057289
2550	0.00724537
2562	0.00741387
2574	0.00842485
2586	0.00859335
2598	0.00876184
2610	0.00909884
2622	0.00977283
2634	0.0107838
2646	0.0119633
2658	0.0134798
2670	0.0146592
2682	0.0171867
2694	0.0200511
2706	0.0230841
2718	0.0303295
2730	0.0372378
2742	0.0374063
2754	0.0387543
2766	0.0397653
2778	0.0412818
2790	0.0463367
2802	0.0525711
2814	0.0625124
2826	0.0805416
2838	0.123508
2850	0.207925
2862	0.358393
2874	0.609622
2886	0.656801
2898	0.661688
2910	0.761775
2922	0.780815
2934	0.764976
2946	0.969869
2958	1.56096
2970	1.47064
2982	0.595131
2994	0.213654
3006	0.085091
3018	0.0443147
3030	0.0293185
3042	0.0232526
3054	0.0200511
3066	0.0176922
3078	0.0165127
3090	0.0158387
3102	0.0144907
3114	0.0141537
3126	0.0136483
3138	0.0148277
3150	0.0149962
3162	0.0158387
3174	0.0171867
3186	0.0163442
3198	0.0153332
3210	0.0146592
3222	0.0136483
3234	0.0112893
3246	0.00909884
3258	0.00724537
3270	0.00623439
3282	0.00471792
3294	0.00303295
3306	0.00370693
3318	0.00336994
3330	0.00370693
3342	0.00336994
3354	0.00336994
3366	0.00303295
3378	0.00387543
3390	0.00219046
3402	0.00185347
3414	0.00168497
3426	0.00202196
3438	0.00185347
3450	0.00235896
3462	0.00286445
3474	0.00303295
3486	0.00235896
3498	0.00202196
3510	0.00219046
3522	0.00235896
3534	0.00219046
3546	0.000673988
3558	0.000505491
3570	0.00235896
3582	0.00134798
3594	0.00101098
3606	0.00202196
3618	0.00370693
3630	0.00724537
3642	0.0185347
3654	0.0503806
3666	0.0980653
3678	0.0955378
3690	0.0369008
3702	0.0102783
3714	0.00387543
3726	0.00185347
3738	0.00151647
3750	0.00235896
3762	0.000168497
3774	0.000505491
3786	0
3798	0.00202196
3810	0.00353844
3822	0.00336994
3834	0.00454942
3846	0.00454942
3858	0.00522341
3870	0.0055604
3882	0.0057289
3894	0.00286445
3906	0.00303295
3918	0.00387543
3930	0.00168497
3942	0
3954	0.00185347
3966	0.00235896
