Infrared Spectrum: Aniline, 4-chloro-N-methyl-3-nitro-,
Formula: C 7 H 7 Cl N 2 O 2
CAS: 16330-03-3
Origin: Sadtler Research Labs Under US-EPA Contract
1/CM	ABSORBANCE
450	0.00312223
462	0.000462552
474	0.00289095
486	0.00531935
498	0.00283313
510	0.00156111
522	0.00346914
534	0.00965577
546	0.017577
558	0.0195428
570	0.0282157
582	0.0361947
594	0.0369463
606	0.0297768
618	0.030991
630	0.0349227
642	0.0326677
654	0.0319739
666	0.0282157
678	0.030355
690	0.0215665
702	0.0183286
714	0.00849939
726	0.00653355
738	0.0112747
750	0.0157846
762	0.0146282
774	0.0143969
786	0.0263076
798	0.10656
810	0.211213
822	0.0560844
834	0.0191959
846	0.0392591
858	0.0409359
870	0.0120264
882	0.00294877
894	0.00173457
906	0.00890413
918	0.0102918
930	0.00543499
942	0.00393169
954	0.00300659
966	0.00341132
978	0.00179239
990	0.00271749
1002	0.00474116
1014	0.00312223
1026	0.0143969
1038	0.0395482
1050	0.0271171
1062	0.0259029
1074	0.0355587
1086	0.0311644
1098	0.0258451
1110	0.0259607
1122	0.0439424
1134	0.112631
1146	0.0971359
1158	0.0581659
1170	0.0459083
1182	0.0217399
1194	0.0168831
1206	0.0119685
1218	0.0174035
1230	0.0349805
1242	0.0744709
1254	0.0662028
1266	0.0881162
1278	0.0701344
1290	0.0637744
1302	0.117257
1314	0.244921
1326	0.230351
1338	0.130324
1350	0.196238
1362	0.271287
1374	0.13495
1386	0.066434
1398	0.0627336
1410	0.0505338
1422	0.046313
1434	0.0662606
1446	0.0625023
1458	0.0642369
1470	0.0927417
1482	0.162414
1494	0.321242
1506	0.465154
1518	0.358883
1530	0.370389
1542	0.40508
1554	0.57819
1566	0.371776
1578	0.228096
1590	0.145588
1602	0.129457
1614	0.216417
1626	0.16623
1638	0.0419766
1650	0.0131827
1662	0.00907758
1674	0.00618663
1686	0.0069961
1698	0.0101183
1710	0.0152064
1722	0.0106965
1734	0.00150329
1746	0
1758	0.00462552
1770	0.00653355
1782	0.00560844
1794	0.00422079
1806	0.00404733
1818	0.00318005
1830	0.00219712
1842	0.0021393
1854	0.00398951
1866	0.00659137
1878	0.00832594
1890	0.00543499
1902	0.00474116
1914	0.00398951
1926	0.00358478
1938	0.00387387
1950	0.00387387
1962	0.00450988
1974	0.00422079
1986	0.00387387
1998	0.00358478
2010	0.00312223
2022	0.00306441
2034	0.00306441
2046	0.00329568
2058	0.0036426
2070	0.00410515
2082	0.00393169
2094	0.00381605
2106	0.00445206
2118	0.00433643
2130	0.00404733
2142	0.00358478
2154	0.00346914
2166	0.00393169
2178	0.00329568
2190	0.00312223
2202	0.00352696
2214	0.0033535
2226	0.00352696
2238	0.00352696
2250	0.00260186
2262	0.00265967
2274	0.00306441
2286	0.00352696
2298	0.00474116
2310	0.006071
2322	0.00583972
2334	0.00572408
2346	0.00572408
2358	0.00410515
2370	0.00445206
2382	0.0045677
2394	0.00289095
2406	0.00300659
2418	0.00294877
2430	0.00294877
2442	0.00208148
2454	0.00161893
2466	0.00132984
2478	0.00161893
2490	0.00150329
2502	0.00144548
2514	0.00173457
2526	0.00196585
2538	0.00306441
2550	0.00265967
2562	0.0024284
2574	0.00277531
2586	0.0021393
2598	0.00179239
2610	0.00202367
2622	0.00138766
2634	0.00132984
2646	0.000462552
2658	0.000462552
2670	0
2682	0.000867285
2694	0.0012142
2706	0.00167675
2718	0.00219712
2730	0.00260186
2742	0.00312223
2754	0.00439424
2766	0.00555062
2778	0.00647573
2790	0.00855721
2802	0.0123154
2814	0.0220869
2826	0.0395482
2838	0.0433064
2850	0.0298346
2862	0.0241683
2874	0.0277531
2886	0.037698
2898	0.0545233
2910	0.0592645
2922	0.0574721
2934	0.0574721
2946	0.0589754
2958	0.048221
2970	0.0312801
2982	0.0260186
2994	0.045041
3006	0.0302972
3018	0.0127202
3030	0.0145704
3042	0.0156689
3054	0.0115638
3066	0.0106387
3078	0.0136453
3090	0.0129515
3102	0.00774775
3114	0.00398951
3126	0.0024284
3138	0.00248622
3150	0.00231276
3162	0.00115638
3174	0.000867285
3186	0.000925104
3198	0.00138766
3210	0.00132984
3222	0.0012142
3234	0.00185021
3246	0.00265967
3258	0.00231276
3270	0.00346914
3282	0.00427861
3294	0.00537717
3306	0.00641791
3318	0.00722738
3330	0.00768993
3342	0.00901976
3354	0.010234
3366	0.0109278
3378	0.0112747
3390	0.0123733
3402	0.0141078
3414	0.0172879
3426	0.0183286
3438	0.0195428
3450	0.0289095
3462	0.0483945
3474	0.03579
3486	0.011506
3498	0.00520371
3510	0.00294877
3522	0.00306441
3534	0.00150329
3546	0.00144548
3558	0.0012142
3570	0.00306441
3582	0.00312223
3594	0.00202367
3606	0.00156111
3618	0.00127202
3630	0.00196585
3642	0.000173457
3654	0.0012142
3666	0.00109856
3678	0.00196585
3690	0.00150329
3702	0.00208148
3714	0.0024284
3726	0.00329568
3738	0.00219712
3750	0.00127202
3762	0.00237058
3774	0.00254404
3786	0.00150329
3798	0.00231276
3810	0.00132984
3822	0.00283313
3834	0.00352696
3846	0.0036426
3858	0.00132984
3870	0.00346914
3882	0.00196585
3894	0.00341132
3906	0.00323786
3918	0.00358478
3930	0.0024284
3942	0.00237058
3954	0.00387387
3966	0.0036426
