Infrared Spectrum: Decane, 1,10-diiodo-
Formula: C 10 H 20 I 2
CAS: 16355-92-3
Origin: Sadtler Research Labs Under US-EPA Contract
1/CM	ABSORBANCE
450	0.0390419
462	0.0633723
474	0.071506
486	0.0319691
498	0
510	0.0291399
522	0.032252
534	0.0283619
546	0.0268766
558	0.0454781
570	0.0384053
582	0.0244012
594	0.0485901
606	0.044983
618	0.0352225
630	0.0318983
642	0.0287863
654	0.0323227
666	0.0316154
678	0.0272303
690	0.034586
702	0.0365664
714	0.0450537
726	0.0500754
738	0.044983
750	0.038476
762	0.0389711
774	0.0301301
786	0.0355055
798	0.0360713
810	0.0292107
822	0.0360006
834	0.027301
846	0.0287156
858	0.0316154
870	0.0321812
882	0.0301301
894	0.0340202
906	0.0336665
918	0.0391126
930	0.033808
942	0.0279376
954	0.03303
966	0.0329592
978	0.0298472
990	0.0345153
1002	0.0298472
1014	0.0299887
1026	0.0317569
1038	0.0282205
1050	0.0321105
1062	0.0311203
1074	0.0300594
1086	0.0362127
1098	0.0372737
1110	0.046539
1122	0.0511363
1134	0.0418002
1146	0.0423661
1158	0.0554508
1170	0.0961194
1182	0.0961901
1194	0.0970388
1206	0.10496
1218	0.0955535
1230	0.0835298
1242	0.0732742
1254	0.0646454
1266	0.0609675
1278	0.0555922
1290	0.05149
1302	0.0489438
1314	0.0407393
1326	0.0345153
1338	0.0388297
1350	0.0526216
1362	0.048873
1374	0.040315
1386	0.028079
1398	0.0252499
1410	0.0258864
1422	0.0339494
1434	0.0607554
1446	0.0657063
1458	0.0853687
1470	0.0639381
1482	0.0304838
1494	0.0220671
1506	0.0180356
1518	0.016904
1530	0.0161967
1542	0.0152065
1554	0.0152772
1566	0.0150651
1578	0.0142163
1590	0.0142871
1602	0.0143578
1614	0.0147114
1626	0.0149236
1638	0.0173991
1650	0.0160553
1662	0.0130847
1674	0.0134383
1686	0.0126603
1698	0.0128018
1710	0.0140041
1722	0.0137212
1734	0.0148529
1746	0.0147114
1758	0.0130847
1770	0.0131554
1782	0.0117408
1794	0.0112458
1806	0.0121652
1818	0.0101848
1830	0.0117408
1842	0.0109628
1854	0.00891173
1866	0.0111043
1878	0.00968974
1890	0.00891173
1902	0.0106799
1914	0.00770935
1926	0.00877027
1938	0.0093361
1950	0.00792154
1962	0.0101141
1974	0.00905318
1986	0.00778008
1998	0.00926537
2010	0.00799226
2022	0.00905318
2034	0.00983119
2046	0.0083459
2058	0.00961901
2070	0.00983119
2082	0.00785081
2094	0.00827518
2106	0.00806299
2118	0.00735571
2130	0.00799226
2142	0.00735571
2154	0.00700207
2166	0.00778008
2178	0.00686062
2190	0.0065777
2202	0.00735571
2214	0.00671916
2226	0.00650698
2238	0.00693134
2250	0.00544606
2262	0.00643625
2274	0.00714353
2286	0.0070728
2298	0.0109628
2310	0.0135798
2322	0.0112458
2334	0.0151358
2346	0.0147114
2358	0.0133676
2370	0.0219257
2382	0.0120945
2394	0.00686062
2406	0.00558751
2418	0.00268766
2430	0.00445586
2442	0.00346567
2454	0.00311203
2466	0.00417295
2478	0.00198038
2490	0.00318276
2502	0.00410222
2514	0.0030413
2526	0.00452659
2538	0.00381931
2550	0.00367786
2562	0.00488023
2574	0.0040315
2586	0.00431441
2598	0.00551678
2610	0.00502169
2622	0.0053046
2634	0.00594115
2646	0.00721426
2658	0.00813372
2670	0.00891173
2682	0.00997265
2694	0.00940682
2706	0.00898246
2718	0.00735571
2730	0.00785081
2742	0.00891173
2754	0.00869954
2766	0.0113165
2778	0.011953
2790	0.0141456
2802	0.0186015
2814	0.0224208
2826	0.0316861
2838	0.0557337
2850	0.11366
2862	0.261552
2874	0.207516
2886	0.12724
2898	0.136222
2910	0.191956
2922	0.353569
2934	0.691083
2946	0.497006
2958	0.199736
2970	0.148034
2982	0.0805592
2994	0.0460439
3006	0.0411637
3018	0.049156
3030	0.0246841
3042	0.016126
3054	0.0141456
3066	0.0137212
3078	0.0123067
3090	0.0142163
3102	0.00940682
3114	0.00671916
3126	0.00742644
3138	0.00664843
3150	0.00742644
3162	0.00587042
3174	0.00664843
3186	0.00502169
3198	0.00558751
3210	0.00551678
3222	0.00431441
3234	0.00544606
3246	0.00778008
3258	0.00445586
3270	0.00565824
3282	0.00587042
3294	0.00488023
3306	0.00629479
3318	0.00629479
3330	0.0070728
3342	0.0057997
3354	0.00332422
3366	0.0075679
3378	0.00671916
3390	0.00608261
3402	0.00693134
3414	0.00601188
3426	0.00488023
3438	0.00792154
3450	0.00565824
3462	0.00601188
3474	0.00820445
3486	0.00473878
3498	0.00678989
3510	0.00466805
3522	0.00502169
3534	0.00629479
3546	0.00502169
3558	0.00431441
3570	0.00424368
3582	0.00622406
3594	0.00346567
3606	0.00551678
3618	0.00452659
3630	0.00537533
3642	0.00523387
3654	0.00459732
3666	0.00332422
3678	0.00466805
3690	0.00424368
3702	0.00565824
3714	0.00325349
3726	0.00381931
3738	0.0065777
3750	0.00735571
3762	0.00594115
3774	0.00551678
3786	0.00155602
3798	0.00643625
3810	0.00926537
3822	0.00282912
3834	0.00417295
3846	0.00770935
3858	0.00523387
3870	0.00608261
3882	0.00565824
3894	0.0035364
3906	0.00629479
3918	0.00700207
3930	0.00615334
3942	0.00360713
3954	0.00565824
3966	0.013014
