Infrared Spectrum: Octadecane-d38
Formula: C 18 D 38
CAS: 16416-31-2
Origin: Sadtler Research Labs Under US-EPA Contract
1/CM	ABSORBANCE
450	0
462	0.0114002
474	0.00934982
486	0.00623322
498	0.0118923
510	0.0144348
522	0.0181255
534	0.0237846
546	0.0227184
558	0.0184536
570	0.0182896
582	0.015583
594	0.0172234
606	0.0115643
618	0.0127125
630	0.0113182
642	0.0130405
654	0.0118923
666	0.0126305
678	0.0120564
690	0.0127125
702	0.0140247
714	0.015501
726	0.0138607
738	0.0121384
750	0.0129585
762	0.0140247
774	0.0137787
786	0.0137787
798	0.0118923
810	0.0116463
822	0.00943184
834	0.00893974
846	0.0114002
858	0.0133686
870	0.0141068
882	0.0128765
894	0.0126305
906	0.0106621
918	0.010416
930	0.0127125
942	0.0160751
954	0.0218983
966	0.0259991
978	0.0270653
990	0.0226364
1002	0.0174694
1014	0.0168133
1026	0.0177975
1038	0.0238667
1050	0.0312481
1062	0.0551148
1074	0.0537205
1086	0.10375
1098	0.0534744
1110	0.0301819
1122	0.0263271
1134	0.0251789
1146	0.0242767
1158	0.0234566
1170	0.0233746
1182	0.0220623
1194	0.0193558
1206	0.0173874
1218	0.0156651
1230	0.0140247
1242	0.0125484
1254	0.0118923
1266	0.0128765
1278	0.0137787
1290	0.0167313
1302	0.020586
1314	0.0172234
1326	0.0107441
1338	0.0097599
1350	0.00926781
1362	0.00910378
1374	0.00852966
1386	0.0086937
1398	0.0082016
1410	0.0082016
1422	0.0077095
1434	0.00836563
1446	0.00811958
1458	0.0077095
1470	0.00811958
1482	0.00943184
1494	0.00828362
1506	0.00688934
1518	0.00688934
1530	0.0086937
1542	0.00918579
1554	0.00902176
1566	0.00893974
1578	0.00811958
1590	0.00762749
1602	0.00746346
1614	0.00787354
1626	0.00754547
1638	0.00787354
1650	0.00811958
1662	0.00779152
1674	0.00738144
1686	0.00762749
1698	0.00803757
1710	0.00795555
1722	0.00787354
1734	0.00803757
1746	0.00844765
1758	0.00844765
1770	0.00828362
1782	0.0086937
1794	0.00861168
1806	0.00918579
1818	0.00918579
1830	0.00926781
1842	0.00967789
1854	0.00984192
1866	0.0097599
1878	0.010006
1890	0.00984192
1902	0.010334
1914	0.0109081
1926	0.0119743
1938	0.0141888
1950	0.0161572
1962	0.0164032
1974	0.0169773
1986	0.0175514
1998	0.0190277
2010	0.0217342
2022	0.0250969
2034	0.03092
2046	0.0419102
2058	0.0661049
2070	0.118759
2082	0.200693
2094	0.341269
2106	0.469706
2118	0.304935
2130	0.196674
2142	0.157635
2154	0.149679
2166	0.158537
2178	0.209387
2190	0.410654
2202	0.82016
2214	0.560415
2226	0.418282
2238	0.173956
2250	0.0996494
2262	0.0661869
2274	0.046257
2286	0.0337906
2298	0.0279675
2310	0.0253429
2322	0.0223904
2334	0.0194378
2346	0.0174694
2358	0.0177975
2370	0.015255
2382	0.0130405
2394	0.010416
2406	0.00951386
2418	0.00885773
2430	0.00811958
2442	0.00779152
2454	0.00754547
2466	0.00738144
2478	0.00705338
2490	0.00713539
2502	0.00705338
2514	0.00705338
2526	0.00697136
2538	0.00688934
2550	0.00729942
2562	0.00713539
2574	0.00779152
2586	0.00811958
2598	0.00746346
2610	0.00754547
2622	0.00713539
2634	0.00688934
2646	0.00647926
2658	0.00647926
2670	0.00647926
2682	0.00631523
2694	0.00647926
2706	0.00631523
2718	0.0066433
2730	0.00688934
2742	0.00672531
2754	0.00688934
2766	0.0066433
2778	0.00656128
2790	0.00688934
2802	0.00713539
2814	0.00705338
2826	0.00738144
2838	0.00762749
2850	0.00852966
2862	0.010334
2874	0.0138607
2886	0.0296898
2898	0.0663509
2910	0.0582314
2922	0.0321503
2934	0.0223084
2946	0.0216522
2958	0.0123024
2970	0.00918579
2982	0.0082016
2994	0.00803757
3006	0.00779152
3018	0.00762749
3030	0.00754547
3042	0.00803757
3054	0.0077095
3066	0.0086937
3078	0.0086937
3090	0.00934982
3102	0.010334
3114	0.010334
3126	0.0105801
3138	0.0114002
3150	0.0124664
3162	0.0138607
3174	0.0139427
3186	0.0136967
3198	0.0127945
3210	0.0127945
3222	0.0118923
3234	0.0109081
3246	0.010252
3258	0.0107441
3270	0.0114002
3282	0.0113182
3294	0.00951386
3306	0.00885773
3318	0.00902176
3330	0.00836563
3342	0.00828362
3354	0.00762749
3366	0.00721741
3378	0.00721741
3390	0.00721741
3402	0.00697136
3414	0.00754547
3426	0.00680733
3438	0.00754547
3450	0.00721741
3462	0.00680733
3474	0.00713539
3486	0.00729942
3498	0.00729942
3510	0.00713539
3522	0.00746346
3534	0.00729942
3546	0.00729942
3558	0.00697136
3570	0.00688934
3582	0.00705338
3594	0.00787354
3606	0.00713539
3618	0.00746346
3630	0.00746346
3642	0.00762749
3654	0.00787354
3666	0.00861168
3678	0.00623322
3690	0.00811958
3702	0.00795555
3714	0.00795555
3726	0.00705338
3738	0.00729942
3750	0.00713539
3762	0.00713539
3774	0.00836563
3786	0.00779152
3798	0.00729942
3810	0.00861168
3822	0.00738144
3834	0.00746346
3846	0.00787354
3858	0.00697136
3870	0.0086937
3882	0.00795555
3894	0.00746346
3906	0.00844765
3918	0.00779152
3930	0.00844765
3942	0.0061512
3954	0.00828362
3966	0.00836563
