Infrared Spectrum: Tetracosane-d50
Formula: C 24 D 50
CAS: 16416-32-3
Origin: Sadtler Research Labs Under US-EPA Contract
1/CM	ABSORBANCE
450	0.00985835
462	0.00081812
474	0.00404969
486	0.00155443
498	0.00319067
510	0.00331339
522	0.00662677
534	0.01219
546	0.00895841
558	0.00597228
570	0.00486781
582	0.00589046
594	0.00449966
606	0.0047451
618	0.00417241
630	0.00417241
642	0.00384516
654	0.00441785
666	0.00257708
678	0.00388607
690	0.00470419
702	0.00437694
714	0.00560412
726	0.00695402
738	0.0095311
750	0.00638134
762	0.00769033
774	0.0061359
786	0.00482691
798	0.00486781
810	0.00740399
822	0.0040906
834	0.00306795
846	0.00327248
858	0.00433604
870	0.00470419
882	0.00507234
894	0.00380426
906	0.00441785
918	0.00494963
930	0.00658587
942	0.00924476
954	0.0123536
966	0.0146443
978	0.0153807
990	0.0131717
1002	0.0109628
1014	0.0119446
1026	0.0130081
1038	0.0150534
1050	0.0195531
1062	0.0288796
1074	0.031784
1086	0.0650405
1098	0.0276525
1110	0.0172214
1122	0.0143171
1134	0.013049
1146	0.0125581
1158	0.0119036
1170	0.0114128
1182	0.00998106
1194	0.00850845
1206	0.00699493
1218	0.00650405
1230	0.00572684
1242	0.00503144
1254	0.00531778
1266	0.00691311
1278	0.00421332
1290	0.00580865
1302	0.00764942
1314	0.00539959
1326	0.00306795
1338	0.00188168
1350	0.000777214
1362	0.00184077
1374	0.00216802
1386	0.00179986
1398	0.00147262
1410	0.00159533
1422	0.00175896
1434	0.0027407
1446	0.00265889
1458	0.00384516
1470	0.00212711
1482	0.00175896
1494	0.00143171
1506	0.00179986
1518	0.00118627
1530	0.00143171
1542	0.0020453
1554	0.00208621
1566	0.00188168
1578	0.00220892
1590	0.00200439
1602	0.00323157
1614	0.00331339
1626	0.00314976
1638	0.00388607
1650	0.00233164
1662	0.00155443
1674	0.00179986
1686	0.00229074
1698	0.00290433
1710	0.00421332
1722	0.00711764
1734	0.00769033
1746	0.00482691
1758	0.00380426
1770	0.00441785
1782	0.00368154
1794	0.0033952
1806	0.00302704
1818	0.00216802
1830	0.00229074
1842	0.0020453
1854	0.0020453
1866	0.00224983
1878	0.00237255
1890	0.00245436
1902	0.00257708
1914	0.00286342
1926	0.00359973
1938	0.00470419
1950	0.00564503
1962	0.0061359
1974	0.00658587
1986	0.00728127
1998	0.00850845
2010	0.0101856
2022	0.0120264
2034	0.016117
2046	0.0233982
2058	0.0383289
2070	0.0690902
2082	0.113514
2094	0.196553
2106	0.230873
2118	0.14493
2130	0.0963336
2142	0.0795213
2154	0.0782123
2166	0.0859435
2178	0.12055
2190	0.240445
2202	0.40906
2214	0.259549
2226	0.165587
2238	0.0772305
2250	0.0461829
2262	0.0301068
2274	0.0202076
2286	0.0144807
2298	0.01219
2310	0.0113719
2322	0.00949019
2334	0.00711764
2346	0.00740399
2358	0.00703583
2370	0.00470419
2382	0.00429513
2394	0.00188168
2406	0.00155443
2418	0.000940838
2430	0.000695402
2442	0.000572684
2454	0.00061359
2466	0.000490872
2478	0.00040906
2490	0.000368154
2502	0.000122718
2514	0.000327248
2526	0.000327248
2538	0.000327248
2550	0.00040906
2562	0.000572684
2574	0.000940838
2586	0.000859026
2598	0.000736308
2610	0.000859026
2622	0.000572684
2634	0.00061359
2646	0.000531778
2658	0.00061359
2670	0.000859026
2682	0.00040906
2694	0.00061359
2706	0.000695402
2718	0.000736308
2730	0.000981744
2742	0.000777214
2754	0.00102265
2766	0.0013499
2778	0.00175896
2790	0.00167715
2802	0.00151352
2814	0.00155443
2826	0.00155443
2838	0.00163624
2850	0.0020453
2862	0.0033952
2874	0.00560412
2886	0.0135808
2898	0.0242573
2910	0.0179577
2922	0.00932657
2934	0.00707674
2946	0.00617681
2958	0.00404969
2970	0.00265889
2982	0.00188168
2994	0.00188168
3006	0.00184077
3018	0.00151352
3030	0.00192258
3042	0.00208621
3054	0.00278161
3066	0.00298614
3078	0.00355882
3090	0.00314976
3102	0.00286342
3114	0.00331339
3126	0.00314976
3138	0.0033952
3150	0.0040906
3162	0.004786
3174	0.00523597
3186	0.00445875
3198	0.00458147
3210	0.00445875
3222	0.00380426
3234	0.00331339
3246	0.00298614
3258	0.0034361
3270	0.00347701
3282	0.0034361
3294	0.00216802
3306	0.00208621
3318	0.00200439
3330	0.0013499
3342	0.00179986
3354	0.00106356
3366	0.00081812
3378	0.000572684
3390	0.00126809
3402	0.000981744
3414	0.00110446
3426	0.00118627
3438	0.000940838
3450	0.000572684
3462	0.000695402
3474	0.000449966
3486	0.000572684
3498	0.000449966
3510	0.00130899
3522	0.000899932
3534	0.00040906
3546	0.000449966
3558	0.000122718
3570	0.0013499
3582	0.00102265
3594	0.000899932
3606	0.000490872
3618	0.000531778
3630	0.00122718
3642	0.00081812
3654	0.000654496
3666	0.00130899
3678	0.00061359
3690	0.000654496
3702	4.0906e-05
3714	0.00130899
3726	0.000859026
3738	0.000736308
3750	0.00147262
3762	0.00040906
3774	0.00102265
3786	0.000899932
3798	0.000286342
3810	0.000940838
3822	0.00212711
3834	0.000531778
3846	0.00102265
3858	0.00102265
3870	0.000981744
3882	0.000327248
3894	0.000122718
3906	0
3918	0.00171805
3930	0.000368154
3942	0.000899932
3954	0.00081812
3966	0.00106356
