Infrared Spectrum: Benzenamine, 2-((4-methylphenyl)thio)-
Formula: C 13 H 13 N S
CAS: 16452-09-8
Origin: Sadtler Research Labs Under US-EPA Contract
1/CM	ABSORBANCE
450	0.0534249
462	0.0209086
474	0.0144352
486	0.0287959
498	0.0455749
510	0.0369436
522	0.0116821
534	0.00699435
546	0.0148444
558	0.00669672
570	0.000520856
582	0.00636188
594	0.00751521
606	0.0104915
618	0.0154025
630	0.0170766
642	0.0141747
654	0.0154769
666	0.0176347
678	0.0313258
690	0.0302841
702	0.0309537
714	0.0365343
726	0.0540574
738	0.211802
750	0.246514
762	0.0581499
774	0.042487
786	0.0614238
798	0.142789
810	0.136725
822	0.0454261
834	0.0226572
846	0.0161837
858	0.00814768
870	0.0055434
882	0.00550619
894	0.00517136
906	0.00621307
918	0.00595264
930	0.0109008
942	0.00989626
954	0.00718037
966	0.00755241
978	0.00781284
990	0.00851972
1002	0.0148816
1014	0.0763054
1026	0.0511555
1038	0.0234757
1050	0.0233641
1062	0.0285355
1074	0.0624655
1086	0.0686786
1098	0.0299864
1110	0.020797
1122	0.0186392
1134	0.0167418
1146	0.025708
1158	0.0617586
1170	0.00825929
1182	0.0195321
1194	0.00349718
1206	0.0101567
1218	0.0101567
1230	0.0173743
1242	0.0328883
1254	0.0499278
1266	0.0146212
1278	0.0179695
1290	0.0575174
1302	0.131107
1314	0.0863877
1326	0.0161093
1338	0.00844531
1350	0.00669672
1362	0.00572942
1374	0.00900337
1386	0.0166674
1398	0.0256336
1410	0.0259684
1422	0.0280146
1434	0.0477699
1446	0.107594
1458	0.0754869
1470	0.148258
1482	0.291754
1494	0.276947
1506	0.0821836
1518	0.0256708
1530	0.0146584
1542	0.0166674
1554	0.02608
1566	0.0437147
1578	0.0680833
1590	0.109826
1602	0.222815
1614	0.37204
1626	0.187434
1638	0.0559548
1650	0.0226572
1662	0.011496
1674	0.0111612
1686	0.0114588
1698	0.00796166
1710	0.0065107
1722	0.00625027
1734	0.00881735
1746	0.00863133
1758	0.00989626
1770	0.0148444
1782	0.0128354
1794	0.00517136
1806	0.00420405
1818	0.00148816
1830	0.00137655
1842	0.00260428
1854	0.00520856
1866	0.00829649
1878	0.0117565
1890	0.0193833
1902	0.0123145
1914	0.00677113
1926	0.00911498
1938	0.00238106
1950	0.00100451
1962	0.000892896
1974	0.00115332
1986	0.00119053
1998	0.00115332
2010	0.00107892
2022	0.000520856
2034	0.000223224
2046	0.00018602
2058	0
2070	0.000334836
2082	0.000818488
2094	0.000446448
2106	0.000781284
2118	0.000669672
2130	0.000967304
2142	0.00111612
2154	0.000892896
2166	0.0009301
2178	0.00122773
2190	0.000781284
2202	0.000260428
2214	0.000223224
2226	0.000297632
2238	0.000483652
2250	0.000334836
2262	0.00100451
2274	0.00137655
2286	0.00316234
2298	0.0055434
2310	0.00684554
2322	0.00643629
2334	0.00338556
2346	0.00349718
2358	0.00394362
2370	0.00241826
2382	0.00305073
2394	0.00163698
2406	0.00163698
2418	0.001823
2430	0.00137655
2442	0.00152536
2454	0.00193461
2466	0.00159977
2478	0.000855692
2490	0.000706876
2502	0.00104171
2514	0.00141375
2526	0.00215783
2538	0.00238106
2550	0.00286471
2562	0.00249267
2574	0.00252987
2586	0.00331116
2598	0.00431566
2610	0.0056178
2622	0.00383201
2634	0.00264148
2646	0.00215783
2658	0.001823
2670	0.0018602
2682	0.00230665
2694	0.00264148
2706	0.00256708
2718	0.00226944
2730	0.00349718
2742	0.0065479
2754	0.0046877
2766	0.00319954
2778	0.00360879
2790	0.00364599
2802	0.00401803
2814	0.00457609
2826	0.00591544
2838	0.00851972
2850	0.0143235
2862	0.0271217
2874	0.0453145
2886	0.0462818
2898	0.0361251
2910	0.0374644
2922	0.0560292
2934	0.0938285
2946	0.0540202
2958	0.0302096
2970	0.0296144
2982	0.0331116
2994	0.0380225
3006	0.0540202
3018	0.102906
3030	0.12761
3042	0.0813279
3054	0.0947586
3066	0.115035
3078	0.130846
3090	0.0488116
3102	0.0192717
3114	0.0109008
3126	0.0065479
3138	0.00643629
3150	0.00520856
3162	0.00505974
3174	0.00494813
3186	0.00494813
3198	0.00345997
3210	0.00245546
3222	0.00167418
3234	0.00197181
3246	0.000967304
3258	0.00115332
3270	0.001823
3282	0.0018602
3294	0.00234385
3306	0.00345997
3318	0.00479932
3330	0.00755241
3342	0.0109008
3354	0.016965
3366	0.0246663
3378	0.035753
3390	0.0632096
3402	0.0601589
3414	0.0196809
3426	0.012575
3438	0.0139887
3450	0.0196065
3462	0.0267869
3474	0.0361251
3486	0.0488116
3498	0.0721758
3510	0.0482908
3522	0.015328
3534	0.00513415
3546	0.00405524
3558	0.00297632
3570	0.000669672
3582	0.00145096
3594	0.00130214
3606	0.00122773
3618	0.00137655
3630	0.00197181
3642	0.00148816
3654	0.00122773
3666	0.00167418
3678	0.001823
3690	0.00141375
3702	0.00167418
3714	0.00174859
3726	0.00133934
3738	0.00208342
3750	0.00193461
3762	0.00104171
3774	0.00178579
3786	0.00208342
3798	0.00122773
3810	0.00122773
3822	0.00152536
3834	0.00297632
3846	0.00267869
3858	0.00405524
3870	0.00353438
3882	0.0018602
3894	0.00364599
3906	0.00308793
3918	0.00349718
3930	0.00271589
3942	0.00267869
3954	0.00345997
3966	0.00137655
