Infrared Spectrum: Cyclododecane-d24
Formula: C 12 D 24
CAS: 16450-78-5
Origin: Sadtler Research Labs Under US-EPA Contract
1/CM	ABSORBANCE
450	0
462	0.00947869
474	0.00724841
486	0.00769447
498	0.00702538
510	0.0107053
522	0.0183998
534	0.0230834
546	0.0413717
558	0.0425983
570	0.0208531
582	0.00925566
594	0.0095902
606	0.00691387
618	0.00802901
630	0.00914415
642	0.0102593
654	0.00970172
666	0.00892112
678	0.00947869
690	0.00936718
702	0.00858658
714	0.00724841
726	0.00747144
738	0.00814052
750	0.015612
762	0.0175077
774	0.00925566
786	0.00780598
798	0.00680235
810	0.00780598
822	0.00691387
834	0.00780598
846	0.00825204
858	0.00724841
870	0.00680235
882	0.00791749
894	0.00981323
906	0.00925566
918	0.00892112
930	0.0110399
942	0.015835
954	0.0205186
966	0.0383608
978	0.0761641
990	0.0724841
1002	0.0259828
1014	0.0138277
1026	0.0149429
1038	0.0194034
1050	0.0161695
1062	0.0245331
1074	0.0597715
1086	0.116198
1098	0.120547
1110	0.0537497
1122	0.0437135
1134	0.0234179
1146	0.0224143
1158	0.0376917
1170	0.0293282
1182	0.0189574
1194	0.0128241
1206	0.0105938
1218	0.0100363
1230	0.00880961
1242	0.00858658
1254	0.00802901
1266	0.00780598
1278	0.00724841
1290	0.00847506
1302	0.0108169
1314	0.0105938
1326	0.0071369
1338	0.00613327
1350	0.00524116
1362	0.00535267
1374	0.00524116
1386	0.00524116
1398	0.00524116
1410	0.00512964
1422	0.00501813
1434	0.0047951
1446	0.00468359
1458	0.0055757
1470	0.00512964
1482	0.00501813
1494	0.00512964
1506	0.00591024
1518	0.00579873
1530	0.00535267
1542	0.0055757
1554	0.00568721
1566	0.00546419
1578	0.00524116
1590	0.0055757
1602	0.00512964
1614	0.0055757
1626	0.00546419
1638	0.00591024
1650	0.00546419
1662	0.00535267
1674	0.00546419
1686	0.00624478
1698	0.00724841
1710	0.00892112
1722	0.0129356
1734	0.0122665
1746	0.00847506
1758	0.00691387
1770	0.00680235
1782	0.00624478
1794	0.00591024
1806	0.00591024
1818	0.0063563
1830	0.0063563
1842	0.00568721
1854	0.00568721
1866	0.00591024
1878	0.0063563
1890	0.0063563
1902	0.00669084
1914	0.0071369
1926	0.00791749
1938	0.00880961
1950	0.0108169
1962	0.0141623
1974	0.0163926
1986	0.0171732
1998	0.0195149
2010	0.0214107
2022	0.0223028
2034	0.0253137
2046	0.0336772
2058	0.0507389
2070	0.0831894
2082	0.147979
2094	0.404573
2106	0.586452
2118	0.519544
2130	0.352942
2142	0.236856
2154	0.22392
2166	0.216783
2178	0.258824
2190	0.561473
2202	1.05548
2214	0.860219
2226	0.314804
2238	0.167159
2250	0.110845
2262	0.0717035
2274	0.0433789
2286	0.0322275
2298	0.0287706
2310	0.0273209
2322	0.0248676
2334	0.0223028
2346	0.0189574
2358	0.0181768
2370	0.0151659
2382	0.0128241
2394	0.00936718
2406	0.00903263
2418	0.00825204
2430	0.00747144
2442	0.00691387
2454	0.00579873
2466	0.00546419
2478	0.00524116
2490	0.00468359
2502	0.00446056
2514	0.00434905
2526	0.0047951
2538	0.00434905
2550	0.00446056
2562	0.00446056
2574	0.00468359
2586	0.00468359
2598	0.00446056
2610	0.00490662
2622	0.00468359
2634	0.00446056
2646	0.00423753
2658	0.00412602
2670	0.00423753
2682	0.00367996
2694	0.00390299
2706	0.00423753
2718	0.00412602
2730	0.00446056
2742	0.00423753
2754	0.00423753
2766	0.00412602
2778	0.00423753
2790	0.0040145
2802	0.0040145
2814	0.00423753
2826	0.00434905
2838	0.00446056
2850	0.00501813
2862	0.00546419
2874	0.00602176
2886	0.00992475
2898	0.0351269
2910	0.0352384
2922	0.0129356
2934	0.0114859
2946	0.00747144
2958	0.00591024
2970	0.00568721
2982	0.0047951
2994	0.00490662
3006	0.0047951
3018	0.00490662
3030	0.00490662
3042	0.00546419
3054	0.00546419
3066	0.0063563
3078	0.00657933
3090	0.00735992
3102	0.00814052
3114	0.00836355
3126	0.00869809
3138	0.0102593
3150	0.0111514
3162	0.0123781
3174	0.0133817
3186	0.0129356
3198	0.0108169
3210	0.0101478
3222	0.00981323
3234	0.00936718
3246	0.00880961
3258	0.00903263
3270	0.0109284
3282	0.0108169
3294	0.00903263
3306	0.00747144
3318	0.00780598
3330	0.00613327
3342	0.00613327
3354	0.00524116
3366	0.00512964
3378	0.00524116
3390	0.00490662
3402	0.00501813
3414	0.00512964
3426	0.00512964
3438	0.0047951
3450	0.00434905
3462	0.00468359
3474	0.00412602
3486	0.00446056
3498	0.00434905
3510	0.00468359
3522	0.00446056
3534	0.00468359
3546	0.00457207
3558	0.00390299
3570	0.00468359
3582	0.00412602
3594	0.00423753
3606	0.0040145
3618	0.0047951
3630	0.0040145
3642	0.00512964
3654	0.00501813
3666	0.00524116
3678	0.00379148
3690	0.00468359
3702	0.00457207
3714	0.0047951
3726	0.00412602
3738	0.00535267
3750	0.00535267
3762	0.0047951
3774	0.0047951
3786	0.00579873
3798	0.00524116
3810	0.00602176
3822	0.00434905
3834	0.00512964
3846	0.00535267
3858	0.00434905
3870	0.00446056
3882	0.00546419
3894	0.00457207
3906	0.00602176
3918	0.0047951
3930	0.00546419
3942	0.00457207
3954	0.00457207
3966	0.00412602
