Infrared Spectrum: Cyclohexanol, 1-, 3-diisopropylamino-2-ethoxy-1-propynyl-,
Formula: C 17 H 31 N O 2
CAS: 16464-42-9
Origin: Sadtler Research Labs Under US-EPA Contract
1/CM	ABSORBANCE
450	0.00352275
462	0.00847137
474	0.00671
486	0.0104005
498	0.0135039
510	0.0125813
522	0.0171944
534	0.0213881
546	0.0212204
558	0.0157685
570	0.0135039
582	0.00981338
594	0.00679388
606	0.00863913
618	0.00654225
630	0.00192913
642	0.00083875
654	0.00343888
666	0.00679388
678	0.0030195
690	0.00310338
702	0.002684
714	0.00276788
726	0.00083875
738	0.00117425
750	0.0016775
762	0.0010065
774	0.00125813
786	0.00285175
798	0.00218075
810	0.00243238
822	0.00427763
834	0.00788425
846	0.0164395
858	0.00947788
870	0.00914238
882	0.0159363
894	0.0254141
906	0.0310338
918	0.0231495
930	0.0280143
942	0.0435311
954	0.091927
966	0.123045
978	0.0579576
990	0.0479765
1002	0.0561963
1014	0.0613965
1026	0.0790103
1038	0.0882365
1050	0.125393
1062	0.194758
1074	0.194842
1086	0.238457
1098	0.393877
1110	0.440512
1122	0.24827
1134	0.142084
1146	0.117006
1158	0.101824
1170	0.126316
1182	0.13831
1194	0.122961
1206	0.118851
1218	0.0975466
1230	0.0781715
1242	0.0840427
1254	0.108954
1266	0.0920948
1278	0.0666806
1290	0.0696163
1302	0.0828685
1314	0.0962046
1326	0.106521
1338	0.119438
1350	0.155085
1362	0.199203
1374	0.160621
1386	0.13529
1398	0.091256
1410	0.0465506
1422	0.0313693
1434	0.0387502
1446	0.078507
1458	0.0997274
1470	0.0835395
1482	0.039589
1494	0.016775
1506	0.010065
1518	0.00712938
1530	0.0050325
1542	0.00478088
1554	0.0043615
1566	0.00410988
1578	0.00444538
1590	0.00410988
1602	0.00444538
1614	0.0043615
1626	0.00444538
1638	0.00444538
1650	0.00377438
1662	0.00410988
1674	0.00427763
1686	0.00612288
1698	0.0077165
1710	0.009394
1722	0.0111554
1734	0.0104005
1746	0.00645838
1758	0.00629063
1770	0.00520025
1782	0.00318725
1794	0.00226463
1806	0.00117425
1818	0.0003355
1830	0.00016775
1842	8.3875e-05
1854	0.00016775
1866	0.000251625
1878	0.00050325
1890	0.000587125
1902	0.000754875
1914	0.00150975
1926	0.00159363
1938	0.00109037
1950	0.001342
1962	0.00117425
1974	0.00142588
1986	0.00159363
1998	0.00184525
2010	0.0023485
2022	0.00251625
2034	0.00243238
2046	0.00209688
2058	0.00218075
2070	0.002013
2082	0.00218075
2094	0.002013
2106	0.00159363
2118	0.00159363
2130	0.00142588
2142	0.00125813
2154	0.00083875
2166	0.00109037
2178	0.000922625
2190	0.0010065
2202	0.00184525
2214	0.00226463
2226	0.00293563
2238	0.00243238
2250	0.002013
2262	0.00125813
2274	0.0016775
2286	0.00226463
2298	0.00327113
2310	0.00410988
2322	0.00218075
2334	0.00016775
2346	0.00109037
2358	0.00159363
2370	0.00109037
2382	0.00226463
2394	0.00050325
2406	0.000251625
2418	0.00050325
2430	0.0003355
2442	0.0003355
2454	0.000587125
2466	0.000754875
2478	0.0010065
2490	0.000671
2502	0.00050325
2514	0.000587125
2526	0.000419375
2538	0.0003355
2550	0.000671
2562	0.00109037
2574	0.00209688
2586	0.003355
2598	0.00578737
2610	0.00796813
2622	0.00746488
2634	0.006039
2646	0.00629063
2658	0.007381
2670	0.00889075
2682	0.00947788
2694	0.0103166
2706	0.0119941
2718	0.012749
2730	0.0138394
2742	0.0143426
2754	0.0165234
2766	0.019459
2778	0.0239883
2790	0.0316209
2802	0.0416859
2814	0.0520025
2826	0.0613126
2838	0.0870623
2850	0.166324
2862	0.269155
2874	0.255064
2886	0.198197
2898	0.188467
2910	0.205158
2922	0.260348
2934	0.490669
2946	0.83875
2958	0.443279
2970	0.501489
2982	0.35672
2994	0.139065
3006	0.0509121
3018	0.0286014
3030	0.019459
3042	0.0135039
3054	0.0101489
3066	0.00796813
3078	0.0070455
3090	0.0063745
3102	0.00620675
3114	0.00478088
3126	0.00478088
3138	0.00452925
3150	0.00410988
3162	0.00427763
3174	0.00352275
3186	0.00352275
3198	0.00310338
3210	0.00285175
3222	0.002684
3234	0.00209688
3246	0.00176138
3258	0.001342
3270	0.00142588
3282	0.000754875
3294	0.00117425
3306	0.0016775
3318	0.00209688
3330	0.002013
3342	0.00184525
3354	0.00251625
3366	0.00260013
3378	0.0016775
3390	0.00218075
3402	0.002684
3414	0.0023485
3426	0.00285175
3438	0.00343888
3450	0.00276788
3462	0.004026
3474	0.00360663
3486	0.00377438
3498	0.0036905
3510	0.003355
3522	0.0030195
3534	0.00318725
3546	0.003355
3558	0.00260013
3570	0.00276788
3582	0.00117425
3594	0.00310338
3606	0.004026
3618	0.00880688
3630	0.0255819
3642	0.0372405
3654	0.0105683
3666	0.00218075
3678	0.00150975
3690	0.00150975
3702	0.00050325
3714	0.00109037
3726	0.00192913
3738	0.00109037
3750	0.000922625
3762	0.00192913
3774	0.00083875
3786	0.002013
3798	0.00226463
3810	0.00192913
3822	0.00285175
3834	0.00218075
3846	0.00394213
3858	0.00352275
3870	0.00276788
3882	0.00310338
3894	0.0036905
3906	0.00360663
3918	0.00150975
3930	0.0023485
3942	0.00125813
3954	0.00360663
3966	0.00209688
