Infrared Spectrum: 4-Hexyn-3-ol, 3-methyl-6-(2-piperidinoethoxy)-,
Formula: C 14 H 25 N O 2
CAS: 16464-38-3
Origin: Sadtler Research Labs Under US-EPA Contract
1/CM	ABSORBANCE
450	0
462	0.0107689
474	0.00893591
486	0.00893591
498	0.0106544
510	0.00950873
522	0.00950873
534	0.0139767
546	0.0179864
558	0.0183301
570	0.0152369
582	0.0200485
594	0.0203922
606	0.0123728
618	0.00744659
630	0.0052699
642	0.00332233
654	0.00607184
666	0.013633
678	0.0130602
690	0.00813397
702	0.00733203
714	0.00423883
726	0.00469708
738	0.00824854
750	0.0159243
762	0.0211942
774	0.0137476
786	0.0162679
798	0.0111126
810	0.0114563
822	0.0168408
834	0.0145495
846	0.022798
858	0.0415864
870	0.0274951
882	0.0201631
894	0.0375767
906	0.0961184
918	0.121322
930	0.0748096
942	0.0569378
954	0.0459398
966	0.0639262
978	0.0949727
990	0.117198
1002	0.127967
1014	0.129685
1026	0.127738
1038	0.167377
1050	0.158212
1062	0.162679
1074	0.180551
1086	0.273004
1098	0.476353
1110	0.630096
1122	0.437287
1134	0.283658
1146	0.212056
1158	0.246425
1170	0.171844
1182	0.119489
1194	0.119031
1206	0.121322
1218	0.103909
1230	0.0867242
1242	0.0902756
1254	0.117885
1266	0.133924
1278	0.111355
1290	0.117542
1302	0.154431
1314	0.170699
1326	0.1888
1338	0.208734
1350	0.30153
1362	0.218586
1374	0.164856
1386	0.138048
1398	0.0703417
1410	0.0457106
1422	0.0449087
1434	0.0698834
1446	0.124988
1458	0.145151
1470	0.10746
1482	0.0449087
1494	0.0208505
1506	0.0129456
1518	0.00882135
1530	0.00630096
1542	0.00664465
1554	0.00584271
1566	0.00538446
1578	0.00584271
1590	0.00630096
1602	0.00698834
1614	0.00790485
1626	0.00985242
1638	0.00790485
1650	0.00549902
1662	0.00458252
1674	0.00584271
1686	0.00916504
1698	0.0139767
1710	0.0160388
1722	0.022798
1734	0.0341398
1746	0.0249747
1758	0.0092796
1770	0.00595728
1782	0.00435339
1794	0.00469708
1806	0.00469708
1818	0.00446796
1830	0.00274951
1842	0.00183301
1854	0.00183301
1866	0.00206213
1878	0.00252039
1890	0.00332233
1902	0.00355145
1914	0.0040097
1926	0.00423883
1938	0.0040097
1950	0.00355145
1962	0.00274951
1974	0.00297864
1986	0.00286407
1998	0.0030932
2010	0.00332233
2022	0.0040097
2034	0.0040097
2046	0.00423883
2058	0.00389514
2070	0.00332233
2082	0.00332233
2094	0.0030932
2106	0.0030932
2118	0.00297864
2130	0.00286407
2142	0.00274951
2154	0.00263495
2166	0.00229126
2178	0.00229126
2190	0.00263495
2202	0.00297864
2214	0.00332233
2226	0.0040097
2238	0.00435339
2250	0.00378058
2262	0.00286407
2274	0.00274951
2286	0.00389514
2298	0.00423883
2310	0.00492621
2322	0.00343689
2334	0.00229126
2346	0.0030932
2358	0.00332233
2370	0.00263495
2382	0.00366602
2394	0.00240582
2406	0.00286407
2418	0.00320776
2430	0.00286407
2442	0.00263495
2454	0.00229126
2466	0.00297864
2478	0.00366602
2490	0.00378058
2502	0.0040097
2514	0.00389514
2526	0.00366602
2538	0.00366602
2550	0.00355145
2562	0.00423883
2574	0.00641553
2586	0.00916504
2598	0.0123728
2610	0.0140912
2622	0.0156951
2634	0.0185592
2646	0.0241728
2658	0.0300155
2670	0.040097
2682	0.0483456
2694	0.0549902
2706	0.061864
2718	0.069998
2730	0.0876407
2742	0.114678
2754	0.14687
2766	0.158555
2778	0.186165
2790	0.218357
2802	0.185363
2814	0.153514
2826	0.147672
2838	0.153056
2850	0.249747
2862	0.379433
2874	0.312299
2886	0.250435
2898	0.278732
2910	0.309091
2922	0.476009
2934	0.80996
2946	1.11573
2958	0.48357
2970	0.288699
2982	0.333035
2994	0.209307
3006	0.0705708
3018	0.0294427
3030	0.020965
3042	0.0158097
3054	0.0130602
3066	0.0115709
3078	0.0106544
3090	0.00962329
3102	0.00824854
3114	0.00664465
3126	0.00549902
3138	0.00458252
3150	0.00469708
3162	0.00458252
3174	0.00538446
3186	0.00572815
3198	0.00481165
3210	0.00412427
3222	0.00446796
3234	0.00412427
3246	0.00343689
3258	0.00297864
3270	0.00274951
3282	0.00263495
3294	0.00263495
3306	0.00332233
3318	0.0030932
3330	0.00378058
3342	0.00389514
3354	0.00355145
3366	0.00412427
3378	0.00481165
3390	0.00412427
3402	0.00469708
3414	0.00446796
3426	0.00423883
3438	0.00355145
3450	0.00389514
3462	0.00366602
3474	0.0040097
3486	0.00492621
3498	0.00538446
3510	0.00469708
3522	0.00481165
3534	0.00446796
3546	0.00435339
3558	0.0040097
3570	0.00446796
3582	0.00389514
3594	0.0040097
3606	0.00469708
3618	0.0106544
3630	0.0299009
3642	0.0515533
3654	0.0305883
3666	0.0083631
3678	0.00320776
3690	0.0030932
3702	0.00183301
3714	0.00286407
3726	0.0021767
3738	0.00229126
3750	0.00263495
3762	0.00183301
3774	0.0021767
3786	0.00240582
3798	0.00286407
3810	0.00263495
3822	0.00183301
3834	0.00286407
3846	0.00263495
3858	0.00297864
3870	0.00286407
3882	0.00458252
3894	0.00469708
3906	0.0040097
3918	0.00492621
3930	0.00286407
3942	0.00435339
3954	0.00423883
3966	0.00229126
