Infrared Spectrum: Cyclohexanol, 1-, 3-piperidino-2-ethoxy-1-propynyl-,
Formula: C 16 H 27 N O 2
CAS: 16464-43-0
Origin: Sadtler Research Labs Under US-EPA Contract
1/CM	ABSORBANCE
450	0.0168335
462	0.0078334
474	0.00333336
486	0.00641672
498	0.00741673
510	0.0103334
522	0.0128334
534	0.0122501
546	0.0125834
558	0.0100001
570	0.00741673
582	0.00675005
594	0.00533338
606	0.00608338
618	0.00608338
630	0.00325003
642	0.00225002
654	0.0044167
666	0.00591671
678	0.00191668
690	0.00266669
702	0.00316669
714	0.00216668
726	0.00125001
738	0.0036667
750	0.00916674
762	0.0144168
774	0.0115001
786	0.0078334
798	0.00458337
810	0.00625005
822	0.00916674
834	0.00991675
846	0.0175001
858	0.0207502
870	0.0125834
882	0.0103334
894	0.0182501
906	0.0255835
918	0.0212502
930	0.0293336
942	0.0395836
954	0.0677505
966	0.088084
978	0.037167
990	0.0340836
1002	0.0418337
1014	0.0488337
1026	0.0630005
1038	0.0779173
1050	0.105001
1062	0.147335
1074	0.139751
1086	0.149085
1098	0.226585
1110	0.265669
1122	0.179085
1134	0.107501
1146	0.0650005
1158	0.0857507
1170	0.0870007
1182	0.0652505
1194	0.0408337
1206	0.036917
1218	0.0352503
1230	0.0349169
1242	0.043667
1254	0.0678339
1266	0.0729173
1278	0.0564171
1290	0.0552504
1302	0.0715839
1314	0.0767506
1326	0.0834173
1338	0.0915841
1350	0.124251
1362	0.0985008
1374	0.0731673
1386	0.0544171
1398	0.0318336
1410	0.0228335
1422	0.0232502
1434	0.037917
1446	0.0780006
1458	0.079334
1470	0.0455837
1482	0.0169168
1494	0.00766673
1506	0.00550004
1518	0.00316669
1530	0.00191668
1542	0.00341669
1554	0.00308336
1566	0.0036667
1578	0.00458337
1590	0.00375003
1602	0.0044167
1614	0.00425003
1626	0.00408337
1638	0.00450004
1650	0.00408337
1662	0.0041667
1674	0.00408337
1686	0.00641672
1698	0.00933341
1710	0.0134168
1722	0.0185835
1734	0.0176668
1746	0.00850007
1758	0.0080834
1770	0.00575005
1782	0.00450004
1794	0.00541671
1806	0.00475004
1818	0.00358336
1830	0.000750006
1842	0
1854	0
1866	0
1878	0.000166668
1890	0.000583338
1902	0.000333336
1914	0.00108334
1926	0.00125001
1938	0.000916674
1950	0.000750006
1962	0.000666672
1974	0.00083334
1986	0.000916674
1998	0.00108334
2010	0.00133334
2022	0.00141668
2034	0.00141668
2046	0.00108334
2058	0.00116668
2070	0.000916674
2082	0.000916674
2094	0.000916674
2106	0.000916674
2118	0.00083334
2130	0.00108334
2142	0.00100001
2154	0.000666672
2166	0.000750006
2178	0.000750006
2190	0.000750006
2202	0.00133334
2214	0.00158335
2226	0.00250002
2238	0.00208335
2250	0.00166668
2262	0.00100001
2274	0.00108334
2286	0.00216668
2298	0.00358336
2310	0.00483337
2322	0.00225002
2334	0.000333336
2346	0.00225002
2358	0.00191668
2370	0.00191668
2382	0.00291669
2394	0.000750006
2406	0.000583338
2418	0.00083334
2430	0.000583338
2442	0.000500004
2454	0.00041667
2466	0.000666672
2478	0.00125001
2490	0.00150001
2502	0.00133334
2514	0.00133334
2526	0.00108334
2538	0.00108334
2550	0.00125001
2562	0.00150001
2574	0.00241669
2586	0.0041667
2598	0.00591671
2610	0.00683339
2622	0.00775006
2634	0.0085834
2646	0.0120001
2658	0.0155001
2670	0.0212502
2682	0.0241669
2694	0.0263335
2706	0.0298336
2718	0.0330836
2730	0.0420003
2742	0.0539171
2754	0.0690006
2766	0.0745839
2778	0.0884174
2790	0.103084
2802	0.088334
2814	0.0737506
2826	0.0707506
2838	0.0761673
2850	0.132668
2862	0.234335
2874	0.186168
2886	0.118251
2898	0.127668
2910	0.154001
2922	0.245169
2934	0.501254
2946	0.83334
2958	0.286752
2970	0.0857507
2982	0.038917
2994	0.0217502
3006	0.0111668
3018	0.00700006
3030	0.00483337
3042	0.00341669
3054	0.00250002
3066	0.00175001
3078	0.00166668
3090	0.000916674
3102	0.00133334
3114	0.000500004
3126	0.00108334
3138	0.000583338
3150	0.000666672
3162	0.00116668
3174	0.00083334
3186	0.000916674
3198	0.00083334
3210	0.000583338
3222	0.00125001
3234	0.000916674
3246	0.00125001
3258	0.000500004
3270	0.00108334
3282	0.00083334
3294	0.00116668
3306	0.00166668
3318	0.00241669
3330	0.00250002
3342	0.00225002
3354	0.00275002
3366	0.00283336
3378	0.00291669
3390	0.00241669
3402	0.0036667
3414	0.00341669
3426	0.00333336
3438	0.0039167
3450	0.00350003
3462	0.00425003
3474	0.00425003
3486	0.00483337
3498	0.00500004
3510	0.0041667
3522	0.00375003
3534	0.0041667
3546	0.0041667
3558	0.00316669
3570	0.00316669
3582	0.00225002
3594	0.00341669
3606	0.00383336
3618	0.00725006
3630	0.0166668
3642	0.0256669
3654	0.00800006
3666	0.00175001
3678	0.00175001
3690	0.00133334
3702	0.00116668
3714	0.00108334
3726	0.00191668
3738	0.00141668
3750	0.000666672
3762	0.00183335
3774	0.000333336
3786	0.00100001
3798	0.00133334
3810	0.00083334
3822	0.00175001
3834	0.00150001
3846	0.00250002
3858	0.00283336
3870	0.00141668
3882	0.00333336
3894	0.00275002
3906	0.00341669
3918	0.00166668
3930	0.00141668
3942	0.00125001
3954	0.00275002
3966	0.00116668
