Infrared Spectrum: Cyclohexane, (2-bromoethyl)-
Formula: C 8 H 15 Br
CAS: 1647-26-3
Origin: Sadtler Research Labs Under US-EPA Contract
1/CM	ABSORBANCE
450	0
462	0.170672
474	0.176616
486	0.198976
498	0.207467
510	0.206901
522	0.190202
534	0.196711
546	0.216666
558	0.204778
570	0.208599
582	0.218788
594	0.188786
606	0.193032
618	0.193173
630	0.187796
642	0.205486
654	0.227421
666	0.209731
678	0.194023
690	0.189777
702	0.192324
714	0.187654
726	0.184258
738	0.192041
750	0.199542
762	0.188928
774	0.187371
786	0.186381
798	0.186381
810	0.188503
822	0.194023
834	0.192607
846	0.194023
858	0.186805
870	0.193598
882	0.194023
894	0.196145
906	0.196145
918	0.201948
930	0.204778
942	0.188645
954	0.187796
966	0.190485
978	0.183267
990	0.183975
1002	0.18539
1014	0.18539
1026	0.186381
1038	0.18723
1050	0.185531
1062	0.186664
1074	0.187654
1086	0.191334
1098	0.192749
1110	0.185956
1122	0.184682
1134	0.184965
1146	0.18355
1158	0.185107
1170	0.186097
1182	0.189918
1194	0.192749
1206	0.196145
1218	0.228695
1230	0.205486
1242	0.233082
1254	0.258697
1266	0.255442
1278	0.237327
1290	0.220062
1302	0.1994
1314	0.196145
1326	0.196853
1338	0.205486
1350	0.20407
1362	0.191051
1374	0.187513
1386	0.18256
1398	0.18256
1410	0.182984
1422	0.189777
1434	0.209873
1446	0.281198
1458	0.289548
1470	0.216949
1482	0.185107
1494	0.18072
1506	0.178597
1518	0.179446
1530	0.177748
1542	0.177465
1554	0.177465
1566	0.176616
1578	0.177748
1590	0.177182
1602	0.175625
1614	0.176333
1626	0.176333
1638	0.176191
1650	0.176333
1662	0.175908
1674	0.176474
1686	0.176899
1698	0.175625
1710	0.175908
1722	0.175767
1734	0.175342
1746	0.176191
1758	0.175767
1770	0.175342
1782	0.175484
1794	0.175342
1806	0.175059
1818	0.175201
1830	0.174917
1842	0.175201
1854	0.175059
1866	0.175059
1878	0.175767
1890	0.175625
1902	0.175484
1914	0.175625
1926	0.174917
1938	0.174634
1950	0.174493
1962	0.173927
1974	0.17421
1986	0.17421
1998	0.174068
2010	0.174068
2022	0.173219
2034	0.173219
2046	0.173219
2058	0.173785
2070	0.174351
2082	0.174351
2094	0.173502
2106	0.173927
2118	0.173502
2130	0.173502
2142	0.173785
2154	0.173361
2166	0.174351
2178	0.175059
2190	0.174351
2202	0.174351
2214	0.173644
2226	0.173502
2238	0.174068
2250	0.173219
2262	0.173644
2274	0.173361
2286	0.173219
2298	0.173644
2310	0.17421
2322	0.173219
2334	0.173785
2346	0.174351
2358	0.173219
2370	0.175059
2382	0.174776
2394	0.173927
2406	0.173219
2418	0.172512
2430	0.172229
2442	0.172087
2454	0.171804
2466	0.17237
2478	0.172229
2490	0.172936
2502	0.172087
2514	0.171238
2526	0.171238
2538	0.17138
2550	0.172087
2562	0.172087
2574	0.172512
2586	0.17237
2598	0.173785
2610	0.174351
2622	0.174634
2634	0.176333
2646	0.177465
2658	0.18256
2670	0.186239
2682	0.183975
2694	0.180437
2706	0.177748
2718	0.176616
2730	0.177182
2742	0.175908
2754	0.175059
2766	0.175342
2778	0.178031
2790	0.184258
2802	0.188362
2814	0.188503
2826	0.195296
2838	0.229544
2850	0.353514
2862	0.573152
2874	0.430218
2886	0.30554
2898	0.348561
2910	0.448898
2922	0.727974
2934	1.39792
2946	0.973509
2958	0.326343
2970	0.250913
2982	0.249215
2994	0.203221
3006	0.19473
3018	0.208316
3030	0.188645
3042	0.177606
3054	0.176757
3066	0.175201
3078	0.174068
3090	0.17421
3102	0.174917
3114	0.173361
3126	0.174917
3138	0.173785
3150	0.175484
3162	0.17605
3174	0.174068
3186	0.175201
3198	0.173644
3210	0.173078
3222	0.173927
3234	0.173785
3246	0.174917
3258	0.174351
3270	0.175484
3282	0.172936
3294	0.173502
3306	0.171238
3318	0.172229
3330	0.172512
3342	0.175059
3354	0.175342
3366	0.17421
3378	0.173927
3390	0.172229
3402	0.174068
3414	0.174776
3426	0.17421
3438	0.174493
3450	0.175767
3462	0.174776
3474	0.174917
3486	0.177465
3498	0.174351
3510	0.176616
3522	0.175342
3534	0.175625
3546	0.176333
3558	0.175342
3570	0.175625
3582	0.175484
3594	0.174351
3606	0.177465
3618	0.17704
3630	0.17704
3642	0.176333
3654	0.178031
3666	0.177465
3678	0.179163
3690	0.175484
3702	0.177465
3714	0.177182
3726	0.176616
3738	0.177465
3750	0.178031
3762	0.178031
3774	0.180437
3786	0.175342
3798	0.178172
3810	0.177889
3822	0.178455
3834	0.177889
3846	0.178314
3858	0.175201
3870	0.177606
3882	0.177606
3894	0.180437
3906	0.179022
3918	0.175625
3930	0.175767
3942	0.180578
3954	0.179588
3966	0.17704
