Infrared Spectrum: 1,9-Decadiene
Formula: C 10 H 18
CAS: 1647-16-1
Origin: Sadtler Research Labs Under US-EPA Contract
1/CM	ABSORBANCE
450	0.0006261
462	0.00050088
474	0.00200352
486	0.0037566
498	0.00413226
510	0.00262962
522	0.00350616
534	0.00613578
546	0.0093915
558	0.0107689
570	0.00851496
582	0.0081393
594	0.0068871
606	0.0131481
618	0.033559
630	0.0564742
642	0.0393191
654	0.0205361
666	0.0127724
678	0.00951672
690	0.0110194
702	0.0101428
714	0.0162786
726	0.0231657
738	0.0206613
750	0.0197848
762	0.0182821
774	0.0108941
786	0.00851496
798	0.0106437
810	0.0106437
822	0.0117707
834	0.0156525
846	0.0194091
858	0.0265466
870	0.036439
882	0.0473332
894	0.0869027
906	0.264465
918	0.3843
930	0.134987
942	0.0621091
954	0.0544707
966	0.0707493
978	0.0733789
990	0.154271
1002	0.129227
1014	0.0617335
1026	0.0445783
1038	0.0363138
1050	0.033559
1062	0.0257953
1074	0.0234161
1086	0.0221639
1098	0.0138994
1110	0.0130229
1122	0.0164038
1134	0.0122716
1146	0.010268
1158	0.0108941
1170	0.0103933
1182	0.0103933
1194	0.010268
1206	0.00914106
1218	0.00901584
1230	0.00964194
1242	0.0112698
1254	0.0121463
1266	0.0123968
1278	0.0162786
1290	0.0204109
1302	0.023917
1314	0.0205361
1326	0.0217883
1338	0.023917
1350	0.0366895
1362	0.0338094
1374	0.0236666
1386	0.0160282
1398	0.0175308
1410	0.0289258
1422	0.0432009
1434	0.0548464
1446	0.107564
1458	0.11082
1470	0.0742555
1482	0.0293015
1494	0.0117707
1506	0.0093915
1518	0.00701232
1530	0.00776364
1542	0.010268
1554	0.0075132
1566	0.00651144
1578	0.0068871
1590	0.00738798
1602	0.0111446
1614	0.0215378
1626	0.0424496
1638	0.135864
1650	0.135864
1662	0.0286754
1674	0.0111446
1686	0.00701232
1698	0.00475836
1710	0.0018783
1722	0.0018783
1734	0.00137742
1746	0.00025044
1758	0.00100176
1770	0.00087654
1782	0.0018783
1794	0.00262962
1806	0.00588534
1818	0.0172804
1830	0.0393191
1842	0.0181569
1854	0.0056349
1866	0.00275484
1878	0.0018783
1890	0.00162786
1902	0.00087654
1914	0.00087654
1926	0.00037566
1938	0.00050088
1950	0.00087654
1962	0.00162786
1974	0.00388182
1986	0.0037566
1998	0.00162786
2010	0.00112698
2022	0.00100176
2034	0.00150264
2046	0.00150264
2058	0.00150264
2070	0.00087654
2082	0.00112698
2094	0.00050088
2106	0.00050088
2118	0.00025044
2130	0.00025044
2142	0.00012522
2154	0.00050088
2166	0.00025044
2178	0.00050088
2190	0.00037566
2202	0.00037566
2214	0.00025044
2226	0.00012522
2238	0.00050088
2250	0.0006261
2262	0.00100176
2274	0.00112698
2286	0.00200352
2298	0.00413226
2310	0.00463314
2322	0.0043827
2334	0.00338094
2346	0.0050088
2358	0.00325572
2370	0.00388182
2382	0.00338094
2394	0.00025044
2406	0.00050088
2418	0.00050088
2430	0.00025044
2442	0.00037566
2454	0.00087654
2466	0.00075132
2478	0.0012522
2490	0.00100176
2502	0.00150264
2514	0.00175308
2526	0.00262962
2538	0.00262962
2550	0.00288006
2562	0.0031305
2574	0.00325572
2586	0.00288006
2598	0.00338094
2610	0.00413226
2622	0.00488358
2634	0.00550968
2646	0.00663666
2658	0.00776364
2670	0.00864018
2682	0.0107689
2694	0.0108941
2706	0.0093915
2718	0.0081393
2730	0.00801408
2742	0.00889062
2754	0.00976716
2766	0.0111446
2778	0.0128977
2790	0.0154021
2802	0.021037
2814	0.0289258
2826	0.043827
2838	0.0837722
2850	0.212248
2862	0.427251
2874	0.368773
2886	0.204234
2898	0.22214
2910	0.384175
2922	0.741052
2934	1.2522
2946	0.861889
2958	0.304034
2970	0.165165
2982	0.190835
2994	0.181569
3006	0.164038
3018	0.112322
3030	0.0638622
3042	0.0483349
3054	0.0524672
3066	0.08252
3078	0.153144
3090	0.24756
3102	0.0731285
3114	0.0271727
3126	0.0175308
3138	0.0131481
3150	0.00951672
3162	0.00788886
3174	0.00701232
3186	0.00550968
3198	0.00488358
3210	0.0050088
3222	0.0037566
3234	0.00425748
3246	0.00388182
3258	0.0031305
3270	0.00363138
3282	0.0043827
3294	0.00413226
3306	0.0043827
3318	0.00413226
3330	0.00538446
3342	0.00475836
3354	0.00413226
3366	0.00463314
3378	0.00450792
3390	0.00363138
3402	0.00425748
3414	0.00413226
3426	0.00262962
3438	0.00338094
3450	0.00288006
3462	0.00175308
3474	0.00262962
3486	0.00162786
3498	0.00162786
3510	0.00150264
3522	0.00137742
3534	0.00162786
3546	0.00175308
3558	0.00225396
3570	0.00162786
3582	0.00112698
3594	0.00037566
3606	0.00025044
3618	0.0012522
3630	0.00225396
3642	0.00075132
3654	0.00137742
3666	0.00162786
3678	0.00200352
3690	0.00137742
3702	0.00137742
3714	0.00112698
3726	0.00100176
3738	0.00087654
3750	0.00200352
3762	0.00087654
3774	0.00137742
3786	0.00112698
3798	0.00012522
3810	0.00100176
3822	0.0018783
3834	0.00162786
3846	0.00162786
3858	0.0018783
3870	0.00262962
3882	0.00075132
3894	0.0012522
3906	0.00150264
3918	0.00275484
3930	0.00237918
3942	0.00200352
3954	0.00212874
3966	0
