Infrared Spectrum: 3-Pentyn-2-ol, 5-diisopropylamino-2-ethoxy-2-methyl-,
Formula: C 14 H 27 N O 2
CAS: 16488-99-6
Origin: Sadtler Research Labs Under US-EPA Contract
1/CM	ABSORBANCE
450	0.0159033
462	0.0189194
474	0.017
486	0.0220726
498	0.0220726
510	0.0222097
522	0.0234436
534	0.0337259
546	0.0500404
558	0.059363
570	0.0440081
582	0.0434597
594	0.0346855
606	0.014121
618	0.0046613
630	0.00109678
642	0.00191936
654	0.00315323
666	0.00850001
678	0.0186452
690	0.0260484
702	0.0135726
714	0.00644356
726	0.00301613
738	0.00260484
750	0.00329033
762	0.00178226
774	0.00164516
786	0.00274194
798	0.00205646
810	0.00315323
822	0.00548388
834	0.0137097
846	0.0275565
858	0.0356452
870	0.0283791
882	0.0278307
894	0.0279678
906	0.0401694
918	0.0822582
930	0.165887
942	0.267202
954	0.206194
966	0.119137
978	0.0978873
990	0.103234
1002	0.129968
1014	0.139428
1026	0.147791
1038	0.162734
1050	0.174936
1062	0.18467
1074	0.264323
1086	0.495469
1098	0.963381
1110	1.20714
1122	0.696727
1134	0.40992
1146	0.416364
1158	0.460783
1170	0.452146
1182	0.38113
1194	0.34288
1206	0.366186
1218	0.363993
1230	0.326839
1242	0.290097
1254	0.284476
1266	0.230597
1278	0.177541
1290	0.179323
1302	0.206331
1314	0.251847
1326	0.301613
1338	0.337807
1350	0.435009
1362	0.525219
1374	0.435968
1386	0.401009
1398	0.237041
1410	0.114065
1422	0.0726614
1434	0.074855
1446	0.114065
1458	0.166436
1470	0.184533
1482	0.101178
1494	0.0430485
1506	0.0267339
1518	0.0179597
1530	0.0123387
1542	0.0131613
1554	0.0105565
1566	0.00836292
1578	0.0116532
1590	0.00959679
1602	0.0109678
1614	0.0109678
1626	0.0109678
1638	0.0124758
1650	0.00754034
1662	0.00987098
1674	0.00945969
1686	0.0165887
1698	0.0209758
1710	0.0213871
1722	0.022621
1734	0.0271452
1746	0.0204275
1758	0.0193307
1770	0.0187823
1782	0.0139839
1794	0.0123387
1806	0.00699195
1818	0.00411291
1830	0.000822582
1842	0.000411291
1854	0.000685485
1866	0.00123387
1878	0.00246775
1890	0.00274194
1902	0.00219355
1914	0.00219355
1926	0.00287904
1938	0.00246775
1950	0.00246775
1962	0.00233065
1974	0.00233065
1986	0.00315323
1998	0.00397581
2010	0.00507259
2022	0.00534678
2034	0.00603227
2046	0.00562098
2058	0.00507259
2070	0.00507259
2082	0.00520969
2094	0.00520969
2106	0.00493549
2118	0.00411291
2130	0.00274194
2142	0.00205646
2154	0.00150807
2166	0.00164516
2178	0.00150807
2190	0.00219355
2202	0.00342743
2214	0.00397581
2226	0.0045242
2238	0.00370162
2250	0.00274194
2262	0.00260484
2274	0.00287904
2286	0.00397581
2298	0.00575807
2310	0.00685485
2322	0.00397581
2334	0.00219355
2346	0.00383872
2358	0.00342743
2370	0.00425001
2382	0.00493549
2394	0.00123387
2406	0.000959679
2418	0.00109678
2430	0.00109678
2442	0.00137097
2454	0.00178226
2466	0.00233065
2478	0.00246775
2490	0.00219355
2502	0.00137097
2514	0.00150807
2526	0.00164516
2538	0.00191936
2550	0.00260484
2562	0.00301613
2574	0.0046613
2586	0.00699195
2598	0.0124758
2610	0.0176855
2622	0.0159033
2634	0.01275
2646	0.0117903
2658	0.0119274
2670	0.0131613
2682	0.0165887
2694	0.022621
2706	0.0272823
2718	0.0315323
2730	0.0335888
2742	0.0355081
2754	0.0394839
2766	0.0445565
2778	0.0525082
2790	0.0686856
2802	0.0939114
2814	0.121057
2826	0.140113
2838	0.188234
2850	0.333146
2862	0.40238
2874	0.425275
2886	0.433912
2898	0.411154
2910	0.420888
2922	0.480662
2934	0.615703
2946	0.674106
2958	0.742517
2970	1.30311
2982	1.19233
2994	0.73388
3006	0.226073
3018	0.0922663
3030	0.0526452
3042	0.0378388
3054	0.0292017
3066	0.023992
3078	0.02125
3090	0.0194678
3102	0.0176855
3114	0.0152178
3126	0.014121
3138	0.0126129
3150	0.0117903
3162	0.0117903
3174	0.0115161
3186	0.0119274
3198	0.0116532
3210	0.0111049
3222	0.00987098
3234	0.00767743
3246	0.00671775
3258	0.00520969
3270	0.00383872
3282	0.00219355
3294	0.00233065
3306	0.00260484
3318	0.00287904
3330	0.00370162
3342	0.00329033
3354	0.0043871
3366	0.0046613
3378	0.00411291
3390	0.00383872
3402	0.00342743
3414	0.00329033
3426	0.00219355
3438	0.00329033
3450	0.00219355
3462	0.00287904
3474	0.00274194
3486	0.00301613
3498	0.00370162
3510	0.00370162
3522	0.00383872
3534	0.00370162
3546	0.00603227
3558	0.00191936
3570	0.00562098
3582	0.00329033
3594	0.00356452
3606	0.0046613
3618	0.0161774
3630	0.0531936
3642	0.0770485
3654	0.0500404
3666	0.0146694
3678	0.00507259
3690	0.00205646
3702	0.00219355
3714	0.00137097
3726	0.00233065
3738	0.00301613
3750	0
3762	0.000411291
3774	0.00123387
3786	0.00150807
3798	0.00205646
3810	0.000959679
3822	0.00329033
3834	0.00233065
3846	0.00383872
3858	0.00397581
3870	0.0047984
3882	0.00329033
3894	0.00548388
3906	0.00589517
3918	0.0047984
3930	0.00287904
3942	0.00342743
3954	0.00356452
3966	0.00246775
