Infrared Spectrum: 3-Pentyn-2-ol, 2-methyl-5-(2-piperidinoethoxy)-,
Formula: C 13 H 23 N O 2
CAS: 16489-00-2
Origin: Sadtler Research Labs Under US-EPA Contract
1/CM	ABSORBANCE
450	0.00639279
462	0.0094164
474	0.00647918
486	0.00725668
498	0.00950279
510	0.010885
522	0.00768862
534	0.0121808
546	0.0197831
558	0.0260895
570	0.0193511
582	0.017105
594	0.0162411
606	0.00907085
618	0.00302361
630	0
642	0.000345556
654	0.00112306
666	0.00354195
678	0.00734307
690	0.0111442
702	0.00535612
714	0.00198695
726	0.000518334
738	0.00406028
750	0.0126128
762	0.0158956
774	0.00993474
786	0.00717029
798	0.00388751
810	0.00613362
822	0.0101075
834	0.0121808
846	0.0209925
858	0.0392206
870	0.0236706
882	0.0119217
894	0.0120945
906	0.0223748
918	0.0453542
930	0.0962373
942	0.147725
954	0.105913
966	0.056844
978	0.0384431
990	0.0480323
1002	0.0658284
1014	0.0774045
1026	0.0693704
1038	0.107986
1050	0.113688
1062	0.102457
1074	0.133385
1086	0.221329
1098	0.40145
1110	0.54019
1122	0.371991
1134	0.223575
1146	0.181417
1158	0.255625
1170	0.225475
1182	0.132521
1194	0.0844021
1206	0.0906221
1218	0.115934
1230	0.123795
1242	0.115761
1254	0.125782
1266	0.128979
1278	0.104012
1290	0.100557
1302	0.124832
1314	0.142715
1326	0.16604
1338	0.181849
1350	0.245172
1362	0.196967
1374	0.142974
1386	0.122759
1398	0.0571895
1410	0.0355923
1422	0.0343828
1434	0.0514878
1446	0.0894126
1458	0.0991746
1470	0.0702343
1482	0.0314456
1494	0.0142542
1506	0.00881168
1518	0.0055289
1530	0.00406028
1542	0.0055289
1554	0.00457862
1566	0.00483778
1578	0.00578806
1590	0.00535612
1602	0.00647918
1614	0.00777501
1626	0.0100211
1638	0.00967557
1650	0.00665195
1662	0.00509695
1674	0.00526973
1686	0.0086389
1698	0.0138222
1710	0.0141678
1722	0.0148589
1734	0.015982
1746	0.0109714
1758	0.00820696
1770	0.00639279
1782	0.0047514
1794	0.00492417
1806	0.00380112
1818	0.00328278
1830	0.00120945
1842	8.6389e-05
1854	0
1866	0.000518334
1878	0.000950279
1890	0.001555
1902	0.00112306
1914	0.001555
1926	0.00215972
1938	0.00181417
1950	0.00129583
1962	0.000950279
1974	0.00086389
1986	0.000950279
1998	0.00112306
2010	0.00181417
2022	0.00224611
2034	0.00190056
2046	0.00215972
2058	0.0023325
2070	0.00164139
2082	0.00172778
2094	0.00172778
2106	0.001555
2118	0.00164139
2130	0.00120945
2142	0.00086389
2154	0.000604723
2166	0.000518334
2178	0.000518334
2190	0.000259167
2202	0.00112306
2214	0.001555
2226	0.00250528
2238	0.00215972
2250	0.00164139
2262	0.000691112
2274	0.00103667
2286	0.00241889
2298	0.00388751
2310	0.00501056
2322	0.00241889
2334	0.000691112
2346	0.00129583
2358	0.00164139
2370	0.00172778
2382	0.00241889
2394	0.000172778
2406	0.000345556
2418	0.000691112
2430	0.000604723
2442	0.000604723
2454	8.6389e-05
2466	0.00086389
2478	0.00129583
2490	0.00181417
2502	0.00172778
2514	0.00172778
2526	0.00164139
2538	0.00138222
2550	0.00190056
2562	0.00215972
2574	0.00362834
2586	0.00604723
2598	0.00872529
2610	0.0101075
2622	0.0115761
2634	0.0133039
2646	0.0181417
2658	0.0232386
2670	0.0317912
2682	0.0391342
2694	0.0448359
2706	0.0509695
2718	0.0575351
2730	0.0727395
2742	0.0952007
2754	0.122759
2766	0.133557
2778	0.156364
2790	0.183317
2802	0.155068
2814	0.125869
2826	0.117575
2838	0.115675
2850	0.17943
2862	0.283788
2874	0.232646
2886	0.168977
2898	0.183922
2910	0.209752
2922	0.321367
2934	0.56818
2946	0.859311
2958	0.347802
2970	0.167854
2982	0.202323
2994	0.230313
3006	0.0690248
3018	0.0227203
3030	0.010885
3042	0.00777501
3054	0.00604723
3066	0.00457862
3078	0.00406028
3090	0.00362834
3102	0.00302361
3114	0.00198695
3126	0.00207334
3138	0.00172778
3150	0.00164139
3162	0.00181417
3174	0.00207334
3186	0.00293723
3198	0.00241889
3210	0.00241889
3222	0.00276445
3234	0.0023325
3246	0.00198695
3258	0.001555
3270	0.00129583
3282	0.000345556
3294	0.00086389
3306	0.000777501
3318	0.000950279
3330	0.00172778
3342	0.00120945
3354	0.00259167
3366	0.00267806
3378	0.00181417
3390	0.00164139
3402	0.00241889
3414	0.00190056
3426	0.00138222
3438	0.00181417
3450	0.00112306
3462	0.00138222
3474	0.001555
3486	0.00190056
3498	0.00207334
3510	0.00138222
3522	0.00129583
3534	0.0023325
3546	0.00224611
3558	0.00129583
3570	0.000950279
3582	0.000604723
3594	0.00181417
3606	0.00311
3618	0.00846612
3630	0.0245345
3642	0.0393934
3654	0.026435
3666	0.00768862
3678	0.00250528
3690	0.001555
3702	0.000691112
3714	0.000777501
3726	0.00181417
3738	0.00112306
3750	0.000691112
3762	0.00103667
3774	0.000345556
3786	0.00190056
3798	0.00138222
3810	0.00120945
3822	0.00103667
3834	0.00138222
3846	0.0023325
3858	0.00215972
3870	0.00276445
3882	0.00267806
3894	0.00285084
3906	0.00293723
3918	0.001555
3930	0.00276445
3942	0.00190056
3954	0.00293723
3966	0.00190056
