Infrared Spectrum: 3-Pentyn-2-ol, 2-methyl-5-phenoxy-,
Formula: C 12 H 14 O 2
CAS: 16488-98-5
Origin: Sadtler Research Labs Under US-EPA Contract
1/CM	ABSORBANCE
450	0
462	0.00903736
474	0.012265
486	0.0177981
498	0.0324607
510	0.0279421
522	0.0270199
534	0.0213024
546	0.0323685
558	0.0451868
570	0.0309852
582	0.0234234
594	0.0248989
606	0.0149393
618	0.00839184
630	0.00451868
642	0.00442646
654	0.0111584
666	0.0308008
678	0.0751577
690	0.159906
702	0.0682413
714	0.0303397
726	0.0247144
738	0.0671347
750	0.218096
762	0.133255
774	0.0836417
786	0.0518265
798	0.0188125
810	0.0157693
822	0.0205646
834	0.0210257
846	0.0167837
858	0.0237
870	0.0211179
882	0.0301553
894	0.0174292
906	0.0156771
918	0.0361495
930	0.091388
942	0.171433
954	0.141462
966	0.0731289
978	0.0861316
990	0.184344
1002	0.19458
1014	0.239029
1026	0.173923
1038	0.122097
1050	0.137681
1062	0.196609
1074	0.0995032
1086	0.0631693
1098	0.0625238
1110	0.0844717
1122	0.0975666
1134	0.107987
1146	0.155664
1158	0.262452
1170	0.379293
1182	0.232482
1194	0.215329
1206	0.632615
1218	0.857259
1230	0.615094
1242	0.42199
1254	0.252585
1266	0.253323
1278	0.207952
1290	0.216343
1302	0.209427
1314	0.162857
1326	0.184528
1338	0.184989
1350	0.157047
1362	0.231098
1374	0.255997
1386	0.148194
1398	0.057544
1410	0.0297864
1422	0.0265588
1434	0.0337518
1446	0.0529331
1458	0.0952612
1470	0.0923102
1482	0.157508
1494	0.543441
1506	0.210995
1518	0.0426969
1530	0.0220401
1542	0.0244378
1554	0.0272043
1566	0.0394693
1578	0.0902814
1590	0.253968
1602	0.341575
1614	0.078662
1626	0.0255444
1638	0.0154004
1650	0.0123572
1662	0.00746966
1674	0.0103284
1686	0.0154926
1698	0.0189047
1710	0.0124494
1722	0.0130027
1734	0.0161382
1746	0.00959067
1758	0.0121728
1770	0.0151238
1782	0.0111584
1794	0.0108817
1806	0.00682413
1818	0.00654748
1830	0.0109739
1842	0.0106973
1854	0.00839184
1866	0.00710079
1878	0.00497977
1890	0.00544086
1902	0.0066397
1914	0.0119883
1926	0.0150315
1938	0.0148471
1950	0.012265
1962	0.00885293
1974	0.0111584
1986	0.0159537
1998	0.0166915
2010	0.0127261
2022	0.0120806
2034	0.0109739
2046	0.011435
2058	0.0112506
2070	0.0106051
2082	0.00774631
2094	0.00654748
2106	0.00645526
2118	0.0056253
2130	0.00507199
2142	0.00470312
2154	0.00424203
2166	0.00405759
2178	0.0046109
2190	0.00479534
2202	0.0056253
2214	0.00728522
2226	0.0102362
2238	0.0108817
2250	0.00903736
2262	0.00774631
2274	0.00857627
2286	0.00737744
2298	0.00737744
2310	0.00802297
2322	0.00627082
2334	0.00470312
2346	0.00479534
2358	0.00534864
2370	0.00580973
2382	0.00839184
2394	0.00599417
2406	0.00636304
2418	0.00710079
2430	0.00746966
2442	0.007193
2454	0.00728522
2466	0.007193
2478	0.00636304
2490	0.00590195
2502	0.00608639
2514	0.00691635
2526	0.0066397
2538	0.00636304
2550	0.00636304
2562	0.00627082
2574	0.00617861
2586	0.00553308
2598	0.0056253
2610	0.00590195
2622	0.00525643
2634	0.00479534
2646	0.00414981
2658	0.00414981
2670	0.00451868
2682	0.00414981
2694	0.00433425
2706	0.00608639
2718	0.00700857
2730	0.00682413
2742	0.00590195
2754	0.00599417
2766	0.00654748
2778	0.0066397
2790	0.00802297
2802	0.00903736
2814	0.0108817
2826	0.0127261
2838	0.0163226
2850	0.025821
2862	0.0448179
2874	0.082904
2886	0.0861316
2898	0.0699012
2910	0.0771865
2922	0.105866
2934	0.127906
2946	0.123572
2958	0.0967367
2970	0.132148
2982	0.231467
2994	0.32553
3006	0.099411
3018	0.0459246
3030	0.0536709
3042	0.0859472
3054	0.0818896
3066	0.0814285
3078	0.106051
3090	0.0753421
3102	0.0588351
3114	0.0331985
3126	0.0131872
3138	0.00774631
3150	0.00654748
3162	0.00580973
3174	0.00553308
3186	0.00534864
3198	0.00599417
3210	0.00700857
3222	0.0066397
3234	0.00700857
3246	0.0066397
3258	0.00571752
3270	0.00534864
3282	0.00433425
3294	0.00470312
3306	0.00433425
3318	0.00414981
3330	0.00442646
3342	0.0056253
3354	0.00580973
3366	0.00645526
3378	0.00617861
3390	0.00608639
3402	0.00636304
3414	0.00608639
3426	0.00617861
3438	0.00516421
3450	0.00571752
3462	0.00553308
3474	0.00599417
3486	0.00590195
3498	0.00571752
3510	0.00636304
3522	0.00608639
3534	0.00636304
3546	0.00673191
3558	0.00608639
3570	0.00627082
3582	0.00654748
3594	0.00783853
3606	0.0111584
3618	0.0216712
3630	0.04823
3642	0.0652903
3654	0.0458323
3666	0.0171525
3678	0.00746966
3690	0.00608639
3702	0.00451868
3714	0.00507199
3726	0.00424203
3738	0.0046109
3750	0.00544086
3762	0.00497977
3774	0.00534864
3786	0.00525643
3798	0.00414981
3810	0.00599417
3822	0.00534864
3834	0.00571752
3846	0.00645526
3858	0.00682413
3870	0.00682413
3882	0.007193
3894	0.00691635
3906	0.00746966
3918	0.007193
3930	0.0056253
3942	0.00479534
3954	0.00645526
3966	0.0056253
