Infrared Spectrum: 4-Hexyn-3-ol, 6-diisopropylamino-2-ethoxy-3-methyl-,
Formula: C 15 H 29 N O 2
CAS: 16498-05-8
Origin: Sadtler Research Labs Under US-EPA Contract
1/CM	ABSORBANCE
450	0.00643325
462	0.00999866
474	0.00720834
486	0.0142617
498	0.0123239
510	0.0122464
522	0.0122464
534	0.0177496
546	0.021315
558	0.0203849
570	0.02147
582	0.0196873
594	0.0175945
606	0.00984364
618	0.00449552
630	0.00232527
642	0.000542563
654	0.00325538
666	0.0108513
678	0.0117814
690	0.00914606
702	0.00720834
714	0.00441801
726	0.00286783
738	0.00286783
750	0.0043405
762	0.0025578
774	0.00480556
786	0.00565816
798	0.00441801
810	0.00372043
822	0.00379794
834	0.00558065
846	0.00937859
858	0.0116264
870	0.0135641
882	0.0182146
894	0.0312361
906	0.0763464
918	0.0959561
930	0.0499158
942	0.0360417
954	0.0366618
966	0.0547989
978	0.086345
990	0.0977388
1002	0.102854
1014	0.0998316
1026	0.104017
1038	0.119441
1050	0.108435
1062	0.125022
1074	0.150833
1086	0.262135
1098	0.49288
1110	0.606198
1122	0.351968
1134	0.222838
1146	0.205864
1158	0.182534
1170	0.14781
1182	0.158428
1194	0.186254
1206	0.195168
1218	0.155793
1230	0.114481
1242	0.106265
1254	0.118124
1266	0.101072
1278	0.0788267
1290	0.0889803
1302	0.10828
1314	0.127115
1326	0.145329
1338	0.163079
1350	0.228962
1362	0.254695
1374	0.211057
1386	0.19013
1398	0.120061
1410	0.0597594
1422	0.0379019
1434	0.0421649
1446	0.0663477
1458	0.0961887
1470	0.10859
1482	0.055574
1494	0.026198
1506	0.0147267
1518	0.00976613
1530	0.00751837
1542	0.00643325
1554	0.00527061
1566	0.00480556
1578	0.00457303
1590	0.00542563
1602	0.00589068
1614	0.0043405
1626	0.00449552
1638	0.00410798
1650	0.00418549
1662	0.00395296
1674	0.00503809
1686	0.00627823
1698	0.00852599
1710	0.00829346
1722	0.0077509
1734	0.00682079
1746	0.00744086
1758	0.00674328
1770	0.00542563
1782	0.00348791
1794	0.00333289
1806	0.00441801
1818	0.00643325
1830	0.00294534
1842	0.00139516
1854	0.00108513
1866	0.00162769
1878	0.00147267
1890	0.0017052
1902	0.00178271
1914	0.00201523
1926	0.00209274
1938	0.00201523
1950	0.00217025
1962	0.00209274
1974	0.00217025
1986	0.00201523
1998	0.00286783
2010	0.00294534
2022	0.00302285
2034	0.0034104
2046	0.00364292
2058	0.0034104
2070	0.00302285
2082	0.00325538
2094	0.00294534
2106	0.00263531
2118	0.00217025
2130	0.00193773
2142	0.0017052
2154	0.00155018
2166	0.00155018
2178	0.0017052
2190	0.00209274
2202	0.0025578
2214	0.0025578
2226	0.00279032
2238	0.00271282
2250	0.00248029
2262	0.00201523
2274	0.00217025
2286	0.00162769
2298	0.000852599
2310	0.000542563
2322	0.00162769
2334	0.00263531
2346	0.00310036
2358	0.00240278
2370	0.00286783
2382	0.00201523
2394	0.00201523
2406	0.00201523
2418	0.00139516
2430	0.0017052
2442	0.00193773
2454	0.00209274
2466	0.00248029
2478	0.00201523
2490	0.0017052
2502	0.00178271
2514	0.00178271
2526	0.00162769
2538	0.00162769
2550	0.0017052
2562	0.00248029
2574	0.00348791
2586	0.00465054
2598	0.00713083
2610	0.00968863
2622	0.00844848
2634	0.00720834
2646	0.00674328
2658	0.00682079
2670	0.00782841
2682	0.00883603
2694	0.0120914
2706	0.0144942
2718	0.0165094
2730	0.0179821
2742	0.0191447
2754	0.02147
2766	0.0241053
2778	0.0286008
2790	0.0367393
2802	0.0490632
2814	0.0637899
2826	0.0744086
2838	0.099289
2850	0.173775
2862	0.210127
2874	0.224311
2886	0.241286
2898	0.231597
2910	0.223303
2922	0.262523
2934	0.365687
2946	0.409945
2958	0.41227
2970	0.716648
2982	0.671383
2994	0.315694
3006	0.101459
3018	0.0468154
3030	0.0319337
3042	0.0240278
3054	0.0189122
3066	0.0167419
3078	0.0150367
3090	0.013254
3102	0.0116264
3114	0.00937859
3126	0.00790592
3138	0.00697581
3150	0.00635574
3162	0.00620072
3174	0.00627823
3186	0.0060457
3198	0.00573567
3210	0.00472805
3222	0.00348791
3234	0.00302285
3246	0.00217025
3258	0.00124014
3270	0.000930108
3282	0.000852599
3294	0.00100762
3306	0.00116264
3318	0.000852599
3330	0.00139516
3342	0.00116264
3354	0.0017052
3366	0.00162769
3378	0.00139516
3390	0.00124014
3402	0.00131765
3414	0.00100762
3426	0.00139516
3438	0.000542563
3450	0.00139516
3462	0.000852599
3474	0.00131765
3486	0.00162769
3498	0.00147267
3510	0.0017052
3522	0.00186022
3534	0.00162769
3546	0.00077509
3558	0.000852599
3570	0.000465054
3582	0.000232527
3594	0.00108513
3606	0.00232527
3618	0.00620072
3630	0.0227101
3642	0.0423199
3654	0.0237953
3666	0.00418549
3678	0.00124014
3690	0.000387545
3702	7.7509e-05
3714	7.7509e-05
3726	0
3738	7.7509e-05
3750	7.7509e-05
3762	7.7509e-05
3774	7.7509e-05
3786	7.7509e-05
3798	0.000620072
3810	0.000620072
3822	7.7509e-05
3834	0.000155018
3846	7.7509e-05
3858	0.000620072
3870	0.00124014
3882	7.7509e-05
3894	0.000465054
3906	0.000387545
3918	7.7509e-05
3930	7.7509e-05
3942	0.000232527
3954	0
3966	7.7509e-05
