Infrared Spectrum: 1-Heptanol, 6-methyl-
Formula: C 8 H 18 O
CAS: 1653-40-3
Origin: Sadtler Research Labs Under US-EPA Contract
1/CM	ABSORBANCE
450	0.0183908
462	0.0131363
474	0.0210181
486	0.00617406
498	0.0139245
510	0.013399
522	0.0106404
534	0.0166831
546	0.013399
558	0.0110345
570	0.00880132
582	0.00617406
594	0.0140558
606	0.0124795
618	0.0116913
630	0.0109031
642	0.0122168
654	0.0130049
666	0.0122168
678	0.0140558
690	0.0124795
702	0.0144499
714	0.0182595
726	0.0227258
738	0.0212808
750	0.0174713
762	0.0176026
774	0.0187849
786	0.0149754
798	0.0149754
810	0.0181281
822	0.0183908
834	0.0216749
846	0.023514
858	0.028243
870	0.0304762
882	0.0319212
894	0.0331035
906	0.0349426
918	0.0462398
930	0.0550411
942	0.0592447
954	0.0597702
966	0.0617406
978	0.075271
990	0.0877505
1002	0.104171
1014	0.151199
1026	0.214647
1038	0.278095
1050	0.351921
1062	0.307915
1074	0.214253
1086	0.143974
1098	0.0951068
1110	0.0771101
1122	0.0676519
1134	0.0602956
1146	0.0566175
1158	0.0622661
1170	0.0780296
1182	0.0629229
1194	0.0577997
1206	0.0606897
1218	0.0641051
1230	0.0692283
1242	0.0713301
1254	0.0692283
1266	0.0663383
1278	0.0654188
1290	0.0631856
1302	0.0585879
1314	0.0566175
1326	0.0625288
1338	0.0784237
1350	0.08867
1362	0.113366
1374	0.163284
1386	0.199409
1398	0.1378
1410	0.063317
1422	0.0483416
1434	0.054647
1446	0.083941
1458	0.142529
1470	0.177734
1482	0.115337
1494	0.0444007
1506	0.0223317
1518	0.0153695
1530	0.00880132
1542	0.00919541
1554	0.00735633
1566	0.00591134
1578	0.00538588
1590	0.00512316
1602	0.00446634
1614	0.00564861
1626	0.00315271
1638	0.00577997
1650	0.00262726
1662	0.00486043
1674	0.00486043
1686	0.00564861
1698	0.00486043
1710	0.0035468
1722	0.00407225
1734	0.00380953
1746	0.00512316
1758	0.00459771
1770	0.00275862
1782	0.00302135
1794	0.00131363
1806	0.00183908
1818	0.00183908
1830	0.00170772
1842	0.00236453
1854	0.00131363
1866	0.00131363
1878	0.00144499
1890	0.00144499
1902	0.00131363
1914	0.00170772
1926	0.00144499
1938	0.00157636
1950	0.00170772
1962	0.000919541
1974	0.000919541
1986	0.00118227
1998	0.00157636
2010	0.00183908
2022	0.00223317
2034	0.00236453
2046	0.00302135
2058	0.00302135
2070	0.0024959
2082	0.00197045
2094	0.00144499
2106	0.0010509
2118	0.000919541
2130	0.0010509
2142	0.000394089
2154	0.000394089
2166	0.000525452
2178	0.000394089
2190	0.000656815
2202	0.000525452
2214	0.000262726
2226	0
2238	0.000131363
2250	0.000394089
2262	0.000656815
2274	0.00118227
2286	0.00170772
2298	0.00197045
2310	0.00223317
2322	0.0024959
2334	0.00328408
2346	0.00499179
2358	0.00288999
2370	0.00551725
2382	0.00380953
2394	0.0024959
2406	0.00210181
2418	0.00236453
2430	0.0024959
2442	0.00236453
2454	0.00197045
2466	0.00197045
2478	0.00183908
2490	0.00210181
2502	0.0024959
2514	0.00302135
2526	0.00315271
2538	0.0035468
2550	0.00341544
2562	0.00394089
2574	0.00499179
2586	0.00617406
2598	0.00827587
2610	0.0095895
2622	0.0110345
2634	0.0126108
2646	0.0131363
2658	0.0139245
2670	0.0145813
2682	0.0160263
2694	0.0179967
2706	0.0203613
2718	0.0231199
2730	0.029688
2742	0.0308703
2754	0.0307389
2766	0.0333662
2778	0.0363876
2790	0.0422989
2802	0.0509688
2814	0.0617406
2826	0.0803942
2838	0.125452
2850	0.261281
2862	0.465813
2874	0.644204
2886	0.669294
2898	0.59468
2910	0.7489
2922	0.961314
2934	1.27291
2946	1.20105
2958	1.10187
2970	1.17517
2982	0.413137
2994	0.126897
3006	0.0654188
3018	0.0411166
3030	0.0292939
3042	0.0228572
3054	0.019179
3066	0.0166831
3078	0.0149754
3090	0.0130049
3102	0.0114286
3114	0.0106404
3126	0.00972086
3138	0.00985223
3150	0.010115
3162	0.0109031
3174	0.0111659
3186	0.0106404
3198	0.00945814
3210	0.00656815
3222	0.00394089
3234	0.00157636
3246	0.00170772
3258	0.000788178
3270	0.000525452
3282	0
3294	0.000656815
3306	0.000131363
3318	0.000788178
3330	0.000656815
3342	0.00118227
3354	0.00118227
3366	0.0010509
3378	0.000525452
3390	0.0010509
3402	0.0010509
3414	0.00170772
3426	0.00236453
3438	0.0024959
3450	0.00275862
3462	0.00236453
3474	0.00288999
3486	0.00262726
3498	0.00236453
3510	0.00183908
3522	0.000525452
3534	0.00118227
3546	0.00131363
3558	0.00210181
3570	0.00197045
3582	0.00157636
3594	0.00197045
3606	0.00433498
3618	0.00735633
3630	0.00919541
3642	0.0237767
3654	0.0570115
3666	0.087225
3678	0.0818391
3690	0.0324467
3702	0.0118227
3714	0.00669951
3726	0.00328408
3738	0.00577997
3750	0.00183908
3762	0.00223317
3774	0.00380953
3786	0.00394089
3798	0.00577997
3810	0.0024959
3822	0.00367816
3834	0.00538588
3846	0.00407225
3858	0.00577997
3870	0.00446634
3882	0.00315271
3894	0.00617406
3906	0.0024959
3918	0.00275862
3930	0.00302135
3942	0.00210181
3954	0.00302135
3966	0.00170772
