Infrared Spectrum: Heptane, 3-(iodomethyl)-
Formula: C 8 H 17 I
CAS: 1653-16-3
Origin: Sadtler Research Labs Under US-EPA Contract
1/CM	ABSORBANCE
450	0.0326045
462	0.00855045
474	0.0254634
486	0.0342958
498	0.0700949
510	0.0211412
522	0.0273427
534	0.00582558
546	0.0332622
558	0.0448194
570	0.0270608
582	0.0397455
594	0.0496114
606	0.0693432
618	0.0427523
630	0.0279064
642	0.0200137
654	0.0163492
666	0.0122149
678	0.0130606
690	0.0135304
702	0.0113693
714	0.0203895
726	0.0275306
738	0.0294098
750	0.0256514
762	0.0387119
774	0.0374904
786	0.0381482
798	0.02894
810	0.0292219
822	0.0174767
834	0.0219869
846	0.0194499
858	0.0171009
870	0.0188862
882	0.0182284
894	0.0225506
906	0.021611
918	0.0213291
930	0.0219869
942	0.0198258
954	0.0244299
966	0.0238661
978	0.0213291
990	0.0186982
1002	0.0155975
1014	0.0200137
1026	0.0171009
1038	0.0172888
1050	0.0176647
1062	0.0178526
1074	0.0199197
1086	0.0222688
1098	0.0195439
1110	0.021799
1122	0.021705
1134	0.0245238
1146	0.0310071
1158	0.0460409
1170	0.0717862
1182	0.12929
1194	0.195627
1206	0.0781756
1218	0.0726319
1230	0.0552491
1242	0.0611686
1254	0.0703768
1266	0.0760144
1278	0.0604169
1290	0.0494235
1302	0.0397455
1314	0.0354233
1326	0.0343897
1338	0.0492356
1350	0.0533698
1362	0.0428462
1374	0.0473563
1386	0.0917059
1398	0.0401213
1410	0.0259332
1422	0.0383361
1434	0.0901086
1446	0.0853166
1458	0.140284
1470	0.157385
1482	0.0616384
1494	0.0239601
1506	0.0190741
1518	0.0153156
1530	0.014564
1542	0.0132485
1554	0.012121
1566	0.0123089
1578	0.0118391
1590	0.0116512
1602	0.011933
1614	0.0108055
1626	0.0108055
1638	0.00995987
1650	0.0101478
1662	0.0105236
1674	0.00911422
1686	0.00977194
1698	0.00817461
1710	0.00883233
1722	0.00902026
1734	0.0077048
1746	0.00873837
1758	0.00798669
1770	0.0077048
1782	0.00808065
1794	0.00761084
1806	0.00779876
1818	0.00789272
1830	0.00685915
1842	0.00789272
1854	0.007235
1866	0.00798669
1878	0.00751688
1890	0.0077048
1902	0.00789272
1914	0.00742292
1926	0.00751688
1938	0.00714104
1950	0.00714104
1962	0.00789272
1974	0.00648331
1986	0.00704707
1998	0.00638935
2010	0.00638935
2022	0.00779876
2034	0.007235
2046	0.00789272
2058	0.00779876
2070	0.00761084
2082	0.00845649
2094	0.00676519
2106	0.00789272
2118	0.00742292
2130	0.00695311
2142	0.00836253
2154	0.00742292
2166	0.00798669
2178	0.00845649
2190	0.00808065
2202	0.0089263
2214	0.00779876
2226	0.00817461
2238	0.00817461
2250	0.00742292
2262	0.00836253
2274	0.00751688
2286	0.00751688
2298	0.00695311
2310	0.00582558
2322	0.00714104
2334	0.00563766
2346	0.00695311
2358	0.00610747
2370	0.00620143
2382	0.0077048
2394	0.00779876
2406	0.00789272
2418	0.00836253
2430	0.00714104
2442	0.00685915
2454	0.00657727
2466	0.00667123
2478	0.007235
2490	0.0060135
2502	0.00676519
2514	0.00657727
2526	0.00836253
2538	0.00779876
2550	0.00732896
2562	0.00958402
2574	0.00902026
2586	0.00902026
2598	0.0103357
2610	0.00967798
2622	0.0113693
2634	0.0109934
2646	0.0105236
2658	0.0116512
2670	0.0117451
2682	0.01447
2694	0.0137183
2706	0.0132485
2718	0.0135304
2730	0.014376
2742	0.0186982
2754	0.0187922
2766	0.0157854
2778	0.0178526
2790	0.0213291
2802	0.0273427
2814	0.0317588
2826	0.0437858
2838	0.084377
2850	0.121116
2862	0.247587
2874	0.329145
2886	0.353575
2898	0.25952
2910	0.278125
2922	0.475443
2934	0.797635
2946	0.682721
2958	0.461067
2970	0.93961
2982	0.449509
2994	0.121679
3006	0.079397
3018	0.079397
3030	0.0450073
3042	0.0316649
3054	0.0254634
3066	0.0222688
3078	0.021611
3090	0.0189801
3102	0.0182284
3114	0.0175707
3126	0.0155036
3138	0.0158794
3150	0.0124029
3162	0.014376
3174	0.0142821
3186	0.0127787
3198	0.0135304
3210	0.0114632
3222	0.0108995
3234	0.0108055
3246	0.00808065
3258	0.0106176
3270	0.00798669
3282	0.00808065
3294	0.00930214
3306	0.00845649
3318	0.0102417
3330	0.00817461
3342	0.00789272
3354	0.00817461
3366	0.00798669
3378	0.00798669
3390	0.00873837
3402	0.00883233
3414	0.00883233
3426	0.00873837
3438	0.0100538
3450	0.0089263
3462	0.00695311
3474	0.00958402
3486	0.00695311
3498	0.00873837
3510	0.00732896
3522	0.00911422
3534	0.00986591
3546	0.00742292
3558	0.00995987
3570	0.0089263
3582	0.0077048
3594	0.0100538
3606	0.00845649
3618	0.0109934
3630	0.00986591
3642	0.00836253
3654	0.00920818
3666	0.00714104
3678	0.00949006
3690	0.00967798
3702	0.0060135
3714	0.00883233
3726	0.0055437
3738	0.00920818
3750	0.00789272
3762	0.00582558
3774	0.0089263
3786	0.00667123
3798	0.00789272
3810	0.00751688
3822	0.0089263
3834	0.0101478
3846	0.00667123
3858	0.00573162
3870	0.0148458
3882	0.00629539
3894	0.0148458
3906	0.00751688
3918	0.0111814
3930	0.0128727
3942	0.0108995
3954	0.0109934
3966	0.00855045
