Infrared Spectrum: Benzeneacetonitrile, 4-bromo-
Formula: C 8 H 6 Br N
CAS: 16532-79-9
Origin: Sadtler Research Labs Under US-EPA Contract
1/CM	ABSORBANCE
450	0.0493574
462	0.067312
474	0.0794929
486	0.0685089
498	0.0555535
510	0.0342897
522	0.0205597
534	0.00830838
546	0.00337968
558	0.00197148
570	0.00380214
582	0.00345009
594	0.00042246
606	0.00485829
618	0.00661854
630	0.012533
642	0.0406266
654	0.0297834
666	0.0130259
678	0.0091533
690	0.0116881
702	0.0112656
714	0.00992781
726	0.0114064
738	0.0129554
750	0.021475
762	0.0329519
774	0.0794225
786	0.202781
798	0.297693
810	0.236859
822	0.147298
834	0.0945606
846	0.0396408
858	0.015631
870	0.00697059
882	0.00513993
894	0.00971658
906	0.01718
918	0.0215455
930	0.0237986
942	0.0234465
954	0.0185178
966	0.0111952
978	0.00408378
990	0.010984
1002	0.0436542
1014	0.476183
1026	0.0618904
1038	0.0056328
1050	0.0138004
1062	0.0724519
1074	0.437317
1086	0.132793
1098	0.0423868
1110	0.0335856
1122	0.0223904
1134	0.0102095
1146	0.0056328
1158	0.00464706
1170	0.00535116
1182	0.0271783
1194	0.0283048
1206	0.0084492
1218	0.021475
1230	0.0211934
1242	0.0107727
1254	0.012885
1266	0.0103503
1278	0.00753387
1290	0.0128146
1302	0.0176729
1314	0.0141524
1326	0.00859002
1338	0.00253476
1350	0.00380214
1362	0.00387255
1374	0.00943494
1386	0.0253476
1398	0.0549902
1410	0.0957576
1422	0.125541
1434	0.116388
1446	0.0444287
1458	0.0397112
1470	0.0514697
1482	0.22672
1494	0.7041
1506	0.0668895
1518	0.0142932
1530	0.00711141
1542	0.00345009
1554	0.00668895
1566	0.00901248
1578	0.0185882
1590	0.0495686
1602	0.0441471
1614	0.0228128
1626	0.0193627
1638	0.0117585
1650	0.00668895
1662	0.00464706
1674	0.00323886
1686	0.0035205
1698	0.00401337
1710	0.00690018
1722	0.00654813
1734	0.00570321
1746	0.00570321
1758	0.00506952
1770	0.0138708
1782	0.0183066
1794	0.00309804
1806	0.00126738
1818	0.00084492
1830	0.00091533
1842	0.00147861
1854	0.00415419
1866	0.00830838
1878	0.0131667
1890	0.0157014
1902	0.0189403
1914	0.0146453
1926	0.00640731
1938	0.00274599
1950	0.00105615
1962	0.00133779
1974	0.00112656
1986	0.00091533
1998	0.00042246
2010	0.00035205
2022	0.00035205
2034	0.00112656
2046	0.00084492
2058	0.00098574
2070	0.0007041
2082	0.00112656
2094	0.00119697
2106	0.00126738
2118	0.00147861
2130	0.00147861
2142	0.00119697
2154	0.00098574
2166	0.00105615
2178	0.00077451
2190	0.00063369
2202	0.00084492
2214	0.00056328
2226	0.00168984
2238	0.00366132
2250	0.0102799
2262	0.015279
2274	0.0077451
2286	0.00584403
2298	0.00682977
2310	0.00746346
2322	0.00668895
2334	0.00654813
2346	0.00788592
2358	0.00471747
2370	0.00521034
2382	0.00443583
2394	0.00239394
2406	0.00154902
2418	0.0014082
2430	0.00105615
2442	0.00084492
2454	0.00077451
2466	0.00056328
2478	0.00042246
2490	0.00056328
2502	0.00021123
2514	0.00077451
2526	0.00105615
2538	0.00197148
2550	0.00345009
2562	0.00373173
2574	0.00345009
2586	0.00485829
2598	0.00542157
2610	0.00528075
2622	0.00253476
2634	0.00098574
2646	0.00133779
2658	0.00112656
2670	0.00190107
2682	0.00154902
2694	0.00098574
2706	0.00133779
2718	0.0021123
2730	0.00253476
2742	0.00274599
2754	0.00232353
2766	0.00225312
2778	0.00253476
2790	0.00204189
2802	0.00197148
2814	0.00337968
2826	0.00612567
2838	0.00823797
2850	0.00605526
2862	0.00415419
2874	0.00302763
2886	0.00316845
2898	0.00316845
2910	0.00690018
2922	0.0195036
2934	0.0390776
2946	0.0230241
2958	0.0145045
2970	0.012533
2982	0.0137299
2994	0.0111952
3006	0.0111248
3018	0.0177433
3030	0.0495686
3042	0.0634394
3054	0.0427389
3066	0.0341489
3078	0.0292906
3090	0.0334448
3102	0.0306988
3114	0.0126738
3126	0.00485829
3138	0.00359091
3150	0.00316845
3162	0.00443583
3174	0.00549198
3186	0.00598485
3198	0.00661854
3210	0.00443583
3222	0.00267558
3234	0.00147861
3246	0.0021123
3258	0.0014082
3270	0.00183066
3282	0.00133779
3294	0.00147861
3306	0.00105615
3318	0.00176025
3330	0.00133779
3342	0.00091533
3354	0.00098574
3366	0.00183066
3378	0.00056328
3390	0.00126738
3402	0.00049287
3414	0.00091533
3426	0.00126738
3438	0.00063369
3450	0.00119697
3462	0.00112656
3474	0.00154902
3486	0.00112656
3498	0.00077451
3510	0.00147861
3522	0.00133779
3534	0.00091533
3546	0.00176025
3558	0.00084492
3570	0.00253476
3582	0.00183066
3594	0.00309804
3606	0.00105615
3618	0.0014082
3630	0.00436542
3642	0.00176025
3654	0.00126738
3666	0.0028164
3678	0.00535116
3690	0.00316845
3702	0.00267558
3714	0.0042246
3726	0.00415419
3738	0.00316845
3750	0.00316845
3762	0.0021123
3774	0.00323886
3786	0.00049287
3798	0.00197148
3810	0.00063369
3822	0.00387255
3834	0.00366132
3846	0.00204189
3858	0.00542157
3870	0.00605526
3882	0.00309804
3894	0.00394296
3906	0.00366132
3918	0.00316845
3930	0.00330927
3942	0.00218271
3954	0.00309804
3966	0.00133779
