Infrared Spectrum: Benzene, 1-methoxy-4-phenoxy-
Formula: C 13 H 12 O 2
CAS: 1655-69-2
Origin: Sadtler Research Labs Under US-EPA Contract
1/CM	ABSORBANCE
450	0.00564345
462	0.0139958
474	0.00575632
486	0.0152373
498	0.0273143
510	0.0279915
522	0.0193006
534	0.0193006
546	0.01377
558	0.00575632
570	0.0047405
582	0.00632066
594	0.00970673
606	0.00778796
618	0.00598206
630	0.00519197
642	0.00440189
654	0.00462763
666	0.0113998
678	0.0259599
690	0.0574503
702	0.043116
714	0.0233639
726	0.0253955
738	0.0432288
750	0.0635452
762	0.0699788
774	0.0566602
786	0.0381497
798	0.0386012
810	0.0265242
822	0.0340864
834	0.0707689
846	0.0811528
858	0.0454862
870	0.110047
882	0.0384883
894	0.018059
906	0.0138829
918	0.00970673
930	0.00823944
942	0.00688501
954	0.00688501
966	0.00699788
978	0.00891665
990	0.0125285
1002	0.0199778
1014	0.0331835
1026	0.0621908
1038	0.087925
1050	0.0907467
1062	0.0402942
1074	0.0273143
1086	0.0221223
1098	0.0328449
1110	0.0237025
1122	0.0126413
1134	0.0142215
1146	0.0231381
1158	0.056886
1170	0.0702045
1182	0.119867
1194	0.106887
1206	0.147407
1218	0.398202
1230	1.07259
1242	0.636694
1254	0.222013
1266	0.106435
1278	0.0919882
1290	0.077541
1302	0.0565474
1314	0.0340864
1326	0.0295717
1338	0.0191877
1350	0.0143344
1362	0.0110612
1374	0.0108354
1386	0.0103839
1398	0.00598206
1410	0.0136571
1422	0.0251698
1434	0.0311518
1446	0.0678343
1458	0.0619651
1470	0.118174
1482	0.229576
1494	0.653963
1506	0.593465
1518	0.20339
1530	0.0529356
1542	0.0246054
1554	0.0242668
1566	0.0331835
1578	0.0635452
1590	0.135894
1602	0.120431
1614	0.0532742
1626	0.0224609
1638	0.0173818
1650	0.0103839
1662	0.011174
1674	0.00507911
1686	0.00756222
1698	0.00519197
1710	0.0125285
1722	0.0102711
1734	0.00248312
1746	0.00293459
1758	0.0080137
1770	0.00902952
1782	0.00925526
1794	0.00507911
1806	0.00993247
1818	0.0117384
1830	0.00733649
1842	0.00970673
1854	0.0142215
1866	0.0145601
1878	0.0127542
1890	0.00835231
1902	0.00823944
1914	0.009481
1926	0.0117384
1938	0.0123027
1950	0.0117384
1962	0.0113998
1974	0.011174
1986	0.0108354
1998	0.0117384
2010	0.0113998
2022	0.0126413
2034	0.0161403
2046	0.0123027
2058	0.0128671
2070	0.0136571
2082	0.00993247
2094	0.00711075
2106	0.00586919
2118	0.00451476
2130	0.00451476
2142	0.00316033
2154	0.00349894
2166	0.00451476
2178	0.00406328
2190	0.00349894
2202	0.00383755
2214	0.00316033
2226	0.00361181
2238	0.0032732
2250	0.00282173
2262	0.00316033
2274	0.00338607
2286	0.00282173
2298	0.00203164
2310	0.000902952
2322	0.000902952
2334	0.00259599
2346	0.000790083
2358	0.0014673
2370	0.00225738
2382	0.00395042
2394	0.00598206
2406	0.00643353
2418	0.00643353
2430	0.00767509
2442	0.00733649
2454	0.00632066
2466	0.00586919
2478	0.00507911
2490	0.00428902
2502	0.00383755
2514	0.00361181
2526	0.00383755
2538	0.00417615
2550	0.00417615
2562	0.00349894
2574	0.00372468
2586	0.00316033
2598	0.00338607
2610	0.00372468
2622	0.00293459
2634	0.00282173
2646	0.00237025
2658	0.00282173
2670	0.00248312
2682	0.00225738
2694	0.00270886
2706	0.00316033
2718	0.00259599
2730	0.00259599
2742	0.00338607
2754	0.00304746
2766	0.00361181
2778	0.00395042
2790	0.00485337
2802	0.00575632
2814	0.00823944
2826	0.0124156
2838	0.0314905
2850	0.0384883
2862	0.0185105
2874	0.0162531
2886	0.0178333
2898	0.021558
2910	0.0335221
2922	0.0395042
2934	0.0384883
2946	0.0562088
2958	0.0549672
2970	0.0376982
2982	0.0252827
2994	0.0251698
3006	0.0565474
3018	0.0337478
3030	0.0256213
3042	0.0460506
3054	0.056886
3066	0.0414229
3078	0.0567731
3090	0.0411972
3102	0.0291202
3114	0.0160274
3126	0.00711075
3138	0.0032732
3150	0.00248312
3162	0.00169304
3174	0.00214451
3186	0.00158017
3198	0.000338607
3210	0.000677214
3222	0.00124156
3234	0.00112869
3246	0.00124156
3258	0.00101582
3270	0.00225738
3282	0.00158017
3294	0.00203164
3306	0.00169304
3318	0.00203164
3330	0.00135443
3342	0.00248312
3354	0.00225738
3366	0.00270886
3378	0.00270886
3390	0.00338607
3402	0.00293459
3414	0.0018059
3426	0.0018059
3438	0.00293459
3450	0.00293459
3462	0.00282173
3474	0.00270886
3486	0.00203164
3498	0.00214451
3510	0.00225738
3522	0.0018059
3534	0.00248312
3546	0.00203164
3558	0.00203164
3570	0.0018059
3582	0.00225738
3594	0.00395042
3606	0.00203164
3618	0.00395042
3630	0.00440189
3642	0.00316033
3654	0.00361181
3666	0.000902952
3678	0.00688501
3690	0.00530484
3702	0.00462763
3714	0.00395042
3726	0.00191877
3738	0.00699788
3750	0.00677214
3762	0.00361181
3774	0.00372468
3786	0.00349894
3798	0.00440189
3810	0.00395042
3822	0.0106097
3834	0.0062078
3846	0.00383755
3858	0.011174
3870	0.00823944
3882	0.00440189
3894	0.00564345
3906	0.0032732
3918	0.00406328
3930	0.00688501
3942	0.00564345
3954	0.00711075
3966	0.00440189
