Infrared Spectrum: Cyclohexanone, 4-(1,1-dimethylpropyl)-
Formula: C 11 H 20 O
CAS: 16587-71-6
Origin: Sadtler Research Labs Under US-EPA Contract
1/CM	ABSORBANCE
450	0.00943118
462	0.0063497
474	0.0046689
486	0.00728348
498	0.0159676
510	0.0253054
522	0.0192359
534	0.0394989
546	0.00924442
558	0.0388452
570	0.00672322
582	0.0055093
594	0.00261458
606	0.00457552
618	0.00401525
630	0.00242783
642	0.000840402
654	0.00392188
666	0.00476228
678	0.00252121
690	0.0029881
702	0.00177418
714	0.00308147
726	0.0038285
738	0.00840402
750	0.020263
762	0.028667
774	0.030628
786	0.0248385
798	0.00924442
810	0.00700335
822	0.00597619
834	0.00971131
846	0.00616295
858	0.00429539
870	0.00448214
882	0.00728348
894	0.0093378
906	0.00989807
918	0.0133531
930	0.0185822
942	0.0324955
954	0.0394989
966	0.0219438
978	0.02101
990	0.0359505
1002	0.0277333
1014	0.0349234
1026	0.0269862
1038	0.0319353
1050	0.108692
1062	0.0540659
1074	0.0288538
1086	0.0188624
1098	0.0294141
1110	0.0520115
1122	0.0431406
1134	0.0391254
1146	0.057054
1158	0.0988873
1170	0.093378
1182	0.121111
1194	0.267621
1206	0.230083
1218	0.15426
1230	0.0819859
1242	0.051638
1254	0.039032
1266	0.0250253
1278	0.0204498
1290	0.0245584
1302	0.0256789
1314	0.0316551
1326	0.0586414
1338	0.0580811
1350	0.0364174
1362	0.0423936
1374	0.0800249
1386	0.0854409
1398	0.0687262
1410	0.0312816
1422	0.0601354
1434	0.0752627
1446	0.0608825
1458	0.0728348
1470	0.102622
1482	0.0743289
1494	0.0214769
1506	0.00709673
1518	0.00364174
1530	0.00242783
1542	0
1554	0.00205432
1566	0.00326823
1578	0.0038285
1590	0.00308147
1602	0.00289472
1614	0.00364174
1626	0.00364174
1638	0.00541592
1650	0.00840402
1662	0.0146603
1674	0.0188624
1686	0.026426
1698	0.0409929
1710	0.0613493
1722	0.199642
1734	0.859451
1746	0.382756
1758	0.0913237
1770	0.0607891
1782	0.0464089
1794	0.0262392
1806	0.016808
1818	0.0127928
1830	0.00606957
1842	0.00326823
1854	0.00280134
1866	0.00186756
1878	0.00158743
1890	0.00112054
1902	0.00205432
1914	0.00186756
1926	0.000840402
1938	0.000840402
1950	0.000653646
1962	0.00093378
1974	0.000840402
1986	0.000560268
1998	0.00102716
2010	0.000840402
2022	0.000373512
2034	0.000653646
2046	0.000840402
2058	0.00130729
2070	0.00149405
2082	0.00140067
2094	0.00102716
2106	0.000560268
2118	0.00046689
2130	0.000653646
2142	0.000560268
2154	0.00093378
2166	0.00121391
2178	0.00093378
2190	0.000560268
2202	0.00102716
2214	0.000840402
2226	0.00140067
2238	0.00140067
2250	0.0016808
2262	0.00140067
2274	0.00149405
2286	0.00205432
2298	0.00308147
2310	0.00364174
2322	0.00280134
2334	0.0016808
2346	0.0038285
2358	0.00140067
2370	0.00354836
2382	0.00373512
2394	0.00186756
2406	0.00158743
2418	0.00112054
2430	0.00130729
2442	0.00186756
2454	0.00196094
2466	0.00149405
2478	0.00140067
2490	0.00158743
2502	0.00158743
2514	0.0016808
2526	0.00130729
2538	0.00205432
2550	0.00158743
2562	0.00214769
2574	0.00270796
2586	0.0029881
2598	0.00373512
2610	0.00541592
2622	0.00644308
2634	0.00672322
2646	0.00690997
2658	0.00728348
2670	0.00728348
2682	0.00700335
2694	0.00616295
2706	0.00653646
2718	0.00709673
2730	0.00868415
2742	0.0107385
2754	0.0102716
2766	0.00924442
2778	0.0109252
2790	0.0134464
2802	0.0155941
2814	0.0200763
2826	0.0307214
2838	0.0521983
2850	0.075356
2862	0.120831
2874	0.22364
2886	0.277613
2898	0.253895
2910	0.253148
2922	0.298436
2934	0.34886
2946	0.420388
2958	0.587908
2970	0.93378
2982	0.562883
2994	0.137266
3006	0.0489301
3018	0.0331492
3030	0.0248385
3042	0.0179286
3054	0.0155941
3066	0.0148471
3078	0.0132597
3090	0.011112
3102	0.00980469
3114	0.00905767
3126	0.00859078
3138	0.00793713
3150	0.00737686
3162	0.00681659
3174	0.00625633
3186	0.00560268
3198	0.00513579
3210	0.00522917
3222	0.0046689
3234	0.00364174
3246	0.00317485
3258	0.00252121
3270	0.00252121
3282	0.00214769
3294	0.00186756
3306	0.00196094
3318	0.00252121
3330	0.00233445
3342	0.00186756
3354	0.00205432
3366	0.00205432
3378	0.00270796
3390	0.00317485
3402	0.00373512
3414	0.00354836
3426	0.00364174
3438	0.0055093
3450	0.0108318
3462	0.0093378
3474	0.00289472
3486	0.0016808
3498	0.00186756
3510	0.00149405
3522	0.00186756
3534	0.00186756
3546	0.00112054
3558	0.00177418
3570	0.00625633
3582	0.00616295
3594	0.0029881
3606	0.00093378
3618	0.00140067
3630	0.00270796
3642	0.00354836
3654	0.00569606
3666	0.00233445
3678	0.00242783
3690	0.00242783
3702	0.00214769
3714	0.00205432
3726	0.00214769
3738	0.00270796
3750	0.00205432
3762	0.0016808
3774	0.00214769
3786	0.00112054
3798	0.0029881
3810	0.00177418
3822	0.00233445
3834	0.00158743
3846	0.00102716
3858	0.0029881
3870	0.0029881
3882	0.00261458
3894	0.00224107
3906	0.00270796
3918	0.00336161
3930	0.00345499
3942	0.00252121
3954	0.00242783
3966	0.00261458
