Infrared Spectrum: Benzenamine, 4-chloro-2-nitro-N-phenyl-
Formula: C 12 H 9 Cl N 2 O 2
CAS: 16611-15-7
Origin: Sadtler Research Labs Under US-EPA Contract
1/CM	ABSORBANCE
450	0
462	0.0216095
474	0.0214867
486	0.0314729
498	0.0462066
510	0.0281987
522	0.0293037
534	0.0259886
546	0.0219778
558	0.0181307
570	0.0164527
582	0.0176395
594	0.018499
606	0.0188673
618	0.0193994
630	0.0209137
642	0.0216095
654	0.0241879
666	0.0289763
678	0.0248836
690	0.0517317
702	0.044856
714	0.0263161
726	0.0239423
738	0.0265207
750	0.042032
762	0.0865197
774	0.0334374
786	0.0217732
798	0.0214867
810	0.0372436
822	0.033642
834	0.0236967
846	0.0231238
858	0.0339285
870	0.0199724
882	0.0234102
894	0.0345833
906	0.038144
918	0.017353
930	0.015143
942	0.0151021
954	0.015143
966	0.0149384
978	0.0151021
990	0.0146519
1002	0.0173121
1014	0.0166982
1026	0.0233693
1038	0.0198087
1050	0.0202179
1062	0.0270118
1074	0.0335192
1086	0.0228373
1098	0.0223871
1110	0.0303678
1122	0.0270937
1134	0.0250064
1146	0.0455108
1158	0.0438737
1170	0.0204635
1182	0.0215685
1194	0.0251701
1206	0.0304906
1218	0.0451016
1230	0.0528777
1242	0.070067
1254	0.131089
1266	0.188919
1278	0.0946642
1290	0.060531
1302	0.0573387
1314	0.0473116
1326	0.052141
1338	0.112304
1350	0.120857
1362	0.0456336
1374	0.034174
1386	0.0309408
1398	0.0313501
1410	0.0361795
1422	0.0615542
1434	0.0484985
1446	0.0429324
1458	0.0480074
1470	0.0739142
1482	0.127897
1494	0.248877
1506	0.384509
1518	0.135059
1530	0.0985522
1542	0.160025
1554	0.0758377
1566	0.0967514
1578	0.112263
1590	0.110012
1602	0.134568
1614	0.0807899
1626	0.084105
1638	0.0329462
1650	0.024106
1662	0.0193585
1674	0.017394
1686	0.0153886
1698	0.0159615
1710	0.0180897
1722	0.0211593
1734	0.0205454
1746	0.017926
1758	0.0181307
1770	0.0187855
1782	0.017967
1794	0.015716
1806	0.0150202
1818	0.0144882
1830	0.0140789
1842	0.01457
1854	0.0143654
1866	0.0146109
1878	0.0150202
1890	0.0148974
1902	0.0153067
1914	0.0152658
1926	0.0148974
1938	0.0157569
1950	0.0155932
1962	0.0148565
1974	0.0144063
1986	0.0142835
1998	0.0140789
2010	0.0142426
2022	0.0143245
2034	0.01457
2046	0.0152248
2058	0.0148974
2070	0.0154704
2082	0.0150202
2094	0.0141607
2106	0.0141607
2118	0.0143245
2130	0.0140789
2142	0.013997
2154	0.0141198
2166	0.0141607
2178	0.0142017
2190	0.0142835
2202	0.0141607
2214	0.0140789
2226	0.0144063
2238	0.0140789
2250	0.0143654
2262	0.0142426
2274	0.0148156
2286	0.0155523
2298	0.0165345
2310	0.017353
2322	0.0163708
2334	0.0155113
2346	0.0166982
2358	0.016248
2370	0.0159206
2382	0.0171484
2394	0.0152248
2406	0.0149384
2418	0.015143
2430	0.0149793
2442	0.0154295
2454	0.0153476
2466	0.0152658
2478	0.0149793
2490	0.0151021
2502	0.0151021
2514	0.0148156
2526	0.0148156
2538	0.0152248
2550	0.015675
2562	0.0157978
2574	0.0153476
2586	0.0150611
2598	0.0148974
2610	0.0150202
2622	0.0149384
2634	0.0149384
2646	0.0146928
2658	0.0146519
2670	0.0146109
2682	0.0146519
2694	0.0148565
2706	0.0151839
2718	0.015143
2730	0.0152658
2742	0.0155113
2754	0.0154295
2766	0.015675
2778	0.0157978
2790	0.0160434
2802	0.0161252
2814	0.0160843
2826	0.0167801
2838	0.0167801
2850	0.0160025
2862	0.0157569
2874	0.0158387
2886	0.0164527
2898	0.0157978
2910	0.0151839
2922	0.0143654
2934	0.0146928
2946	0.0158387
2958	0.0153067
2970	0.0155523
2982	0.0153067
2994	0.0150611
3006	0.0157978
3018	0.0175577
3030	0.02075
3042	0.0277076
3054	0.0272574
3066	0.0270527
3078	0.0339285
3090	0.0286489
3102	0.025211
3114	0.0199314
3126	0.0164117
3138	0.0156341
3150	0.0151021
3162	0.0151839
3174	0.0152658
3186	0.0150202
3198	0.0147337
3210	0.0148156
3222	0.0146109
3234	0.0145291
3246	0.0150202
3258	0.0153476
3270	0.0151839
3282	0.0155113
3294	0.0166573
3306	0.0181716
3318	0.0184172
3330	0.0195631
3342	0.0227554
3354	0.0290172
3366	0.0430552
3378	0.0547603
3390	0.0429734
3402	0.0289354
3414	0.0220187
3426	0.0188264
3438	0.0170666
3450	0.016248
3462	0.0156341
3474	0.015675
3486	0.0152658
3498	0.0151839
3510	0.0141198
3522	0.01457
3534	0.015143
3546	0.0148974
3558	0.0148974
3570	0.0146109
3582	0.0151839
3594	0.0146519
3606	0.0147746
3618	0.0148156
3630	0.0151839
3642	0.0152658
3654	0.0153476
3666	0.0150202
3678	0.0149384
3690	0.0150611
3702	0.0151021
3714	0.0148565
3726	0.0159615
3738	0.0155113
3750	0.0139152
3762	0.0152658
3774	0.0144472
3786	0.0140789
3798	0.01457
3810	0.0139561
3822	0.0139561
3834	0.0142426
3846	0.0139561
3858	0.0146109
3870	0.0147746
3882	0.0139561
3894	0.0152248
3906	0.0145291
3918	0.0145291
3930	0.0150202
3942	0.0149793
3954	0.0150202
3966	0.0156341
