Infrared Spectrum: Ethene, (2-methoxyethoxy)-
Formula: C 5 H 10 O 2
CAS: 1663-35-0
Origin: Sadtler Research Labs Under US-EPA Contract
1/CM	ABSORBANCE
450	0.00167498
462	0.00272185
474	0.00418746
486	0.00669994
498	0.0077468
510	0.0100499
522	0.00809576
534	0.00635098
546	0.00237289
558	0.00216352
570	0.00146561
582	0.00362913
594	0.00558328
606	0.00530412
618	0.004676
630	0.0015354
642	0.00216352
654	0.0015354
666	0
678	0.00579265
690	0.0108874
702	0.00935199
714	0.0069791
726	0.00565307
738	0.00432704
750	0.00732805
762	0.00886346
774	0.0133999
786	0.0237987
798	0.0565307
810	0.105175
822	0.139931
834	0.134557
846	0.11704
858	0.0947762
870	0.0717451
882	0.0568099
894	0.0549255
906	0.0582057
918	0.0627421
930	0.0776076
942	0.1035
954	0.126461
966	0.145444
978	0.128625
990	0.0935199
1002	0.091147
1014	0.10678
1026	0.114038
1038	0.123181
1050	0.111526
1062	0.0985449
1074	0.145514
1086	0.237778
1098	0.281048
1110	0.271627
1122	0.368148
1134	0.562306
1146	0.492724
1158	0.309872
1170	0.323272
1182	0.400042
1194	0.54102
1206	0.69791
1218	0.475905
1230	0.164567
1242	0.106082
1254	0.0917054
1266	0.0792826
1278	0.0754441
1290	0.0780263
1302	0.0847263
1314	0.164637
1326	0.188715
1338	0.0922637
1350	0.064766
1362	0.0905189
1374	0.0734899
1386	0.0441777
1398	0.0418048
1410	0.0410371
1422	0.0337091
1434	0.0290331
1446	0.0510172
1458	0.0869596
1470	0.082493
1482	0.051436
1494	0.0318945
1506	0.0239383
1518	0.0231008
1530	0.0210769
1542	0.018704
1554	0.0177967
1566	0.0205186
1578	0.0321737
1590	0.0672785
1602	0.164916
1614	0.324598
1626	0.347001
1638	0.346582
1650	0.308406
1662	0.143211
1674	0.0759326
1686	0.0369194
1698	0.0203092
1710	0.0129113
1722	0.0130509
1734	0.0151446
1746	0.0235894
1758	0.0244966
1770	0.0180061
1782	0.0109572
1794	0.00704889
1806	0.00509474
1818	0.00460621
1830	0.00321039
1842	0.00265206
1854	0.00314059
1866	0.00488537
1878	0.0069791
1890	0.00537391
1902	0.00530412
1914	0.00676973
1926	0.00732805
1938	0.00642077
1950	0.00628119
1962	0.00683952
1974	0.00732805
1986	0.00781659
1998	0.00809576
2010	0.00816555
2022	0.00760722
2034	0.00767701
2046	0.00816555
2058	0.00816555
2070	0.00767701
2082	0.0069791
2094	0.00746764
2106	0.00746764
2118	0.00739785
2130	0.00649056
2142	0.00586244
2154	0.00572286
2166	0.00628119
2178	0.00537391
2190	0.00481558
2202	0.00334997
2214	0.00286143
2226	0.0023031
2238	0.0023031
2250	0.00216352
2262	0.00258227
2274	0.00223331
2286	0.0015354
2298	0.00111666
2310	6.9791e-05
2322	0.00111666
2334	0.00118645
2346	0.00202394
2358	0.00251248
2370	0.00251248
2382	0.00223331
2394	0.00300101
2406	0.00258227
2418	0.00265206
2430	0.00209373
2442	0.00160519
2454	0.00167498
2466	0.00160519
2478	0.00195415
2490	0.00223331
2502	0.00258227
2514	0.00258227
2526	0.00265206
2538	0.00286143
2550	0.00216352
2562	0.00216352
2574	0.00265206
2586	0.0039083
2598	0.00453641
2610	0.00495516
2622	0.00460621
2634	0.00502495
2646	0.00495516
2658	0.00460621
2670	0.00509474
2682	0.00558328
2694	0.00746764
2706	0.0112364
2718	0.0147259
2730	0.0182852
2742	0.0182852
2754	0.0190529
2766	0.0206581
2778	0.0254737
2790	0.0342674
2802	0.0520641
2814	0.0976376
2826	0.155843
2838	0.161845
2850	0.152912
2862	0.170499
2874	0.224169
2886	0.271906
2898	0.271068
2910	0.252294
2922	0.26709
2934	0.306034
2946	0.271627
2958	0.204418
2970	0.159961
2982	0.151167
2994	0.162892
3006	0.118645
3018	0.0555536
3030	0.0376173
3042	0.0317549
3054	0.0344768
3066	0.0333601
3078	0.027707
3090	0.0237987
3102	0.0194019
3114	0.0259623
3126	0.0426423
3138	0.0318247
3150	0.00970095
3162	0.00474579
3174	0.00460621
3186	0.00418746
3198	0.00355934
3210	0.00328018
3222	0.00279164
3234	0.00286143
3246	0.00167498
3258	0.00202394
3270	0.00237289
3282	0.00181457
3294	0.000977074
3306	0.00132603
3318	0.00132603
3330	0.000837492
3342	0.00104686
3354	0.000558328
3366	0.00069791
3378	0
3390	0.000977074
3402	0.000348955
3414	0.000488537
3426	0.000767701
3438	0.00118645
3450	0.000767701
3462	0.000907283
3474	0.000767701
3486	0.00104686
3498	0.0015354
3510	0.00069791
3522	0.00118645
3534	0.00146561
3546	0.000418746
3558	0.00237289
3570	0.00258227
3582	0.00300101
3594	0.00118645
3606	0.00265206
3618	0.00293122
3630	0.00439683
3642	0.00516453
3654	0.0039083
3666	0.00334997
3678	0.00174477
3690	0.00376871
3702	0.00272185
3714	0.00265206
3726	0.00279164
3738	0.00216352
3750	0.00251248
3762	0.00265206
3774	0.0023031
3786	0.00202394
3798	0.00202394
3810	0.00244268
3822	0.00139582
3834	0.00181457
3846	0.00174477
3858	0.00216352
3870	0.00272185
3882	0.0015354
3894	0.00188436
3906	0.00195415
3918	0.00286143
3930	0.0039083
3942	0.0039083
3954	0.00432704
3966	0.00376871
