Infrared Spectrum: 2-Chloro-para-acetotoluidide
Formula: C 9 H 10 Cl N O
CAS: 16634-82-5
Origin: Sadtler Research Labs Under US-EPA Contract
1/CM	ABSORBANCE
450	0.0430633
462	0.0396467
474	0.0134528
486	0.0150899
498	0.0472629
510	0.0334541
522	0.0114598
534	0.0122428
546	0.0133105
558	0.0139511
570	0.0106768
582	0.00797205
594	0.0054096
606	0.0132393
618	0.0144493
630	0.00676201
642	0.00334541
654	0.00377249
666	7.1179e-05
678	0.00284716
690	0.00384367
702	0.00782969
714	0.00348777
726	0.00177948
738	0.00377249
750	0.018293
762	0.0666235
774	0.0788663
786	0.0499677
798	0.0541672
810	0.0788663
822	0.0519607
834	0.0304646
846	0.0130969
858	0.00718908
870	0.00355895
882	0.00263362
894	0.0027048
906	0.00398602
918	0.0071179
930	0.00875502
942	0.0074738
954	0.00612139
966	0.00555196
978	0.00448428
990	0.00519607
1002	0.00498253
1014	0.0124563
1026	0.0144493
1038	0.00939563
1050	0.0108192
1062	0.0113886
1074	0.0124563
1086	0.0150899
1098	0.0202148
1110	0.0244144
1122	0.0331694
1134	0.0240585
1146	0.0185777
1158	0.0170118
1170	0.0172965
1182	0.0216384
1194	0.0314611
1206	0.0435615
1218	0.0439174
1230	0.069186
1242	0.127695
1254	0.0880484
1266	0.0674777
1278	0.0661965
1290	0.0872655
1302	0.0512489
1314	0.0997218
1326	0.0683318
1338	0.0432057
1350	0.028614
1362	0.0221367
1374	0.0204284
1386	0.0279733
1398	0.0662676
1410	0.1262
1422	0.0866248
1434	0.0499677
1446	0.0411415
1458	0.0489712
1470	0.0572279
1482	0.0828524
1494	0.14428
1506	0.265355
1518	0.621179
1530	0.576835
1542	0.25354
1554	0.0965187
1566	0.0507506
1578	0.0534554
1590	0.102071
1602	0.132535
1614	0.0788663
1626	0.0477611
1638	0.0303223
1650	0.0246279
1662	0.0249127
1674	0.0311764
1686	0.0443445
1698	0.0975864
1710	0.308205
1722	0.429992
1734	0.200938
1746	0.0706807
1758	0.0387926
1770	0.0264786
1782	0.0193607
1794	0.0140223
1806	0.0113175
1818	0.0102498
1830	0.00861266
1842	0.00868384
1854	0.00932445
1866	0.00946681
1878	0.0106057
1890	0.00975152
1902	0.00761615
1914	0.00569432
1926	0.00476899
1938	0.00348777
1950	0.00298952
1962	0.00256244
1974	0.00227773
1986	0.00213537
1998	0.00156594
2010	0.00185065
2022	0.00149476
2034	0.00192183
2046	0.00177948
2058	0.00142358
2070	0.0017083
2082	0.00192183
2094	0.00192183
2106	0.00177948
2118	0.0017083
2130	0.00199301
2142	0.00213537
2154	0.00242009
2166	0.00234891
2178	0.00213537
2190	0.00192183
2202	0.00156594
2214	0.00113886
2226	0.0013524
2238	0.00156594
2250	0.00199301
2262	0.00277598
2274	0.00398602
2286	0.00412838
2298	0.00355895
2310	0.00348777
2322	0.00377249
2334	0.00370131
2346	0.00377249
2358	0.00341659
2370	0.00427074
2382	0.00341659
2394	0.00163712
2406	0.000782969
2418	0.000782969
2430	0.000996506
2442	0.00128122
2454	0.00163712
2466	0.00199301
2478	0.00206419
2490	0.00163712
2502	0.00142358
2514	0.000854148
2526	0.000854148
2538	0.000640611
2550	0.000355895
2562	0.000213537
2574	0.000498253
2586	0.00071179
2598	0.000569432
2610	0.000427074
2622	0.000284716
2634	0.000355895
2646	0.000498253
2658	0.00121004
2670	0.0017083
2682	0.00128122
2694	0.00121004
2706	0.00163712
2718	0.00192183
2730	0.00234891
2742	0.00391485
2754	0.00370131
2766	0.00177948
2778	0.00163712
2790	0.00128122
2802	0.00199301
2814	0.00199301
2826	0.00327423
2838	0.00419956
2850	0.00619257
2862	0.0121716
2874	0.0237738
2886	0.0267633
2898	0.0211402
2910	0.0214249
2922	0.0301799
2934	0.0554484
2946	0.039362
2958	0.0214961
2970	0.0191472
2982	0.0209978
2994	0.0255533
3006	0.0296105
3018	0.0341659
3030	0.0577262
3042	0.0476188
3054	0.0378672
3066	0.0284004
3078	0.0137375
3090	0.0084703
3102	0.00782969
3114	0.00733144
3126	0.00612139
3138	0.00348777
3150	0.00206419
3162	0.000925327
3174	0.000498253
3186	0.000498253
3198	0.000854148
3210	0.00071179
3222	0.000854148
3234	0.00071179
3246	0.000498253
3258	0.000782969
3270	7.1179e-05
3282	0.000854148
3294	0.000569432
3306	0.000782969
3318	0.0013524
3330	0.00163712
3342	0.00177948
3354	0.00128122
3366	0.00177948
3378	0.00220655
3390	0.00434192
3402	0.0101074
3414	0.027831
3426	0.0839912
3438	0.0943122
3450	0.0255533
3462	0.00697554
3474	0.00370131
3486	0.00298952
3498	0.00156594
3510	0.00113886
3522	0.000925327
3534	0.000640611
3546	0.00163712
3558	0.000569432
3570	0.00121004
3582	0.000925327
3594	0.000640611
3606	0.000854148
3618	0.00149476
3630	0.00263362
3642	0.000284716
3654	0.000640611
3666	0.000498253
3678	0.000640611
3690	0.00128122
3702	0.000782969
3714	0.000213537
3726	0.0013524
3738	0.0017083
3750	0.00106769
3762	0.00071179
3774	0.000996506
3786	7.1179e-05
3798	0.000569432
3810	0.000640611
3822	0.000925327
3834	0.0013524
3846	0.00128122
3858	0.00149476
3870	0.00106769
3882	0.00185065
3894	0.00227773
3906	0.00121004
3918	0.00220655
3930	0.00227773
3942	0.000782969
3954	0.0017083
3966	0.00106769
