Infrared Spectrum: N,N-Diethyl-N'-phenylethylenediamine
Formula: C 12 H 20 N 2
CAS: 1665-59-4
Origin: Sadtler Research Labs Under US-EPA Contract
1/CM	ABSORBANCE
450	0.0725354
462	0.0740932
474	0.0741906
486	0.081006
498	0.0942474
510	0.0730222
522	0.0514077
534	0.0569574
546	0.0491683
558	0.0463448
570	0.0422555
582	0.0428397
594	0.0353428
606	0.0356349
618	0.0361217
630	0.0404056
642	0.0395294
654	0.0456632
666	0.0618255
678	0.102523
690	0.210694
702	0.10116
714	0.0674726
726	0.0953184
738	0.246036
750	0.306888
762	0.107781
774	0.0519918
786	0.0393347
798	0.0364138
810	0.0280405
822	0.0155781
834	0.0121704
846	0.00886003
858	0.0212251
870	0.0283326
882	0.0137282
894	0.0150913
906	0.0283326
918	0.0168438
930	0.0117809
942	0.00496551
954	0.00516024
966	0.0105152
978	0.0139229
990	0.0470263
1002	0.0410872
1014	0.0285274
1026	0.0485841
1038	0.0650385
1050	0.112552
1062	0.219067
1074	0.218093
1086	0.170677
1098	0.134458
1110	0.11226
1122	0.0919107
1134	0.0575415
1146	0.0455659
1158	0.0583204
1170	0.0996997
1182	0.142734
1194	0.129201
1206	0.187911
1218	0.0947342
1230	0.0918133
1242	0.165712
1254	0.277192
1266	0.216438
1278	0.225006
1290	0.21488
1302	0.26804
1314	0.328016
1326	0.208941
1338	0.13845
1350	0.142637
1362	0.136503
1374	0.175448
1386	0.18499
1398	0.100965
1410	0.0596835
1422	0.109241
1434	0.183042
1446	0.0942474
1458	0.144292
1470	0.203099
1482	0.285663
1494	0.430831
1506	0.97363
1518	0.263756
1530	0.093079
1542	0.0749695
1554	0.062215
1566	0.0516998
1578	0.0871399
1590	0.24662
1602	0.750863
1614	0.430344
1626	0.123943
1638	0.0483894
1650	0.0306693
1662	0.0223935
1674	0.0233671
1686	0.0248276
1698	0.022004
1710	0.0109047
1722	0.00905476
1734	0.0196673
1746	0.0100284
1758	0.00681541
1770	0.0044787
1782	0.00272616
1794	0.00808113
1806	0.00759431
1818	0.0114888
1830	0.0130466
1842	0.00564705
1854	0.00194726
1866	0.00233671
1878	0.00223935
1890	0.00623123
1902	0.0112941
1914	0.0160649
1926	0.0129493
1938	0.00516024
1950	0.00272616
1962	0.00165517
1974	0.00194726
1986	0.00233671
1998	0.00165517
2010	0.0018499
2022	0.00214199
2034	0.00146044
2046	0.0026288
2058	0.00214199
2070	0.00194726
2082	0.00175253
2094	0.00194726
2106	0.00233671
2118	0.0026288
2130	0.00243407
2142	0.00272616
2154	0.00253144
2166	0.00223935
2178	0.00360243
2190	0.00292089
2202	0.00253144
2214	0.00233671
2226	0.00243407
2238	0.00272616
2250	0.00360243
2262	0.00389452
2274	0.00438134
2286	0.00486815
2298	0.00545233
2310	0.00671805
2322	0.00535496
2334	0.00769168
2346	0.00331034
2358	0.011002
2370	0.00749695
2382	0.00671805
2394	0.00642596
2406	0.00593914
2418	0.00642596
2430	0.00564705
2442	0.00554969
2454	0.00477079
2466	0.00584178
2478	0.0052576
2490	0.00574442
2502	0.00603651
2514	0.0071075
2526	0.00769168
2538	0.0100284
2550	0.0121704
2562	0.0151886
2574	0.0168438
2586	0.0164543
2598	0.0147018
2610	0.0143124
2622	0.0151886
2634	0.0169412
2646	0.0203489
2658	0.0248276
2670	0.0289168
2682	0.0346612
2694	0.0410872
2706	0.0462474
2718	0.0522839
2730	0.0585152
2742	0.0636754
2754	0.0738985
2766	0.0933711
2778	0.116641
2790	0.165809
2802	0.284008
2814	0.395975
2826	0.361996
2838	0.2843
2850	0.226272
2862	0.199302
2874	0.212349
2886	0.261614
2898	0.251294
2910	0.238247
2922	0.245939
2934	0.334637
2946	0.398701
2958	0.347683
2970	0.520308
2982	0.60404
2994	0.209038
3006	0.10116
3018	0.118685
3030	0.145752
3042	0.106028
3054	0.169314
3066	0.178174
3078	0.106807
3090	0.100965
3102	0.0669857
3114	0.0400162
3126	0.0207383
3138	0.0123651
3150	0.00866531
3162	0.00632859
3174	0.00554969
3186	0.00545233
3198	0.00477079
3210	0.00486815
3222	0.00369979
3234	0.00272616
3246	0.00311562
3258	0.00233671
3270	0.00301825
3282	0.00350507
3294	0.00477079
3306	0.00778904
3318	0.00905476
3330	0.0144097
3342	0.0217119
3354	0.0289168
3366	0.033785
3378	0.0488762
3390	0.0819796
3402	0.0596835
3414	0.0450791
3426	0.0379716
3438	0.0263854
3450	0.0201541
3462	0.016357
3474	0.0107099
3486	0.00759431
3498	0.0044787
3510	0.00408925
3522	0.00379716
3534	0.00282353
3546	0.00535496
3558	0.00292089
3570	0.00574442
3582	0.00331034
3594	0.00408925
3606	0.00389452
3618	0.00691277
3630	0.0130466
3642	0.00671805
3654	0.00642596
3666	0.00554969
3678	0.00993103
3690	0.00827586
3702	0.00574442
3714	0.00691277
3726	0.00662068
3738	0.0103205
3750	0.0125598
3762	0.00389452
3774	0.00331034
3786	0.00204462
3798	0.00545233
3810	0.00438134
3822	0.00730222
3834	0.00681541
3846	0.00662068
3858	0.00720486
3870	0.00963894
3882	0.00769168
3894	0.00574442
3906	0.00554969
3918	0.00477079
3930	0.00194726
3942	0.00272616
3954	0
3966	0.000194726
