Infrared Spectrum: Ethanone, 1-(2,4,6-trimethylphenyl)-
Formula: C 11 H 14 O
CAS: 1667-01-2
Origin: Sadtler Research Labs Under US-EPA Contract
1/CM	ABSORBANCE
450	0
462	0.0259244
474	0.0195115
486	0.00736798
498	0.00764086
510	0.0346568
522	0.0989219
534	0.0922361
546	0.0237413
558	0.0256515
570	0.0251057
582	0.0652202
594	0.150771
606	0.0590803
618	0.0286532
630	0.0229226
642	0.0237413
654	0.0549869
666	0.107245
678	0.058398
690	0.0171919
702	0.0151453
714	0.0167826
726	0.0223768
738	0.0346568
750	0.0257879
762	0.0143266
774	0.014736
786	0.0177377
798	0.0200573
810	0.0327466
822	0.0287897
834	0.0601718
846	0.236457
858	0.140128
870	0.0376585
882	0.0270159
894	0.0236048
906	0.0237413
918	0.0345203
930	0.0646745
942	0.111202
954	0.127712
966	0.123618
978	0.0860962
990	0.0728611
1002	0.0746349
1014	0.0787282
1026	0.0814571
1038	0.0934641
1050	0.143948
1062	0.189111
1074	0.0824122
1086	0.040251
1098	0.0334288
1110	0.0306999
1122	0.0387501
1134	0.0492563
1146	0.0474825
1158	0.172329
1170	0.153636
1182	0.039023
1194	0.0412061
1206	0.0447536
1218	0.0597625
1230	0.165779
1242	0.577431
1254	0.560921
1266	0.187747
1278	0.0826851
1290	0.0877335
1302	0.0679491
1314	0.0564878
1326	0.0787282
1338	0.150907
1350	0.395005
1362	0.384909
1374	0.14313
1386	0.144221
1398	0.116523
1410	0.133988
1422	0.195524
1434	0.219129
1446	0.206849
1458	0.185291
1470	0.16155
1482	0.143403
1494	0.13044
1506	0.117478
1518	0.110793
1530	0.112293
1542	0.112021
1554	0.11052
1566	0.121572
1578	0.129622
1590	0.113658
1602	0.202346
1614	0.351889
1626	0.121435
1638	0.0564878
1650	0.0612634
1662	0.0847317
1674	0.117205
1686	0.173557
1698	0.433755
1710	1.16155
1722	1.03302
1734	0.222267
1746	0.0764086
1758	0.0753171
1770	0.0510301
1782	0.0405239
1794	0.0290626
1806	0.0196479
1818	0.0158275
1830	0.0132351
1842	0.0124164
1854	0.0128257
1866	0.013508
1878	0.0156911
1890	0.0184199
1902	0.0212853
1914	0.021831
1926	0.0201937
1938	0.0166462
1950	0.0150088
1962	0.0130986
1974	0.0114613
1986	0.0107791
1998	0.0107791
2010	0.011052
2022	0.0121435
2034	0.0115977
2046	0.0105062
2058	0.0105062
2070	0.0100969
2082	0.00982397
2094	0.00996041
2106	0.00955108
2118	0.00927819
2130	0.00941464
2142	0.0090053
2154	0.0090053
2166	0.00941464
2178	0.0105062
2190	0.00982397
2202	0.00968752
2214	0.00927819
2226	0.00873242
2238	0.00873242
2250	0.00791375
2262	0.00886886
2274	0.0090053
2286	0.0114613
2298	0.0148724
2310	0.0159639
2322	0.0140537
2334	0.00996041
2346	0.00791375
2358	0.0107791
2370	0.00791375
2382	0.0125528
2394	0.0139173
2406	0.0161004
2418	0.0156911
2430	0.0137808
2442	0.0129622
2454	0.01228
2466	0.0124164
2478	0.0133715
2490	0.0140537
2502	0.013508
2514	0.0124164
2526	0.0114613
2538	0.0107791
2550	0.0106426
2562	0.00968752
2574	0.00968752
2586	0.0109155
2598	0.0107791
2610	0.0102333
2622	0.0100969
2634	0.0103697
2646	0.0102333
2658	0.0128257
2670	0.0151453
2682	0.0161004
2694	0.0139173
2706	0.0145995
2718	0.0155546
2730	0.0208759
2742	0.0352026
2754	0.0346568
2766	0.0222404
2778	0.0201937
2790	0.020603
2802	0.0244235
2814	0.0305635
2826	0.0376585
2838	0.0523945
2850	0.0818664
2862	0.150771
2874	0.233592
2886	0.211625
2898	0.19798
2910	0.237003
2922	0.375903
2934	0.536498
2946	0.407968
2958	0.281757
2970	0.257606
2982	0.269613
2994	0.289944
3006	0.318733
3018	0.330058
3030	0.295265
3042	0.237958
3054	0.160731
3066	0.10438
3078	0.0803655
3090	0.0616727
3102	0.0472096
3114	0.0352026
3126	0.0272888
3138	0.0221039
3150	0.0189657
3162	0.0169191
3174	0.0167826
3186	0.0141902
3198	0.0140537
3210	0.0133715
3222	0.0113249
3234	0.0126893
3246	0.0139173
3258	0.0130986
3270	0.0126893
3282	0.0133715
3294	0.0117342
3306	0.0126893
3318	0.0133715
3330	0.0130986
3342	0.0154182
3354	0.013508
3366	0.0144631
3378	0.0167826
3390	0.021831
3402	0.0281075
3414	0.0305635
3426	0.0214217
3438	0.0139173
3450	0.0126893
3462	0.0128257
3474	0.0121435
3486	0.0114613
3498	0.0106426
3510	0.0109155
3522	0.0080502
3534	0.0106426
3546	0.00996041
3558	0.00996041
3570	0.00968752
3582	0.00968752
3594	0.011052
3606	0.0105062
3618	0.0109155
3630	0.00927819
3642	0.00818664
3654	0.0100969
3666	0.0100969
3678	0.00982397
3690	0.0115977
3702	0.0102333
3714	0.0102333
3726	0.0090053
3738	0.0118706
3750	0.00832308
3762	0.00955108
3774	0.00832308
3786	0.00941464
3798	0.0130986
3810	0.00955108
3822	0.00791375
3834	0.0080502
3846	0.00791375
3858	0.00982397
3870	0.00886886
3882	0.0107791
3894	0.00941464
3906	0.0103697
3918	0.0117342
3930	0.013508
3942	0.0124164
3954	0.0166462
3966	0.0140537
