Infrared Spectrum: Heptanophenone
Formula: C 13 H 18 O
CAS: 1671-75-6
Origin: Sadtler Research Labs Under US-EPA Contract
1/CM	ABSORBANCE
450	0
462	0.0202065
474	0.0209386
486	0.0189619
498	0.0226957
510	0.019694
522	0.0215975
534	0.020719
546	0.0238671
558	0.0344096
570	0.0582035
582	0.0442933
594	0.0467093
606	0.0504431
618	0.0306026
630	0.0230618
642	0.0348489
654	0.0620838
666	0.0644266
678	0.100081
690	0.253826
702	0.163629
714	0.0885865
726	0.094956
738	0.121898
750	0.137199
762	0.0942238
774	0.0633284
786	0.0465628
798	0.0335311
810	0.0275277
822	0.0239403
834	0.0249653
846	0.0276009
858	0.0298705
870	0.0314079
882	0.0299437
894	0.0340436
906	0.0295776
918	0.0340436
930	0.0402666
942	0.0544697
954	0.0888794
966	0.10257
978	0.113113
990	0.100154
1002	0.0997147
1014	0.0912954
1026	0.083901
1038	0.0525662
1050	0.0482467
1062	0.0388756
1074	0.0383631
1086	0.0326526
1098	0.0353614
1110	0.042829
1122	0.0359471
1134	0.0306758
1146	0.0363864
1158	0.0552751
1170	0.0882205
1182	0.195842
1194	0.129732
1206	0.18918
1218	0.237793
1230	0.250531
1242	0.202285
1254	0.179955
1266	0.208947
1278	0.210777
1290	0.159456
1302	0.125705
1314	0.127316
1326	0.130317
1338	0.119628
1350	0.139908
1362	0.14269
1374	0.106011
1386	0.0741638
1398	0.0470021
1410	0.0513948
1422	0.05835
1434	0.0652319
1446	0.158577
1458	0.15704
1470	0.107402
1482	0.0563
1494	0.036606
1506	0.0292848
1518	0.0260635
1530	0.0262831
1542	0.0243796
1554	0.0250385
1566	0.0306758
1578	0.0566661
1590	0.0676479
1602	0.0807528
1614	0.0440004
1626	0.0299437
1638	0.0272349
1650	0.0337507
1662	0.0493449
1674	0.072187
1686	0.200308
1698	0.64141
1710	0.548797
1722	0.126876
1734	0.054909
1746	0.0422433
1758	0.0382167
1770	0.0330918
1782	0.0256974
1794	0.0232814
1806	0.0314079
1818	0.0257706
1830	0.0199137
1842	0.0177173
1854	0.017278
1866	0.0169852
1878	0.0187423
1890	0.0221832
1902	0.0237207
1914	0.0216708
1926	0.0177173
1938	0.0183762
1950	0.0233546
1962	0.0257706
1974	0.0233546
1986	0.0165459
1998	0.0158138
2010	0.0153745
2022	0.0150817
2034	0.0155209
2046	0.0150817
2058	0.0150817
2070	0.0149352
2082	0.0145692
2094	0.0145692
2106	0.0143496
2118	0.0142763
2130	0.014496
2142	0.0146424
2154	0.0146424
2166	0.0147888
2178	0.0152281
2190	0.0146424
2202	0.014862
2214	0.0149352
2226	0.0147888
2238	0.0150085
2250	0.0153745
2262	0.0157406
2274	0.0159602
2286	0.0153745
2298	0.0139103
2310	0.0145692
2322	0.0174245
2334	0.0172048
2346	0.0175709
2358	0.0161066
2370	0.0164727
2382	0.0153013
2394	0.0161066
2406	0.0160334
2418	0.0157406
2430	0.0158138
2442	0.015887
2454	0.0155942
2466	0.0155209
2478	0.0154477
2490	0.0151549
2502	0.0152281
2514	0.0153013
2526	0.0154477
2538	0.0159602
2550	0.0161799
2562	0.0167655
2574	0.0169852
2586	0.0177173
2598	0.0185958
2610	0.0182298
2622	0.0185958
2634	0.0187423
2646	0.0191083
2658	0.019694
2670	0.0211583
2682	0.0215975
2694	0.0218904
2706	0.0211583
2718	0.0209386
2730	0.0220368
2742	0.0240135
2754	0.0240867
2766	0.024526
2778	0.0262099
2790	0.0292116
2802	0.0348489
2814	0.0412916
2826	0.0496377
2838	0.0637677
2850	0.111063
2862	0.247749
2874	0.289407
2886	0.262904
2898	0.229959
2910	0.297314
2922	0.441249
2934	0.655906
2946	0.595799
2958	0.458087
2970	0.539646
2982	0.23933
2994	0.10484
3006	0.0702835
3018	0.0599606
3030	0.075628
3042	0.0945167
3054	0.0807528
3066	0.12241
3078	0.156234
3090	0.111575
3102	0.0755548
3114	0.0429754
3126	0.0261367
3138	0.0221832
3150	0.0218172
3162	0.0224029
3174	0.0199869
3186	0.0187423
3198	0.0176441
3210	0.0164727
3222	0.0160334
3234	0.0154477
3246	0.0149352
3258	0.0149352
3270	0.0151549
3282	0.0147888
3294	0.0153013
3306	0.0147156
3318	0.0150817
3330	0.0151549
3342	0.0155942
3354	0.0162531
3366	0.0191815
3378	0.0235011
3390	0.0240867
3402	0.0196208
3414	0.015887
3426	0.0150817
3438	0.0156674
3450	0.0155209
3462	0.0155942
3474	0.014862
3486	0.0151549
3498	0.014862
3510	0.014862
3522	0.0153013
3534	0.0142031
3546	0.0145692
3558	0.0142763
3570	0.0149352
3582	0.0144228
3594	0.0156674
3606	0.0145692
3618	0.0152281
3630	0.0156674
3642	0.0153013
3654	0.0161066
3666	0.0149352
3678	0.0155942
3690	0.0155209
3702	0.0163995
3714	0.0159602
3726	0.0166191
3738	0.015887
3750	0.0155209
3762	0.0147888
3774	0.014862
3786	0.0158138
3798	0.0153013
3810	0.0142031
3822	0.0153745
3834	0.0150817
3846	0.0155942
3858	0.0143496
3870	0.0159602
3882	0.015887
3894	0.0159602
3906	0.0164727
3918	0.0153013
3930	0.0157406
3942	0.0163995
3954	0.0155209
3966	0.0162531
