Infrared Spectrum: 2,3-Dimethyl-1-hexene
Formula: C 8 H 16
CAS: 16746-86-4
Origin: Sadtler Research Labs Under US-EPA Contract
1/CM	ABSORBANCE
450	0.113404
462	0.0268309
474	0.0206188
486	0.0343647
498	0.0211475
510	0.0179754
522	0.0281526
534	0.0356864
546	0.0475819
558	0.0615922
570	0.0440133
582	0.0252449
594	0.0174467
606	0.0206188
618	0.0162572
630	0.012292
642	0.0151998
654	0.0163893
666	0.0129529
678	0.0190328
690	0.017711
702	0.023791
714	0.030003
726	0.0294744
738	0.0317213
750	0.0257735
762	0.0224692
774	0.0239231
786	0.023791
798	0.0206188
810	0.0200901
822	0.0224692
834	0.0244518
846	0.0281526
858	0.03225
870	0.0597417
882	0.231037
894	0.359376
906	0.152394
918	0.0556444
930	0.0359508
942	0.0331752
954	0.0393873
966	0.0302674
978	0.023791
990	0.0255092
1002	0.0257735
1014	0.0255092
1026	0.0247162
1038	0.0240553
1050	0.0244518
1062	0.0240553
1074	0.0268309
1086	0.0433524
1098	0.0565696
1110	0.0495645
1122	0.0366116
1134	0.0293422
1146	0.0342325
1158	0.0309282
1170	0.019958
1182	0.0170502
1194	0.0167858
1206	0.0195615
1218	0.0281526
1230	0.0323821
1242	0.0296065
1254	0.0288135
1266	0.0276239
1278	0.0264344
1290	0.0270953
1302	0.028417
1314	0.0325143
1326	0.0334395
1338	0.0314569
1350	0.0397838
1362	0.0716372
1374	0.150015
1386	0.170105
1398	0.0863083
1410	0.0541905
1422	0.056834
1434	0.0869692
1446	0.152394
1458	0.222842
1470	0.193368
1482	0.0962212
1494	0.0396516
1506	0.0257735
1518	0.020751
1530	0.0192971
1542	0.0170502
1554	0.0170502
1566	0.0179754
1578	0.0189006
1590	0.0231301
1602	0.0256414
1614	0.0281526
1626	0.0502254
1638	0.112346
1650	0.143803
1662	0.0654251
1674	0.0200901
1686	0.0162572
1698	0.0158606
1710	0.0150676
1722	0.0137459
1734	0.0116311
1746	0.0108381
1758	0.0100451
1770	0.0133494
1782	0.0239231
1794	0.0263022
1806	0.0138781
1818	0.00726946
1830	0.00581557
1842	0.0042295
1854	0.00475819
1866	0.00449385
1878	0.0042295
1890	0.00396516
1902	0.00436168
1914	0.00409733
1926	0.00383299
1938	0.00356864
1950	0.00343647
1962	0.00343647
1974	0.00409733
1986	0.0033043
1998	0.00290778
2010	0.00211475
2022	0.00132172
2034	0.00264344
2046	0.00224692
2058	0.00171824
2070	0.00396516
2082	0.00502254
2094	0.00515471
2106	0.0042295
2118	0.00356864
2130	0.00356864
2142	0.00343647
2154	0.00396516
2166	0.00370082
2178	0.00370082
2190	0.00343647
2202	0.00290778
2214	0.0033043
2226	0.00290778
2238	0.00290778
2250	0.00290778
2262	0.0023791
2274	0.00158606
2286	0.00198258
2298	0.00118955
2310	0
2322	0
2334	0
2346	0.000132172
2358	0
2370	0.000528688
2382	0.0033043
2394	0.00383299
2406	0.00396516
2418	0.00409733
2430	0.00317213
2442	0.00251127
2454	0.00277561
2466	0.00251127
2478	0.00277561
2490	0.00224692
2502	0.0023791
2514	0.00264344
2526	0.00303996
2538	0.00290778
2550	0.00383299
2562	0.00489036
2574	0.00594774
2586	0.00674077
2598	0.00700512
2610	0.00674077
2622	0.00793032
2634	0.00779815
2646	0.00845901
2658	0.011499
2670	0.0125563
2682	0.0137459
2694	0.0137459
2706	0.0121598
2718	0.0145389
2730	0.0196936
2742	0.0232623
2754	0.0192971
2766	0.0173145
2778	0.0195615
2790	0.0240553
2802	0.0321178
2814	0.0403125
2826	0.0516793
2838	0.0700512
2850	0.135344
2862	0.27082
2874	0.450839
2886	0.518246
2898	0.412773
2910	0.4552
2922	0.65663
2934	0.842993
2946	0.790653
2958	0.888857
2970	1.32172
2982	0.816162
2994	0.276107
3006	0.136798
3018	0.0841936
3030	0.069919
3042	0.0600061
3054	0.0588165
3066	0.102301
3078	0.177904
3090	0.142614
3102	0.0600061
3114	0.0257735
3126	0.0191649
3138	0.0150676
3150	0.013085
3162	0.0107059
3174	0.0107059
3186	0.0105738
3198	0.00911987
3210	0.00740163
3222	0.00449385
3234	0.00396516
3246	0.00290778
3258	0.00317213
3270	0.0023791
3282	0.00290778
3294	0.00251127
3306	0.00303996
3318	0.00290778
3330	0.00118955
3342	0.00145389
3354	0.00118955
3366	0.00118955
3378	0.000132172
3390	0.00145389
3402	0.00224692
3414	0.00317213
3426	0.00211475
3438	0.00356864
3450	0.0023791
3462	0.00198258
3474	0.00370082
3486	0.00264344
3498	0.00303996
3510	0.00145389
3522	0.00277561
3534	0.00145389
3546	0.00251127
3558	0.00118955
3570	0.00158606
3582	0.00436168
3594	0.00317213
3606	0.00343647
3618	0.00277561
3630	0.00356864
3642	0.00528688
3654	0.00383299
3666	0.00555122
3678	0.00317213
3690	0.0033043
3702	0.00436168
3714	0.00396516
3726	0.0023791
3738	0.00317213
3750	0.00528688
3762	0.00158606
3774	0.0023791
3786	0.00462602
3798	0.00370082
3810	0.00224692
3822	0.00145389
3834	0.00343647
3846	0.00105738
3858	0.000132172
3870	0.00290778
3882	0.00251127
3894	0.000793032
3906	0.00171824
3918	0.00409733
3930	0.00317213
3942	0.000396516
3954	0.00515471
3966	0.00594774
