Infrared Spectrum: 1-Octanone, 1-phenyl-
Formula: C 14 H 20 O
CAS: 1674-37-9
Origin: Sadtler Research Labs Under US-EPA Contract
1/CM	ABSORBANCE
450	0.0150354
462	0.00335027
474	0.00130742
486	0.00482113
498	0.00866168
510	0.0075994
522	0.00915197
534	0.0101325
546	0.00972397
558	0.0201834
570	0.0415107
582	0.0290085
594	0.0338296
606	0.033993
618	0.0151171
630	0.0107045
642	0.0192028
654	0.0472307
666	0.0502541
678	0.0881694
690	0.228881
702	0.148965
714	0.0792626
726	0.0809786
738	0.104104
750	0.11873
762	0.0757489
774	0.047149
786	0.0272925
798	0.0193662
810	0.013728
822	0.0116034
834	0.00939711
846	0.00800797
858	0.00743597
870	0.00972397
882	0.0135645
894	0.0166697
906	0.0176502
918	0.0215725
930	0.0285182
942	0.0355456
954	0.0500907
966	0.071418
978	0.100345
990	0.100917
1002	0.0967494
1014	0.0633283
1026	0.0568729
1038	0.0299073
1050	0.026557
1062	0.0229616
1074	0.0211639
1086	0.0148719
1098	0.0154439
1110	0.0191211
1122	0.0156891
1134	0.0127474
1146	0.0182222
1158	0.038569
1170	0.0692118
1182	0.166615
1194	0.104757
1206	0.163837
1218	0.24506
1230	0.19595
1242	0.156891
1254	0.168494
1266	0.212456
1278	0.165226
1290	0.130824
1302	0.110069
1314	0.107536
1326	0.104921
1338	0.0997728
1350	0.126902
1362	0.117668
1374	0.0800797
1386	0.052869
1398	0.0290085
1410	0.0333393
1422	0.0397947
1434	0.0509895
1446	0.142182
1458	0.138832
1470	0.0904574
1482	0.039141
1494	0.0196114
1506	0.0100508
1518	0.00898854
1530	0.00857997
1542	0.00776283
1554	0.00833483
1566	0.0141365
1578	0.0396313
1590	0.0473124
1602	0.0571181
1614	0.0252496
1626	0.0130742
1638	0.012012
1650	0.0195296
1662	0.035137
1674	0.0620209
1686	0.20069
1698	0.608361
1710	0.479988
1722	0.104267
1734	0.0378336
1746	0.0232068
1758	0.0174051
1770	0.0144634
1782	0.00915197
1794	0.00776283
1806	0.0156074
1818	0.00841654
1830	0.00367713
1842	0.00138914
1854	0.001144
1866	0.00171599
1878	0.00367713
1890	0.00670055
1902	0.0081714
1914	0.00596512
1926	0.0029417
1938	0.00343199
1950	0.00882511
1962	0.0103777
1974	0.00808969
1986	0.00196114
1998	0.001144
2010	0.000980568
2022	0.00106228
2034	0.00106228
2046	0.001144
2058	0.00122571
2070	0.000571998
2082	0.000245142
2094	0.000326856
2106	0.000490284
2118	0.000245142
2130	0.000245142
2142	0.000163428
2154	0.000245142
2166	0.000735426
2178	0.000735426
2190	0.000653712
2202	0.000571998
2214	0.000571998
2226	0.000163428
2238	0.00081714
2250	0.000735426
2262	0.00122571
2274	0.00130742
2286	0.00130742
2298	0.00187942
2310	0.00220628
2322	0.00310513
2334	0.00163428
2346	0.00277828
2358	0.00155257
2370	0.00367713
2382	0.00384056
2394	0.00204285
2406	0.00196114
2418	0.00147085
2430	0.000653712
2442	0.000898854
2454	0.000490284
2466	0.001144
2478	0.00130742
2490	0.000980568
2502	0.000898854
2514	0.000980568
2526	0.00122571
2538	0.00163428
2550	0.00204285
2562	0.00236971
2574	0.00318685
2586	0.00384056
2598	0.00449427
2610	0.00473941
2622	0.00506627
2634	0.00555655
2646	0.00621026
2658	0.00678226
2670	0.0081714
2682	0.00907025
2694	0.00907025
2706	0.00890683
2718	0.00833483
2730	0.00956054
2742	0.0116851
2754	0.0119302
2766	0.0129108
2778	0.0147085
2790	0.0190394
2802	0.0254948
2814	0.0339113
2826	0.0445341
2838	0.0631649
2850	0.126248
2862	0.298093
2874	0.318603
2886	0.269329
2898	0.246286
2910	0.335436
2922	0.536207
2934	0.815342
2946	0.673732
2958	0.479498
2970	0.508751
2982	0.218503
2994	0.0953602
3006	0.0593244
3018	0.0499273
3030	0.0632466
3042	0.0786906
3054	0.06913
3066	0.111621
3078	0.136054
3090	0.0974848
3102	0.0586707
3114	0.0277828
3126	0.0120937
3138	0.00792626
3150	0.00841654
3162	0.00857997
3174	0.00653712
3186	0.00490284
3198	0.00375884
3210	0.00335027
3222	0.00196114
3234	0.00147085
3246	0.000653712
3258	0.00163428
3270	0.00155257
3282	0.000898854
3294	0.00204285
3306	0.00163428
3318	0.000653712
3330	0.00212456
3342	0.00204285
3354	0.00253313
3366	0.00563827
3378	0.00956054
3390	0.00964225
3402	0.00506627
3414	0.00187942
3426	0.00179771
3438	0.00147085
3450	0.00130742
3462	0.00130742
3474	0.00147085
3486	0.00081714
3498	0.001144
3510	0.00147085
3522	0.00122571
3534	0.000898854
3546	0.000735426
3558	0.000571998
3570	0.00171599
3582	0.00253313
3594	0.00196114
3606	0.00130742
3618	0.000980568
3630	0.00302342
3642	0.00245142
3654	0.00318685
3666	0.00302342
3678	0.00302342
3690	0.00343199
3702	0.00326856
3714	0.00326856
3726	0.0029417
3738	0.00236971
3750	0.0035137
3762	0.00269656
3774	0.00212456
3786	0.00302342
3798	0.00187942
3810	0.00318685
3822	0.00196114
3834	0.00220628
3846	0.00277828
3858	0.00196114
3870	0.00220628
3882	0.00081714
3894	0.00318685
3906	0.00171599
3918	0.00081714
3930	0.00187942
3942	0.00196114
3954	0.00147085
3966	0.00245142
