Infrared Spectrum: Dodecanophenone
Formula: C 18 H 28 O
CAS: 1674-38-0
Origin: Sadtler Research Labs Under US-EPA Contract
1/CM	ABSORBANCE
450	0.0241216
462	0.010392
474	0.00250318
486	0.00804052
498	0.00986102
510	0.010392
522	0.00773711
534	0.0116057
546	0.0106196
558	0.0127435
570	0.024425
582	0.0184325
594	0.0179015
606	0.0184325
618	0.0113022
630	0.00804052
642	0.0138813
654	0.0251835
666	0.027535
678	0.041037
690	0.110747
702	0.0699374
714	0.0427058
726	0.0446022
738	0.0524151
750	0.0574973
762	0.037927
774	0.0247284
786	0.0151708
798	0.0106196
810	0.00819223
822	0.00682686
834	0.00675101
846	0.00644759
858	0.00568905
870	0.00629588
882	0.00781296
894	0.00796467
906	0.00963346
918	0.0127435
930	0.0147157
942	0.0182808
954	0.027004
966	0.0358789
978	0.0417956
990	0.0399751
1002	0.0455883
1014	0.0406577
1026	0.0279143
1038	0.0141088
1050	0.0141088
1062	0.0153225
1074	0.0162328
1086	0.0132744
1098	0.0119091
1110	0.0119091
1122	0.0115298
1134	0.010392
1146	0.0138054
1158	0.0234389
1170	0.0336033
1182	0.082074
1194	0.0541598
1206	0.0889009
1218	0.104527
1230	0.0877631
1242	0.0772194
1254	0.0821499
1266	0.0931487
1278	0.0782813
1290	0.0640966
1302	0.0528702
1314	0.0534771
1326	0.0527185
1338	0.0515807
1350	0.0677376
1362	0.062352
1374	0.0432368
1386	0.0273074
1398	0.0161569
1410	0.0185842
1422	0.0220735
1434	0.028066
1446	0.0766125
1458	0.0842738
1470	0.0587868
1482	0.0226045
1494	0.0120608
1506	0.00811638
1518	0.00614417
1530	0.00568905
1542	0.0047788
1554	0.00546149
1566	0.00796467
1578	0.0201772
1590	0.0220735
1602	0.0276867
1614	0.0131986
1626	0.00713028
1638	0.00750955
1650	0.0085715
1662	0.0178257
1674	0.0305692
1686	0.0945141
1698	0.281494
1710	0.203289
1722	0.0505946
1734	0.0216942
1746	0.0162328
1758	0.0144881
1770	0.00986102
1782	0.00530978
1794	0.00470295
1806	0.00834394
1818	0.00515807
1830	0.00235147
1842	0.00128952
1854	0.00144123
1866	0.00113781
1878	0.00235147
1890	0.00386855
1902	0.00417197
1914	0.00348928
1926	0.0019722
1938	0.00235147
1950	0.00485466
1962	0.0057649
1974	0.0047788
1986	0.00219977
1998	0.0018205
2010	0.00159293
2022	0.00174464
2034	0.00212391
2046	0.00189635
2058	0.00174464
2070	0.00159293
2082	0.00151708
2094	0.00151708
2106	0.00128952
2118	0.00113781
2130	0.00144123
2142	0.00113781
2154	0.00106196
2166	0.00174464
2178	0.00159293
2190	0.00159293
2202	0.000910248
2214	0.00106196
2226	0.00136537
2238	0.00106196
2250	0.00106196
2262	0.00166879
2274	0.00204806
2286	0.00265489
2298	0.00447539
2310	0.00644759
2322	0.00766125
2334	0.00735784
2346	0.00675101
2358	0.00652344
2370	0.00682686
2382	0.00462709
2394	0.000682686
2406	0.000606832
2418	0.000606832
2430	0.000682686
2442	0.000606832
2454	0.000227562
2466	0
2478	0.00037927
2490	0.00037927
2502	0.000455124
2514	0.00121366
2526	0.00121366
2538	0.00166879
2550	0.0018205
2562	0.00204806
2574	0.00242733
2586	0.00273074
2598	0.00326172
2610	0.00402026
2622	0.00402026
2634	0.00432368
2646	0.00523393
2658	0.0056132
2670	0.00675101
2682	0.00781296
2694	0.00766125
2706	0.00750955
2718	0.00705442
2730	0.00713028
2742	0.00849565
2754	0.00887492
2766	0.00917833
2778	0.0109988
2790	0.0138054
2802	0.0186601
2814	0.0245008
2826	0.0326172
2838	0.047257
2850	0.105058
2862	0.282253
2874	0.225514
2886	0.162479
2898	0.163541
2910	0.25229
2922	0.446401
2934	0.75854
2946	0.488196
2958	0.277246
2970	0.25267
2982	0.108699
2994	0.0521876
3006	0.034286
3018	0.0281418
3030	0.0332241
3042	0.0383821
3054	0.0333758
3066	0.0525668
3078	0.0614417
3090	0.0455124
3102	0.0268523
3114	0.0135779
3126	0.00697857
3138	0.00546149
3150	0.00500636
3162	0.00568905
3174	0.0037927
3186	0.00295831
3198	0.00265489
3210	0.0019722
3222	0.00144123
3234	0.00128952
3246	0.00136537
3258	0.000986102
3270	0.00106196
3282	0.000910248
3294	0.00113781
3306	0.00121366
3318	0.000606832
3330	0.000986102
3342	0.00113781
3354	0.00189635
3366	0.00318587
3378	0.00409612
3390	0.00455124
3402	0.0028066
3414	0.00113781
3426	0.000910248
3438	0.00113781
3450	0.00113781
3462	0.00113781
3474	0.00106196
3486	0.000910248
3498	0.000910248
3510	0.000910248
3522	0.000910248
3534	0.00113781
3546	0.000606832
3558	0.00037927
3570	0.00113781
3582	0.0028066
3594	0.00250318
3606	0.00151708
3618	0.00257904
3630	0.00288245
3642	0.00242733
3654	0.00204806
3666	0.00189635
3678	0.00235147
3690	0.00235147
3702	0.00189635
3714	0.00273074
3726	0.00121366
3738	0.00144123
3750	0.00303416
3762	0.0018205
3774	0.000910248
3786	0.00136537
3798	0.00166879
3810	0.00250318
3822	0.00227562
3834	0.00189635
3846	0.00189635
3858	0.00166879
3870	0.00113781
3882	0.00250318
3894	0.00159293
3906	0.00121366
3918	0.00159293
3930	0.00242733
3942	0.00159293
3954	0.000834394
3966	0.00235147
