Infrared Spectrum: Hexane, 2,2,4-trimethyl-
Formula: C 9 H 20
CAS: 16747-26-5
Origin: Sadtler Research Labs Under US-EPA Contract
1/CM	ABSORBANCE
450	0.0381831
462	0.0137242
474	0.00978358
486	0.010463
498	0.00747356
510	0.00774533
522	0.00869651
534	0.00625062
546	0.00774533
558	0.00883239
570	0.00625062
582	0.00828886
594	0
606	0.0080171
618	0.00489179
630	0.00693003
642	0.00856063
654	0.00597885
666	0.0080171
678	0.00774533
690	0.00529944
702	0.00611473
714	0.00652238
726	0.00462002
738	0.0118218
750	0.00910416
762	0.00937593
774	0.0120936
786	0.0216054
798	0.00910416
810	0.00760945
822	0.0063865
834	0.00665827
846	0.00815298
858	0.00883239
870	0.00842475
882	0.00883239
894	0.00910416
906	0.00760945
918	0.0108706
930	0.0125012
942	0.0123654
954	0.0144036
966	0.0211977
978	0.0226925
990	0.0216054
1002	0.0199748
1014	0.0164418
1026	0.0157624
1038	0.0125012
1050	0.00842475
1062	0.00665827
1074	0.00693003
1086	0.00951181
1098	0.0107348
1110	0.0114142
1122	0.0107348
1134	0.00978358
1146	0.0157624
1158	0.019703
1170	0.0131807
1182	0.0178007
1194	0.0353296
1206	0.0428031
1218	0.0233719
1230	0.0263613
1242	0.0455208
1254	0.0380472
1266	0.0210619
1278	0.0190236
1290	0.0179366
1302	0.0152189
1314	0.0138601
1326	0.0153548
1338	0.0182083
1350	0.0402214
1362	0.114142
1374	0.160885
1386	0.115501
1398	0.0811222
1410	0.0320684
1422	0.0198389
1434	0.0244589
1446	0.0504126
1458	0.114549
1470	0.18317
1482	0.15545
1494	0.0619626
1506	0.0221489
1518	0.012773
1530	0.00869651
1542	0.0105989
1554	0.00883239
1566	0.00733768
1578	0.00951181
1590	0.00733768
1602	0.00679415
1614	0.00896828
1626	0.00652238
1638	0.00964769
1650	0.00679415
1662	0.00693003
1674	0.00815298
1686	0.0103271
1698	0.00991946
1710	0.00625062
1722	0.0072018
1734	0.00733768
1746	0.00597885
1758	0.00679415
1770	0.00584297
1782	0.00543532
1794	0.0055712
1806	0.0055712
1818	0.00475591
1830	0.00502767
1842	0.00529944
1854	0.00489179
1866	0.00489179
1878	0.00448414
1890	0.00489179
1902	0.00475591
1914	0.00448414
1926	0.00448414
1938	0.00516355
1950	0.00448414
1962	0.00448414
1974	0.00434826
1986	0.00434826
1998	0.00407649
2010	0.00298943
2022	0.00285354
2034	0.00298943
2046	0.00217413
2058	0.00244589
2070	0.00326119
2082	0.00421237
2094	0.00366884
2106	0.00462002
2118	0.00407649
2130	0.00366884
2142	0.00353296
2154	0.00380472
2166	0.00298943
2178	0.00285354
2190	0.00339707
2202	0.00339707
2214	0.00312531
2226	0.00312531
2238	0.00298943
2250	0.00285354
2262	0.00285354
2274	0.00271766
2286	0.00244589
2298	0.00203825
2310	0.0016306
2322	0.00326119
2334	0.00258178
2346	0.000407649
2358	0.00475591
2370	0.000271766
2382	0.000407649
2394	0.00312531
2406	0.00326119
2418	0.00298943
2430	0.00203825
2442	0.00122295
2454	0.00176648
2466	0.00122295
2478	0.00149471
2490	0.0016306
2502	0.000951181
2514	0.000951181
2526	0.000815298
2538	0.000815298
2550	0.00217413
2562	0.00217413
2574	0.00244589
2586	0.00312531
2598	0.00366884
2610	0.00394061
2622	0.00448414
2634	0.00489179
2646	0.00584297
2658	0.00625062
2670	0.00828886
2682	0.00842475
2694	0.00883239
2706	0.00978358
2718	0.0131807
2730	0.015083
2742	0.0152189
2754	0.0148112
2766	0.0122295
2778	0.0125012
2790	0.0157624
2802	0.0217413
2814	0.0297584
2826	0.0409008
2838	0.0646803
2850	0.117131
2862	0.216869
2874	0.352752
2886	0.42246
2898	0.457518
2910	0.566496
2922	0.561876
2934	0.5525
2946	0.700341
2958	1.14821
2970	1.26942
2982	0.55318
2994	0.161429
3006	0.0633215
3018	0.0328837
3030	0.0225566
3042	0.0182083
3054	0.0153548
3066	0.0141318
3078	0.0123654
3090	0.0103271
3102	0.00937593
3114	0.00842475
3126	0.00828886
3138	0.00883239
3150	0.00937593
3162	0.00788121
3174	0.00883239
3186	0.00856063
3198	0.00788121
3210	0.00733768
3222	0.00760945
3234	0.00693003
3246	0.00421237
3258	0.00298943
3270	0.00258178
3282	0.00339707
3294	0.00190236
3306	0.00312531
3318	0.00149471
3330	0.00122295
3342	0.00149471
3354	0.00475591
3366	0.00394061
3378	0.00258178
3390	0.00190236
3402	0.00326119
3414	0.00380472
3426	0.00285354
3438	0.00380472
3450	0.00366884
3462	0.00353296
3474	0.00394061
3486	0.00326119
3498	0.00353296
3510	0.00421237
3522	0.00475591
3534	0.00312531
3546	0.00353296
3558	0.00353296
3570	0.000679415
3582	0.00434826
3594	0.00434826
3606	0.00366884
3618	0.0016306
3630	0.00380472
3642	0.00285354
3654	0.00489179
3666	0.0016306
3678	0.00285354
3690	0.00529944
3702	0.000543532
3714	0.00203825
3726	0.000271766
3738	0.00312531
3750	0.00203825
3762	0.000679415
3774	0.000271766
3786	0.000271766
3798	0.000815298
3810	0.000271766
3822	0.00203825
3834	0.00217413
3846	0.000815298
3858	0.00231001
3870	0.000271766
3882	0.000271766
3894	0.00135883
3906	0.000407649
3918	0.00339707
3930	0.00298943
3942	0.000135883
3954	0.00135883
3966	0.000271766
