Infrared Spectrum: Ethanone, 1-(4-ethoxyphenyl)-
Formula: C 10 H 12 O 2
CAS: 1676-63-7
Origin: Sadtler Research Labs Under US-EPA Contract
1/CM	ABSORBANCE
450	0
462	0.00631944
474	0.00482576
486	0.00781313
498	0.0118346
510	0.00976642
522	0.010226
534	0.0139028
546	0.0118346
558	0.0304482
570	0.0638838
582	0.144313
594	0.0915745
606	0.02275
618	0.0106856
630	0.0128687
642	0.0122942
654	0.0191881
666	0.0179242
678	0.0137879
690	0.0134432
702	0.0141326
714	0.0307929
726	0.136845
738	0.484529
750	0.439718
762	0.0589432
774	0.0132134
786	0.0135581
798	0.0272311
810	0.0390657
822	0.0711225
834	0.120644
846	0.0836465
858	0.0301035
870	0.0180391
882	0.0327462
894	0.0891616
906	0.278745
918	0.289086
930	0.0890467
942	0.0576793
954	0.115818
966	0.0382614
978	0.0190732
990	0.0230947
1002	0.0303333
1014	0.0425126
1026	0.0602071
1038	0.143854
1050	0.166833
1062	0.0891616
1074	0.051245
1086	0.0572197
1098	0.0746843
1110	0.0811187
1122	0.0780164
1134	0.0388359
1146	0.0320568
1158	0.0823826
1170	0.488436
1182	0.222215
1194	0.0528535
1206	0.0607816
1218	0.116048
1230	0.345271
1242	0.839222
1254	1.13072
1266	0.543472
1278	0.184643
1290	0.160399
1302	0.195213
1314	0.155573
1326	0.0556111
1338	0.0421679
1350	0.101686
1362	0.240484
1374	0.0913447
1386	0.0661818
1398	0.109614
1410	0.0799697
1422	0.0831869
1434	0.0481427
1446	0.042053
1458	0.0291843
1470	0.0330909
1482	0.0793952
1494	0.0590581
1506	0.221985
1518	0.0961705
1530	0.0305631
1542	0.0264268
1554	0.0321717
1566	0.0581389
1578	0.152586
1590	0.213712
1602	0.595866
1614	0.349638
1626	0.0645732
1638	0.0299886
1650	0.0272311
1662	0.0342399
1674	0.0450404
1686	0.150288
1698	0.564154
1710	0.311721
1722	0.0542323
1734	0.0191881
1746	0.0195328
1758	0.0240139
1770	0.0202222
1782	0.00620455
1794	0.00402147
1806	0.00654924
1818	0.00482576
1830	0.00229798
1842	0.00287247
1854	0.00517046
1866	0.00505556
1878	0.00631944
1890	0.00758333
1902	0.00976642
1914	0.00815783
1926	0.00827273
1938	0.0109154
1950	0.010226
1962	0.0101111
1974	0.00804293
1986	0.00689394
1998	0.00597475
2010	0.00563005
2022	0.00631944
2034	0.00712374
2046	0.00735354
2058	0.00861742
2070	0.00815783
2082	0.00620455
2094	0.00482576
2106	0.00413636
2118	0.00344697
2130	0.00344697
2142	0.00287247
2154	0.00298737
2166	0.00321717
2178	0.00344697
2190	0.00298737
2202	0.00344697
2214	0.00252778
2226	0.00241288
2238	0.00195328
2250	0.00206818
2262	0.00229798
2274	0.00275758
2286	0.00321717
2298	0.00390657
2310	0.00413636
2322	0.00390657
2334	0.00367677
2346	0.00356187
2358	0.00321717
2370	0.00333207
2382	0.00402147
2394	0.00494066
2406	0.00551515
2418	0.00643434
2430	0.00608965
2442	0.00448106
2454	0.00459596
2466	0.00551515
2478	0.00608965
2490	0.00631944
2502	0.00643434
2514	0.00712374
2526	0.00838763
2538	0.00976642
2550	0.0120644
2562	0.0118346
2574	0.00965152
2586	0.00861742
2598	0.00769823
2610	0.00677904
2622	0.00585985
2634	0.00471086
2646	0.00471086
2658	0.00402147
2670	0.00413636
2682	0.00367677
2694	0.00367677
2706	0.00379167
2718	0.00436616
2730	0.00585985
2742	0.00666414
2754	0.00804293
2766	0.00873232
2778	0.00919192
2790	0.00815783
2802	0.00792803
2814	0.00884722
2826	0.0111452
2838	0.0129836
2850	0.0160859
2862	0.0209116
2874	0.034125
2886	0.0549217
2898	0.0574495
2910	0.0638838
2922	0.069399
2934	0.0738801
2946	0.0889318
2958	0.0598624
2970	0.0631944
2982	0.109154
2994	0.145117
3006	0.0793952
3018	0.0523939
3030	0.0296439
3042	0.0325164
3054	0.0428573
3066	0.0342399
3078	0.0389508
3090	0.0328611
3102	0.0298737
3114	0.0217159
3126	0.0135581
3138	0.00838763
3150	0.00781313
3162	0.00689394
3174	0.00574495
3186	0.00459596
3198	0.00367677
3210	0.00494066
3222	0.00390657
3234	0.00402147
3246	0.00425126
3258	0.00356187
3270	0.00413636
3282	0.00379167
3294	0.00344697
3306	0.00310227
3318	0.00356187
3330	0.00367677
3342	0.00413636
3354	0.00367677
3366	0.00585985
3378	0.0118346
3390	0.00988131
3402	0.00494066
3414	0.00264268
3426	0.00367677
3438	0.00425126
3450	0.00287247
3462	0.00333207
3474	0.00356187
3486	0.00310227
3498	0.00241288
3510	0.00333207
3522	0.00264268
3534	0.00402147
3546	0.00321717
3558	0.00425126
3570	0.00344697
3582	0.00666414
3594	0.00700884
3606	0.00298737
3618	0.00333207
3630	0.00413636
3642	0.00425126
3654	0.00275758
3666	0.00310227
3678	0.00448106
3690	0.00333207
3702	0.00333207
3714	0.00494066
3726	0.00356187
3738	0.00356187
3750	0.00413636
3762	0.00310227
3774	0.00310227
3786	0.00402147
3798	0.00413636
3810	0.00264268
3822	0.00379167
3834	0.00321717
3846	0.00448106
3858	0.00413636
3870	0.00459596
3882	0.00298737
3894	0.00356187
3906	0.00482576
3918	0.00390657
3930	0.00402147
3942	0.00241288
3954	0.00436616
3966	0.00379167
