Infrared Spectrum: Cyclohexane, ethyl-
Formula: C 8 H 16
CAS: 1678-91-7
Origin: Sadtler Research Labs Under US-EPA Contract
1/CM	ABSORBANCE
450	0.0681356
462	0.0330888
474	0.00117475
486	0.0195792
498	0.0209497
510	0.0201666
522	0.0195792
534	0.0252572
546	0.0107686
558	0.0242782
570	0.0219287
582	0.0268235
594	0.0209497
606	0.0221245
618	0.0258445
630	0.0178171
642	0.0160549
654	0.0199708
666	0.0164465
678	0.0191876
690	0.0178171
702	0.0203624
714	0.0191876
726	0.019775
738	0.0199708
750	0.0213413
762	0.0252572
774	0.0119433
786	0.0215371
798	0.0215371
810	0.0154676
822	0.0170339
834	0.0328931
846	0.0289772
858	0.0189918
870	0.024474
882	0.0401374
894	0.0413121
906	0.0276067
918	0.0238866
930	0.0193834
942	0.0174255
954	0.020754
966	0.0148802
978	0.0272151
990	0.0352426
1002	0.0256488
1014	0.0209497
1026	0.0221245
1038	0.0201666
1050	0.0172297
1062	0.0170339
1074	0.0170339
1086	0.0176213
1098	0.019775
1110	0.0195792
1122	0.0172297
1134	0.0152718
1146	0.0154676
1158	0.0158592
1170	0.0154676
1182	0.0160549
1194	0.0168381
1206	0.0156634
1218	0.0160549
1230	0.0219287
1242	0.0221245
1254	0.023495
1266	0.0276067
1278	0.0272151
1290	0.024474
1302	0.018796
1314	0.0176213
1326	0.0199708
1338	0.0266277
1350	0.0287814
1362	0.0240824
1374	0.0330888
1386	0.0458153
1398	0.0315225
1410	0.0186002
1422	0.0189918
1434	0.0444448
1446	0.117867
1458	0.182087
1470	0.115321
1482	0.0493396
1494	0.0205582
1506	0.0131181
1518	0.0119433
1530	0.0105728
1542	0.0107686
1554	0.0111601
1566	0.00998539
1578	0.0105728
1590	0.0097896
1602	0.00920222
1614	0.00959381
1626	0.00822326
1638	0.00861485
1650	0.00802747
1662	0.00920222
1674	0.00783168
1686	0.00861485
1698	0.0074401
1710	0.0074401
1722	0.00704851
1734	0.00606955
1746	0.00665693
1758	0.00665693
1770	0.00646114
1782	0.00646114
1794	0.00626534
1806	0.00587376
1818	0.00606955
1830	0.00567797
1842	0.00528638
1854	0.00567797
1866	0.00548218
1878	0.00548218
1890	0.00626534
1902	0.00626534
1914	0.00567797
1926	0.00469901
1938	0.00567797
1950	0.00469901
1962	0.00411163
1974	0.00430742
1986	0.00313267
1998	0.00469901
2010	0.00411163
2022	0.00430742
2034	0.00430742
2046	0.00411163
2058	0.00430742
2070	0.00411163
2082	0.00391584
2094	0.00372005
2106	0.00391584
2118	0.00372005
2130	0.00391584
2142	0.00391584
2154	0.00372005
2166	0.00352426
2178	0.00411163
2190	0.00411163
2202	0.00411163
2214	0.00411163
2226	0.00352426
2238	0.00391584
2250	0.00313267
2262	0.00352426
2274	0.00332846
2286	0.00293688
2298	0.00156634
2310	0.000391584
2322	0.000587376
2334	0.00097896
2346	0.00097896
2358	0.00274109
2370	0.00313267
2382	0.00332846
2394	0.00430742
2406	0.00391584
2418	0.00430742
2430	0.00372005
2442	0.00372005
2454	0.00352426
2466	0.00430742
2478	0.00469901
2490	0.00430742
2502	0.00372005
2514	0.00372005
2526	0.00411163
2538	0.00548218
2550	0.00548218
2562	0.00587376
2574	0.00704851
2586	0.00802747
2598	0.0111601
2610	0.0119433
2622	0.0121391
2634	0.0137054
2646	0.0160549
2658	0.0238866
2670	0.0279983
2682	0.0246698
2694	0.0182087
2706	0.0168381
2718	0.0156634
2730	0.0152718
2742	0.0154676
2754	0.0142928
2766	0.0144886
2778	0.0203624
2790	0.0289772
2802	0.0366131
2814	0.0381794
2826	0.0454237
2838	0.110427
2850	0.391976
2862	0.735786
2874	0.539211
2886	0.338329
2898	0.385514
2910	0.710333
2922	1.31553
2934	1.95792
2946	1.29184
2958	0.472446
2970	0.45365
2982	0.273326
2994	0.0698977
3006	0.0315225
3018	0.024474
3030	0.0189918
3042	0.0180129
3054	0.0182087
3066	0.0154676
3078	0.0127265
3090	0.0119433
3102	0.0115517
3114	0.00861485
3126	0.00783168
3138	0.00881064
3150	0.0101812
3162	0.00998539
3174	0.00822326
3186	0.00646114
3198	0.00548218
3210	0.00430742
3222	0.00469901
3234	0.0048948
3246	0.00391584
3258	0.00391584
3270	0.00293688
3282	0.00332846
3294	0.00215371
3306	0.00293688
3318	0.00352426
3330	0.00215371
3342	0.00274109
3354	0.00430742
3366	0.00313267
3378	0.00332846
3390	0.00372005
3402	0.00352426
3414	0.00313267
3426	0.00352426
3438	0.0048948
3450	0.00391584
3462	0.00528638
3474	0.00430742
3486	0.00469901
3498	0.00293688
3510	0.00195792
3522	0.00274109
3534	0.00352426
3546	0.0023495
3558	0.00274109
3570	0.00352426
3582	0.00137054
3594	0.00137054
3606	0.00332846
3618	0.0025453
3630	0.00274109
3642	0.0023495
3654	0.00332846
3666	0.00293688
3678	0.00097896
3690	0.00469901
3702	0.00293688
3714	0.00195792
3726	0.00274109
3738	0.00293688
3750	0.00411163
3762	0.0023495
3774	0.00313267
3786	0.00137054
3798	0.00215371
3810	0.00587376
3822	0.00332846
3834	0.00137054
3846	0.00215371
3858	0.00313267
3870	0.00215371
3882	0.000587376
3894	0.00293688
3906	0.00313267
3918	0.00587376
3930	0.00372005
3942	0.000195792
3954	0.00097896
3966	0.0048948
