Infrared Spectrum: Cyclohexane, butyl-
Formula: C 10 H 20
CAS: 1678-93-9
Origin: Sadtler Research Labs Under US-EPA Contract
1/CM	ABSORBANCE
450	0.00483541
462	0.00587834
474	0.00540428
486	0.00511985
498	0.00578353
510	0.0047406
522	0.00511985
534	0.0101449
546	0.00455098
558	0.00436135
570	0.00540428
582	0.00464579
594	0.00493022
606	0.0047406
618	0.00511985
630	0.00445616
642	0.00407692
654	0.00407692
666	0.0039821
678	0.00530947
690	0.0047406
702	0.00530947
714	0.00682646
726	0.00938639
738	0.00824864
750	0.00654203
762	0.00625759
774	0.00616278
786	0.00568872
798	0.00521466
810	0.00388729
822	0.00445616
834	0.00815383
846	0.00910195
858	0.0063524
870	0.00730052
882	0.0102397
894	0.0117567
906	0.0094812
918	0.00701609
930	0.00815383
942	0.0101449
954	0.00986045
966	0.00540428
978	0.00521466
990	0.00511985
1002	0.00464579
1014	0.00587834
1026	0.00644722
1038	0.00730052
1050	0.00730052
1062	0.00578353
1074	0.00625759
1086	0.00606797
1098	0.00682646
1110	0.0071109
1122	0.00654203
1134	0.00682646
1146	0.00654203
1158	0.00758496
1170	0.00957601
1182	0.00986045
1194	0.00938639
1206	0.00881752
1218	0.00682646
1230	0.00739534
1242	0.00900714
1254	0.01261
1266	0.0155492
1278	0.0117567
1290	0.00834346
1302	0.00862789
1314	0.00853308
1326	0.0094812
1338	0.0131789
1350	0.0169713
1362	0.0118515
1374	0.0142218
1386	0.0174454
1398	0.00967082
1410	0.00720571
1422	0.00767977
1434	0.0164025
1446	0.0560339
1458	0.0820124
1470	0.0508192
1482	0.0188676
1494	0.00739534
1506	0.00502504
1518	0.00455098
1530	0.0039821
1542	0.00322361
1554	0.00293917
1566	0.00246511
1578	0.00293917
1590	0.00246511
1602	0.0023703
1614	0.00246511
1626	0.00218068
1638	0.00218068
1650	0.00218068
1662	0.00227549
1674	0.00208586
1686	0.00255992
1698	0.00199105
1710	0.00265474
1722	0.00284436
1734	0.00464579
1746	0.00824864
1758	0.00929158
1770	0.00568872
1782	0.00350804
1794	0.00246511
1806	0.00199105
1818	0.00199105
1830	0.00180143
1842	0.00151699
1854	0.00180143
1866	0.00170662
1878	0.00180143
1890	0.00227549
1902	0.00170662
1914	0.00180143
1926	0.00218068
1938	0.00170662
1950	0.0016118
1962	0.0016118
1974	0.0016118
1986	0.0016118
1998	0.0016118
2010	0.0016118
2022	0.00151699
2034	0.00104293
2046	0.000663684
2058	0.00047406
2070	0
2082	0.00047406
2094	0.00151699
2106	0.00189624
2118	0.00189624
2130	0.00180143
2142	0.00180143
2154	0.00199105
2166	0.0016118
2178	0.00227549
2190	0.00208586
2202	0.00208586
2214	0.00208586
2226	0.00189624
2238	0.00208586
2250	0.00199105
2262	0.00151699
2274	0.00151699
2286	0.00132737
2298	0.00180143
2310	0.00218068
2322	0.00246511
2334	0.00218068
2346	0.00104293
2358	0.00227549
2370	9.4812e-05
2382	0.00047406
2394	0.00170662
2406	0.00170662
2418	0.00123256
2430	0.000853308
2442	0.000568872
2454	0.000568872
2466	0.000663684
2478	0.000758496
2490	0.00113774
2502	0.000568872
2514	0.00047406
2526	0.00113774
2538	0.00094812
2550	0.00113774
2562	0.00094812
2574	0.00151699
2586	0.00255992
2598	0.00369767
2610	0.00502504
2622	0.00493022
2634	0.00493022
2646	0.00663684
2658	0.00910195
2670	0.0112826
2682	0.00881752
2694	0.00644722
2706	0.00644722
2718	0.00587834
2730	0.00587834
2742	0.00644722
2754	0.00587834
2766	0.00597316
2778	0.00834346
2790	0.0129892
2802	0.0173506
2814	0.0190572
2826	0.023703
2838	0.0514829
2850	0.1791
2862	0.372327
2874	0.252484
2886	0.167059
2898	0.181375
2910	0.319327
2922	0.624527
2934	0.94812
2946	0.592859
2958	0.224894
2970	0.229255
2982	0.0935794
2994	0.0318568
3006	0.0190572
3018	0.0146959
3030	0.0119463
3042	0.0087227
3054	0.00654203
3066	0.00521466
3078	0.00455098
3090	0.00455098
3102	0.00464579
3114	0.00360286
3126	0.00331842
3138	0.00379248
3150	0.0047406
3162	0.00464579
3174	0.00407692
3186	0.0039821
3198	0.0031288
3210	0.00322361
3222	0.00322361
3234	0.00369767
3246	0.0031288
3258	0.00274955
3270	0.00284436
3282	0.00132737
3294	0.00227549
3306	0.00123256
3318	0.00180143
3330	0.00180143
3342	0.00227549
3354	0.00208586
3366	0.00180143
3378	0.00227549
3390	0.00151699
3402	0.00199105
3414	0.00123256
3426	0.00151699
3438	0.00142218
3450	0.00132737
3462	0.00170662
3474	0.0016118
3486	0.00189624
3498	0.00142218
3510	0.00170662
3522	0.00208586
3534	0.00104293
3546	0.00142218
3558	0.00113774
3570	0.00113774
3582	0.00142218
3594	0.0016118
3606	0.00151699
3618	0.00189624
3630	0.00218068
3642	0.0016118
3654	0.0016118
3666	0.0016118
3678	0.00180143
3690	0.00123256
3702	0.00170662
3714	0.00113774
3726	0.00142218
3738	0.000284436
3750	0.00113774
3762	0.00113774
3774	0.000284436
3786	0.000379248
3798	0.00123256
3810	0.000853308
3822	0.000284436
3834	0.00047406
3846	0.000568872
3858	0.000853308
3870	0.00047406
3882	0.000663684
3894	0.00142218
3906	0.00104293
3918	0.000853308
3930	0.00123256
3942	0.00199105
3954	0.00189624
3966	0.00170662
