Infrared Spectrum: Cyclohexane, propyl-
Formula: C 9 H 18
CAS: 1678-92-8
Origin: Sadtler Research Labs Under US-EPA Contract
1/CM	ABSORBANCE
450	0.00287645
462	0.00206514
474	0.00199139
486	0.00228641
498	0.0014751
510	0.00154886
522	0.00154886
534	0.00162261
546	0.00287645
558	0.00317147
570	0.000958815
582	0.00228641
594	0.00184388
606	0.00169637
618	0.00125384
630	0.00272894
642	0.00191763
654	0.00177012
666	0.00221265
678	0.00118008
690	0.00236016
702	0.00272894
714	0.00280269
726	0.00479408
738	0.00582665
750	0.00420404
762	0.00280269
774	0.00280269
786	0.00479408
798	0.00398277
810	0.0029502
822	0.00413028
834	0.00722799
846	0.00811305
858	0.00464657
870	0.00619542
882	0.0080393
894	0.00958815
906	0.00759677
918	0.00516285
930	0.00457281
942	0.0050891
954	0.00715424
966	0.00848183
978	0.00545787
990	0.0044253
1002	0.00398277
1014	0.00545787
1026	0.00567914
1038	0.00494159
1050	0.00383526
1062	0.00449906
1074	0.0044253
1086	0.00435155
1098	0.00523661
1110	0.00531036
1122	0.00390902
1134	0.00302396
1146	0.00331898
1158	0.00368775
1170	0.00324522
1182	0.00317147
1194	0.00317147
1206	0.00317147
1218	0.00472032
1230	0.00405653
1242	0.00354024
1254	0.00641669
1266	0.00892436
1278	0.00877685
1290	0.00516285
1302	0.0044253
1314	0.00486783
1326	0.00494159
1338	0.0073755
1350	0.00980942
1362	0.00715424
1374	0.00899811
1386	0.0125384
1398	0.00708048
1410	0.00464657
1422	0.00501534
1434	0.0126121
1446	0.0432942
1458	0.0619542
1470	0.0380576
1482	0.014456
1494	0.00538412
1506	0.00368775
1518	0.00250767
1530	0.00265518
1542	0.00250767
1554	0.00221265
1566	0.0021389
1578	0.0021389
1590	0.00154886
1602	0.00169637
1614	0.00199139
1626	0.00162261
1638	0.00169637
1650	0.00132759
1662	0.00184388
1674	0.00191763
1686	0.00250767
1698	0.00221265
1710	0.00177012
1722	0.00118008
1734	0.00206514
1746	0.00140135
1758	0.00154886
1770	0.0014751
1782	0.00140135
1794	0.00110633
1806	0.00125384
1818	0.00118008
1830	0.00162261
1842	0.00088506
1854	0.00073755
1866	0.00110633
1878	0.00125384
1890	0.00110633
1902	0.00110633
1914	0.00110633
1926	0.00118008
1938	0.000516285
1950	0.00125384
1962	0.000663795
1974	0.00059004
1986	0.00110633
1998	0.000811305
2010	0.000516285
2022	0.00044253
2034	0.000958815
2046	0.000663795
2058	0.00103257
2070	0.00103257
2082	0.00088506
2094	0.000958815
2106	0.000516285
2118	0.00044253
2130	0.00088506
2142	0.000811305
2154	0.00088506
2166	0.000811305
2178	0.000811305
2190	0.000811305
2202	0.00073755
2214	0.00073755
2226	0.00073755
2238	0.00125384
2250	0.00073755
2262	0.00059004
2274	0.000221265
2286	0.00073755
2298	0.00103257
2310	0.00125384
2322	0.00140135
2334	0.00132759
2346	0.000516285
2358	0.00118008
2370	0.00029502
2382	0.00088506
2394	0.000958815
2406	0.000958815
2418	0.00103257
2430	0.000663795
2442	0.00044253
2454	0
2466	0.00044253
2478	0.000958815
2490	0.00125384
2502	0.000958815
2514	0.000516285
2526	0.000516285
2538	0.00118008
2550	0.00088506
2562	0.00140135
2574	0.00184388
2586	0.00243392
2598	0.00324522
2610	0.00339273
2622	0.00390902
2634	0.00383526
2646	0.00486783
2658	0.00715424
2670	0.00921938
2682	0.00730175
2694	0.00523661
2706	0.00435155
2718	0.0044253
2730	0.00494159
2742	0.00486783
2754	0.0044253
2766	0.0044253
2778	0.00582665
2790	0.00944064
2802	0.0123908
2814	0.0131284
2826	0.0173324
2838	0.0415241
2850	0.144191
2862	0.267509
2874	0.190583
2886	0.138143
2898	0.150903
2910	0.258438
2922	0.477637
2934	0.73755
2946	0.467607
2958	0.187264
2970	0.17893
2982	0.0789178
2994	0.0223478
3006	0.0127596
3018	0.0101782
3030	0.00892436
3042	0.00744926
3054	0.00494159
3066	0.00427779
3078	0.00346649
3090	0.00354024
3102	0.00287645
3114	0.00243392
3126	0.00228641
3138	0.00228641
3150	0.00287645
3162	0.00250767
3174	0.00243392
3186	0.00154886
3198	0.000958815
3210	0.00103257
3222	0.00059004
3234	0.000663795
3246	0.00110633
3258	0.000516285
3270	0.00059004
3282	0.00059004
3294	7.3755e-05
3306	0.00059004
3318	0.000663795
3330	7.3755e-05
3342	0.00132759
3354	0.00132759
3366	0.00059004
3378	0.00162261
3390	0.00110633
3402	0.00103257
3414	0.0014751
3426	0.00162261
3438	0.000663795
3450	0.00088506
3462	0.00140135
3474	0.00088506
3486	0.00110633
3498	0.00110633
3510	0.000516285
3522	0.000516285
3534	0.00014751
3546	0.00044253
3558	0.000368775
3570	0.000516285
3582	0.000958815
3594	0.00103257
3606	0.000516285
3618	0.00029502
3630	0.00125384
3642	0.00110633
3654	0.000368775
3666	0.000221265
3678	0.00059004
3690	0.000958815
3702	0
3714	0.000663795
3726	0.000221265
3738	0.00088506
3750	0.00132759
3762	0.00088506
3774	0.000958815
3786	0.00125384
3798	0.00140135
3810	0.00140135
3822	0.00169637
3834	0.000516285
3846	0.00059004
3858	0.000221265
3870	0.000663795
3882	0.00103257
3894	0.00154886
3906	7.3755e-05
3918	0
3930	0.000221265
3942	0.00118008
3954	0.00206514
3966	0.00132759
