Infrared Spectrum: 3-Oxatricyclo[4.1.1.02,4]octane, 2,7,7-trimethyl-
Formula: C 10 H 16 O
CAS: 1686-14-2
Origin: Sadtler Research Labs Under US-EPA Contract
1/CM	ABSORBANCE
450	0.0103872
462	0.011426
474	0.00994206
486	0.0118711
498	0.0169658
510	0.0192906
522	0.0185981
534	0.00870549
546	0.0072216
558	0.00301724
570	0.00202798
582	0.00237422
594	0.00316563
606	0.00385811
618	0.00860656
630	0.00806247
642	0.00321509
654	0.000890334
666	0.00202798
678	0.00291832
690	0.00633126
702	0.00939797
714	0.00519361
726	0.00168174
738	0.00103872
750	0.00232476
762	0.0214175
774	0.0253745
786	0.00499576
798	0.00489684
810	0.00662804
822	0.00746891
834	0.0132066
846	0.0230992
858	0.0423403
870	0.0242369
882	0.0072216
894	0.0145421
906	0.0098926
918	0.00583663
930	0.0112281
942	0.0138496
954	0.0098926
966	0.0116733
978	0.00464952
990	0.0062818
1002	0.0121679
1014	0.0128604
1026	0.0123163
1038	0.0161744
1050	0.0229508
1062	0.0161744
1074	0.0155808
1086	0.0273036
1098	0.0361575
1110	0.0156303
1122	0.0104367
1134	0.00835925
1146	0.00929904
1158	0.00999153
1170	0.00732052
1182	0.0119206
1194	0.0190927
1206	0.016026
1218	0.0168669
1230	0.0156303
1242	0.00994206
1254	0.00860656
1266	0.0212196
1278	0.0163228
1290	0.0102883
1302	0.0128604
1314	0.0155314
1326	0.0124647
1338	0.0119206
1350	0.0111786
1362	0.0177572
1374	0.0505017
1386	0.0559427
1398	0.0235939
1410	0.0117722
1422	0.0219616
1434	0.0380865
1446	0.0433791
1458	0.045506
1470	0.0425876
1482	0.0257702
1494	0.0076173
1506	0.00430328
1518	0.00331402
1530	0.00217637
1542	0.00257208
1554	0.00257208
1566	0.00291832
1578	0.0022753
1590	0.00217637
1602	0.00321509
1614	0.00336348
1626	0.00425382
1638	0.00529254
1650	0.00692482
1662	0.00356134
1674	0.00276993
1686	0.00351187
1698	0.0062818
1710	0.0058861
1722	0.00682589
1734	0.0208734
1746	0.0228024
1758	0.00821086
1770	0.00568824
1782	0.00509469
1794	0.00311617
1806	0.00242369
1818	0.00187959
1830	0.000692482
1842	0.0022753
1854	0.00098926
1866	0.00098926
1878	0.000840871
1890	0.000840871
1902	0.00178067
1914	0.00098926
1926	0.00103872
1938	0.00103872
1950	0.0013355
1962	0.000148389
1974	0.00103872
1986	0.00128604
1998	0.00123657
2010	0.00168174
2022	0.00098926
2034	0.00148389
2046	0.00118711
2058	0.00192906
2070	0.00163228
2082	0.00158282
2094	0.00148389
2106	0.00123657
2118	0.00197852
2130	0.00148389
2142	0.00197852
2154	0.00143443
2166	0.00143443
2178	0.00163228
2190	0.00153335
2202	0.00197852
2214	0.00158282
2226	0.00192906
2238	0.00148389
2250	0.00163228
2262	0.00123657
2274	0.00128604
2286	0.00163228
2298	0.000544093
2310	0.00153335
2322	0.000247315
2334	4.9463e-05
2346	4.9463e-05
2358	4.9463e-05
2370	4.9463e-05
2382	0.000890334
2394	0.00192906
2406	0.000890334
2418	0.00202798
2430	0.000445167
2442	0.00148389
2454	0.000791408
2466	0.00148389
2478	0.0017312
2490	0.00108819
2502	0.00138496
2514	0.000741945
2526	0.00197852
2538	0.00138496
2550	0.00163228
2562	0.00178067
2574	0.00178067
2586	0.00197852
2598	0.00168174
2610	0.00168174
2622	0.00123657
2634	0.00168174
2646	0.00247315
2658	0.002671
2670	0.00366026
2682	0.00366026
2694	0.00544093
2706	0.00751838
2718	0.0081614
2730	0.00712267
2742	0.00771623
2754	0.0058861
2766	0.00593556
2778	0.00608395
2790	0.00608395
2802	0.00885388
2814	0.0110302
2826	0.0129098
2838	0.0210712
2850	0.0359596
2862	0.0426866
2874	0.0780032
2886	0.0979367
2898	0.0845323
2910	0.149081
2922	0.39056
2934	0.375177
2946	0.18242
2958	0.159073
2970	0.155561
2982	0.240984
2994	0.209179
3006	0.0787451
3018	0.0376413
3030	0.011327
3042	0.0102388
3054	0.00880441
3066	0.00786462
3078	0.00929904
3090	0.00682589
3102	0.00578717
3114	0.00464952
3126	0.00474845
3138	0.00484737
3150	0.00499576
3162	0.00464952
3174	0.00301724
3186	0.00217637
3198	0.00212691
3210	0.00197852
3222	0.00158282
3234	0.00168174
3246	0.000593556
3258	0.00108819
3270	0.00153335
3282	0.00148389
3294	0.00123657
3306	0.00138496
3318	0.00192906
3330	0.00192906
3342	0.000840871
3354	0.00153335
3366	0.00143443
3378	0.0013355
3390	0.000791408
3402	0.00192906
3414	0.00113765
3426	0.00128604
3438	0.00183013
3450	0.00207745
3462	0.00143443
3474	0.00113765
3486	0.00128604
3498	0.000741945
3510	0.00128604
3522	0.00118711
3534	0.00158282
3546	0.0017312
3558	0.00148389
3570	0.00153335
3582	0.00163228
3594	0.00113765
3606	0.00153335
3618	0.00153335
3630	0.002671
3642	0.00420435
3654	0.00202798
3666	0.00113765
3678	0.000445167
3690	0.000544093
3702	4.9463e-05
3714	4.9463e-05
3726	4.9463e-05
3738	0.000346241
3750	4.9463e-05
3762	4.9463e-05
3774	4.9463e-05
3786	4.9463e-05
3798	4.9463e-05
3810	4.9463e-05
3822	4.9463e-05
3834	4.9463e-05
3846	4.9463e-05
3858	4.9463e-05
3870	4.9463e-05
3882	4.9463e-05
3894	4.9463e-05
3906	4.9463e-05
3918	4.9463e-05
3930	4.9463e-05
3942	4.9463e-05
3954	4.9463e-05
3966	4.9463e-05
