Infrared Spectrum: Hexadecanoic acid, octyl ester
Formula: C 24 H 48 O 2
CAS: 16958-85-3
Origin: Sadtler Research Labs Under US-EPA Contract
1/CM	ABSORBANCE
450	0.00716172
462	0.00729076
474	0.00509708
486	0.00374216
498	0.00406476
510	0.00270984
522	0.00277436
534	0.00412928
546	0.00174204
558	0.00212916
570	0.0012904
582	0.00277436
594	0.0045164
606	0.00374216
618	0.00296792
630	0.00180656
642	0.0022582
654	0.00174204
666	0.00335504
678	0.001613
690	0.00535516
702	0.00929088
714	0.02084
726	0.0216787
738	0.0133556
750	0.0110329
762	0.0090328
774	0.00658104
786	0.00561324
798	0.00535516
810	0.00593584
822	0.00529064
834	0.00541968
846	0.00696816
858	0.00748432
870	0.00819404
882	0.00851664
894	0.00883924
906	0.00767788
918	0.00793596
930	0.00929088
942	0.0128395
954	0.0198076
966	0.0234208
978	0.0249047
990	0.0286469
1002	0.0309696
1014	0.0327762
1026	0.0371635
1038	0.0403895
1050	0.040196
1062	0.0432284
1074	0.0481319
1086	0.0496159
1098	0.0508418
1110	0.0659394
1122	0.067617
1134	0.0770369
1146	0.122007
1158	0.156913
1170	0.165236
1182	0.134073
1194	0.10949
1206	0.0996189
1218	0.101361
1230	0.108136
1242	0.10891
1254	0.0932959
1266	0.0716817
1278	0.0600036
1290	0.0544549
1302	0.0531
1314	0.0481319
1326	0.0425187
1338	0.0507772
1350	0.0602617
1362	0.051616
1374	0.0397443
1386	0.0410347
1398	0.022711
1410	0.0195496
1422	0.030776
1434	0.0468415
1446	0.0736818
1458	0.113233
1470	0.0819404
1482	0.0219368
1494	0.00716172
1506	0.00335504
1518	0.00109684
1530	0.00051616
1542	0
1554	0.00045164
1566	0.0009678
1578	0.00187108
1590	0.0022582
1602	0.00296792
1614	0.00374216
1626	0.00425832
1638	0.00496804
1650	0.00638748
1662	0.00864568
1674	0.0121298
1686	0.0183237
1698	0.0301308
1710	0.0486481
1722	0.0900699
1734	0.198657
1746	0.247692
1758	0.142073
1770	0.051487
1782	0.0262596
1794	0.0140654
1806	0.00832308
1818	0.00541968
1830	0.00400024
1842	0.00296792
1854	0.00296792
1866	0.00251628
1878	0.00232272
1890	0.00238724
1902	0.00232272
1914	0.00206464
1926	0.0022582
1938	0.00219368
1950	0.00180656
1962	0.00187108
1974	0.001613
1986	0.001613
1998	0.00141944
2010	0.00180656
2022	0.00206464
2034	0.00232272
2046	0.0022582
2058	0.00135492
2070	0.00154848
2082	0.00141944
2094	0.0009678
2106	0.0009678
2118	0.0009678
2130	0.00058068
2142	0.00045164
2154	0.00077424
2166	0.00051616
2178	0.00070972
2190	0.0006452
2202	0.0003226
2214	0.00051616
2226	0
2238	0.00019356
2250	0.00038712
2262	0.00083876
2274	0.0009678
2286	0.00219368
2298	0.00400024
2310	0.00490352
2322	0.00432284
2334	0.00264532
2346	0.00264532
2358	0.00277436
2370	0.00270984
2382	0.00374216
2394	0.0022582
2406	0.00200012
2418	0.00212916
2430	0.0022582
2442	0.00200012
2454	0.0019356
2466	0.00206464
2478	0.00232272
2490	0.0025808
2502	0.00303244
2514	0.00361312
2526	0.00400024
2538	0.00503256
2550	0.00496804
2562	0.00535516
2574	0.0061294
2586	0.0070972
2598	0.00800048
2610	0.00890376
2622	0.00974252
2634	0.0110974
2646	0.0126459
2658	0.0139363
2670	0.0158719
2682	0.0167752
2694	0.0166462
2706	0.0166462
2718	0.0170978
2730	0.0191624
2742	0.0201948
2754	0.0214852
2766	0.0238079
2778	0.0281952
2790	0.0350344
2802	0.0438091
2814	0.058068
2826	0.0818114
2838	0.13104
2850	0.257628
2862	0.344408
2874	0.263435
2886	0.224659
2898	0.267242
2910	0.36086
2922	0.506869
2934	0.6452
2946	0.452156
2958	0.323761
2970	0.248015
2982	0.122588
2994	0.0631006
3006	0.0375506
3018	0.0249047
3030	0.017872
3042	0.0127104
3054	0.0100006
3066	0.00780692
3078	0.00625844
3090	0.00522612
3102	0.00425832
3114	0.0038712
3126	0.00335504
3138	0.00270984
3150	0.00296792
3162	0.0025808
3174	0.0022582
3186	0.00232272
3198	0.00187108
3210	0.00167752
3222	0.0012904
3234	0.00070972
3246	0.00122588
3258	0.00109684
3270	0.00058068
3282	0.00103232
3294	0.00051616
3306	0.00077424
3318	0.00070972
3330	0.0009678
3342	0.00090328
3354	0.0009678
3366	0.00077424
3378	0.00154848
3390	0.00154848
3402	0.00135492
3414	0.00109684
3426	0.00109684
3438	0.00116136
3450	0.00206464
3462	0.00296792
3474	0.00167752
3486	0.00103232
3498	0
3510	0.0003226
3522	0.00070972
3534	0.00077424
3546	0.00122588
3558	0.00058068
3570	0.00141944
3582	0.0022582
3594	0.00212916
3606	0.00116136
3618	0.00232272
3630	0.00277436
3642	0.00154848
3654	0.00180656
3666	0.00187108
3678	0.00154848
3690	0.00180656
3702	0.00174204
3714	0.00245176
3726	0.00219368
3738	0.00238724
3750	0.00200012
3762	0.00148396
3774	0.0019356
3786	0.00174204
3798	0.00245176
3810	0.00083876
3822	0.00200012
3834	0.00309696
3846	0.001613
3858	0.00283888
3870	0.00212916
3882	0.00212916
3894	0.00316148
3906	0.00361312
3918	0.00296792
3930	0.00316148
3942	0.00219368
3954	0.00296792
3966	0.00232272
