Infrared Spectrum: Morpholine, 4-acetyl-
Formula: C 6 H 11 N O 2
CAS: 1696-20-4
Origin: Sadtler Research Labs Under US-EPA Contract
1/CM	ABSORBANCE
450	0.0120294
462	0.0110975
474	0.00432041
486	0.00245671
498	0.00271085
510	0.00499813
522	0.00389684
534	0.00271085
546	0.0120294
558	0.0457456
570	0.0529463
582	0.0246518
594	0.0164345
606	0.014232
618	0.0207549
630	0.0127071
642	0.00406627
654	0.0036427
666	0.00271085
678	0.00194842
690	0.00152485
702	0.00279556
714	0.00550641
726	0.00347327
738	0.00152485
750	8.4714e-05
762	0.00084714
774	0.00160957
786	0.00313442
798	0.00254142
810	0.00177899
822	0.00127071
834	0.0084714
846	0.0338856
858	0.0288875
870	0.00694655
882	0.00389684
894	0.00762426
906	0.0107587
918	0.0084714
930	0.00686183
942	0.0213479
954	0.0585374
966	0.0628578
978	0.0768356
990	0.154688
1002	0.122751
1014	0.0490494
1026	0.0371047
1038	0.0239741
1050	0.0224492
1062	0.035241
1074	0.0436277
1086	0.036427
1098	0.0443901
1110	0.131984
1122	0.267188
1134	0.199417
1146	0.0505743
1158	0.0149944
1170	0.0143167
1182	0.0168581
1194	0.0210938
1206	0.0354105
1218	0.0759037
1230	0.195605
1242	0.405018
1254	0.300142
1266	0.145369
1278	0.152316
1290	0.111822
1302	0.0730235
1314	0.0390532
1326	0.0301582
1338	0.0367659
1350	0.0634508
1362	0.0842904
1374	0.0857306
1386	0.125461
1398	0.251008
1410	0.400613
1422	0.380705
1434	0.202297
1446	0.114957
1458	0.0943714
1470	0.0680253
1482	0.0354105
1494	0.0238046
1506	0.0200772
1518	0.0167734
1530	0.0139778
1542	0.00703126
1554	0.00923383
1566	0.00957268
1578	0.00940325
1590	0.012453
1602	0.0133848
1614	0.0160957
1626	0.0201619
1638	0.0307512
1650	0.0426959
1662	0.0846293
1674	0.321744
1686	0.831214
1698	0.654246
1710	0.174172
1722	0.0477787
1734	0.0256683
1746	0.0188065
1758	0.0119447
1770	0.00999625
1782	0.010081
1794	0.00770897
1806	0.00559112
1818	0.00321913
1830	0.00084714
1842	0.00177899
1854	0.00288028
1866	0.00254142
1878	0.00211785
1890	0.00186371
1902	0.00220256
1914	0.00279556
1926	0.00330385
1938	0.00355799
1950	0.0054217
1962	0.00669241
1974	0.00618412
1986	0.00398156
1998	0.00220256
2010	0.00186371
2022	0.00127071
2034	0.00144014
2046	0.00169428
2058	0.00186371
2070	0.00194842
2082	0.00245671
2094	0.00211785
2106	0.00262613
2118	0.00389684
2130	0.00491341
2142	0.00432041
2154	0.00279556
2166	0.00211785
2178	0.00194842
2190	0.00144014
2202	0.001186
2214	0.001186
2226	0.00127071
2238	0.00186371
2250	0.00144014
2262	0.00110128
2274	0.00135542
2286	0.00211785
2298	0.00211785
2310	0.000592998
2322	0
2334	0.000254142
2346	0.00110128
2358	0.000169428
2370	0.000677712
2382	0.00186371
2394	0.00262613
2406	0.00296499
2418	0.00245671
2430	0.00211785
2442	0.00194842
2454	0.00152485
2466	0.00160957
2478	0.00245671
2490	0.00245671
2502	0.00169428
2514	0.000762426
2526	0.000338856
2538	0.000677712
2550	0.000677712
2562	0.00127071
2574	0.00237199
2586	0.00211785
2598	0.00152485
2610	0.00135542
2622	0.00169428
2634	0.00338856
2646	0.00491341
2658	0.00533698
2670	0.00711598
2682	0.00974211
2694	0.0101657
2706	0.0110128
2718	0.0125377
2730	0.0116905
2742	0.0103351
2754	0.0117752
2766	0.0123682
2778	0.00940325
2790	0.00838669
2802	0.0107587
2814	0.0157568
2826	0.0244823
2838	0.0513367
2850	0.136305
2862	0.227203
2874	0.169428
2886	0.10513
2898	0.101318
2910	0.108095
2922	0.10657
2934	0.0914911
2946	0.0587915
2958	0.0768356
2970	0.184931
2982	0.185863
2994	0.0980141
3006	0.0684489
3018	0.0327843
3030	0.0157568
3042	0.00957268
3054	0.00872554
3066	0.00686183
3078	0.00609941
3090	0.00499813
3102	0.00440513
3114	0.00432041
3126	0.00525227
3138	0.00550641
3150	0.00330385
3162	0.00245671
3174	0.00211785
3186	0.00127071
3198	0.00194842
3210	0.00194842
3222	0.00169428
3234	0.00135542
3246	0.000762426
3258	0.00135542
3270	0.00271085
3282	0.00271085
3294	0.00160957
3306	0.00101657
3318	0.00160957
3330	0.0030497
3342	0.00559112
3354	0.00872554
3366	0.00838669
3378	0.00432041
3390	0.00211785
3402	0.00177899
3414	0.00152485
3426	0.00228728
3438	0.00101657
3450	0.000592998
3462	0.00110128
3474	0.00135542
3486	0.00254142
3498	0.00135542
3510	0.000762426
3522	0.000508284
3534	0.000762426
3546	0.00110128
3558	0.00220256
3570	0.00220256
3582	0.00160957
3594	0.00127071
3606	0.00169428
3618	0.00101657
3630	0.00101657
3642	0.00177899
3654	0.00144014
3666	0.00042357
3678	0.000931854
3690	0.00186371
3702	0.00194842
3714	0.00160957
3726	0.00160957
3738	0.000592998
3750	0.00084714
3762	0.00101657
3774	0.00186371
3786	0.00160957
3798	0.000762426
3810	0.000592998
3822	0.000931854
3834	0.00169428
3846	0.001186
3858	0.00101657
3870	0.000254142
3882	0.00101657
3894	0.00127071
3906	0.00135542
3918	0.001186
3930	0.001186
3942	0.000677712
3954	0.000677712
3966	0.00237199
