Infrared Spectrum: 1,3-Cyclooctadiene
Formula: C 8 H 12
CAS: 1700-10-3
Origin: Sadtler Research Labs Under US-EPA Contract
1/CM	ABSORBANCE
450	0
462	0.0314541
474	0.0420369
486	0.0426248
498	0.0216064
510	0.0268977
522	0.040714
534	0.0396851
546	0.0361576
558	0.0274856
570	0.0343938
582	0.0560001
594	0.0373334
606	0.0266037
618	0.0321891
630	0.0277796
642	0.0432127
654	0.120672
666	0.258688
678	0.340116
690	0.199014
702	0.0771655
714	0.0555592
726	0.0708453
738	0.0774595
750	0.0777535
762	0.109796
774	0.138163
786	0.167706
798	0.157418
810	0.128021
822	0.0917168
834	0.0498269
846	0.0371864
858	0.0299843
870	0.0310132
882	0.0304253
894	0.0471812
906	0.0758427
918	0.0776065
930	0.0473282
942	0.0305723
954	0.0288085
966	0.0299843
978	0.0295434
990	0.032483
1002	0.0371864
1014	0.0396851
1026	0.0374804
1038	0.0342468
1050	0.0288085
1062	0.0283675
1074	0.03263
1086	0.0383623
1098	0.0398321
1110	0.03263
1122	0.0266037
1134	0.0277796
1146	0.0342468
1158	0.0479161
1170	0.0477692
1182	0.0352757
1194	0.0291024
1206	0.0271917
1218	0.0268977
1230	0.0289555
1242	0.032777
1254	0.048651
1266	0.0596747
1278	0.048651
1290	0.0317481
1302	0.0257219
1314	0.0286615
1326	0.0318951
1338	0.0338059
1350	0.0417429
1362	0.0435067
1374	0.0349817
1386	0.0308662
1398	0.0311602
1410	0.0343938
1422	0.065407
1434	0.119937
1446	0.175203
1458	0.200189
1470	0.112735
1482	0.0448295
1494	0.0342468
1506	0.0298373
1518	0.0266037
1530	0.0270447
1542	0.0270447
1554	0.0274856
1566	0.0276326
1578	0.0266037
1590	0.0273387
1602	0.0302783
1614	0.0383623
1626	0.056882
1638	0.0677587
1650	0.0512967
1662	0.0349817
1674	0.033071
1686	0.0365985
1698	0.0386563
1710	0.0385093
1722	0.0370395
1734	0.0371864
1746	0.040714
1758	0.0399791
1770	0.0342468
1782	0.0293964
1794	0.0267507
1806	0.0255749
1818	0.0258688
1830	0.0263098
1842	0.0260158
1854	0.0261628
1866	0.0268977
1878	0.0282205
1890	0.0273387
1902	0.0264568
1914	0.0276326
1926	0.0293964
1938	0.0273387
1950	0.0263098
1962	0.0258688
1974	0.02484
1986	0.0251339
1998	0.024693
2010	0.024252
2022	0.024399
2034	0.024105
2046	0.0238111
2058	0.0230762
2070	0.0232232
2082	0.0239581
2094	0.0236641
2106	0.024546
2118	0.0254279
2130	0.0257219
2142	0.0249869
2154	0.0251339
2166	0.02484
2178	0.024399
2190	0.024252
2202	0.024105
2214	0.024399
2226	0.024546
2238	0.024105
2250	0.0236641
2262	0.024105
2274	0.024105
2286	0.024399
2298	0.0249869
2310	0.0252809
2322	0.02484
2334	0.024105
2346	0.024693
2358	0.024693
2370	0.0271917
2382	0.024546
2394	0.0232232
2406	0.0236641
2418	0.0238111
2430	0.0229292
2442	0.0229292
2454	0.0233701
2466	0.0232232
2478	0.0232232
2490	0.0227822
2502	0.0220473
2514	0.0230762
2526	0.0236641
2538	0.0233701
2550	0.0226352
2562	0.0217533
2574	0.0221943
2586	0.0232232
2598	0.0255749
2610	0.0266037
2622	0.0285145
2634	0.0295434
2646	0.0296904
2658	0.0317481
2670	0.0401261
2682	0.0421838
2694	0.0382153
2706	0.0368925
2718	0.0335119
2730	0.0298373
2742	0.0302783
2754	0.0307192
2766	0.0340998
2778	0.0385093
2790	0.0436537
2802	0.0465933
2814	0.048651
2826	0.0770186
2838	0.121113
2850	0.212242
2862	0.411844
2874	0.430216
2886	0.32336
2898	0.304547
2910	0.362605
2922	0.800611
2934	1.46982
2946	1.13793
2958	0.444915
2970	0.189313
2982	0.109649
2994	0.176525
3006	0.475487
3018	0.711099
3030	0.441387
3042	0.139486
3054	0.0627613
3066	0.0593807
3078	0.0505618
3090	0.0385093
3102	0.0333649
3114	0.0301313
3126	0.0273387
3138	0.0270447
3150	0.0274856
3162	0.0267507
3174	0.0261628
3186	0.0274856
3198	0.0279266
3210	0.0277796
3222	0.0283675
3234	0.0302783
3246	0.032336
3258	0.0302783
3270	0.0307192
3282	0.0267507
3294	0.0254279
3306	0.02484
3318	0.0238111
3330	0.0251339
3342	0.0261628
3354	0.024105
3366	0.0258688
3378	0.024546
3390	0.024105
3402	0.0258688
3414	0.0266037
3426	0.0235171
3438	0.024693
3450	0.0271917
3462	0.0270447
3474	0.0271917
3486	0.0283675
3498	0.0277796
3510	0.0264568
3522	0.0288085
3534	0.0288085
3546	0.0293964
3558	0.0282205
3570	0.0285145
3582	0.0289555
3594	0.0286615
3606	0.0271917
3618	0.0263098
3630	0.0267507
3642	0.0276326
3654	0.0283675
3666	0.0264568
3678	0.0283675
3690	0.024105
3702	0.0282205
3714	0.0257219
3726	0.02484
3738	0.0239581
3750	0.0258688
3762	0.0271917
3774	0.0283675
3786	0.0292494
3798	0.0251339
3810	0.024693
3822	0.0264568
3834	0.0214594
3846	0.024252
3858	0.024693
3870	0.0311602
3882	0.0264568
3894	0.0293964
3906	0.0293964
3918	0.024546
3930	0.0258688
3942	0.0289555
3954	0.0257219
3966	0.0274856
