Infrared Spectrum: Indole-2-carboxylic acid, 1-benzyl-, ethyl ester
Formula: C 18 H 17 N O 2
CAS: 17017-66-2
Origin: Sadtler Research Labs Under US-EPA Contract
1/CM	ABSORBANCE
450	0.0354294
462	0.0114818
474	0.00246037
486	0.00344452
498	0.00169493
510	0.00295245
522	0.0024057
534	0.00497543
546	0.0123566
558	0.0080919
570	0.00519412
582	0.00814657
594	0.013122
606	0.00541283
618	0.00355388
630	0.00595957
642	0.00399127
654	0.00388193
666	0.00574088
678	0.015145
690	0.0378898
702	0.0315475
714	0.0451069
726	0.0955172
738	0.0958453
750	0.109951
762	0.0366322
774	0.0272281
786	0.0123019
798	0.0126846
810	0.017332
822	0.0238383
834	0.00841995
846	0.011099
858	0.00716243
870	0.00716243
882	0.00535815
894	0.00289778
906	0.00486608
918	0.00213233
930	0.00382725
942	0.00120285
954	0.00169493
966	0.00360855
978	0.0105523
990	0.0123566
1002	0.0158558
1014	0.0384365
1026	0.0518319
1038	0.0311648
1050	0.0155824
1062	0.0211592
1074	0.0443414
1086	0.108749
1098	0.181412
1110	0.0724444
1122	0.0951892
1134	0.103336
1146	0.0987977
1158	0.0705308
1170	0.141991
1182	0.372665
1194	0.444562
1206	0.138273
1218	0.0605252
1230	0.107327
1242	0.311046
1254	0.289668
1266	0.114927
1278	0.0469658
1290	0.0337345
1302	0.0495355
1314	0.106726
1326	0.0844729
1338	0.0589397
1350	0.115091
1362	0.0638057
1374	0.0665395
1386	0.0475672
1398	0.0653366
1410	0.0930022
1422	0.04374
1434	0.0334064
1446	0.0655007
1458	0.141554
1470	0.0563153
1482	0.0643525
1494	0.0447241
1506	0.0346093
1518	0.103281
1530	0.0917446
1542	0.0343359
1554	0.0156917
1566	0.0145436
1578	0.0136688
1590	0.0102789
1602	0.0194096
1614	0.030618
1626	0.0139421
1638	0.0103336
1650	0.0130673
1662	0.0139968
1674	0.0168946
1686	0.0320395
1698	0.0511758
1710	0.0977589
1722	0.356153
1734	0.340735
1746	0.0626029
1758	0.0274469
1770	0.0184802
1782	0.00902137
1794	0.010607
1806	0.00623295
1818	0.0026244
1830	0.00295245
1842	0.00256973
1854	0.0032805
1866	0.0026244
1878	0.00289778
1890	0.00497543
1902	0.000929475
1914	0.00311648
1926	0.00420998
1938	0.00311648
1950	0.00300713
1962	0.00224167
1974	0.000273375
1986	0
1998	0.000164025
2010	0.000273375
2022	0.000710775
2034	0.00103882
2046	0.00120285
2058	0.00098415
2070	0.000492075
2082	0.00032805
2094	0.00054675
2106	0.00076545
2118	0.00103882
2130	0.00098415
2142	0.00054675
2154	0.00076545
2166	0.000820125
2178	0.000710775
2190	0.000273375
2202	0.00076545
2214	0.00098415
2226	0.00158558
2238	0.00169493
2250	0.00142155
2262	0.00191362
2274	0.0015309
2286	0.0019683
2298	0.00256973
2310	0.00278843
2322	0.00229635
2334	0.0026244
2346	0.00229635
2358	0.00278843
2370	0.00267907
2382	0.00338985
2394	0.00251505
2406	0.00213233
2418	0.00229635
2430	0.00207765
2442	0.00164025
2454	0.0015309
2466	0.00158558
2478	0.00147623
2490	0.00185895
2502	0.00229635
2514	0.00246037
2526	0.00322582
2538	0.00256973
2550	0.00295245
2562	0.00251505
2574	0.0024057
2586	0.00256973
2598	0.00267907
2610	0.00267907
2622	0.0024057
2634	0.0024057
2646	0.00273375
2658	0.00273375
2670	0.0024057
2682	0.00267907
2694	0.00300713
2706	0.00377258
2718	0.00388193
2730	0.0034992
2742	0.00377258
2754	0.00404595
2766	0.00486608
2778	0.00492075
2790	0.00519412
2802	0.00552217
2814	0.0056862
2826	0.0059049
2838	0.00639698
2850	0.00754515
2862	0.0101149
2874	0.0139968
2886	0.0193549
2898	0.0189176
2910	0.0229088
2922	0.0271188
2934	0.037343
2946	0.0518319
2958	0.0365229
2970	0.0398581
2982	0.061236
2994	0.058885
3006	0.0367963
3018	0.0276109
3030	0.0411703
3042	0.0509571
3054	0.0416624
3066	0.0711868
3078	0.0717883
3090	0.0355388
3102	0.0181521
3114	0.0111537
3126	0.00759983
3138	0.00530348
3150	0.00360855
3162	0.00338985
3174	0.00399127
3186	0.0028431
3198	0.0026244
3210	0.00246037
3222	0.00256973
3234	0.00267907
3246	0.00322582
3258	0.00295245
3270	0.00213233
3282	0.00229635
3294	0.0017496
3306	0.00158558
3318	0.00114817
3330	0.00229635
3342	0.00207765
3354	0.00169493
3366	0.0019683
3378	0.002187
3390	0.00125753
3402	0.00207765
3414	0.00169493
3426	0.00246037
3438	0.00224167
3450	0.000710775
3462	0.00114817
3474	0.00125753
3486	0.00125753
3498	0.00164025
3510	0.00136688
3522	0.00103882
3534	0.00125753
3546	0.0004374
3558	0.00180427
3570	0.00169493
3582	0.00136688
3594	0.00180427
3606	0.00142155
3618	0.0019683
3630	0.0026244
3642	0.00136688
3654	0.00142155
3666	0.000710775
3678	0.00256973
3690	0.00164025
3702	0.00213233
3714	0.00158558
3726	0.00098415
3738	0.00256973
3750	0.00120285
3762	0.0013122
3774	0.00147623
3786	0.000710775
3798	0.00251505
3810	0.0008748
3822	0.0019683
3834	0.00136688
3846	0.00207765
3858	0.00273375
3870	0.00289778
3882	0.000492075
3894	0.00103882
3906	0.00147623
3918	0.00246037
3930	0.00125753
3942	0.00202298
3954	0.00338985
3966	0.00103882
