Infrared Spectrum: Benzeneacetic acid, .alpha.-methoxy-
Formula: C 9 H 10 O 3
CAS: 1701-77-5
Origin: Sadtler Research Labs Under US-EPA Contract
1/CM	ABSORBANCE
450	0.0123662
462	0.0219271
474	0.028053
486	0.0372704
498	0.0361254
510	0.0413925
522	0.0417932
534	0.0488351
546	0.0716783
558	0.0879375
570	0.0755713
582	0.0650944
594	0.0758576
606	0.123891
618	0.192535
630	0.132994
642	0.122403
654	0.130074
666	0.0952084
678	0.0884528
690	0.158242
702	0.198604
714	0.145647
726	0.123319
738	0.0829567
750	0.0931474
762	0.0833002
774	0.0432245
786	0.0295988
798	0.0269652
810	0.0247897
822	0.0244462
834	0.0246752
846	0.0281102
858	0.0343506
870	0.0352094
882	0.0392742
894	0.0436253
906	0.0412207
918	0.0418505
930	0.0512396
942	0.0439115
954	0.0380147
966	0.0482053
978	0.084388
990	0.107517
1002	0.0748843
1014	0.0512969
1026	0.0622318
1038	0.0601135
1050	0.0518122
1062	0.0768881
1074	0.130418
1086	0.224252
1098	0.440432
1110	0.57251
1122	0.416558
1134	0.253278
1146	0.220359
1158	0.218355
1170	0.171009
1182	0.15183
1194	0.177077
1206	0.176505
1218	0.110036
1230	0.083701
1242	0.0792354
1254	0.0859338
1266	0.0888536
1278	0.087136
1290	0.0945787
1302	0.11267
1314	0.136944
1326	0.172669
1338	0.22866
1350	0.263011
1362	0.24429
1374	0.177249
1386	0.100876
1398	0.0629761
1410	0.0466596
1422	0.0364116
1434	0.0369841
1446	0.0654951
1458	0.0847315
1470	0.0497511
1482	0.0358964
1494	0.0622891
1506	0.0385872
1518	0.0158585
1530	0.0167173
1542	0.0174043
1554	0.0184348
1566	0.0202096
1578	0.0245034
1590	0.0293698
1602	0.0328621
1614	0.0239882
1626	0.0200378
1638	0.0183203
1650	0.0176333
1662	0.0180913
1674	0.0208394
1686	0.0261637
1698	0.0333201
1710	0.0474038
1722	0.0712775
1734	0.0922314
1746	0.107632
1758	0.167345
1770	0.284652
1782	0.343162
1794	0.402188
1806	0.34946
1818	0.19992
1830	0.0934336
1842	0.0493504
1854	0.030572
1866	0.0218699
1878	0.0160303
1890	0.0129387
1902	0.00978992
1914	0.00709912
1926	0.00652661
1938	0.00830139
1950	0.0115647
1962	0.00990442
1974	0.00646936
1986	0.00452283
1998	0.00417932
2010	0.00377857
2022	0.00366406
2034	0.00377857
2046	0.00406482
2058	0.00520984
2070	0.00538159
2082	0.0057251
2094	0.00509534
2106	0.00412207
2118	0.00286255
2130	0.00171753
2142	0.00131677
2154	0.00137402
2166	0.00148853
2178	0.00160303
2190	0.00188928
2202	0.00177478
2214	0.00114502
2226	0.000858765
2238	0.000229004
2250	0.000400757
2262	0.000687012
2274	0.00103052
2286	0.00154578
2298	0.00332056
2310	0.00458008
2322	0.00423657
2334	0.00217554
2346	0.00377857
2358	0.00234729
2370	0.00320606
2382	0.00492359
2394	0.00114502
2406	0.00154578
2418	0.00160303
2430	0.00177478
2442	0.00246179
2454	0.00263355
2466	0.00320606
2478	0.00383582
2490	0.00377857
2502	0.00389307
2514	0.00383582
2526	0.00412207
2538	0.00395032
2550	0.00366406
2562	0.00406482
2574	0.00372131
2586	0.00423657
2598	0.00469458
2610	0.00463733
2622	0.00429383
2634	0.00452283
2646	0.00389307
2658	0.00372131
2670	0.00349231
2682	0.00343506
2694	0.00360681
2706	0.00360681
2718	0.00395032
2730	0.00492359
2742	0.00480908
2754	0.00492359
2766	0.00629761
2778	0.00824414
2790	0.0110494
2802	0.0154005
2814	0.0233584
2826	0.0532434
2838	0.0972122
2850	0.0601708
2862	0.0332056
2874	0.0413352
2886	0.0648654
2898	0.0745981
2910	0.0732813
2922	0.0774034
2934	0.0946932
2946	0.103395
2958	0.0823842
2970	0.0490641
2982	0.0391597
2994	0.058167
3006	0.0812964
3018	0.0515832
3030	0.0582815
3042	0.0824987
3054	0.0612586
3066	0.0710485
3078	0.0936054
3090	0.05748
3102	0.0429382
3114	0.0273087
3126	0.0175761
3138	0.012538
3150	0.0115647
3162	0.0111067
3174	0.0111639
3186	0.00978992
3198	0.00898841
3210	0.00870215
3222	0.00795789
3234	0.00801514
3246	0.00778614
3258	0.00755713
3270	0.00749988
3282	0.00675562
3294	0.00784339
3306	0.00687012
3318	0.00612586
3330	0.00618311
3342	0.00566785
3354	0.00538159
3366	0.00589685
3378	0.00578235
3390	0.00492359
3402	0.00566785
3414	0.00543884
3426	0.00658386
3438	0.00858765
3450	0.0138547
3462	0.0244462
3474	0.0514686
3486	0.0774034
3498	0.0604571
3510	0.0345224
3522	0.0180913
3534	0.0107059
3546	0.0086449
3558	0.0271942
3570	0.14994
3582	0.109636
3594	0.012309
3606	0.0028053
3618	0.00166028
3630	0.00251904
3642	0.00148853
3654	0.00223279
3666	0.00166028
3678	0.00263355
3690	0.00200379
3702	0.00211829
3714	0.00263355
3726	0.00251904
3738	0.0029198
3750	0.00125952
3762	0.000515259
3774	0.000744263
3786	0.000286255
3798	0.00137402
3810	0.000171753
3822	0.00057251
3834	0.00206104
3846	0.00057251
3858	0.00114502
3870	0.0028053
3882	0.00217554
3894	0.00137402
3906	0.00131677
3918	0.00166028
3930	0.00286255
3942	0.00274805
3954	0.00188928
3966	0.00229004
