Infrared Spectrum: 3,5-Dichloro-4-hydroxy-acetophenone
Formula: C 8 H 6 Cl 2 O 2
CAS: 17044-70-1
Origin: Sadtler Research Labs Under US-EPA Contract
1/CM	ABSORBANCE
450	0.0261482
462	0.00938851
474	0.00186218
486	0.0270793
498	0.0138888
510	0.0273896
522	0.0134232
534	0.0166045
546	0.0255274
558	0.0688232
570	0.0747977
582	0.0245963
594	0.0513652
606	0.0792204
618	0.0495806
630	0.0342952
642	0.0246739
654	0.0201737
666	0.0126473
678	0.0141992
690	0.0228118
702	0.0239756
714	0.0270017
726	0.0527619
738	0.063547
750	0.0391835
762	0.0339849
774	0.0552448
786	0.10405
798	0.177916
810	0.111421
822	0.0721596
834	0.0668834
846	0.0529171
858	0.0469426
870	0.066961
882	0.0568742
894	0.0304933
906	0.0367005
918	0.0173028
930	0.0169148
942	0.0259154
954	0.0252171
966	0.0493479
978	0.0394162
990	0.0262258
1002	0.0310364
1014	0.036235
1026	0.0425975
1038	0.0562535
1050	0.0470977
1062	0.0499686
1074	0.0514428
1086	0.0427526
1098	0.0478736
1110	0.0549344
1122	0.0554
1134	0.0591243
1146	0.114059
1158	0.146337
1170	0.231919
1182	0.224704
1194	0.089928
1206	0.100636
1218	0.163562
1230	0.290966
1242	0.673645
1254	0.511092
1266	0.166976
1278	0.40681
1290	0.576656
1302	0.160613
1314	0.0755736
1326	0.123447
1338	0.128879
1350	0.0854277
1362	0.159294
1374	0.106377
1386	0.115611
1398	0.231919
1410	0.171864
1422	0.0817809
1434	0.0678145
1446	0.0507445
1458	0.0407353
1470	0.107076
1482	0.208021
1494	0.0995493
1506	0.0543137
1518	0.0298725
1530	0.0344504
1542	0.0335193
1554	0.0533826
1566	0.124223
1578	0.180089
1590	0.15169
1602	0.130974
1614	0.0868243
1626	0.0823241
1638	0.0578053
1650	0.0387955
1662	0.0630815
1674	0.0885313
1686	0.0857381
1698	0.237894
1710	0.4986
1722	0.117861
1734	0.0747201
1746	0.0699095
1758	0.0502014
1770	0.0276224
1782	0.0226566
1794	0.0158286
1806	0.0115611
1818	0.00744874
1830	0.00504341
1842	0.00535378
1854	0.00535378
1866	0.00318123
1878	0.00318123
1890	0.00287087
1902	0.00465546
1914	0.0042675
1926	0.0051986
1938	0.00442269
1950	0.0042675
1962	0.00411232
1974	0.00550896
1986	0.00543137
1998	0.00364678
2010	0.00325882
2022	0.00349159
2034	0.00279328
2046	0.00271568
2058	0.00240532
2070	0.00201737
2082	0.00201737
2094	0.00178459
2106	0.00201737
2118	0.00217255
2130	0.001707
2142	0.00193977
2154	0.00240532
2166	0.00217255
2178	0.000931092
2190	0.000853501
2202	0.00217255
2214	0.0043451
2226	0.00527619
2238	0.00465546
2250	0.00372437
2262	0.00349159
2274	0.00395714
2286	0.0043451
2298	0.00527619
2310	0.00612969
2322	0.00457787
2334	0.00240532
2346	0.003414
2358	0.00364678
2370	0.00209496
2382	0.00325882
2394	0.00217255
2406	0.00287087
2418	0.00310364
2430	0.00287087
2442	0.00271568
2454	0.00380196
2466	0.00411232
2478	0.00442269
2490	0.0042675
2502	0.00279328
2514	0.00294846
2526	0.00349159
2538	0.00263809
2550	0.00155182
2562	0.0025605
2574	0.00287087
2586	0.00178459
2598	0.00139664
2610	0.00155182
2622	0.00225014
2634	0.00162941
2646	0.00186218
2658	0.00349159
2670	0.003414
2682	0.0025605
2694	0.00147423
2706	0.001707
2718	0.00225014
2730	0.00232773
2742	0.00248291
2754	0.00232773
2766	0.00232773
2778	0.00209496
2790	0.00186218
2802	0.00217255
2814	0.00186218
2826	0.00240532
2838	0.00155182
2850	0.001707
2862	0.00232773
2874	0.00263809
2886	0.00209496
2898	0.00209496
2910	0.00271568
2922	0.00349159
2934	0.00612969
2946	0.00675042
2958	0.00527619
2970	0.00806946
2982	0.00977647
2994	0.00651764
3006	0.00923333
3018	0.0160613
3030	0.00837983
3042	0.00543137
3054	0.00581932
3066	0.00729355
3078	0.0114835
3090	0.0158286
3102	0.00628487
3114	0.00395714
3126	0.00512101
3138	0.0043451
3150	0.00310364
3162	0.00380196
3174	0.00349159
3186	0.00380196
3198	0.00349159
3210	0.00387955
3222	0.00333641
3234	0.00442269
3246	0.00395714
3258	0.00496582
3270	0.00628487
3282	0.00566414
3294	0.00481064
3306	0.00473305
3318	0.00372437
3330	0.00356919
3342	0.00442269
3354	0.0042675
3366	0.00496582
3378	0.0060521
3390	0.00985406
3402	0.0130353
3414	0.00628487
3426	0.00543137
3438	0.0042675
3450	0.00372437
3462	0.00550896
3474	0.00457787
3486	0.00659523
3498	0.00589692
3510	0.00768151
3522	0.00962128
3534	0.0135784
3546	0.0606762
3558	0.325805
3570	0.206082
3582	0.0262258
3594	0.0107076
3606	0.00713837
3618	0.0043451
3630	0.00488823
3642	0.00806946
3654	0.00457787
3666	0.00706078
3678	0.000543137
3690	0.00589692
3702	0.00682801
3714	0.00550896
3726	0.0069056
3738	0.00488823
3750	0.00597451
3762	0.00675042
3774	0.00349159
3786	0.00651764
3798	0.00581932
3810	0.00387955
3822	0.00349159
3834	0.00279328
3846	0.00783669
3858	0.00395714
3870	0.00263809
3882	0.010242
3894	0.00318123
3906	0.00287087
3918	0.00938851
3930	0.00876778
3942	0.00628487
3954	0.00706078
3966	0.00644005
