Infrared Spectrum: v-Triazolo[4,5-d]pyrimidine,(3H),3-cyclopentyl-7-dimethylamino-
Formula: C 11 H 16 N 6
CAS: 17050-86-1
Origin: Sadtler Research Labs Under US-EPA Contract
1/CM	ABSORBANCE
450	0.00770285
462	0.00500185
474	0.00280104
486	0.00230085
498	0.00230085
510	0.00160059
522	0.00150055
534	0.000300111
546	0.00620229
558	0.0302112
570	0.00510189
582	0.00200074
594	0.00250093
606	0.00900333
618	0.0101037
630	0.00990366
642	0.00420155
654	0.00320118
666	0.00790292
678	0.0256095
690	0.0248092
702	0.00670248
714	0.00100037
726	0.00140052
738	0.00180067
750	0.00200074
762	0.00240089
774	0.00420155
786	0.00660244
798	0.067725
810	0.0115043
822	0.00940348
834	0.00700259
846	0.00600222
858	0.0121045
870	0.0116043
882	0.00200074
894	0.0116043
906	0.0286106
918	0.0172064
930	0.0277102
942	0.0572212
954	0.0146054
966	0.0141052
978	0.00320118
990	0.000600222
1002	0.0019007
1014	0.00750278
1026	0.0306113
1038	0.0553205
1050	0.152356
1062	0.175265
1074	0.0954353
1086	0.0480178
1098	0.0309114
1110	0.0195072
1122	0.0147054
1134	0.0147054
1146	0.0198073
1158	0.0172064
1170	0.0221082
1182	0.0348129
1194	0.0614227
1206	0.0818303
1218	0.048718
1230	0.0395146
1242	0.0321119
1254	0.0586217
1266	0.100837
1278	0.0885327
1290	0.100737
1302	0.0760281
1314	0.177566
1326	0.43366
1338	0.313516
1350	0.0666246
1362	0.0506187
1374	0.0555205
1386	0.0661245
1398	0.0963356
1410	0.0794294
1422	0.0780289
1434	0.129648
1446	0.0707262
1458	0.0646239
1470	0.0466172
1482	0.0490181
1494	0.0519192
1506	0.0723268
1518	0.101938
1530	0.103838
1542	0.118644
1554	0.217781
1566	0.334424
1578	0.230085
1590	0.409251
1602	0.987765
1614	0.547703
1626	0.137751
1638	0.0530196
1650	0.0336124
1662	0.0228084
1674	0.0195072
1686	0.0150056
1698	0.010704
1710	0.0046017
1722	0.00150055
1734	0.00230085
1746	0.002701
1758	0.00280104
1770	0.00370137
1782	0.00450167
1794	0.00570211
1806	0.00510189
1818	0.00420155
1830	0.00500185
1842	0.00470174
1854	0.0035013
1866	0.00370137
1878	0.00320118
1890	0.00400148
1902	0.00420155
1914	0.00590218
1926	0.00860318
1938	0.00660244
1950	0.00500185
1962	0.00470174
1974	0.00390144
1986	0.00250093
1998	0.00240089
2010	0.00180067
2022	0.00170063
2034	0.00130048
2046	0.00130048
2058	0.00100037
2070	0.00110041
2082	0.00100037
2094	0.00100037
2106	0.00100037
2118	0.00130048
2130	0.00150055
2142	0.000800296
2154	0.000300111
2166	0.000400148
2178	0.000600222
2190	0.00170063
2202	0.00180067
2214	0.00200074
2226	0.00250093
2238	0.00240089
2250	0.00170063
2262	0.00150055
2274	0.00170063
2286	0.00240089
2298	0.002701
2310	0.00260096
2322	0.0019007
2334	0.00100037
2346	0.00110041
2358	0.000600222
2370	0.000900333
2382	0.00260096
2394	0.00120044
2406	0.000200074
2418	0
2430	0.000200074
2442	0.000400148
2454	0.00170063
2466	0.00390144
2478	0.00400148
2490	0.00200074
2502	0.00140052
2514	0.00130048
2526	0.00150055
2538	0.00170063
2550	0.002701
2562	0.00290107
2574	0.00370137
2586	0.00360133
2598	0.00330122
2610	0.00330122
2622	0.00330122
2634	0.00320118
2646	0.00370137
2658	0.00370137
2670	0.002701
2682	0.00250093
2694	0.00310115
2706	0.0035013
2718	0.00400148
2730	0.00450167
2742	0.00510189
2754	0.00590218
2766	0.00680252
2778	0.00900333
2790	0.013605
2802	0.0184068
2814	0.0239088
2826	0.032312
2838	0.0316117
2850	0.0339125
2862	0.05402
2874	0.089233
2886	0.0976361
2898	0.0876324
2910	0.097336
2922	0.118244
2934	0.143553
2946	0.165561
2958	0.172864
2970	0.163961
2982	0.123546
2994	0.0609225
3006	0.0355131
3018	0.0286106
3030	0.029611
3042	0.0306113
3054	0.0300111
3066	0.0186069
3078	0.0103038
3090	0.00620229
3102	0.00390144
3114	0.00320118
3126	0.00210078
3138	0.00160059
3150	0.00150055
3162	0.00100037
3174	0.000500185
3186	0.000500185
3198	0.000400148
3210	0.000600222
3222	0.000600222
3234	0.000400148
3246	0.00100037
3258	0.000900333
3270	0.00140052
3282	0.00100037
3294	0.00120044
3306	0.000800296
3318	0.00110041
3330	0.00100037
3342	0.000900333
3354	0.00110041
3366	0.00100037
3378	0.000900333
3390	0.000700259
3402	0.00140052
3414	0.00160059
3426	0.000800296
3438	0.00130048
3450	0.00140052
3462	0.00120044
3474	0.00150055
3486	0.00140052
3498	0.0019007
3510	0.00140052
3522	0.00150055
3534	0.00170063
3546	0.00150055
3558	0.00150055
3570	0.00200074
3582	0.00150055
3594	0.00170063
3606	0.00110041
3618	0.00120044
3630	0.00140052
3642	0.00130048
3654	0.00200074
3666	0.00140052
3678	0.00150055
3690	0.00120044
3702	0.00110041
3714	0.00150055
3726	0.00170063
3738	0.00100037
3750	0.00230085
3762	0.0019007
3774	0.00120044
3786	0.00160059
3798	0.00240089
3810	0.00180067
3822	0.00140052
3834	0.00160059
3846	0.00220081
3858	0.00250093
3870	0.00240089
3882	0.00240089
3894	0.00170063
3906	0.00230085
3918	0.00140052
3930	0.00370137
3942	0.00140052
3954	0.00330122
3966	0.00240089
