Infrared Spectrum: v-Triazolo[4,5-d]pyrimidine, (3H),3-cyclopentyl-
Formula: C 9 H 11 N 5
CAS: 17050-88-3
Origin: Sadtler Research Labs Under US-EPA Contract
1/CM	ABSORBANCE
450	0.000443628
462	0.00621079
474	0.00731986
486	0.00998163
498	0.0102034
510	0.00658048
522	0.00606292
534	0.00517566
546	0.00517566
558	0.00628473
570	0.00813318
582	0.00865075
594	0.0225511
606	0.0485773
618	0.0236602
630	0.0104253
642	0.0116083
654	0.011904
666	0.00961194
678	0.0178191
690	0.0124216
702	0.00517566
714	0.00399265
726	0.00332721
738	0.00243995
750	0.00510172
762	0.0089465
774	0.0208505
786	0.0895389
798	0.0916831
810	0.0352684
822	0.0219596
834	0.0186324
846	0.0153791
858	0.0104253
870	0.00761561
882	0.00872468
894	0.0170057
906	0.0340854
918	0.0886517
930	0.163107
942	0.109354
954	0.0634388
966	0.0246953
978	0.0168579
990	0.0212941
1002	0.0436234
1014	0.108097
1026	0.185732
1038	0.196158
1050	0.0885038
1062	0.0413313
1074	0.0473943
1086	0.0605552
1098	0.0466549
1110	0.0230687
1122	0.0222553
1134	0.019076
1146	0.022699
1158	0.0366732
1170	0.0719417
1182	0.0814057
1194	0.0681708
1206	0.0844372
1218	0.0772652
1230	0.0402223
1242	0.0324588
1254	0.0714241
1266	0.0394829
1278	0.0163403
1290	0.0261001
1302	0.0680969
1314	0.104844
1326	0.0525699
1338	0.058411
1350	0.192387
1362	0.179374
1374	0.116378
1386	0.0849548
1398	0.0570062
1410	0.0569323
1422	0.0916831
1434	0.0581153
1446	0.0436234
1458	0.0765998
1470	0.117561
1482	0.0678751
1494	0.0300188
1506	0.0171536
1518	0.0145658
1530	0.0158967
1542	0.0187803
1554	0.0403701
1566	0.158079
1578	0.648658
1590	0.41287
1602	0.0842893
1614	0.0251389
1626	0.0146397
1638	0.0105731
1650	0.00983375
1662	0.00724592
1674	0.0106471
1686	0.00931619
1698	0.00835499
1710	0.0058411
1722	0.00591504
1734	0.00791137
1746	0.00635867
1758	0.00443628
1770	0.00406659
1782	0.00251389
1794	0.00236602
1806	0.00125695
1818	0.00103513
1830	0.00273571
1842	0.0052496
1854	0.00251389
1866	0.00184845
1878	0.00192239
1890	0.00820712
1902	0.00946406
1914	0.00258783
1926	0.00110907
1938	0.00221814
1950	0.00517566
1962	0.00561929
1974	0.00118301
1986	0.000295752
1998	0.000221814
2010	0.000147876
2022	0.000591504
2034	0.00073938
2046	0.00133088
2058	0.00140482
2070	0.00110907
2082	0.000517566
2094	0.000665442
2106	0.00073938
2118	0.00073938
2130	0.00118301
2142	0.00162664
2154	0.00162664
2166	0.0021442
2178	0.00221814
2190	0.00192239
2202	0.00207026
2214	0.00280964
2226	0.00354902
2238	0.00480597
2250	0.00517566
2262	0.0042884
2274	0.00391871
2286	0.00465809
2298	0.00665442
2310	0.00835499
2322	0.00672836
2334	0.00502778
2346	0.00916831
2358	0.0058411
2370	0.0079853
2382	0.00724592
2394	0.00362296
2406	0.00236602
2418	0.00147876
2430	0.00147876
2442	0.00243995
2454	0.00273571
2466	0.00273571
2478	0.0036969
2490	0.00451022
2502	0.00517566
2514	0.00487991
2526	0.00347509
2538	0.00243995
2550	0.0021442
2562	0.00288358
2574	0.00354902
2586	0.00391871
2598	0.00517566
2610	0.00643261
2622	0.00569323
2634	0.00436234
2646	0.00384478
2658	0.00377084
2670	0.00406659
2682	0.00362296
2694	0.00303146
2706	0.00251389
2718	0.00266177
2730	0.00288358
2742	0.00295752
2754	0.00340115
2766	0.00443628
2778	0.00561929
2790	0.00539747
2802	0.00569323
2814	0.00598898
2826	0.00813318
2838	0.0115343
2850	0.0181887
2862	0.034529
2874	0.0661006
2886	0.116304
2898	0.0838457
2910	0.0695017
2922	0.0907219
2934	0.122663
2946	0.15002
2958	0.214051
2970	0.290576
2982	0.279855
2994	0.142626
3006	0.0631431
3018	0.0337897
3030	0.0277267
3042	0.0332721
3054	0.0460634
3066	0.060851
3078	0.046507
3090	0.0102774
3102	0.0052496
3114	0.0042884
3126	0.00347509
3138	0.00317933
3150	0.00399265
3162	0.00406659
3174	0.00347509
3186	0.00280964
3198	0.00258783
3210	0.00251389
3222	0.00273571
3234	0.00236602
3246	0.00184845
3258	0.0021442
3270	0.0021442
3282	0.00192239
3294	0.00192239
3306	0.00192239
3318	0.00162664
3330	0.0021442
3342	0.00192239
3354	0.0015527
3366	0.00192239
3378	0.00192239
3390	0.0021442
3402	0.00251389
3414	0.00221814
3426	0.00199633
3438	0.00251389
3450	0.00221814
3462	0.00236602
3474	0.00177451
3486	0.00207026
3498	0.00243995
3510	0.00288358
3522	0.00229208
3534	0.00266177
3546	0.00266177
3558	0.00243995
3570	0.00288358
3582	0.00273571
3594	0.0021442
3606	0.0021442
3618	0.00280964
3630	0.00384478
3642	0.00273571
3654	0.00288358
3666	0.00303146
3678	0.00325327
3690	0.0031054
3702	0.00303146
3714	0.00340115
3726	0.00340115
3738	0.00229208
3750	0.00362296
3762	0.00303146
3774	0.00332721
3786	0.00340115
3798	0.00236602
3810	0.00436234
3822	0.00436234
3834	0.00332721
3846	0.00495385
3858	0.00362296
3870	0.0036969
3882	0.0036969
3894	0.00325327
3906	0.00332721
3918	0.00362296
3930	0.0031054
3942	0.00391871
3954	0.00354902
3966	0.00421447
