Infrared Spectrum: v-Triazolo[4,5-d]pyrimidine, (3H), 3-cyclopentyl-7-metylthio-
Formula: C 10 H 13 N 5 S
CAS: 17050-87-2
Origin: Sadtler Research Labs Under US-EPA Contract
1/CM	ABSORBANCE
450	0.00867132
462	0.00656208
474	0.00520279
486	0.00196862
498	0.00337478
510	0.00346853
522	0.00510905
534	0.0090463
546	0.0303731
558	0.0187019
570	0.00857758
582	0.00740578
594	0.00693706
606	0.00487469
618	0.00496843
630	0.00614023
642	0.00539028
654	0.00304668
666	0.00473407
678	0.00839009
690	0.00571838
702	0.00299981
714	0.0043591
726	0.00398412
738	0.00173426
750	0.00262483
762	0.00515592
774	0.00459346
786	0.00632772
798	0.0157959
810	0.0152334
822	0.0199675
834	0.0256859
846	0.0469657
858	0.120367
870	0.0394194
882	0.00562464
894	0.00581213
906	0.00890568
918	0.00801511
930	0.00984312
942	0.0148584
954	0.0336072
966	0.0813698
978	0.0976812
990	0.118727
1002	0.0385757
1014	0.0400756
1026	0.0866195
1038	0.126742
1050	0.0801042
1062	0.0319667
1074	0.0193581
1086	0.0181863
1098	0.0142491
1110	0.012468
1122	0.0121867
1134	0.017577
1146	0.0414348
1158	0.0344509
1170	0.037357
1182	0.0883537
1194	0.164521
1206	0.077995
1218	0.0699799
1230	0.089338
1242	0.0736359
1254	0.0229673
1266	0.0187957
1278	0.0272326
1290	0.0408255
1302	0.140522
1314	0.0750889
1326	0.0822604
1338	0.113102
1350	0.0456533
1362	0.0305137
1374	0.0381538
1386	0.0292481
1398	0.0202956
1410	0.0404505
1422	0.0558246
1434	0.0541372
1446	0.0879787
1458	0.101993
1470	0.0330448
1482	0.0274201
1494	0.0196394
1506	0.0224517
1518	0.0329041
1530	0.0704017
1542	0.158662
1554	0.316152
1566	0.440456
1578	0.393537
1590	0.0982437
1602	0.0253578
1614	0.00914004
1626	0.00548402
1638	0.00445284
1650	0.00374976
1662	0.0035154
1674	0.00276545
1686	0.00093744
1698	0.000374976
1710	0.00145303
1722	0.00159365
1734	0.000656208
1746	0.000515592
1758	0.000656208
1770	0.000562464
1782	0.000843696
1794	0.000796824
1806	0.00103118
1818	0.000843696
1830	0.000328104
1842	0.000328104
1854	0.000562464
1866	0.000515592
1878	0.000843696
1890	0.00196862
1902	0.0055309
1914	0.00449971
1926	0.00164052
1938	0.00140616
1950	0.00154678
1962	0.00154678
1974	0.00168739
1986	0.0020155
1998	0.00215611
2010	0.00253109
2022	0.00182801
2034	0.00192175
2046	0.00135929
2058	0.00131242
2070	0.00121867
2082	0.000984312
2094	0.000843696
2106	0.000890568
2118	0.000609336
2130	0.000421848
2142	0.000515592
2154	0.000328104
2166	0.000515592
2178	0.00093744
2190	0.00107806
2202	0.000656208
2214	0.000515592
2226	0.000562464
2238	0.00070308
2250	0.000609336
2262	0.00145303
2274	0.00215611
2286	0.00248422
2298	0.00248422
2310	0.00285919
2322	0.00253109
2334	0.00192175
2346	0.00285919
2358	0.00215611
2370	0.00178114
2382	0.00210924
2394	0.000890568
2406	0.00126554
2418	0.00131242
2430	0.0011718
2442	0.00145303
2454	0.00164052
2466	0.00182801
2478	0.00262483
2490	0.00314042
2502	0.0031873
2514	0.00342166
2526	0.00403099
2538	0.00332791
2550	0.00257796
2562	0.00229673
2574	0.00257796
2586	0.00323417
2598	0.0038435
2610	0.00328104
2622	0.0023436
2634	0.00206237
2646	0.00164052
2658	0.000843696
2670	0.00131242
2682	0.00159365
2694	0.00206237
2706	0.0023436
2718	0.00285919
2730	0.00328104
2742	0.00374976
2754	0.00417161
2766	0.00412474
2778	0.00412474
2790	0.00421848
2802	0.00412474
2814	0.00449971
2826	0.00609336
2838	0.0100306
2850	0.0143428
2862	0.0216549
2874	0.0382476
2886	0.0630897
2898	0.0416223
2910	0.0376382
2922	0.0510905
2934	0.0792137
2946	0.127867
2958	0.116805
2970	0.152428
2982	0.145959
2994	0.0674019
3006	0.031873
3018	0.0218892
3030	0.0135929
3042	0.00960876
3054	0.0162646
3066	0.0359977
3078	0.0119524
3090	0.00360914
3102	0.00323417
3114	0.00276545
3126	0.00164052
3138	0.00107806
3150	0.000609336
3162	0.000562464
3174	0.00126554
3186	0.00093744
3198	0.000796824
3210	0.00093744
3222	0.000890568
3234	0.000984312
3246	0.00107806
3258	0.00070308
3270	0.00126554
3282	0.000656208
3294	0.00046872
3306	0.00121867
3318	0.000328104
3330	0.000749952
3342	0.00070308
3354	0.00135929
3366	0.00046872
3378	0.000515592
3390	0.000749952
3402	0.00070308
3414	0.000843696
3426	0.000749952
3438	0.000843696
3450	0.000374976
3462	0.00126554
3474	0.0011718
3486	0.0011718
3498	0.00107806
3510	0.00107806
3522	0.000515592
3534	0.00131242
3546	0.000609336
3558	0.00126554
3570	0.000656208
3582	0.00140616
3594	0.0014999
3606	0.00070308
3618	0.00107806
3630	0.00070308
3642	0.00178114
3654	0.000796824
3666	0.00145303
3678	0.000515592
3690	0.00154678
3702	0.00154678
3714	0.000749952
3726	0.00093744
3738	0.00173426
3750	0.00121867
3762	0.0011718
3774	0.00164052
3786	0.00164052
3798	0.00107806
3810	0.00140616
3822	0.00168739
3834	0.00126554
3846	0.00107806
3858	0.00215611
3870	0.00121867
3882	0.0014999
3894	0.00276545
3906	0.00178114
3918	0.00257796
3930	0.000890568
3942	0.00220298
3954	0.00206237
3966	0.00210924
