Infrared Spectrum: 2,5-Dimethylanisole
Formula: C 9 H 12 O
CAS: 1706-11-2
Origin: Sadtler Research Labs Under US-EPA Contract
1/CM	ABSORBANCE
450	0.0630372
462	0.0293475
474	0.0162459
486	0.00920852
498	0.00763633
510	0.0133261
522	0.013401
534	0.0231336
546	0.0542778
558	0.0325667
570	0.0209625
582	0.0372084
594	0.0263528
606	0.0150481
618	0.00905879
630	0.00554008
642	0.00681281
654	0.00471656
666	0.000224598
678	0.00359357
690	0.00456683
702	0.00965771
714	0.0317432
726	0.0162459
738	0.00943312
750	0.012877
762	0.0181176
774	0.0199892
786	0.0506094
798	0.195775
810	0.143219
822	0.0410266
834	0.0386309
846	0.0637858
858	0.0403528
870	0.0188662
882	0.0125026
894	0.0149732
906	0.0266523
918	0.0586201
930	0.0473902
942	0.0184919
954	0.0178181
966	0.0288234
978	0.0565238
990	0.0850478
1002	0.0616896
1014	0.0464169
1026	0.0828018
1038	0.229764
1050	0.341614
1062	0.182523
1074	0.0470158
1086	0.0313689
1098	0.0311443
1110	0.0512083
1122	0.204085
1134	0.410191
1146	0.352843
1158	0.334576
1170	0.137903
1182	0.0669302
1194	0.0699997
1206	0.0592939
1218	0.0467912
1230	0.0635612
1242	0.181176
1254	0.450768
1266	0.74866
1278	0.561046
1290	0.28202
1302	0.17032
1314	0.103465
1326	0.034064
1338	0.0180427
1350	0.0170694
1362	0.0159465
1374	0.0338394
1386	0.0597431
1398	0.111625
1410	0.282993
1422	0.261956
1434	0.131689
1446	0.10908
1458	0.204833
1470	0.317058
1482	0.205058
1494	0.15108
1506	0.482062
1518	0.506918
1530	0.125176
1542	0.0616896
1554	0.0641602
1566	0.0818285
1578	0.151679
1590	0.232085
1602	0.161636
1614	0.200641
1626	0.161112
1638	0.0281496
1650	0.0140748
1662	0.0137005
1674	0.0119037
1686	0.0109304
1698	0.00673794
1710	0.0074866
1722	0.00673794
1734	0.00606415
1746	0.00539035
1758	0.00389303
1770	0.00359357
1782	0.00441709
1794	0.0032941
1806	0.0041925
1818	0.00344384
1830	0.00359357
1842	0.00658821
1854	0.011754
1866	0.0170694
1878	0.0116042
1890	0.00209625
1902	0.00127272
1914	0.000823526
1926	0.000673794
1938	0.00127272
1950	0.00291977
1962	0.00568982
1974	0.00591441
1986	0.00449196
1998	0.0032941
2010	0.0037433
2022	0.00509089
2034	0.00613901
2046	0.00546522
2058	0.00524062
2070	0.00628874
2082	0.00733687
2094	0.00860959
2106	0.00636361
2118	0.00277004
2130	0.00254544
2142	0.00359357
2154	0.0037433
2166	0.00546522
2178	0.00756147
2190	0.00756147
2202	0.00568982
2214	0.00381817
2226	0.00142245
2238	0.000973258
2250	0.000299464
2262	0.000823526
2274	0.00149732
2286	0.00157219
2298	0.00224598
2310	0.00187165
2322	0.00187165
2334	0.00306951
2346	0.00306951
2358	0.00187165
2370	0.00239571
2382	0.00299464
2394	0.00344384
2406	0.00464169
2418	0.00539035
2430	0.00524062
2442	0.00486629
2454	0.00389303
2466	0.00359357
2478	0.0039679
2490	0.00306951
2502	0.00291977
2514	0.00344384
2526	0.00471656
2538	0.00681281
2550	0.00763633
2562	0.007262
2574	0.00711227
2586	0.00613901
2598	0.00524062
2610	0.00501602
2622	0.00359357
2634	0.00389303
2646	0.00434223
2658	0.00546522
2670	0.00479142
2682	0.00456683
2694	0.00486629
2706	0.00531549
2718	0.00658821
2730	0.0109304
2742	0.0205133
2754	0.0142994
2766	0.00845986
2778	0.00988231
2790	0.0128021
2802	0.0193154
2814	0.0315186
2826	0.0658821
2838	0.143743
2850	0.160513
2862	0.164481
2874	0.219283
2886	0.196149
2898	0.180427
2910	0.232085
2922	0.343934
2934	0.492094
2946	0.479517
2958	0.396565
2970	0.244512
2982	0.191732
2994	0.242341
3006	0.333154
3018	0.229165
3030	0.207229
3042	0.183946
3054	0.186641
3066	0.146812
3078	0.0711227
3090	0.0452191
3102	0.0356362
3114	0.0238823
3126	0.0199892
3138	0.0169197
3150	0.010032
3162	0.00643848
3174	0.00464169
3186	0.00441709
3198	0.00389303
3210	0.00411763
3222	0.00291977
3234	0.00254544
3246	0.00277004
3258	0.00277004
3270	0.00299464
3282	0.00321924
3294	0.00232085
3306	0.00187165
3318	0.00194652
3330	0.00247058
3342	0.00172192
3354	0.00269518
3366	0.00306951
3378	0.00209625
3390	0.00284491
3402	0.00239571
3414	0.00217111
3426	0.00209625
3438	0.00209625
3450	0.00217111
3462	0.00134759
3474	0.00239571
3486	0.00277004
3498	0.00232085
3510	0.00194652
3522	0.00164705
3534	0.00224598
3546	0.00157219
3558	0.00157219
3570	0.000598928
3582	0.00142245
3594	0.00142245
3606	0.00157219
3618	0.00149732
3630	0.00112299
3642	0.00142245
3654	0.00187165
3666	0.00179678
3678	0.00037433
3690	0.00112299
3702	0.00074866
3714	0.000898392
3726	0.00104812
3738	0.00224598
3750	0.00299464
3762	0.00157219
3774	0.00164705
3786	0.00209625
3798	0.00074866
3810	0.00187165
3822	0.00119786
3834	0.00209625
3846	0.00164705
3858	0.00149732
3870	0.00217111
3882	0.00232085
3894	0.00224598
3906	0.00202138
3918	0.00112299
3930	0.00164705
3942	0.00127272
3954	0.00247058
3966	0.00277004
