Infrared Spectrum: Benzoyl chloride, 3-fluoro-
Formula: C 7 H 4 Cl F O
CAS: 1711-07-5
Origin: Sadtler Research Labs Under US-EPA Contract
1/CM	ABSORBANCE
450	0.0450959
462	0.0228585
474	0.0253431
486	0.0180135
498	0.024722
510	0.0518043
522	0.053792
534	0.0204981
546	0.00621155
558	0.0126716
570	0.000248462
582	0.00757809
594	0.0126716
606	0.00298154
618	0.0120504
630	0.0191316
642	0.0157773
654	0.0578916
666	0.262997
678	0.253183
690	0.137027
702	0.258028
714	0.0806259
726	0.0237281
738	0.0310578
750	0.0587613
762	0.0601278
774	0.111187
786	0.759424
798	0.970989
810	0.330206
822	0.55407
834	0.316665
846	0.0747871
858	0.0409962
870	0.0455928
882	0.096279
894	0.136903
906	0.0761536
918	0.0519286
930	0.0624882
942	0.148953
954	0.237405
966	0.147711
978	0.166594
990	0.11069
1002	0.0562766
1014	0.0452201
1026	0.0617428
1038	0.0567736
1050	0.0523013
1062	0.0403751
1074	0.0285731
1086	0.0233554
1098	0.0207466
1110	0.0388843
1122	0.12038
1134	0.467605
1146	0.592955
1158	0.152556
1170	0.163612
1182	0.0414932
1194	0.0284489
1206	0.0284489
1218	0.0406235
1230	0.0683271
1242	0.306478
1254	1.20305
1266	0.651219
1278	0.211814
1290	0.0690724
1302	0.0670847
1314	0.0598793
1326	0.0503136
1338	0.0387601
1350	0.0197527
1362	0.0187589
1374	0.0142866
1386	0.011305
1398	0.0218647
1410	0.0244735
1422	0.0597551
1434	0.285731
1446	0.318404
1458	0.0891979
1470	0.0787625
1482	0.26896
1494	0.222373
1506	0.0529224
1518	0.0329212
1530	0.0236039
1542	0.0171439
1554	0.014535
1566	0.0284489
1578	0.105721
1590	0.323249
1602	0.312689
1614	0.111932
1626	0.0351574
1638	0.0206223
1650	0.0197527
1662	0.0149077
1674	0.0156531
1686	0.0181377
1698	0.0254674
1710	0.0280762
1722	0.0438535
1734	0.0727994
1746	0.174172
1758	0.48947
1770	0.575314
1782	0.725385
1794	0.853591
1806	0.298651
1818	0.101124
1830	0.0668363
1842	0.0264612
1854	0.00646001
1866	0.00782655
1878	0.0149077
1890	0.0134169
1902	0.00732963
1914	0.00931733
1926	0.0121746
1938	0.0154046
1950	0.0156531
1962	0.00844771
1974	0.00273308
1986	0.000745386
1998	0.000372693
2010	0.000496924
2022	0.000869617
2034	0.00136654
2046	0.00310578
2058	0.00323001
2070	0.0052177
2082	0.00583886
2094	0.00571463
2106	0.00459655
2118	0.00397539
2130	0.00248462
2142	0.00149077
2154	0.00173923
2166	0.00173923
2178	0.00136654
2190	0.001615
2202	0.00248462
2214	0.00260885
2226	0.00372693
2238	0.00447232
2250	0.00397539
2262	0.00534193
2274	0.00732963
2286	0.00670847
2298	0.00608732
2310	0.00670847
2322	0.00583886
2334	0.00472078
2346	0.00422385
2358	0.00409962
2370	0.00385116
2382	0.00496924
2394	0.00447232
2406	0.00484501
2418	0.00534193
2430	0.00434809
2442	0.00422385
2454	0.00335424
2466	0.00347847
2478	0.00347847
2490	0.00409962
2502	0.00683271
2514	0.00708117
2526	0.0055904
2538	0.0052177
2550	0.00546616
2562	0.00496924
2574	0.00546616
2586	0.00583886
2598	0.00670847
2610	0.00583886
2622	0.00608732
2634	0.00459655
2646	0.00298154
2658	0.00248462
2670	0.00260885
2682	0.00335424
2694	0.00447232
2706	0.00459655
2718	0.0036027
2730	0.00757809
2742	0.0055904
2754	0.00819925
2766	0.00260885
2778	0.00571463
2790	0.00173923
2802	0.00310578
2814	0.000248462
2826	0.00149077
2838	0.00149077
2850	0.00323001
2862	0.00633578
2874	0.00472078
2886	0.00347847
2898	0.00335424
2910	0.0052177
2922	0.00335424
2934	0.00298154
2946	0.00906886
2958	0.00124231
2970	0.00347847
2982	0.00683271
2994	0.00459655
3006	0.00248462
3018	0.00633578
3030	0.00832348
3042	0.0108081
3054	0.0146593
3066	0.0136654
3078	0.0339151
3090	0.0597551
3102	0.0211193
3114	0.00658424
3126	0.00310578
3138	0.00173923
3150	0.00149077
3162	0.00149077
3174	0.00111808
3186	0.00211193
3198	0.00273308
3210	0.00173923
3222	0.00136654
3234	0.0019877
3246	0.001615
3258	0.00124231
3270	0.00149077
3282	0.00149077
3294	0.00136654
3306	0.001615
3318	0.000869617
3330	0.00136654
3342	0.000993848
3354	0.00111808
3366	0.00149077
3378	0.00236039
3390	0.00173923
3402	0.0019877
3414	0.00186347
3426	0.000496924
3438	0.00211193
3450	0.00186347
3462	0.00236039
3474	0.001615
3486	0.00236039
3498	0.00409962
3510	0.00695694
3522	0.0109323
3534	0.0149077
3546	0.0108081
3558	0.0055904
3570	0.0055904
3582	0.0207466
3594	0.0147835
3606	0.00285731
3618	0.00211193
3630	0.000248462
3642	0.000993848
3654	0.00173923
3666	0.00223616
3678	0.00248462
3690	0.00298154
3702	0.00124231
3714	0.00236039
3726	0.0036027
3738	0.00248462
3750	0.00111808
3762	0.001615
3774	0.00236039
3786	0.00149077
3798	0.000869617
3810	0.001615
3822	0.00273308
3834	0.00335424
3846	0.00323001
3858	0.00248462
3870	0.00285731
3882	0.00248462
3894	0.00124231
3906	0.00285731
3918	0.00260885
3930	0.00149077
3942	0.00186347
3954	0.00335424
3966	0.000496924
