Infrared Spectrum: Benzene, 1-chloro-4-(1-methylethenyl)-
Formula: C 9 H 9 Cl
CAS: 1712-70-5
Origin: Sadtler Research Labs Under US-EPA Contract
1/CM	ABSORBANCE
450	0.00597399
462	0.00108618
474	0.0030413
486	0.021615
498	0.0442618
510	0.0315535
522	0.0276433
534	0.0236244
546	0.0438817
558	0.0184108
570	0.00879806
582	0.0113506
594	0.0448592
606	0.0450765
618	0.00396456
630	0.00798342
642	0.00852651
654	0.00923253
666	0.00461626
678	0.00494212
690	0.00597399
702	0.00635415
714	0.0121652
726	0.0303044
738	0.0470859
750	0.0542004
762	0.145277
774	0.0175418
786	0.00982993
798	0.0191168
810	0.0703845
822	0.227772
834	0.39575
846	0.163199
858	0.0372017
870	0.0374189
882	0.097539
894	0.203659
906	0.164502
918	0.0618036
930	0.0282407
942	0.0230813
954	0.0311191
966	0.0156953
978	0.00863513
990	0.0108618
1002	0.0510505
1014	0.261824
1026	0.0413835
1038	0.0137945
1050	0.0193883
1062	0.0221581
1074	0.0431213
1086	0.157876
1098	0.425077
1110	0.221744
1122	0.227392
1134	0.0240046
1146	0.0135229
1158	0.0152065
1170	0.0218865
1182	0.0197685
1194	0.0122738
1206	0.0151522
1218	0.0313363
1230	0.0318794
1242	0.0379077
1254	0.078042
1266	0.0544176
1278	0.028295
1290	0.0472488
1302	0.0823868
1314	0.058002
1326	0.0185194
1338	0.0225925
1350	0.0310647
1362	0.055721
1374	0.0904788
1386	0.116656
1398	0.0972674
1410	0.0652251
1422	0.0501272
1434	0.0700043
1446	0.0813006
1458	0.100689
1470	0.107749
1482	0.192634
1494	0.54309
1506	0.211208
1518	0.0383965
1530	0.0241132
1542	0.0279691
1554	0.0275347
1566	0.0338888
1578	0.0363327
1590	0.0683207
1602	0.103241
1614	0.0520823
1626	0.0865142
1638	0.108727
1650	0.0683207
1662	0.0334543
1674	0.0224296
1686	0.0233529
1698	0.0530599
1710	0.0740775
1722	0.0319337
1734	0.0222667
1746	0.0185194
1758	0.0176504
1770	0.0288924
1782	0.0193883
1794	0.0307932
1806	0.0307389
1818	0.0118394
1830	0.00879806
1842	0.0072231
1854	0.00668001
1866	0.00939546
1878	0.0127083
1890	0.0244391
1902	0.0232986
1914	0.011079
1926	0.00467057
1938	0.0036387
1950	0.00429041
1962	0.00282407
1974	0.00336716
1986	0.00217236
1998	0.00255252
2010	0.0023896
2022	0.00260683
2034	0.00320423
2046	0.00336716
2058	0.00320423
2070	0.00282407
2082	0.00331285
2094	0.00309561
2106	0.00135772
2118	0.00152065
2130	0.00173789
2142	0.0017922
2154	0.00152065
2166	0.00211805
2178	0.00168358
2190	0.00217236
2202	0.00233529
2214	0.00266114
2226	0.00266114
2238	0.00260683
2250	0.00266114
2262	0.00276976
2274	0.00347578
2286	0.00537659
2298	0.00749464
2310	0.00923253
2322	0.00760326
2334	0.00358439
2346	0.0023896
2358	0.00619123
2370	0
2382	0.000706017
2394	0.00287838
2406	0.00380163
2418	0.00325854
2430	0.00309561
2442	0.0017922
2454	0.00228098
2466	0.00222667
2478	0.00276976
2490	0.00168358
2502	0.00222667
2514	0.00266114
2526	0.00276976
2538	0.00320423
2550	0.00342147
2562	0.00439903
2574	0.00401887
2586	0.00331285
2598	0.00260683
2610	0.0023896
2622	0.000923253
2634	0.00135772
2646	0.000977562
2658	0.0023896
2670	0.00336716
2682	0.00342147
2694	0.00434472
2706	0.00342147
2718	0.00342147
2730	0.00396456
2742	0.00445334
2754	0.00461626
2766	0.00396456
2778	0.00488781
2790	0.00548521
2802	0.00798342
2814	0.00977562
2826	0.0103187
2838	0.011242
2850	0.0173246
2862	0.0282407
2874	0.0392111
2886	0.038668
2898	0.0431213
2910	0.0508332
2922	0.0673432
2934	0.093683
2946	0.0968329
2958	0.0962355
2970	0.0961812
2982	0.219408
2994	0.125237
3006	0.0633243
3018	0.0518651
3030	0.0496927
3042	0.0715793
3054	0.0631071
3066	0.0489867
3078	0.0670173
3090	0.187963
3102	0.150762
3114	0.0394283
3126	0.0130342
3138	0.00836359
3150	0.00689724
3162	0.00532228
3174	0.00472488
3186	0.00320423
3198	0.00266114
3210	0.0024439
3222	0.00233529
3234	0.0024439
3246	0.00206374
3258	0.000814635
3270	0.000923253
3282	0.00141203
3294	0.0024439
3306	0.00255252
3318	0.00228098
3330	0.00168358
3342	0.00353008
3354	0.00287838
3366	0.00456196
3378	0.00168358
3390	0.00271545
3402	0.00260683
3414	0.00331285
3426	0.00401887
3438	0.0030413
3450	0.00369301
3462	0.00353008
3474	0.00152065
3486	0.00450765
3498	0.00342147
3510	0.00331285
3522	0.00401887
3534	0.00255252
3546	0.00260683
3558	0.00548521
3570	0.00396456
3582	0.00320423
3594	0.00439903
3606	0.00532228
3618	0.0036387
3630	0.00537659
3642	0.00825497
3654	0.00488781
3666	0.00673432
3678	0.0048335
3690	0.00494212
3702	0.00668001
3714	0.00624553
3726	0.00640846
3738	0.00559383
3750	0.0048335
3762	0.00391025
3774	0.00347578
3786	0.00434472
3798	0.00575675
3810	0.00510505
3822	0.00510505
3834	0.00624553
3846	0.0066257
3858	0.00673432
3870	0.00586537
3882	0.00499643
3894	0.00467057
3906	0.00418179
3918	0.00396456
3930	0.00505074
3942	0.00608261
3954	0.00505074
3966	0.00461626
