Infrared Spectrum: 2-Acetyl-1-tetralone
Formula: C 12 H 12 O 2
CAS: 17216-08-9
Origin: Sadtler Research Labs Under US-EPA Contract
1/CM	ABSORBANCE
450	0.0155323
462	0.0117164
474	0.0138125
486	0.0202081
498	0.00558948
510	0.00682562
522	0.0114477
534	0.0270875
546	0.0374065
558	0.0304197
570	0.0203694
582	0.0192407
594	0.0219817
606	0.0213368
618	0.00833048
630	0.00988908
642	0.00123613
654	0.00268725
666	0.00193482
678	0.00951287
690	0.00913665
702	0.0173059
714	0.0170372
726	0.0543899
738	0.183915
750	0.094215
762	0.0373528
774	0.0327844
786	0.0390189
798	0.024454
810	0.00908291
822	0.00714809
834	0.0104265
846	0.0353642
858	0.0255289
870	0.018327
882	0.0308496
894	0.0604631
906	0.102868
918	0.0635266
930	0.0519177
942	0.0517027
954	0.0541212
966	0.0493379
978	0.0433185
990	0.0289148
1002	0.0113939
1014	0.0124151
1026	0.0291835
1038	0.0388039
1050	0.00489079
1062	0.00102115
1074	0.0176284
1086	0.0170372
1098	0.0085992
1110	0.024454
1122	0.0250989
1134	0.0178433
1146	0.0505203
1158	0.104265
1170	0.0675575
1182	0.0712659
1194	0.0886793
1206	0.133664
1218	0.145004
1230	0.124312
1242	0.119583
1254	0.133288
1266	0.163492
1278	0.229169
1290	0.284311
1302	0.291943
1314	0.221214
1326	0.20106
1338	0.158494
1350	0.190365
1362	0.202081
1374	0.156344
1386	0.156129
1398	0.189182
1410	0.208907
1422	0.193375
1434	0.190956
1446	0.186656
1458	0.173435
1470	0.143338
1482	0.141994
1494	0.146724
1506	0.153872
1518	0.168921
1530	0.194772
1542	0.236532
1554	0.289739
1566	0.323652
1578	0.296189
1590	0.336927
1602	0.487306
1614	0.521165
1626	0.428831
1638	0.338271
1650	0.241799
1662	0.172468
1674	0.1428
1686	0.202995
1698	0.261684
1710	0.137695
1722	0.123184
1734	0.151023
1746	0.0712121
1758	0.0412224
1770	0.0339131
1782	0.0239165
1794	0.018757
1806	0.0165535
1818	0.0168222
1830	0.0147799
1842	0.0120926
1854	0.0109102
1866	0.0064494
1878	0.00526701
1890	0.00542824
1902	0.00720183
1914	0.00682562
1926	0.0112327
1938	0.0109102
1950	0.00876044
1962	0.0102653
1974	0.00494454
1986	0.00279474
1998	0.00252601
2010	0.00247227
2022	0.00204231
2034	0.00204231
2046	0.00225729
2058	0.00193482
2070	0.00193482
2082	0.00155861
2094	0.00155861
2106	0.00182733
2118	0.00182733
2130	0.00193482
2142	0.00161235
2154	0.00161235
2166	0.00182733
2178	0.00145112
2190	0.00150486
2202	0.00161235
2214	0.00177359
2226	0.0016661
2238	0.00177359
2250	0.00177359
2262	0.00171984
2274	0.00204231
2286	0.0021498
2298	0.00279474
2310	0.00440709
2322	0.00413836
2334	0.00279474
2346	0.00456832
2358	0.00198856
2370	0.00284848
2382	0.00306347
2394	0.00042996
2406	0.000376215
2418	0.00032247
2430	0.00021498
2442	0.00053745
2454	0.00064494
2466	0.00042996
2478	0.000483705
2490	0.00064494
2502	0.00053745
2514	0.00096741
2526	0.00053745
2538	0.000806175
2550	0.00112864
2562	0.00128988
2574	0.0010749
2586	0.000913665
2598	0.00085992
2610	0.00102115
2622	0.0016661
2634	0.00225729
2646	0.00257976
2658	0.00252601
2670	0.00290223
2682	0.00300972
2694	0.00268725
2706	0.00241852
2718	0.00236478
2730	0.00193482
2742	0.00204231
2754	0.00198856
2766	0.00204231
2778	0.00182733
2790	0.00231103
2802	0.00333219
2814	0.00365466
2826	0.00714809
2838	0.0285923
2850	0.0820149
2862	0.0632579
2874	0.0313333
2886	0.0298285
2898	0.0572922
2910	0.0753505
2922	0.0448771
2934	0.0745443
2946	0.148551
2958	0.157795
2970	0.0812087
2982	0.0233253
2994	0.0172521
3006	0.021068
3018	0.0319245
3030	0.051219
3042	0.0539062
3054	0.0533688
3066	0.0747593
3078	0.103137
3090	0.0498754
3102	0.0177896
3114	0.0120926
3126	0.00806175
3138	0.00655689
3150	0.00618068
3162	0.00569697
3174	0.00489079
3186	0.00370841
3198	0.00365466
3210	0.00317096
3222	0.00338594
3234	0.00290223
3246	0.00268725
3258	0.00231103
3270	0.00198856
3282	0.00145112
3294	0.00128988
3306	0.00134362
3318	0.00096741
3330	0.00053745
3342	0.00102115
3354	0.00134362
3366	0.00188108
3378	0.0016661
3390	0.00123613
3402	0.00177359
3414	0.00220354
3426	0.00204231
3438	0.00204231
3450	0.00209605
3462	0.00042996
3474	0.000483705
3486	0.000698685
3498	0.00085992
3510	0.00102115
3522	0.00075243
3534	0.0016661
3546	0.00145112
3558	0.00161235
3570	0.0021498
3582	0.00150486
3594	0.00161235
3606	0.00112864
3618	0.00252601
3630	0.00231103
3642	0.0021498
3654	0.00220354
3666	0.00311721
3678	0.00306347
3690	0.00225729
3702	0.00220354
3714	0.00306347
3726	0.00365466
3738	0.00338594
3750	0.00376215
3762	0.00225729
3774	0.0026335
3786	0.00241852
3798	0.0026335
3810	0.00295598
3822	0.00317096
3834	0.00386964
3846	0.00467581
3858	0.00483705
3870	0.00446083
3882	0.00317096
3894	0.00397713
3906	0.00413836
3918	0.00499828
3930	0.00354717
3942	0.00354717
3954	0.00279474
3966	0.00370841
