Infrared Spectrum: Diethyl 2-(2-cyanoethyl)-malonate
Formula: C 10 H 15 N O 4
CAS: 17216-62-5
Origin: Sadtler Research Labs Under US-EPA Contract
1/CM	ABSORBANCE
450	0
462	0.0142531
474	0.011599
486	0.00471826
498	0.00393188
510	0.00265402
522	0.00442337
534	0.00393188
546	0.00953481
558	0.0117956
570	0.0114025
582	0.00943651
594	0.0118939
606	0.0098297
618	0.0063893
630	0.00432507
642	0.00481655
654	0.00540633
666	0.00786376
678	0.00933822
690	0.0105178
702	0.0098297
714	0.00825695
726	0.00874843
738	0.00933822
750	0.0102229
762	0.0156292
774	0.0197577
786	0.0221168
798	0.0193645
810	0.016219
822	0.0159241
834	0.0174969
846	0.0252623
858	0.0498366
870	0.0593714
882	0.0288993
894	0.0169071
906	0.0150394
918	0.0184798
930	0.0206424
942	0.0175952
954	0.0190696
966	0.0202492
978	0.0203475
990	0.0281129
1002	0.0514093
1014	0.109306
1026	0.195316
1038	0.232767
1050	0.290861
1062	0.179392
1074	0.109896
1086	0.132898
1098	0.1847
1110	0.153737
1122	0.13624
1134	0.218907
1146	0.463864
1158	0.642764
1170	0.570319
1182	0.498661
1194	0.42946
1206	0.413142
1218	0.401445
1230	0.423562
1242	0.495319
1254	0.468484
1266	0.358293
1278	0.273561
1290	0.248691
1302	0.268646
1314	0.306687
1326	0.245841
1338	0.17605
1350	0.149117
1362	0.110977
1374	0.209274
1386	0.108225
1398	0.0708721
1410	0.0545548
1422	0.046986
1434	0.0682181
1446	0.106751
1458	0.0955447
1470	0.0853218
1482	0.0602561
1494	0.0279163
1506	0.0166122
1518	0.0116973
1530	0.0098297
1542	0.00806035
1554	0.00825695
1566	0.00766717
1578	0.00756887
1590	0.00727398
1602	0.00776546
1614	0.00786376
1626	0.00766717
1638	0.00796206
1650	0.00845354
1662	0.0112059
1674	0.014548
1686	0.0217236
1698	0.034404
1710	0.061239
1722	0.104097
1734	0.236404
1746	0.722581
1758	0.977465
1770	0.669992
1782	0.208979
1794	0.0836507
1806	0.046986
1818	0.0294891
1830	0.0191679
1842	0.0138599
1854	0.0106161
1866	0.00894503
1878	0.00923992
1890	0.00865014
1902	0.00796206
1914	0.0065859
1926	0.00570123
1938	0.00520974
1950	0.00501315
1962	0.00471826
1974	0.00432507
1986	0.00422677
1998	0.00471826
2010	0.00530804
2022	0.00560293
2034	0.00560293
2046	0.00520974
2058	0.00481655
2070	0.00501315
2082	0.00501315
2094	0.00501315
2106	0.00461996
2118	0.00432507
2130	0.00363699
2142	0.0033421
2154	0.00294891
2166	0.00265402
2178	0.00255572
2190	0.00255572
2202	0.00294891
2214	0.00294891
2226	0.0031455
2238	0.00481655
2250	0.0102229
2262	0.00835524
2274	0.00491485
2286	0.00461996
2298	0.00619271
2310	0.00835524
2322	0.00865014
2334	0.00688079
2346	0.00697909
2358	0.0066842
2370	0.00501315
2382	0.00629101
2394	0.00373529
2406	0.00383358
2418	0.00422677
2430	0.00373529
2442	0.00383358
2454	0.00344039
2466	0.00363699
2478	0.00344039
2490	0.00353869
2502	0.00304721
2514	0.00285061
2526	0.00285061
2538	0.00304721
2550	0.00294891
2562	0.00285061
2574	0.00245743
2586	0.00255572
2598	0.00304721
2610	0.00344039
2622	0.0032438
2634	0.00285061
2646	0.00285061
2658	0.00275232
2670	0.00285061
2682	0.00265402
2694	0.00304721
2706	0.0033421
2718	0.00353869
2730	0.00442337
2742	0.00471826
2754	0.00511144
2766	0.00589782
2778	0.00707738
2790	0.00717568
2802	0.00796206
2814	0.00923992
2826	0.010911
2838	0.0121888
2850	0.015236
2862	0.0218219
2874	0.0308653
2886	0.0488536
2898	0.0481655
2910	0.0611407
2922	0.0693977
2934	0.0865997
2946	0.149805
2958	0.129064
2970	0.140761
2982	0.221955
2994	0.259504
3006	0.134667
3018	0.0725432
3030	0.0369597
3042	0.0223134
3054	0.0155309
3066	0.0123854
3078	0.0105178
3090	0.00923992
3102	0.00884673
3114	0.00845354
3126	0.00796206
3138	0.00786376
3150	0.00707738
3162	0.0064876
3174	0.0065859
3186	0.0066842
3198	0.00599612
3210	0.00570123
3222	0.00540633
3234	0.00471826
3246	0.00501315
3258	0.00461996
3270	0.00403018
3282	0.0032438
3294	0.00373529
3306	0.00353869
3318	0.00344039
3330	0.00373529
3342	0.00373529
3354	0.0033421
3366	0.00363699
3378	0.00393188
3390	0.00403018
3402	0.00393188
3414	0.00373529
3426	0.00353869
3438	0.00373529
3450	0.00412847
3462	0.00520974
3474	0.00609441
3486	0.0097314
3498	0.0108127
3510	0.00747057
3522	0.00560293
3534	0.00491485
3546	0.00353869
3558	0.00245743
3570	0.00344039
3582	0.00432507
3594	0.00432507
3606	0.0033421
3618	0.00363699
3630	0.00412847
3642	0.00403018
3654	0.00461996
3666	0.00285061
3678	0.00491485
3690	0.00501315
3702	0.00422677
3714	0.00363699
3726	0.00432507
3738	0.00461996
3750	0.00452166
3762	0.00353869
3774	0.00422677
3786	0.00412847
3798	0.0032438
3810	0.0031455
3822	0.00403018
3834	0.00383358
3846	0.00265402
3858	0.0033421
3870	0.00363699
3882	0.00422677
3894	0.0032438
3906	0.0032438
3918	0.00403018
3930	0.00353869
3942	0.00442337
3954	0.00412847
3966	0.00442337
