Infrared Spectrum: Pyridazine, 3-chloro-6-methoxy-
Formula: C 5 H 5 Cl N 2 O
CAS: 1722-10-7
Origin: Sadtler Research Labs Under US-EPA Contract
1/CM	ABSORBANCE
450	0.00267679
462	0.00314916
474	0.00362153
486	0.00771544
498	0.00755798
510	0.00960494
522	0.00913256
534	0.00677069
546	0.0182651
558	0.020627
570	0.00157458
582	0.0018895
594	0.00377899
606	0.00755798
618	0.0199972
630	0.0184226
642	0.0118093
654	0.0437733
666	0.122345
678	0.142342
690	0.0344833
702	0.0152734
714	0.00629832
726	0.00503866
738	0.0059834
750	0.0059834
762	0.0121243
774	0.0116519
786	0.00944748
798	0.0184226
810	0.0363728
822	0.0872317
834	0.153049
846	0.0980963
858	0.0385772
870	0.0143287
882	0.00991985
894	0.00629832
906	0.00614086
918	0.00582595
930	0.00755798
942	0.00771544
954	0.00991985
966	0.0155883
978	0.0296021
990	0.0738478
1002	0.23288
1014	0.407501
1026	0.209892
1038	0.0481821
1050	0.0209419
1062	0.0177928
1074	0.0284999
1086	0.0264529
1098	0.0203121
1110	0.0289723
1122	0.0609362
1134	0.407029
1146	0.415532
1158	0.0845549
1170	0.129116
1182	0.130218
1194	0.0725881
1206	0.0327513
1218	0.0182651
1230	0.0201546
1242	0.0267679
1254	0.0554252
1266	0.130533
1278	0.204695
1290	0.379001
1302	0.34562
1314	0.24469
1326	0.268623
1338	0.0760522
1350	0.0431435
1362	0.0366877
1374	0.111638
1386	0.360264
1398	1.57458
1410	0.921287
1422	0.0776268
1434	0.0629832
1446	0.178557
1458	0.71045
1470	0.722575
1482	0.166433
1494	0.0579445
1506	0.0325938
1518	0.0237762
1530	0.0335386
1542	0.0404667
1554	0.0280275
1566	0.0284999
1578	0.102663
1590	0.194618
1602	0.0735329
1614	0.0229889
1626	0.0127541
1638	0.00803036
1650	0.00629832
1662	0.0148011
1674	0.0135414
1686	0.0129116
1698	0.0174778
1710	0.035743
1722	0.0401518
1734	0.0233038
1746	0.0141712
1758	0.00897511
1770	0.00314916
1782	0.00472374
1794	0.00566849
1806	0.00661324
1818	0.0059834
1830	0.00472374
1842	0.00377899
1854	0.00472374
1866	0.00204695
1878	0.00283424
1890	0.00173204
1902	0.00314916
1914	0.00503866
1926	0.00944748
1938	0.0125966
1950	0.011337
1962	0.00929002
1974	0.00850273
1986	0.00708561
1998	0.0078729
2010	0.0102348
2022	0.00929002
2034	0.00519611
2046	0.0029917
2058	0.00346408
2070	0.00472374
2082	0.00614086
2094	0.00645578
2106	0.00645578
2118	0.00551103
2130	0.00645578
2142	0.00472374
2154	0.00346408
2166	0.00330662
2178	0.00283424
2190	0.00330662
2202	0.0059834
2214	0.00566849
2226	0.00267679
2238	0.0018895
2250	0.0018895
2262	0.00393645
2274	0.00519611
2286	0.00330662
2298	0.00362153
2310	0.00346408
2322	0.00346408
2334	0.00283424
2346	0.00566849
2358	0.00472374
2370	0.00330662
2382	0.00409391
2394	0.00220441
2406	0.00125966
2418	0.000157458
2430	0
2442	0.000472374
2454	0.00125966
2466	0.00204695
2478	0.00204695
2490	0.00078729
2502	0.000472374
2514	0.00110221
2526	0.0018895
2538	0.00314916
2550	0.00362153
2562	0.00566849
2574	0.00850273
2586	0.00866019
2598	0.00803036
2610	0.00818782
2622	0.00629832
2634	0.00456628
2646	0.00472374
2658	0.00314916
2670	0.00267679
2682	0.00267679
2694	0.00267679
2706	0.00377899
2718	0.0059834
2730	0.00535357
2742	0.00362153
2754	0.00283424
2766	0.00251933
2778	0.00236187
2790	0.00330662
2802	0.00503866
2814	0.00472374
2826	0.00708561
2838	0.0111795
2850	0.0166905
2862	0.0162182
2874	0.0267679
2886	0.0417264
2898	0.0343258
2910	0.0322789
2922	0.0207845
2934	0.0179502
2946	0.0341684
2958	0.126754
2970	0.127384
2982	0.0503866
2994	0.0500716
3006	0.0461352
3018	0.0486545
3030	0.0555827
3042	0.0233038
3054	0.0119668
3066	0.0105497
3078	0.0121243
3090	0.00929002
3102	0.00692815
3114	0.0059834
3126	0.00519611
3138	0.00409391
3150	0.00362153
3162	0.00236187
3174	0.00267679
3186	0.00220441
3198	0.00204695
3210	0.0018895
3222	0.00204695
3234	0.00125966
3246	0.00125966
3258	0.00125966
3270	0.00157458
3282	0.00125966
3294	0.00157458
3306	0.00110221
3318	0.00173204
3330	0.00125966
3342	0.0018895
3354	0.000944748
3366	0.00125966
3378	0.0018895
3390	0.00157458
3402	0.00220441
3414	0.00283424
3426	0.0048812
3438	0.00566849
3450	0.0048812
3462	0.00267679
3474	0.00173204
3486	0.00173204
3498	0.00125966
3510	0.00125966
3522	0.000944748
3534	0.00173204
3546	0.00157458
3558	0.000944748
3570	0.00078729
3582	0.00125966
3594	0.00110221
3606	0.000944748
3618	0.000314916
3630	0.00078729
3642	0.00110221
3654	0.000944748
3666	0.000157458
3678	0.000944748
3690	0.00110221
3702	0.00125966
3714	0.00157458
3726	0.00125966
3738	0.00125966
3750	0.000944748
3762	0.000944748
3774	0.00173204
3786	0.000629832
3798	0.000314916
3810	0.000629832
3822	0.000944748
3834	0.00157458
3846	0.00110221
3858	0.000629832
3870	0.00078729
3882	0.00220441
3894	0.0018895
3906	0.00204695
3918	0.00110221
3930	0.00236187
3942	0.00173204
3954	0.00267679
3966	0.00125966
