Infrared Spectrum: 1-Oxa-6-thiacyclopentadecan-15-one
Formula: C 13 H 24 O 2 S
CAS: 1725-16-2
Origin: Sadtler Research Labs Under US-EPA Contract
1/CM	ABSORBANCE
450	0.00691641
462	0
474	0.00975982
486	0.0119116
498	0.00545628
510	0.00668586
522	0.0152161
534	0.013756
546	0.0116042
558	0.0142171
570	0.0111431
582	0.0156003
594	0.0165994
606	0.0184438
618	0.0252833
630	0.00645532
642	0.013756
654	0.0172142
666	0.0126032
678	0.0151393
690	0.0192123
702	0.0255907
714	0.0274351
726	0.0296637
738	0.0272045
750	0.032046
762	0.0235926
774	0.0126801
786	0.0177521
798	0.0264361
810	0.0256676
822	0.0212872
834	0.014755
846	0.0277425
858	0.0308933
870	0.0289721
882	0.0302017
894	0.0305859
906	0.0296637
918	0.0305091
930	0.0328914
942	0.0385013
954	0.0411142
966	0.0396541
978	0.0403457
990	0.0425743
1002	0.0559461
1014	0.0763879
1026	0.0776175
1038	0.103977
1050	0.103977
1062	0.093141
1074	0.105053
1086	0.115735
1098	0.0959844
1110	0.0896059
1122	0.135869
1134	0.193583
1146	0.220864
1158	0.257675
1170	0.270508
1182	0.206032
1194	0.175293
1206	0.181902
1218	0.225475
1230	0.256829
1242	0.253294
1254	0.235004
1266	0.205187
1278	0.159539
1290	0.123112
1302	0.104515
1314	0.0851487
1326	0.0769258
1338	0.107281
1350	0.12511
1362	0.0928336
1374	0.0617097
1386	0.0658596
1398	0.0438808
1410	0.0334293
1422	0.0581747
1434	0.0988278
1446	0.120807
1458	0.13902
1470	0.098213
1482	0.0472621
1494	0.0343515
1506	0.0275119
1518	0.0296637
1530	0.0223631
1542	0.0186743
1554	0.0165994
1566	0.0142171
1578	0.015293
1590	0.0184438
1602	0.0182901
1614	0.0205955
1626	0.0217483
1638	0.0267435
1650	0.0212103
1662	0.0162151
1674	0.0156003
1686	0.021364
1698	0.0271277
1710	0.0534869
1722	0.0892217
1734	0.156157
1746	0.455791
1758	0.608567
1770	0.152699
1782	0.0733139
1794	0.0372718
1806	0.0191354
1818	0.0119884
1830	0.00714696
1842	0.00560998
1854	0.00514888
1866	0.00399615
1878	0.00353505
1890	0.0034582
1902	0.00330451
1914	0.00315081
1926	0.00353505
1938	0.00368875
1950	0.0039193
1962	0.00422669
1974	0.00353505
1986	0.0036119
1998	0.00399615
2010	0.00414985
2022	0.00453409
2034	0.00560998
2046	0.00568683
2058	0.00560998
2070	0.00622477
2082	0.00514888
2094	0.00414985
2106	0.00368875
2118	0.00338136
2130	0.00284341
2142	0.00230547
2154	0.00238232
2166	0.00245917
2178	0.00268971
2190	0.00238232
2202	0.00199807
2214	0.00161383
2226	0.00176753
2238	0.00161383
2250	0.00153698
2262	0.00192122
2274	0.00207492
2286	0.00315081
2298	0.00530258
2310	0.00722381
2322	0.00660901
2334	0.00599422
2346	0.00791545
2358	0.00653216
2370	0.00699326
2382	0.00445724
2394	0.000614792
2406	0.000461094
2418	0.000307396
2430	0.000461094
2442	0.000614792
2454	0.000384245
2466	0.000153698
2478	0.000614792
2490	0.000537943
2502	0.00138328
2514	0.00153698
2526	0.00146013
2538	0.00161383
2550	0.00146013
2562	0.00130643
2574	0.00176753
2586	0.00230547
2598	0.00284341
2610	0.0034582
2622	0.004073
2634	0.00476464
2646	0.00614792
2658	0.00660901
2670	0.00776175
2682	0.00922188
2694	0.00968297
2706	0.00853024
2718	0.00776175
2730	0.0078386
2742	0.00845339
2754	0.00929873
2766	0.00983667
2778	0.0115273
2790	0.0146013
2802	0.0181364
2814	0.0243611
2826	0.0385782
2838	0.0548702
2850	0.107512
2862	0.268434
2874	0.24292
2886	0.146167
2898	0.168222
2910	0.323227
2922	0.558615
2934	0.746819
2946	0.684571
2958	0.479845
2970	0.290028
2982	0.146782
2994	0.0669355
3006	0.0329682
3018	0.0211335
3030	0.0150624
3042	0.0125264
3054	0.0113737
3066	0.00960613
3078	0.00837654
3090	0.0075312
3102	0.00630162
3114	0.00545628
3126	0.00476464
3138	0.00384245
3150	0.00399615
3162	0.0037656
3174	0.0036119
3186	0.00353505
3198	0.00284341
3210	0.00322766
3222	0.00299711
3234	0.00268971
3246	0.00222862
3258	0.00245917
3270	0.00199807
3282	0.00153698
3294	0.00207492
3306	0.00146013
3318	0.00122958
3330	0.000999037
3342	0.00076849
3354	0.00076849
3366	0.00107589
3378	0.000384245
3390	0.000614792
3402	0.000999037
3414	0.000614792
3426	0.000614792
3438	0.00107589
3450	0.000999037
3462	0.00284341
3474	0.00299711
3486	0.00537943
3498	0.00322766
3510	0.00076849
3522	0.000537943
3534	0.000922188
3546	0.00107589
3558	0.00161383
3570	0.00153698
3582	0.000845339
3594	0.00222862
3606	0.00107589
3618	0.00138328
3630	0.00384245
3642	0.00253602
3654	0.00161383
3666	0.000537943
3678	0.00399615
3690	0.000614792
3702	0.00215177
3714	0.00207492
3726	0.00207492
3738	0.00261287
3750	0.00138328
3762	0.000999037
3774	0.000691641
3786	0.000537943
3798	0.000614792
3810	0.00122958
3822	0.00207492
3834	0.00222862
3846	0.00299711
3858	0.00230547
3870	0.00245917
3882	0.00292026
3894	0.00138328
3906	0.00222862
3918	0.00199807
3930	0.00299711
3942	0.00184438
3954	0.00207492
3966	0.00238232
