Infrared Spectrum: Butane, 1,3-diphenyl-, (-)
Formula: C 16 H 18
CAS: 17293-55-9
Origin: Sadtler Research Labs Under US-EPA Contract
1/CM	ABSORBANCE
450	0.00418193
462	0.00882006
474	0.0113292
486	0.0250916
498	0.0288933
510	0.0343678
522	0.052084
534	0.0879725
546	0.0466095
558	0.023799
570	0.0141425
582	0.0153591
594	0.0145987
606	0.00471417
618	0.00205295
630	0.000988455
642	0.00357364
654	0.0164996
666	0.0382456
678	0.0927627
690	0.341169
702	0.654889
714	0.201493
726	0.175109
738	0.213202
750	0.271597
762	0.26004
774	0.0663025
786	0.0322388
798	0.0161955
810	0.00676711
822	0.00402985
834	0.00380175
846	0.00212898
858	0.000228105
870	0.00372572
882	0.00729936
894	0.0136863
906	0.0352042
918	0.0177162
930	0.00714729
942	0.00547452
954	0.00517038
966	0.00669108
978	0.00874403
990	0.0123937
1002	0.0225064
1014	0.0560378
1026	0.125002
1038	0.0633372
1050	0.0288173
1062	0.0335314
1074	0.0367249
1086	0.0379415
1098	0.0294255
1110	0.0244072
1122	0.00980852
1134	0.00395382
1146	0.00471417
1158	0.00866799
1170	0.0131541
1182	0.0160434
1194	0.0113292
1206	0.013002
1218	0.00920023
1230	0.0118615
1242	0.0138384
1254	0.0145227
1266	0.0182484
1278	0.0158913
1290	0.0188567
1302	0.0278288
1314	0.0268404
1326	0.0324669
1338	0.0310983
1350	0.0460012
1362	0.0494228
1374	0.0656942
1386	0.0655422
1398	0.0192369
1410	0.0144467
1422	0.0219741
1434	0.0415151
1446	0.129031
1458	0.193965
1470	0.0853873
1482	0.0762631
1494	0.268632
1506	0.103332
1518	0.0253957
1530	0.0191608
1542	0.0159673
1554	0.00958041
1566	0.0132301
1578	0.0313264
1590	0.07824
1602	0.163095
1614	0.0702563
1626	0.0155111
1638	0.00942834
1650	0.0107209
1662	0.0115573
1674	0.010797
1686	0.0101127
1698	0.0180203
1710	0.0218981
1722	0.0231907
1734	0.02608
1746	0.0174881
1758	0.0116334
1770	0.0117094
1782	0.0168798
1794	0.0415151
1806	0.0209857
1818	0.0106449
1830	0.00646298
1842	0.00836385
1854	0.0150549
1866	0.0237229
1878	0.0221262
1890	0.0120896
1902	0.0060828
1914	0.00729936
1926	0.0168037
1938	0.0342158
1950	0.0308702
1962	0.0133061
1974	0.00319347
1986	0.00235709
1998	0.000988455
2010	0.000684315
2022	0.000684315
2034	0.000988455
2046	0.000532245
2058	0.000684315
2070	0.000684315
2082	0.000532245
2094	0.000228105
2106	0.000380175
2118	0.00045621
2130	0.00060828
2142	0.00015207
2154	0
2166	0.00030414
2178	0.00045621
2190	0.00076035
2202	0.000228105
2214	0.000380175
2226	0.000380175
2238	0.00091242
2250	0.000836385
2262	0.00091242
2274	0.000988455
2286	0.0017488
2298	0.00212898
2310	0.00471417
2322	0.00395382
2334	0.00380175
2346	0.00509435
2358	0.00288933
2370	0.00250915
2382	0.00296537
2394	0.00228105
2406	0.00197691
2418	0.00220501
2430	0.00235709
2442	0.00205295
2454	0.00197691
2466	0.00212898
2478	0.00190088
2490	0.00258519
2502	0.00220501
2514	0.00258519
2526	0.00258519
2538	0.00311743
2550	0.00357364
2562	0.00402985
2574	0.00425796
2586	0.00501831
2598	0.00600676
2610	0.00600676
2622	0.00555055
2634	0.00661504
2646	0.00600676
2658	0.00593073
2670	0.0058547
2682	0.00638694
2694	0.00638694
2706	0.00653901
2718	0.00783161
2730	0.0093523
2742	0.0101887
2754	0.00866799
2766	0.00859196
2778	0.0116334
2790	0.0147508
2802	0.0181724
2814	0.0212898
2826	0.0246353
2838	0.032619
2850	0.0628049
2862	0.154503
2874	0.184613
2886	0.201873
2898	0.169178
2910	0.18659
2922	0.359113
2934	0.488601
2946	0.408156
2958	0.298437
2970	0.51278
2982	0.207423
2994	0.0669108
3006	0.0970967
3018	0.162791
3030	0.453397
3042	0.349533
3054	0.194269
3066	0.384433
3078	0.384661
3090	0.234188
3102	0.130628
3114	0.080369
3126	0.0290454
3138	0.0136103
3150	0.0113292
3162	0.0123177
3174	0.00980852
3186	0.00714729
3198	0.00577866
3210	0.00471417
3222	0.00334554
3234	0.0030414
3246	0.00235709
3258	0.00220501
3270	0.00228105
3282	0.00250915
3294	0.00129259
3306	0.00144466
3318	0.00136863
3330	0.00091242
3342	0.00030414
3354	0.000380175
3366	0.000532245
3378	0.00129259
3390	0.0017488
3402	0.00136863
3414	0.00144466
3426	0.0017488
3438	0.00190088
3450	0.00136863
3462	0.000836385
3474	0.00159673
3486	0.000988455
3498	0.0017488
3510	0.00136863
3522	0.00144466
3534	0.000988455
3546	0.00159673
3558	0.000532245
3570	0.000988455
3582	0.0015207
3594	0.00220501
3606	0.000532245
3618	0.00205295
3630	0.00258519
3642	0.0032695
3654	0.00441003
3666	0.00190088
3678	0.0017488
3690	0.00144466
3702	0.00205295
3714	0.00114053
3726	0.00129259
3738	0.00136863
3750	0.00060828
3762	0.00121656
3774	0.00045621
3786	0.000988455
3798	0.00228105
3810	0.00190088
3822	0.00182484
3834	0.00220501
3846	0.00144466
3858	0.0030414
3870	0.00091242
3882	0.00182484
3894	0.000684315
3906	0.00197691
3918	0.00220501
3930	0.0032695
3942	0.00129259
3954	0.00167277
3966	0.00167277
