Infrared Spectrum: Methyl 2,3-dibromopropionate
Formula: C 4 H 6 Br 2 O 2
CAS: 1729-67-5
Origin: Sadtler Research Labs Under US-EPA Contract
1/CM	ABSORBANCE
450	0.0128127
462	0.0347522
474	0.0554631
486	0.0305398
498	0.0208864
510	0.0179026
522	0.0226416
534	0.0282581
546	0.043879
558	0.0640633
570	0.122159
582	0.226416
594	0.121633
606	0.0861784
618	0.148136
630	0.12602
642	0.105661
654	0.0472138
666	0.0517772
678	0.065994
690	0.0324705
702	0.0175516
714	0.0154454
726	0.0157964
738	0.0208864
750	0.016674
762	0.0215885
774	0.0136902
786	0.0231681
798	0.0277315
810	0.0252743
822	0.0473893
834	0.141992
846	0.0705574
858	0.0184292
870	0.0215885
882	0.0310663
894	0.0480914
906	0.0347522
918	0.0187802
930	0.0184292
942	0.0252743
954	0.0233436
966	0.0528303
978	0.16323
990	0.164458
1002	0.0923214
1014	0.155507
1026	0.119175
1038	0.0526548
1050	0.0793332
1062	0.15972
1074	0.101273
1086	0.059851
1098	0.0586223
1110	0.0837211
1122	0.136376
1134	0.330672
1146	0.795965
1158	0.731551
1170	0.382098
1182	0.258009
1194	0.335938
1206	0.658361
1218	0.572007
1230	0.353138
1242	0.548839
1254	0.866874
1266	0.678896
1278	0.617816
1290	0.26187
1302	0.157789
1314	0.153225
1326	0.198684
1338	0.261168
1350	0.353314
1362	0.374551
1374	0.154805
1386	0.065643
1398	0.043879
1410	0.0454586
1422	0.0863539
1434	0.245547
1446	0.346995
1458	0.113032
1470	0.0738922
1482	0.0437035
1494	0.032646
1506	0.0289601
1518	0.022466
1530	0.0222905
1542	0.0200088
1554	0.0215885
1566	0.0208864
1578	0.0240457
1590	0.0212374
1602	0.0177271
1614	0.0191312
1626	0.0161475
1638	0.0119351
1650	0.0114085
1662	0.0110575
1674	0.0128127
1686	0.0186047
1698	0.0242212
1710	0.032997
1722	0.0705574
1734	0.124265
1746	0.217464
1758	0.758405
1770	1.75516
1782	0.611498
1794	0.130233
1806	0.0851253
1818	0.0477404
1830	0.0243967
1842	0.0201843
1854	0.0168495
1866	0.00895132
1878	0.00947786
1890	0.00965338
1902	0.0103554
1914	0.00895132
1926	0.00666961
1938	0.00579203
1950	0.00824925
1962	0.0103554
1974	0.0110575
1986	0.0103554
1998	0.00684512
2010	0.00649409
2022	0.00789822
2034	0.0101799
2046	0.010882
2058	0.0087758
2070	0.00860028
2082	0.010531
2094	0.0098289
2106	0.0087758
2118	0.00737167
2130	0.00649409
2142	0.005441
2154	0.005441
2166	0.0043879
2178	0.00456342
2190	0.00526548
2202	0.00263274
2214	0.00175516
2226	0.00175516
2238	0.00087758
2250	0.000702064
2262	0.00175516
2274	0.00315929
2286	0.0043879
2298	0.00561651
2310	0.00579203
2322	0.00526548
2334	0.00403687
2346	0.00596754
2358	0.00508996
2370	0.00579203
2382	0.00596754
2394	0.00456342
2406	0.00403687
2418	0.00491445
2430	0.00386135
2442	0.0033348
2454	0.00368584
2466	0.00298377
2478	0.00280826
2490	0.0043879
2502	0.00456342
2514	0.00368584
2526	0.00245722
2538	0.00210619
2550	0.00280826
2562	0.0033348
2574	0.00368584
2586	0.0043879
2598	0.00614306
2610	0.00596754
2622	0.00368584
2634	0.00368584
2646	0.00403687
2658	0.00421238
2670	0.0033348
2682	0.00351032
2694	0.0033348
2706	0.0033348
2718	0.00263274
2730	0.00245722
2742	0.00210619
2754	0.00280826
2766	0.00245722
2778	0.00315929
2790	0.00280826
2802	0.00315929
2814	0.00456342
2826	0.00596754
2838	0.0115841
2850	0.038789
2862	0.0426504
2874	0.0147433
2886	0.0157964
2898	0.0252743
2910	0.0344011
2922	0.0352787
2934	0.0293112
2946	0.0426504
2958	0.186047
2970	0.273805
2982	0.065292
2994	0.0719616
3006	0.0824925
3018	0.071084
3030	0.0526548
3042	0.0584468
3054	0.0356297
3066	0.021413
3078	0.0172006
3090	0.0156209
3102	0.0145678
3114	0.0133392
3126	0.0115841
3138	0.00824925
3150	0.00614306
3162	0.00491445
3174	0.005441
3186	0.00473893
3198	0.00508996
3210	0.00421238
3222	0.00473893
3234	0.00315929
3246	0.00351032
3258	0.00315929
3270	0.0033348
3282	0.00263274
3294	0.00315929
3306	0.00210619
3318	0.00228171
3330	0.00298377
3342	0.00193068
3354	0.00245722
3366	0.00228171
3378	0.00210619
3390	0.00193068
3402	0.00175516
3414	0.00193068
3426	0.00245722
3438	0.00228171
3450	0.00175516
3462	0.0033348
3474	0.00315929
3486	0.00368584
3498	0.00614306
3510	0.0119351
3522	0.0193068
3534	0.00842477
3546	0.00368584
3558	0.00228171
3570	0.00421238
3582	0.00403687
3594	0.00263274
3606	0.00245722
3618	0.00228171
3630	0.00228171
3642	0.00245722
3654	0.00263274
3666	0.00386135
3678	0.00263274
3690	0.00157964
3702	0.00210619
3714	0.00175516
3726	0.0010531
3738	0.00298377
3750	0.00386135
3762	0.00210619
3774	0.00298377
3786	0.00263274
3798	0.00245722
3810	0.00403687
3822	0.00140413
3834	0.00263274
3846	0.0043879
3858	0.00263274
3870	0.00175516
3882	0.00526548
3894	0.0033348
3906	0.00315929
3918	0.00614306
3930	0.005441
3942	0.000702064
3954	0.00351032
3966	0.00386135
