Infrared Spectrum: Hexane, 1,3,5-triphenyl-,
Formula: C 24 H 26
CAS: 17293-57-1
Origin: Sadtler Research Labs Under US-EPA Contract
1/CM	ABSORBANCE
450	0.00424109
462	0.0109146
474	0.0208312
486	0.029064
498	0.0241368
510	0.0387935
522	0.0513921
534	0.0730341
546	0.0901856
558	0.0439701
570	0.020956
582	0.0217668
594	0.0163407
606	0.0144696
618	0.0149062
630	0.00835745
642	0.0132846
654	0.0248852
666	0.0469639
678	0.0863187
690	0.226212
702	0.497268
714	0.107399
726	0.102597
738	0.171265
750	0.198895
762	0.215797
774	0.0470262
786	0.0182117
798	0.00873166
810	0.00386688
822	0.00237002
834	0.00573795
846	0.00392925
858	0.000873166
870	0.00392925
882	0.00642401
894	0.0170891
906	0.0419743
918	0.0115383
930	0.00374214
942	0.00318082
954	0.00667348
966	0.00767139
978	0.012162
990	0.0178375
1002	0.0239497
1014	0.0394796
1026	0.0864434
1038	0.0339911
1050	0.0208312
1062	0.0298748
1074	0.0341782
1086	0.0265692
1098	0.0143449
1110	0.0138459
1122	0.00311845
1134	6.2369e-05
1146	0.00580032
1158	0.0129728
1170	0.0109146
1182	0.0182741
1194	0.00979193
1206	0.00679822
1218	0.00449057
1230	0.00505189
1242	0.00810797
1254	0.00567558
1266	0.00929298
1278	0.0134717
1290	0.0155299
1302	0.0214549
1314	0.0190225
1326	0.0283779
1338	0.0304984
1350	0.0396667
1362	0.0422862
1374	0.0626185
1386	0.0339911
1398	0.0130351
1410	0.0112264
1422	0.0195839
1434	0.0439078
1446	0.139894
1458	0.145569
1470	0.0457165
1482	0.0657369
1494	0.239622
1506	0.0383569
1518	0.0109146
1530	0.0101661
1542	0.0118501
1554	0.0054261
1566	0.00904351
1578	0.0331179
1590	0.0641153
1602	0.121994
1614	0.0232013
1626	0.00430346
1638	0.00249476
1650	0.00380451
1662	0.00760902
1674	0.00455294
1686	0.00318082
1698	0.00330556
1710	0.00324319
1722	0.0062369
1734	0.0147815
1746	0.0124738
1758	0.00735954
1770	0.00848218
1782	0.0122243
1794	0.0315587
1806	0.018586
1818	0.00997904
1830	0.00461531
1842	0.00648638
1854	0.0147191
1866	0.0242615
1878	0.0215173
1890	0.0113512
1902	0.00636164
1914	0.00760902
1926	0.017401
1938	0.0370472
1950	0.0263197
1962	0.0127233
1974	0.00598742
1986	0.00561321
1998	0.00386688
2010	0.00330556
2022	0.00286897
2034	0.00274424
2046	0.00230765
2058	0.00230765
2070	0.00230765
2082	0.00243239
2094	0.00149686
2106	0.00130975
2118	0.00112264
2130	0.000997904
2142	0.000748428
2154	0.000935535
2166	0.00118501
2178	0.00187107
2190	0.0018087
2202	0.00174633
2214	0.00137212
2226	0.00118501
2238	0.00143449
2250	0.00137212
2262	0.00137212
2274	0.00149686
2286	0.00230765
2298	0.00374214
2310	0.00611216
2322	0.00486478
2334	0.00573795
2346	0.00555084
2358	0.005239
2370	0.00330556
2382	0.00324319
2394	0.00124738
2406	0.00149686
2418	0.000935535
2430	0.000686059
2442	0.000498952
2454	0.000873166
2466	0.00112264
2478	0.00143449
2490	0.00143449
2502	0.0018087
2514	0.00187107
2526	0.00193344
2538	0.00243239
2550	0.00293134
2562	0.00274424
2574	0.00405398
2586	0.00417872
2598	0.00530136
2610	0.00474004
2622	0.00511426
2634	0.00629927
2646	0.005239
2658	0.00498952
2670	0.00498952
2682	0.00505189
2694	0.00530136
2706	0.00561321
2718	0.00642401
2730	0.0072348
2742	0.0070477
2754	0.00673585
2766	0.00829508
2778	0.0109769
2790	0.013347
2802	0.0166525
2814	0.0210807
2826	0.0278789
2838	0.0457788
2850	0.0965472
2862	0.130725
2874	0.123491
2886	0.119312
2898	0.1369
2910	0.195714
2922	0.30249
2934	0.322947
2946	0.223219
2958	0.199581
2970	0.204695
2982	0.0812668
2994	0.0675456
3006	0.0931169
3018	0.170766
3030	0.293259
3042	0.158667
3054	0.148688
3066	0.227584
3078	0.191972
3090	0.12243
3102	0.069978
3114	0.0367353
3126	0.0169644
3138	0.0117877
3150	0.0106651
3162	0.0101038
3174	0.0070477
3186	0.00548847
3198	0.00486478
3210	0.00374214
3222	0.00318082
3234	0.0026195
3246	0.00205818
3258	0.00212055
3270	0.00199581
3282	0.00112264
3294	0.00112264
3306	0.000561321
3318	0.00118501
3330	0.000561321
3342	0.00112264
3354	0.000935535
3366	0.00106027
3378	0.00130975
3390	0.00137212
3402	0.00137212
3414	0.00112264
3426	0.00174633
3438	0.00255713
3450	0.00193344
3462	0.00205818
3474	0.00162159
3486	0.00199581
3498	0.00124738
3510	0.000935535
3522	0.00174633
3534	0.000873166
3546	0.00143449
3558	0.000561321
3570	0.00249476
3582	0.00193344
3594	0.00286897
3606	0.00224528
3618	0.00336793
3630	0.00461531
3642	0.005239
3654	0.0036174
3666	0.00249476
3678	0.00218292
3690	0.00318082
3702	0.00305608
3714	0.00224528
3726	0.00212055
3738	0.00480241
3750	0.00205818
3762	0.00218292
3774	0.00305608
3786	0.00174633
3798	0.00286897
3810	0.00324319
3822	0.00492715
3834	0.0036174
3846	0.00193344
3858	0.00430346
3870	0.0044282
3882	0.0036174
3894	0.00474004
3906	0.00392925
3918	0.00467768
3930	0.00486478
3942	0.00411635
3954	0.00436583
3966	0.00461531
