Infrared Spectrum: Butane, 1,3-diphenyl-, (+)
Formula: C 16 H 18
CAS: 17293-53-7
Origin: Sadtler Research Labs Under US-EPA Contract
1/CM	ABSORBANCE
450	0.0143264
462	0.00821044
474	0.0102212
486	0.0249664
498	0.0323391
510	0.0364443
522	0.0592325
534	0.0979388
546	0.0483411
558	0.0277312
570	0.0154155
582	0.0150804
594	0.0148291
606	0.00494302
618	0.00435656
630	0.0029323
642	0.00594838
654	0.019437
666	0.0410522
678	0.0998658
690	0.368046
702	0.725619
714	0.216488
726	0.190181
738	0.23006
750	0.293062
762	0.284266
774	0.0700401
786	0.0359416
798	0.0198559
810	0.0087969
822	0.00611594
834	0.00410522
846	0.00326742
858	0.00284852
870	0.00469168
882	0.00929958
894	0.0162533
906	0.0399631
918	0.020945
930	0.00955092
942	0.00728886
954	0.00728886
966	0.00971848
978	0.0118968
990	0.0151642
1002	0.026642
1014	0.0644268
1026	0.141504
1038	0.0765749
1050	0.0408009
1062	0.0435656
1074	0.045325
1086	0.0441521
1098	0.0332607
1110	0.026642
1122	0.0108914
1134	0.0067024
1146	0.0079591
1158	0.0108914
1170	0.0144102
1182	0.0165047
1194	0.012567
1206	0.0132372
1218	0.0103049
1230	0.0149966
1242	0.0148291
1254	0.011059
1266	0.0128183
1278	0.0160858
1290	0.0206937
1302	0.0301608
1314	0.0288203
1326	0.036193
1338	0.0349363
1350	0.0506869
1362	0.0532003
1374	0.0726373
1386	0.0745642
1398	0.0242124
1410	0.0176776
1422	0.0256367
1434	0.0472519
1446	0.142929
1458	0.212047
1470	0.0935823
1482	0.0862934
1494	0.297838
1506	0.114527
1518	0.032758
1530	0.0234584
1542	0.0210288
1554	0.0115616
1566	0.0149128
1578	0.0341822
1590	0.0847016
1602	0.175519
1614	0.0744804
1626	0.0168398
1638	0.0111427
1650	0.013321
1662	0.0149128
1674	0.0115616
1686	0.0103887
1698	0.00980226
1710	0.0092158
1722	0.0111427
1734	0.0156669
1746	0.0118968
1758	0.00242962
1770	0.0020945
1782	0.013321
1794	0.0432305
1806	0.0219504
1818	0.0113941
1830	0.00745642
1842	0.0100536
1854	0.0166722
1866	0.0269772
1878	0.025134
1890	0.0139075
1902	0.00720508
1914	0.00896446
1926	0.0195207
1938	0.0382037
1950	0.034266
1962	0.0147453
1974	0.00402144
1986	0.0033512
1998	0.00150804
2010	0.00159182
2022	0.00150804
2034	0.0016756
2046	0.00117292
2058	0.00117292
2070	0.00108914
2082	0.00134048
2094	0.00075402
2106	0.00075402
2118	0.00058646
2130	0.00075402
2142	0.00092158
2154	0.00075402
2166	0.0008378
2178	0.00100536
2190	0.00117292
2202	0.00067024
2214	0.00092158
2226	0.00108914
2238	0.0012567
2250	0.00134048
2262	0.0012567
2274	0.00175938
2286	0.00309986
2298	0.004189
2310	0.0079591
2322	0.00603216
2334	0.00435656
2346	0.00619972
2358	0.00326742
2370	0.00410522
2382	0.0046079
2394	0.00284852
2406	0.00259718
2418	0.00276474
2430	0.0025134
2442	0.00268096
2454	0.00268096
2466	0.00284852
2478	0.00234584
2490	0.0025134
2502	0.00284852
2514	0.00326742
2526	0.0033512
2538	0.00368632
2550	0.004189
2562	0.00485924
2574	0.00527814
2586	0.00603216
2598	0.00686996
2610	0.00737264
2622	0.00661862
2634	0.00737264
2646	0.00678618
2658	0.00653484
2670	0.00636728
2682	0.00678618
2694	0.0067024
2706	0.00645106
2718	0.00636728
2730	0.00854556
2742	0.00988604
2754	0.0092158
2766	0.00971848
2778	0.0123994
2790	0.0156669
2802	0.0185992
2814	0.0221179
2826	0.0276474
2838	0.0378686
2850	0.0745642
2862	0.179541
2874	0.212047
2886	0.230981
2898	0.194202
2910	0.217912
2922	0.414208
2934	0.561577
2946	0.46389
2958	0.336796
2970	0.567777
2982	0.225033
2994	0.0732237
3006	0.106401
3018	0.177865
3030	0.493799
3042	0.375083
3054	0.208528
3066	0.415968
3078	0.411444
3090	0.251508
3102	0.138237
3114	0.0854556
3126	0.0304121
3138	0.0149966
3150	0.0119805
3162	0.0129021
3174	0.0107238
3186	0.00762398
3198	0.00636728
3210	0.00552948
3222	0.00360254
3234	0.00309986
3246	0.0029323
3258	0.00242962
3270	0.00268096
3282	0.00268096
3294	0.00234584
3306	0.0025134
3318	0.00142426
3330	0.00201072
3342	0.0020945
3354	0.00192694
3366	0.00142426
3378	0.00201072
3390	0.00201072
3402	0.00175938
3414	0.0025134
3426	0.00226206
3438	0.00276474
3450	0.0029323
3462	0.00184316
3474	0.00175938
3486	0.0020945
3498	0.00318364
3510	0.00268096
3522	0.0025134
3534	0.0025134
3546	0.00150804
3558	0.00301608
3570	0.00134048
3582	0.0029323
3594	0.0008378
3606	0.00242962
3618	0.00234584
3630	0.0025134
3642	0.00427278
3654	0.0062835
3666	0.00619972
3678	0.00444034
3690	0.00494302
3702	0.0033512
3714	0.00276474
3726	0.00092158
3738	0.00117292
3750	0.00343498
3762	0.0025134
3774	0.00150804
3786	0.00318364
3798	0.00360254
3810	0.00351876
3822	0.00519436
3834	0.00435656
3846	0.00326742
3858	0.0046079
3870	0.0033512
3882	0.00351876
3894	0.00226206
3906	0.00318364
3918	0.00326742
3930	0.00175938
3942	0.00268096
3954	0.00075402
3966	0.00284852
