Infrared Spectrum: Nonanoic acid, methyl ester
Formula: C 10 H 20 O 2
CAS: 1731-84-6
Origin: Sadtler Research Labs Under US-EPA Contract
1/CM	ABSORBANCE
450	0.00433596
462	0.00896098
474	0.0107676
486	0.00917778
498	0.00563675
510	7.2266e-05
522	0.00455276
534	0.00990044
546	0.00563675
558	0.0133692
570	0.0107676
582	0.0124298
594	0.0192228
606	0.0219689
618	0.0198731
630	0.0204513
642	0.016838
654	0.0200177
666	0.0136583
678	0.0194396
690	0.0148868
702	0.0201622
714	0.0278947
726	0.0309298
738	0.0224025
750	0.0285451
762	0.0208849
774	0.0239923
786	0.0247872
798	0.0252931
810	0.0231251
822	0.0281115
834	0.0285451
846	0.0338928
858	0.0310021
870	0.0330256
882	0.0312912
894	0.0244982
906	0.0255822
918	0.0185724
930	0.0148145
942	0.0172716
954	0.0210294
966	0.0234142
978	0.0264494
990	0.0333146
1002	0.0517425
1014	0.0687972
1026	0.0692308
1038	0.0655453
1050	0.0614984
1062	0.0573792
1074	0.0544163
1086	0.0637386
1098	0.090188
1110	0.13138
1122	0.125526
1134	0.128272
1146	0.169319
1158	0.302144
1170	0.392115
1182	0.325125
1194	0.307203
1206	0.31349
1218	0.264421
1230	0.237394
1242	0.24079
1254	0.233419
1266	0.183122
1278	0.135426
1290	0.11671
1302	0.107749
1314	0.100594
1326	0.0950298
1338	0.099149
1350	0.118661
1362	0.132608
1374	0.100594
1386	0.0689418
1398	0.0398908
1410	0.0354826
1422	0.0511643
1434	0.117866
1446	0.151036
1458	0.128128
1470	0.10811
1482	0.0534768
1494	0.0289064
1506	0.0288341
1518	0.0208849
1530	0.017922
1542	0.0251486
1554	0.0184278
1566	0.0166934
1578	0.0179942
1590	0.0118516
1602	0.013586
1614	0.0138028
1626	0.0115626
1638	0.0137305
1650	0.0133692
1662	0.0132969
1674	0.0147423
1686	0.0221134
1698	0.0250763
1710	0.0346154
1722	0.065473
1734	0.143087
1746	0.305107
1758	0.615851
1770	0.466838
1782	0.215353
1794	0.0827446
1806	0.0329533
1818	0.0169825
1830	0.0134415
1842	0.00910552
1854	0.00859965
1866	0.00794926
1878	0.00657621
1890	0.00737113
1902	0.00664847
1914	0.00607034
1926	0.00643167
1938	0.00599808
1950	0.00708207
1962	0.00686527
1974	0.00729887
1986	0.0076602
1998	0.00802153
2010	0.00968364
2022	0.00946685
2034	0.0104786
2046	0.00975591
2058	0.00925005
2070	0.00802153
2082	0.00751566
2094	0.0070098
2106	0.00563675
2118	0.00505862
2130	0.00462502
2142	0.0040469
2154	0.0040469
2166	0.00390236
2178	0.0038301
2190	0.00375783
2202	0.00310744
2214	0.00252931
2226	0.00289064
2238	0.00195118
2250	0.00281837
2262	0.00238478
2274	0.00267384
2286	0.00260158
2298	0.00397463
2310	0.0040469
2322	0.00628714
2334	0.00729887
2346	0.00925005
2358	0.0115626
2370	0.010334
2382	0.00411916
2394	0.00238478
2406	0.00180665
2418	0.00108399
2430	0.00195118
2442	0.00151759
2454	0.00144532
2466	0.00130079
2478	0.00072266
2490	0.00108399
2502	0.000867192
2514	0.00122852
2526	0.00130079
2538	0.000939458
2550	0.00166212
2562	0.00180665
2574	0.00281837
2586	0.0031797
2598	0.00354103
2610	0.00397463
2622	0.00440823
2634	0.00433596
2646	0.00491409
2658	0.00592581
2670	0.00686527
2682	0.00751566
2694	0.00737113
2706	0.00643167
2718	0.00592581
2730	0.00607034
2742	0.00823832
2754	0.00831059
2766	0.00816606
2778	0.00867192
2790	0.0117071
2802	0.0151759
2814	0.0203067
2826	0.0302072
2838	0.0495745
2850	0.113963
2862	0.258351
2874	0.271792
2886	0.204513
2898	0.164911
2910	0.240429
2922	0.44393
2934	0.715289
2946	0.605734
2958	0.482376
2970	0.472042
2982	0.202923
2994	0.105002
3006	0.0784809
3018	0.0577405
3030	0.0510198
3042	0.033965
3054	0.0234142
3066	0.0172716
3078	0.0143809
3090	0.0127911
3102	0.011418
3114	0.00946685
3126	0.00838286
3138	0.0072266
3150	0.00455276
3162	0.00549222
3174	0.00541995
3186	0.00426369
3198	0.00426369
3210	0.00310744
3222	0.00202345
3234	0.00224025
3246	0.00238478
3258	0.00195118
3270	0.00108399
3282	0.00115626
3294	0.00202345
3306	0.000650394
3318	0.000650394
3330	0.00173438
3342	0.00122852
3354	0.00108399
3366	0.00173438
3378	0.00224025
3390	0.00122852
3402	0.00209571
3414	0.00158985
3426	0.00166212
3438	0.00122852
3450	0.00151759
3462	0.00252931
3474	0.00173438
3486	0.00476956
3498	0.00686527
3510	0.00614261
3522	0.00462502
3534	0.00231251
3546	0.00346877
3558	0.00289064
3570	0.00968364
3582	0.0138751
3594	0.00498635
3606	0.00354103
3618	0.00534768
3630	0.00657621
3642	0.00332424
3654	0.00498635
3666	0.0038301
3678	0.00672074
3690	0.00578128
3702	0.00397463
3714	0.00484182
3726	0.00426369
3738	0.00737113
3750	0.00686527
3762	0.00411916
3774	0.00245704
3786	0.00195118
3798	0.00303517
3810	0.00332424
3822	0.00368557
3834	0.00368557
3846	0.00375783
3858	0.00505862
3870	0.00281837
3882	0.00296291
3894	0.00332424
3906	0.00310744
3918	0.00274611
3930	0.00137305
3942	0.00195118
3954	0
3966	0.000216798
