Infrared Spectrum: Dodecanedioic acid, dimethyl ester
Formula: C 14 H 26 O 4
CAS: 1731-79-9
Origin: Sadtler Research Labs Under US-EPA Contract
1/CM	ABSORBANCE
450	0
462	0.004286
474	0.00824509
486	0.010606
498	0.010824
510	0.0105697
522	0.0130396
534	0.0131122
546	0.0123132
558	0.0131849
570	0.0143835
582	0.0156185
594	0.0159454
606	0.0149283
618	0.0146014
630	0.0134028
642	0.0108966
654	0.0101338
666	0.0104971
678	0.00922579
690	0.0104244
702	0.011623
714	0.0152916
726	0.014892
738	0.0126764
750	0.0122042
762	0.0104607
774	0.0103881
786	0.00926211
798	0.00839038
810	0.0102428
822	0.00951636
834	0.00806348
846	0.00839038
858	0.00809981
870	0.00933475
882	0.00918947
894	0.0090805
906	0.00868096
918	0.00889889
930	0.00849935
942	0.00711911
954	0.00715543
966	0.00697382
978	0.00635635
990	0.00748233
1002	0.00806348
1014	0.00730072
1026	0.00697382
1038	0.00958901
1050	0.0131486
1062	0.0144925
1074	0.0180884
1086	0.0220475
1098	0.0269509
1110	0.028767
1122	0.0278953
1134	0.0285854
1146	0.0270599
1158	0.0257886
1170	0.0241905
1182	0.0222291
1194	0.0200497
1206	0.0227739
1218	0.0211757
1230	0.0211757
1242	0.0211394
1254	0.0223017
1266	0.0222291
1278	0.021212
1290	0.0195049
1302	0.018052
1314	0.0156185
1326	0.0149283
1338	0.0165265
1350	0.020413
1362	0.0213937
1374	0.0210668
1386	0.02143
1398	0.0218658
1410	0.0221201
1422	0.0201224
1434	0.0232461
1446	0.032036
1458	0.0463469
1470	0.0297477
1482	0.00966165
1494	0.0069375
1506	0.00606577
1518	0.00533933
1530	0.00490347
1542	0.00523037
1554	0.0057752
1566	0.00548462
1578	0.00639267
1590	0.00635635
1602	0.00682854
1614	0.00751865
1626	0.00770026
1638	0.00922579
1650	0.00955269
1662	0.0120589
1674	0.0155458
1686	0.0221564
1698	0.0356682
1710	0.0704284
1722	0.0844123
1734	0.0511051
1746	0.0463832
1758	0.0504149
1770	0.0463832
1782	0.0342153
1794	0.0197955
1806	0.0123495
1818	0.00788187
1830	0.00599313
1842	0.00570255
1854	0.00515772
1866	0.00508508
1878	0.00457657
1890	0.00468554
1902	0.00472186
1914	0.00486715
1926	0.00457657
1938	0.00486715
1950	0.00486715
1962	0.00490347
1974	0.00486715
1986	0.00490347
1998	0.00533933
2010	0.00504876
2022	0.00504876
2034	0.00519405
2046	0.00519405
2058	0.00530301
2070	0.00533933
2082	0.00515772
2094	0.00541198
2106	0.00541198
2118	0.00526669
2130	0.00548462
2142	0.00559359
2154	0.00570255
2166	0.00581152
2178	0.00617474
2190	0.00595681
2202	0.0061021
2214	0.00588416
2226	0.00602945
2238	0.0057752
2250	0.00599313
2262	0.00624738
2274	0.00653796
2286	0.00682854
2298	0.00813613
2310	0.00915314
2322	0.00784555
2334	0.00646532
2346	0.00777291
2358	0.00780923
2370	0.00773659
2382	0.00806348
2394	0.00632003
2406	0.00657428
2418	0.00592049
2430	0.00552094
2442	0.0051214
2454	0.00472186
2466	0.00475818
2478	0.00450393
2490	0.00406806
2502	0.00421335
2514	0.00435864
2526	0.00424967
2538	0.00435864
2550	0.004286
2562	0.00450393
2574	0.00435864
2586	0.00421335
2598	0.00439496
2610	0.00454025
2622	0.00435864
2634	0.00483083
2646	0.00537566
2658	0.00573888
2670	0.00606577
2682	0.00570255
2694	0.00541198
2706	0.00486715
2718	0.00526669
2730	0.00530301
2742	0.00562991
2754	0.00642899
2766	0.00733704
2778	0.00900786
2790	0.0115504
2802	0.0154732
2814	0.0211031
2826	0.031019
2838	0.053466
2850	0.141983
2862	0.15949
2874	0.0923305
2886	0.0828868
2898	0.118737
2910	0.186513
2922	0.327298
2934	0.327189
2946	0.156148
2958	0.0861921
2970	0.0511051
2982	0.0245174
2994	0.0138024
3006	0.00889889
3018	0.00664693
3030	0.00602945
3042	0.00497611
3054	0.00504876
3066	0.00504876
3078	0.00515772
3090	0.00468554
3102	0.00501244
3114	0.0051214
3126	0.00501244
3138	0.0054483
3150	0.00526669
3162	0.00486715
3174	0.0054483
3186	0.00515772
3198	0.00552094
3210	0.00537566
3222	0.00508508
3234	0.00523037
3246	0.00497611
3258	0.00526669
3270	0.00515772
3282	0.00497611
3294	0.00457657
3306	0.0051214
3318	0.00523037
3330	0.00493979
3342	0.0047945
3354	0.00490347
3366	0.00483083
3378	0.00468554
3390	0.00468554
3402	0.00490347
3414	0.00475818
3426	0.00446761
3438	0.00475818
3450	0.00464922
3462	0.00493979
3474	0.00570255
3486	0.00566623
3498	0.00679221
3510	0.00613842
3522	0.00737337
3534	0.0110056
3546	0.0126401
3558	0.0084267
3570	0.0107876
3582	0.0109692
3594	0.00646532
3606	0.0057752
3618	0.00559359
3630	0.00624738
3642	0.00464922
3654	0.00472186
3666	0.00566623
3678	0.00628371
3690	0.00646532
3702	0.00562991
3714	0.0051214
3726	0.00537566
3738	0.00483083
3750	0.0054483
3762	0.0061021
3774	0.00548462
3786	0.004286
3798	0.00679221
3810	0.00483083
3822	0.00559359
3834	0.00581152
3846	0.00653796
3858	0.00704647
3870	0.0061021
3882	0.00686486
3894	0.00628371
3906	0.00690118
3918	0.00653796
3930	0.00548462
3942	0.00628371
3954	0.00719176
3966	0.00642899
