Infrared Spectrum: Undecanoic acid, methyl ester
Formula: C 12 H 24 O 2
CAS: 1731-86-8
Origin: Sadtler Research Labs Under US-EPA Contract
1/CM	ABSORBANCE
450	0.00158598
462	0.0115718
474	0.00922218
486	0.0177395
498	0.0122767
510	0.00834108
522	0.00569778
534	0.0052866
546	0.00933966
558	0.00023496
570	0.0175045
582	0.00798864
594	0.00980958
606	0.00152724
618	0.0143326
630	0.0109256
642	0.00804738
654	0.00405306
666	0.0061677
678	0.0106907
690	0.0116305
702	0.0103382
714	0.018973
726	0.0197366
738	0.017622
750	0.0116893
762	0.0183856
774	0.0145088
786	0.0145088
798	0.0180332
810	0.0214988
822	0.0252582
834	0.0210289
846	0.0210877
858	0.0217338
870	0.0197954
882	0.0165059
894	0.0107494
906	0.0119242
918	0.0131578
930	0.00951588
942	0.0122767
954	0.0129228
966	0.0135689
978	0.0150962
990	0.0210877
1002	0.0310147
1014	0.0426452
1026	0.0378286
1038	0.0314846
1050	0.0358901
1062	0.0362426
1074	0.0343629
1086	0.0348916
1098	0.0431739
1110	0.0652014
1122	0.0679622
1134	0.0694307
1146	0.104792
1158	0.167409
1170	0.197601
1182	0.182564
1194	0.170875
1206	0.161652
1218	0.141505
1230	0.134397
1242	0.138509
1254	0.126878
1266	0.100504
1278	0.0767732
1290	0.0664937
1302	0.0629105
1314	0.0596211
1326	0.0596211
1338	0.0671986
1350	0.0737187
1362	0.0768907
1374	0.0581526
1386	0.0401782
1398	0.0249058
1410	0.020559
1422	0.0311909
1434	0.0683734
1446	0.0866415
1458	0.0813549
1470	0.072074
1482	0.0368887
1494	0.02191
1506	0.0230261
1518	0.0348328
1530	0.0289588
1542	0.0173283
1554	0.0131578
1566	0.0133927
1578	0.0139801
1590	0.0118067
1602	0.0118067
1614	0.0152137
1626	0.0146263
1638	0.0113368
1650	0.0107494
1662	0.0106319
1674	0.0126291
1686	0.0121592
1698	0.0170346
1710	0.0273728
1722	0.0404719
1734	0.0815311
1746	0.164942
1758	0.337344
1770	0.239307
1782	0.105732
1794	0.0390621
1806	0.0192667
1818	0.0116305
1830	0.0096921
1842	0.00928092
1854	0.008811
1866	0.00933966
1878	0.00740124
1890	0.00751872
1902	0.00922218
1914	0.00798864
1926	0.0067551
1938	0.00775368
1950	0.00857604
1962	0.00863478
1974	0.00751872
1986	0.00839982
1998	0.00945714
2010	0.0091047
2022	0.00916344
2034	0.00892848
2046	0.0102208
2058	0.0100445
2070	0.00816486
2082	0.00875226
2094	0.00869352
2106	0.00722502
2118	0.00687258
2130	0.00669636
2142	0.00681384
2154	0.00693132
2166	0.00599148
2178	0.00593274
2190	0.00693132
2202	0.00663762
2214	0.00593274
2226	0.00605022
2238	0.00605022
2250	0.0064614
2262	0.00493416
2274	0.0064614
2286	0.00657888
2298	0.00358314
2310	0.00046992
2322	0
2334	0.00070488
2346	0.00017622
2358	0.00017622
2370	0.0106907
2382	0.00745998
2394	0.00610896
2406	0.00481668
2418	0.00522786
2430	0.0067551
2442	0.0061677
2454	0.00552156
2466	0.00622644
2478	0.00693132
2490	0.00610896
2502	0.00622644
2514	0.00605022
2526	0.00716628
2538	0.00693132
2550	0.00569778
2562	0.0064614
2574	0.00699006
2586	0.0073425
2598	0.00628518
2610	0.00716628
2622	0.00863478
2634	0.00663762
2646	0.00781242
2658	0.00928092
2670	0.010162
2682	0.0101033
2694	0.00898722
2706	0.0093984
2718	0.00992706
2730	0.00834108
2742	0.00975084
2754	0.0109844
2766	0.0112781
2778	0.0125116
2790	0.0156836
2802	0.0202653
2814	0.0244358
2826	0.0280777
2838	0.0408243
2850	0.0892261
2862	0.224269
2874	0.196427
2886	0.135454
2898	0.119888
2910	0.182916
2922	0.340281
2934	0.5874
2946	0.424808
2958	0.294052
2970	0.266856
2982	0.114778
2994	0.069137
3006	0.0523373
3018	0.0393558
3030	0.0359489
3042	0.0263155
3054	0.0190318
3066	0.0138626
3078	0.0113368
3090	0.0131578
3102	0.011513
3114	0.0079299
3126	0.00699006
3138	0.00769494
3150	0.00681384
3162	0.00516912
3174	0.00481668
3186	0.00628518
3198	0.00563904
3210	0.00446424
3222	0.00387684
3234	0.0055803
3246	0.00516912
3258	0.00358314
3270	0.0038181
3282	0.0055803
3294	0.0038181
3306	0.00240834
3318	0.00334818
3330	0.00516912
3342	0.0049929
3354	0.00287826
3366	0.00276078
3378	0.00552156
3390	0.0044055
3402	0.00270204
3414	0.00375936
3426	0.00516912
3438	0.00417054
3450	0.002937
3462	0.00240834
3474	0.00481668
3486	0.00493416
3498	0.00516912
3510	0.00487542
3522	0.0049929
3534	0.00487542
3546	0.00340692
3558	0.00211464
3570	0.00522786
3582	0.00364188
3594	0.00358314
3606	0.00187968
3618	0.00370062
3630	0.00475794
3642	0.00017622
3654	0.00211464
3666	0.00193842
3678	0.00152724
3690	0.00041118
3702	0.00017622
3714	0.00064614
3726	0.00017622
3738	0.00011748
3750	0.00111606
3762	0.00017622
3774	0.00017622
3786	0.00017622
3798	0.00017622
3810	0.00017622
3822	0.00017622
3834	0.00017622
3846	0.00017622
3858	0.00017622
3870	0.00017622
3882	0.00017622
3894	0.00017622
3906	0.00017622
3918	0.00017622
3930	0.00017622
3942	0.00017622
3954	0.00017622
3966	0.00017622
