Infrared Spectrum: Acetanilide, 2-chloro-4'-nitro-
Formula: C 8 H 7 Cl N 2 O 3
CAS: 17329-87-2
Origin: Sadtler Research Labs Under US-EPA Contract
1/CM	ABSORBANCE
450	0.00182997
462	0.00205871
474	0.00797343
486	0.00362726
498	0.0188879
510	0.010457
522	0.0127117
534	0.0184631
546	0.0130712
558	0.0120909
570	0.0218616
582	0.0119928
594	0.00182997
606	0.0198355
618	0.00856164
630	0.00640489
642	0.0124503
654	0.00627418
666	0.0157508
678	0.0068297
690	0.0299657
702	0.0384947
714	0.0188879
726	0.0111105
738	0.0308154
750	0.0336583
762	0.0193127
774	0.0416318
786	0.0213714
798	0.0143783
810	0.0146397
822	0.0197375
834	0.033495
846	0.0531018
858	0.0601929
870	0.0349655
882	0.0119601
894	0.00718916
906	0.00542455
918	0.00401939
930	0.00666631
942	0.00803879
954	0.0109145
966	0.0046076
978	0.0100648
990	0.00852896
1002	0.0127771
1014	0.0157181
1026	0.0137901
1038	0.00794075
1050	0.00640489
1062	0.014411
1074	0.0145744
1086	0.0185284
1098	0.0283972
1110	0.0509123
1122	0.0290507
1134	0.0218289
1146	0.0200316
1158	0.0234955
1170	0.0390175
1182	0.0548664
1194	0.0314362
1206	0.0354556
1218	0.0518273
1230	0.0548664
1242	0.0906161
1254	0.0701923
1266	0.0458472
1278	0.0311421
1290	0.0472197
1302	0.121268
1314	0.0693754
1326	0.0947662
1338	0.168553
1350	0.251947
1362	0.0881979
1374	0.050945
1386	0.034704
1398	0.0575786
1410	0.0831982
1422	0.03258
1434	0.0286586
1446	0.0266652
1458	0.0287566
1470	0.0424814
1482	0.0629705
1494	0.122216
1506	0.200937
1518	0.316748
1530	0.242307
1542	0.170743
1554	0.195186
1566	0.0779697
1578	0.0542782
1590	0.0767933
1602	0.115549
1614	0.0793749
1626	0.0339198
1638	0.0176461
1650	0.0137901
1662	0.0174827
1674	0.0225151
1686	0.0291488
1698	0.0424487
1710	0.072153
1722	0.137542
1734	0.108033
1746	0.0378738
1758	0.020195
1770	0.014313
1782	0.0123523
1794	0.00970537
1806	0.00689506
1818	0.00529384
1830	0.00522848
1842	0.00467295
1854	0.00450956
1866	0.00434617
1878	0.00503241
1890	0.00486902
1902	0.00565329
1914	0.00526116
1926	0.00526116
1938	0.00437885
1950	0.00401939
1962	0.00339851
1974	0.00300638
1986	0.00336583
1998	0.00307173
2010	0.00274495
2022	0.00281031
2034	0.00294102
2046	0.00290834
2058	0.00323512
2070	0.00294102
2082	0.00313709
2094	0.00264692
2106	0.00284299
2118	0.00284299
2130	0.00248353
2142	0.00251621
2154	0.00261424
2166	0.00300638
2178	0.00261424
2190	0.00277763
2202	0.00225478
2214	0.00271227
2226	0.0029737
2238	0.00313709
2250	0.00365994
2262	0.00660096
2274	0.00823486
2286	0.00660096
2298	0.00663363
2310	0.00666631
2322	0.00529384
2334	0.00382333
2346	0.00666631
2358	0.00464028
2370	0.00441153
2382	0.00307173
2394	0.00117641
2406	0.00098034
2418	0.000947662
2430	0.00114373
2442	0.00156854
2454	0.00218943
2466	0.00176461
2478	0.00101302
2490	0.00114373
2502	0.000555526
2514	0.000588204
2526	0.000294102
2538	0.0010457
2550	0.000882306
2562	0.000555526
2574	0.00124176
2586	0.000686238
2598	0.000457492
2610	0.00117641
2622	0.00130712
2634	0.00127444
2646	0.00127444
2658	0.00101302
2670	0.00147051
2682	0.00150319
2694	0.000882306
2706	0.00284299
2718	0.00209139
2730	0.00205871
2742	0.00186265
2754	0.00281031
2766	0.00150319
2778	0.00323512
2790	0.00150319
2802	0.00284299
2814	0.00111105
2826	0.00176461
2838	0.00160122
2850	0.0016339
2862	0.00248353
2874	0.00173193
2886	0.00196068
2898	0.000947662
2910	0.00202604
2922	0.00147051
2934	0.00120909
2946	0.00274495
2958	0.00238549
2970	0.00294102
2982	0.00277763
2994	0.00215675
3006	0.00032678
3018	0.00166658
3030	0.00238549
3042	0.0032678
3054	0.00261424
3066	0.00254888
3078	0.00522848
3090	0.00264692
3102	0.00182997
3114	0.00189532
3126	0.00215675
3138	0.001928
3150	0.000686238
3162	0.000196068
3174	0.000849628
3186	0.000947662
3198	0.00117641
3210	0.00140515
3222	0.00147051
3234	0.00124176
3246	0.00147051
3258	0.00156854
3270	0.00130712
3282	0.00160122
3294	0.00169926
3306	0.0016339
3318	0.00228746
3330	0.00261424
3342	0.00182997
3354	0.00313709
3366	0.00369261
3378	0.00323512
3390	0.00428082
3402	0.00643757
3414	0.023038
3426	0.0449322
3438	0.0181363
3450	0.00428082
3462	0.00169926
3474	0.00169926
3486	0.00169926
3498	0.00274495
3510	0.00212407
3522	0.00215675
3534	0.00294102
3546	0.00225478
3558	0.00333316
3570	0.00509777
3582	0.00372529
3594	0.00542455
3606	0.00473831
3618	0.00346387
3630	0.00434617
3642	0.0029737
3654	0.00284299
3666	0.00558794
3678	0
3690	0.0032678
3702	0.00506509
3714	0.00307173
3726	0.00271227
3738	0.00235282
3750	0.00588204
3762	0.00316977
3774	0.00421546
3786	0.00225478
3798	0.00601275
3810	0.00346387
3822	0.00349655
3834	0.00248353
3846	0.00745058
3858	0.00349655
3870	0.00352922
3882	0.00803879
3894	0.00542455
3906	0.00336583
3918	0.00539187
3930	0.0068297
3942	0.00820218
3954	0.00415011
3966	0.00735255
