Infrared Spectrum: Nonanedioic acid, dimethyl ester
Formula: C 11 H 20 O 4
CAS: 1732-10-1
Origin: Sadtler Research Labs Under US-EPA Contract
1/CM	ABSORBANCE
450	0.00869481
462	0.0287481
474	0.0269891
486	0.0187466
498	0.0525709
510	0.0291
522	0.0190482
534	0.0158316
546	0.0373927
558	0.0623212
570	0.066945
582	0.0197518
594	0.0307082
606	0.0453839
618	0.063075
630	0.0246772
642	0.0201539
654	0.0194
666	0.022114
678	0.0276424
690	0.0757906
702	0.0295523
714	0.0215611
726	0.0581999
738	0.022516
750	0.0530232
762	0.02523
774	0.0127155
786	0.000100518
798	0.0138715
810	0.025029
822	0.0207067
834	0.0256823
846	0.0299041
858	0.0232197
870	0.0232699
882	0.0229684
894	0.0226165
906	0.0177414
918	0.0167362
930	0.0135197
942	0.013771
954	0.0150274
966	0.0216616
978	0.0297031
990	0.0447305
1002	0.0600092
1014	0.0816709
1026	0.0680004
1038	0.0661911
1050	0.0468414
1062	0.0476455
1074	0.0544305
1086	0.0720714
1098	0.0897626
1110	0.110017
1122	0.146002
1134	0.167564
1146	0.210032
1158	0.288688
1170	0.36674
1182	0.407098
1194	0.457558
1206	0.440771
1218	0.387195
1230	0.301202
1242	0.2523
1254	0.204655
1266	0.147209
1278	0.10866
1290	0.08926
1302	0.0806154
1314	0.07373
1326	0.0682517
1338	0.071016
1350	0.0823745
1362	0.0911196
1374	0.0663419
1386	0.0389507
1398	0.0262855
1410	0.0216114
1422	0.0393025
1434	0.0904662
1446	0.12414
1458	0.0708652
1470	0.0525709
1482	0.0274414
1494	0.0154295
1506	0.0165352
1518	0.0158316
1530	0.0118109
1542	0.016485
1554	0.0114591
1566	0.0104539
1578	0.0119616
1590	0.00593056
1602	0.00884558
1614	0.0089461
1626	0.00537771
1638	0.0052772
1650	0.00789066
1662	0.0041715
1674	0.012414
1686	0.0177917
1698	0.0261849
1710	0.0379958
1722	0.0716693
1734	0.141429
1746	0.271449
1758	0.494197
1770	0.370459
1782	0.199126
1794	0.0806154
1806	0.0346787
1818	0.0172891
1830	0.0134694
1842	0.00889584
1854	0.0072373
1866	0.00829274
1878	0.00693574
1890	0.00743833
1902	0.00618186
1914	0.00552849
1926	0.00693574
1938	0.00728756
1950	0.0078404
1962	0.00874507
1974	0.00879532
1986	0.00839325
1998	0.00864455
2010	0.00859429
2022	0.00934817
2034	0.00949895
2046	0.00929792
2058	0.00944869
2070	0.0091974
2082	0.00839325
2094	0.00758911
2106	0.00648341
2118	0.00638289
2130	0.00593056
2142	0.00643315
2154	0.00638289
2166	0.00663419
2178	0.00653367
2190	0.00653367
2202	0.00648341
2214	0.00638289
2226	0.00789066
2238	0.00728756
2250	0.00683522
2262	0.00673471
2274	0.00648341
2286	0.00547823
2298	0.00407098
2310	0.00256321
2322	0.00211088
2334	0.00442279
2346	0.00789066
2358	0.00552849
2370	0.0182943
2382	0.0116601
2394	0.00779015
2406	0.00794092
2418	0.00738807
2430	0.00678497
2442	0.00678497
2454	0.00653367
2466	0.00663419
2478	0.00663419
2490	0.00743833
2502	0.00763937
2514	0.00748859
2526	0.00708652
2538	0.00708652
2550	0.00748859
2562	0.00748859
2574	0.00914714
2586	0.00904662
2598	0.00959947
2610	0.00949895
2622	0.00980051
2634	0.0100015
2646	0.00969999
2658	0.0100518
2670	0.0105544
2682	0.011258
2694	0.012414
2706	0.0118611
2718	0.0118109
2730	0.0117606
2742	0.0114088
2754	0.0117103
2766	0.0118611
2778	0.0125145
2790	0.0130673
2802	0.0148264
2814	0.0166357
2826	0.0197015
2838	0.0273912
2850	0.049103
2862	0.0826761
2874	0.090818
2886	0.0610647
2898	0.0579989
2910	0.0867973
2922	0.14369
2934	0.212244
2946	0.244962
2958	0.228578
2970	0.144143
2982	0.0811683
2994	0.0636782
3006	0.0570942
3018	0.0494549
3030	0.0457859
3042	0.0371414
3054	0.0340253
3066	0.0253305
3078	0.0215611
3090	0.0188471
3102	0.0178922
3114	0.0158316
3126	0.0147259
3138	0.0138715
3150	0.012615
3162	0.0104036
3174	0.0102528
3186	0.0100015
3198	0.00839325
3210	0.00829274
3222	0.00849377
3234	0.00693574
3246	0.00758911
3258	0.00633263
3270	0.00381968
3282	0.00457357
3294	0.00442279
3306	0.00336735
3318	0.00437253
3330	0.00361865
3342	0.00402072
3354	0.00291502
3366	0.00351813
3378	0.0030658
3390	0.00226166
3402	0.00135699
3414	0.00180932
3426	0.00356839
3438	0.00301554
3450	0.00326684
3462	0.00311606
3474	0.00296528
3486	0.00497564
3498	0.00668445
3510	0.00427201
3522	0.00482486
3534	0.00447305
3546	0.00397046
3558	0.00452331
3570	0.0155803
3582	0.0203549
3594	0.00583004
3606	0.00482486
3618	0.00603108
3630	0.00567927
3642	0.00457357
3654	0.00708652
3666	0.00668445
3678	0.00713678
3690	0.00507616
3702	0.00427201
3714	0.00487512
3726	0.00386994
3738	0.00743833
3750	0.00763937
3762	0.00763937
3774	0.0072373
3786	0.00517668
3798	0.00467409
3810	0.00824248
3822	0.00562901
3834	0.00361865
3846	0.00487512
3858	0.00497564
3870	0.00693574
3882	0.00743833
3894	0.00708652
3906	0.00427201
3918	0.00819222
3930	0.00316632
3942	0.00356839
3954	0.00472435
3966	0.00437253
