Infrared Spectrum: Pyridine, 3-chloro-2,4,5,6-tetrafluoro-
Formula: C 5 Cl F 4 N
CAS: 1735-84-8
Origin: Sadtler Research Labs Under US-EPA Contract
1/CM	ABSORBANCE
450	0.0116097
462	0.0124892
474	0.00993858
486	0.00817954
498	0.00369398
510	0.00140723
522	0.00470543
534	0.0065964
546	0.00373796
558	0.00316627
570	0.0043976
582	0.00699218
594	0.00514519
606	0.00540905
618	0.00672833
630	0.0123573
642	0.00949882
654	0.00589278
666	0.00602471
678	0.00413374
690	0.00365001
702	0.00492531
714	0.00584881
726	0.0064205
738	0.0135446
750	0.0113018
762	0.00351808
774	0.00496929
786	0.00474941
798	0.00501326
810	0.00338615
822	0.00413374
834	0.00417772
846	0.00408977
858	0.00554098
870	0.00672833
882	0.0315748
894	0.132983
906	0.125947
918	0.0108621
930	0.00866327
942	0.00914701
954	0.0117856
966	0.00853134
978	0.00488134
990	0.00589278
1002	0.00633254
1014	0.00734399
1026	0.0067723
1038	0.00901508
1050	0.036588
1062	0.193758
1074	0.12476
1086	0.0248904
1098	0.038435
1110	0.0427007
1122	0.00466146
1134	0.00413374
1146	0.00369398
1158	0.00400182
1170	0.00523314
1182	0.00470543
1194	0.0045735
1206	0.00510122
1218	0.00554098
1230	0.0129289
1242	0.0247145
1254	0.0145121
1266	0.0177663
1278	0.0117416
1290	0.00611266
1302	0.00800363
1314	0.0064205
1326	0.00373796
1338	0.00413374
1350	0.0053211
1362	0.0127091
1374	0.0155235
1386	0.00703616
1398	0.00914701
1410	0.0394904
1422	0.0839062
1434	0.0396224
1446	0.17907
1458	0.324235
1470	0.0375995
1482	0.106598
1494	0.413111
1506	0.301983
1518	0.0631056
1530	0.0158753
1542	0.0149079
1554	0.0153476
1566	0.0264296
1578	0.0314868
1590	0.0179422
1602	0.0387868
1614	0.102156
1626	0.143494
1638	0.0372037
1650	0.0105103
1662	0.00523314
1674	0.00360603
1686	0.00356206
1698	0.00483736
1710	0.00417772
1722	0.00501326
1734	0.0087952
1746	0.00615664
1758	0.00285844
1770	0.00277049
1782	0.00277049
1794	0.00241868
1806	0.00228675
1818	0.0023747
1830	0.00255061
1842	0.00211085
1854	0.00228675
1866	0.00184699
1878	0.00224278
1890	0.00228675
1902	0.00224278
1914	0.00206687
1926	0.00184699
1938	0.00175904
1950	0.00189097
1962	0.00184699
1974	0.00180302
1986	0.00180302
1998	0.00153916
2010	0.00162711
2022	0.00184699
2034	0.00255061
2046	0.00215482
2058	0.00162711
2070	0.00206687
2082	0.00316627
2094	0.0023747
2106	0.00140723
2118	0.00136326
2130	0.00184699
2142	0.0021988
2154	0.00215482
2166	0.0020229
2178	0.00175904
2190	0.0020229
2202	0.00246266
2214	0.00224278
2226	0.00149518
2238	0.0010994
2250	0.00118735
2262	0.00145121
2274	0.00145121
2286	0.00175904
2298	0.00268254
2310	0.00378194
2322	0.0042217
2334	0.00343013
2346	0.0043976
2358	0.00444158
2370	0.00263856
2382	0.00285844
2394	0.00233073
2406	0.00206687
2418	0.00136326
2430	0.0010994
2442	0.0010994
2454	0.0020229
2466	0.00250663
2478	0.00338615
2490	0.00294639
2502	0.00325422
2514	0.00470543
2526	0.00474941
2538	0.00263856
2550	0.00268254
2562	0.00299037
2574	0.00215482
2586	0.00233073
2598	0.00285844
2610	0.00259458
2622	0.00184699
2634	0.00215482
2646	0.00193494
2658	0.00184699
2670	0.00250663
2682	0.00299037
2694	0.00321025
2706	0.0023747
2718	0.00307832
2730	0.00259458
2742	0.00193494
2754	0.00180302
2766	0.00197892
2778	0.00189097
2790	0.0020229
2802	0.00215482
2814	0.00140723
2826	0.0020229
2838	0.00215482
2850	0.00206687
2862	0.0023747
2874	0.00303434
2886	0.00250663
2898	0.00197892
2910	0.00211085
2922	0.00215482
2934	0.00255061
2946	0.00206687
2958	0.00171506
2970	0.0012753
2982	0.00123133
2994	0.00167109
3006	0.00162711
3018	0.00184699
3030	0.00193494
3042	0.00224278
3054	0.00250663
3066	0.00215482
3078	0.00215482
3090	0.00184699
3102	0.00241868
3114	0.00224278
3126	0.00171506
3138	0.00175904
3150	0.00206687
3162	0.00215482
3174	0.00211085
3186	0.00140723
3198	0.00197892
3210	0.0020229
3222	0.00193494
3234	0.00101145
3246	0.00193494
3258	0.00189097
3270	0.00228675
3282	0.00189097
3294	0.00206687
3306	0.00215482
3318	0.0021988
3330	0.0020229
3342	0.00281446
3354	0.00171506
3366	0.00233073
3378	0.00241868
3390	0.00171506
3402	0.00158314
3414	0.00184699
3426	0.00228675
3438	0.00299037
3450	0.00268254
3462	0.00224278
3474	0.00215482
3486	0.0020229
3498	0.00180302
3510	0.00268254
3522	0.0023747
3534	0.00316627
3546	0.00277049
3558	0.00281446
3570	0.00263856
3582	0.0023747
3594	0.0021988
3606	0.00316627
3618	0.00281446
3630	0.0031223
3642	0.00303434
3654	0.00303434
3666	0.00281446
3678	0.00246266
3690	0.00290242
3702	0.00290242
3714	0.00211085
3726	0.00299037
3738	0.00321025
3750	0.00338615
3762	0.0023747
3774	0.00277049
3786	0.0031223
3798	0.00193494
3810	0.00215482
3822	0.00378194
3834	0.00400182
3846	0.00365001
3858	0.00466146
3870	0.00316627
3882	0.00408977
3894	0.00404579
3906	0.00400182
3918	0.00343013
3930	0.00343013
3942	0.00408977
3954	0.00483736
3966	0.00430965
