Infrared Spectrum: 1-Ethynylcyclopentanol
Formula: C 7 H 10 O
CAS: 17356-19-3
Origin: Sadtler Research Labs Under US-EPA Contract
1/CM	ABSORBANCE
450	0.09751
462	0.092342
474	0.0867839
486	0.0737176
498	0.0565558
510	0.0785931
522	0.0869789
534	0.0706948
546	0.0586035
558	0.053533
570	0.053338
582	0.0522654
594	0.0385165
606	0.0948772
618	0.287264
630	0.63518
642	0.492523
654	0.562925
666	0.217057
678	0.0466098
690	0.0128713
702	0.009751
714	0.0108236
726	0.00672819
738	0.00575309
750	0.00234024
762	0.0116037
774	0.0117987
786	0.019892
798	0.0204771
810	0.0299356
822	0.029643
834	0.0293505
846	0.0284729
858	0.0282779
870	0.0395891
882	0.0555807
894	0.0614313
906	0.0641616
918	0.0591886
930	0.0536305
942	0.0789831
954	0.0788856
966	0.0775205
978	0.153383
990	0.329974
1002	0.439478
1014	0.297503
1026	0.163232
1038	0.158746
1050	0.209647
1062	0.277806
1074	0.281316
1086	0.205649
1098	0.128421
1110	0.0785931
1122	0.0623089
1134	0.0638691
1146	0.0845412
1158	0.110089
1170	0.137197
1182	0.145095
1194	0.177566
1206	0.226223
1218	0.213937
1230	0.178248
1242	0.261424
1254	0.275368
1266	0.210719
1278	0.198725
1290	0.219495
1302	0.241435
1314	0.217935
1326	0.165182
1338	0.173665
1350	0.213059
1362	0.188584
1374	0.116329
1386	0.0659168
1398	0.048755
1410	0.0356887
1422	0.0423193
1434	0.0694271
1446	0.0968274
1458	0.0967299
1470	0.0603587
1482	0.0479749
1494	0.0273028
1506	0.0236949
1518	0.00887341
1530	0.00575309
1542	0.0107261
1554	0.0048755
1566	0.00321783
1578	0.00429044
1590	0.00448546
1602	0.0019502
1614	0.00594811
1626	0.00302281
1638	0.00507052
1650	0.00507052
1662	0.00399791
1674	0.00663068
1686	0.0078008
1698	0.00984851
1710	0.00419293
1722	0.00399791
1734	0.0131639
1746	0.0139439
1758	0.0345185
1770	0.0382239
1782	0.0273028
1794	0.00906843
1806	0.00302281
1818	0.0068257
1830	0.00604562
1842	0.00731325
1854	0.00214522
1866	0.00546056
1878	0.00409542
1890	0.00438795
1902	0.00380289
1914	0.00555807
1926	0.00468048
1938	0.00370538
1950	0.00321783
1962	0.00360787
1974	0.00438795
1986	0.00399791
1998	0.00458297
2010	0.00507052
2022	0.00399791
2034	0.00604562
2046	0.00351036
2058	0.00643566
2070	0.00497301
2082	0.00546056
2094	0.00916594
2106	0.00887341
2118	0.014529
2130	0.0102386
2142	0.0078008
2154	0.00604562
2166	0.00507052
2178	0.00819084
2190	0.00643566
2202	0.00965349
2214	0.00536305
2226	0.00916594
2238	0.00643566
2250	0.00867839
2262	0.00945847
2274	0.00633815
2286	0.00819084
2298	0.00546056
2310	0.00331534
2322	0.00048755
2334	0.0019502
2346	0.00156016
2358	0.00029253
2370	0.00887341
2382	0.00614313
2394	0.00516803
2406	0.00263277
2418	0.00663068
2430	0.00565558
2442	0.00331534
2454	0.00516803
2466	0.00341285
2478	0.00477799
2490	0.00380289
2502	0.00438795
2514	0.00331534
2526	0.00555807
2538	0.00653317
2550	0.00507052
2562	0.00828835
2574	0.00458297
2586	0.00858088
2598	0.00702072
2610	0.00711823
2622	0.00770329
2634	0.00555807
2646	0.00702072
2658	0.00672819
2670	0.00731325
2682	0.00702072
2694	0.00867839
2706	0.00702072
2718	0.0068257
2730	0.00828835
2742	0.00653317
2754	0.00926345
2766	0.00916594
2778	0.0110186
2790	0.0133589
2802	0.014529
2814	0.0168692
2826	0.0189169
2838	0.0313982
2850	0.0524604
2862	0.105311
2874	0.195898
2886	0.26903
2898	0.239582
2910	0.203406
2922	0.246603
2934	0.350646
2946	0.524214
2958	0.725669
2970	0.938631
2982	0.889584
2994	0.44211
3006	0.153091
3018	0.0711823
3030	0.0417343
3042	0.0270103
3054	0.0169667
3066	0.0159916
3078	0.0109211
3090	0.0108236
3102	0.00711823
3114	0.00721574
3126	0.00546056
3138	0.00546056
3150	0.0078008
3162	0.00643566
3174	0.00760578
3186	0.00448546
3198	0.00458297
3210	0.00341285
3222	0.00536305
3234	0.00672819
3246	0.00604562
3258	0.00633815
3270	0.0126763
3282	0.0262302
3294	0.0713773
3306	0.156894
3318	0.417733
3330	0.474484
3342	0.209939
3354	0.0398816
3366	0.0189169
3378	0.0078008
3390	0.00653317
3402	0.00809333
3414	0.0029253
3426	0.00770329
3438	0.00497301
3450	0.00653317
3462	0.00711823
3474	0.00750827
3486	0.00858088
3498	0.0104336
3510	0.00809333
3522	0.00633815
3534	0.00516803
3546	0.00594811
3558	0.00604562
3570	0.00711823
3582	0.00448546
3594	0.00409542
3606	0.00906843
3618	0.0218422
3630	0.0996552
3642	0.201943
3654	0.154651
3666	0.0369563
3678	0.0136514
3690	0.00507052
3702	0.0019502
3714	0.00370538
3726	0.00360787
3738	0.00819084
3750	0.00643566
3762	0.00575309
3774	0.00312032
3786	0.00507052
3798	0.00399791
3810	0.00497301
3822	0.00312032
3834	0.00068257
3846	0.00029253
3858	0.00126763
3870	0.00029253
3882	0.00029253
3894	0.00029253
3906	0.00029253
3918	0.00029253
3930	0.00029253
3942	0.00019502
3954	0
3966	0.00029253
