Infrared Spectrum: Benzene, pentafluoro-2-propenyl-
Formula: C 9 H 5 F 5
CAS: 1736-60-3
Origin: Sadtler Research Labs Under US-EPA Contract
1/CM	ABSORBANCE
450	0
462	0.0064479
474	0.00588449
486	0.00732432
498	0.00776252
510	0.00519588
522	0.00569669
534	0.00920235
546	0.0101414
558	0.00851374
570	0.0059471
582	0.00751212
594	0.00732432
606	0.00776252
618	0.0120194
630	0.0134592
642	0.00694871
654	0.00845114
666	0.00901454
678	0.0122072
690	0.0246022
702	0.0171527
714	0.00888934
726	0.00876414
738	0.0138974
750	0.0217851
762	0.0122698
774	0.011143
786	0.0120194
798	0.00882674
810	0.00982836
822	0.0110804
834	0.00964055
846	0.00976576
858	0.0113934
870	0.0130836
882	0.0183421
894	0.0475142
906	0.0564661
918	0.0609734
930	0.0491418
942	0.0236632
954	0.0336793
966	0.110178
978	0.200949
990	0.204455
1002	0.118253
1014	0.0943397
1026	0.0548385
1038	0.0408159
1050	0.02792
1062	0.0270436
1074	0.02792
1086	0.0262924
1098	0.0284209
1110	0.0676091
1122	0.138974
1134	0.0796285
1146	0.0231624
1158	0.012708
1170	0.0120194
1182	0.0131462
1194	0.0154624
1206	0.0232876
1218	0.0310501
1230	0.0174031
1242	0.013334
1254	0.0128332
1266	0.0143982
1278	0.0177787
1290	0.0167771
1302	0.0246022
1314	0.0407533
1326	0.0391256
1338	0.0214095
1350	0.0203453
1362	0.0176535
1374	0.0174657
1386	0.0177161
1398	0.0192185
1410	0.0246648
1422	0.0307371
1434	0.0243518
1446	0.0299859
1458	0.022286
1470	0.0244144
1482	0.0452605
1494	0.22912
1506	0.62601
1518	0.436705
1530	0.24045
1542	0.0313005
1554	0.0262298
1566	0.025416
1578	0.0237258
1590	0.026042
1602	0.023538
1614	0.0234128
1626	0.0232876
1638	0.0314883
1650	0.0502686
1662	0.0399394
1674	0.0147112
1686	0.0115186
1698	0.01083
1710	0.0175283
1722	0.0135844
1734	0.00350566
1746	0.00532109
1758	0.0126454
1770	0.0134592
1782	0.0144608
1794	0.0140226
1806	0.0153998
1818	0.0151494
1830	0.0135844
1842	0.015212
1854	0.0182795
1866	0.0138348
1878	0.0140226
1890	0.0128332
1902	0.0127706
1914	0.0113308
1926	0.011456
1938	0.0113308
1950	0.0108926
1962	0.0110804
1974	0.0109552
1986	0.0107048
1998	0.0100788
2010	0.00989096
2022	0.00945275
2034	0.00920235
2046	0.00913975
2058	0.00926495
2070	0.00851374
2082	0.00801293
2094	0.00788773
2106	0.00726172
2118	0.00694871
2130	0.00682351
2142	0.0059471
2154	0.00563409
2166	0.00494548
2178	0.00419427
2190	0.00419427
2202	0.00363086
2214	0.00356826
2226	0.00413167
2238	0.00431947
2250	0.00394386
2262	0.00381866
2274	0.00400646
2286	0.00363086
2298	0.00394386
2310	0.00463247
2322	0.0060097
2334	0.0060723
2346	0.00563409
2358	0.00657311
2370	0.00682351
2382	0.00500808
2394	0.00563409
2406	0.0065105
2418	0.0062601
2430	0.00669831
2442	0.00657311
2454	0.00550889
2466	0.00538369
2478	0.00450727
2490	0.00438207
2502	0.00438207
2514	0.00419427
2526	0.00444467
2538	0.00438207
2550	0.00438207
2562	0.00431947
2574	0.00381866
2586	0.00438207
2598	0.00425687
2610	0.00513328
2622	0.00588449
2634	0.00757472
2646	0.00732432
2658	0.0065105
2670	0.00550889
2682	0.00450727
2694	0.00450727
2706	0.00475768
2718	0.00469508
2730	0.00525848
2742	0.00532109
2754	0.00482028
2766	0.00500808
2778	0.00563409
2790	0.00563409
2802	0.00519588
2814	0.00482028
2826	0.00475768
2838	0.00557149
2850	0.0062601
2862	0.0061349
2874	0.00563409
2886	0.0060097
2898	0.00507068
2910	0.0060723
2922	0.00732432
2934	0.0117064
2946	0.0153998
2958	0.0106422
2970	0.00788773
2982	0.00876414
2994	0.0149616
3006	0.0110178
3018	0.0118942
3030	0.0131462
3042	0.00757472
3054	0.00738692
3066	0.00870154
3078	0.0120194
3090	0.0190933
3102	0.0189055
3114	0.0064479
3126	0.00663571
3138	0.00538369
3150	0.00538369
3162	0.00507068
3174	0.00525848
3186	0.00507068
3198	0.00494548
3210	0.00450727
3222	0.00482028
3234	0.00563409
3246	0.00482028
3258	0.00431947
3270	0.00519588
3282	0.00494548
3294	0.00413167
3306	0.00475768
3318	0.00538369
3330	0.00400646
3342	0.00469508
3354	0.00563409
3366	0.00438207
3378	0.00525848
3390	0.00463247
3402	0.00475768
3414	0.00557149
3426	0.0061975
3438	0.00494548
3450	0.00525848
3462	0.00563409
3474	0.0063853
3486	0.00482028
3498	0.00732432
3510	0.00525848
3522	0.0063853
3534	0.00525848
3546	0.0060097
3558	0.0059471
3570	0.00582189
3582	0.00500808
3594	0.00563409
3606	0.00550889
3618	0.00569669
3630	0.00569669
3642	0.00669831
3654	0.00569669
3666	0.00538369
3678	0.0061349
3690	0.00676091
3702	0.00507068
3714	0.0060723
3726	0.00394386
3738	0.00425687
3750	0.00413167
3762	0.00494548
3774	0.00544629
3786	0.00550889
3798	0.00413167
3810	0.00475768
3822	0.00682351
3834	0.00732432
3846	0.00494548
3858	0.00500808
3870	0.00989096
3882	0.00488288
3894	0.00582189
3906	0.00732432
3918	0.0107674
3930	0.00982836
3942	0.0100788
3954	0.0060723
3966	0.00588449
