Infrared Spectrum: Benzene, (2-iodoethyl)-
Formula: C 8 H 9 I
CAS: 17376-04-4
Origin: Sadtler Research Labs Under US-EPA Contract
1/CM	ABSORBANCE
450	0.0258725
462	0.0358309
474	0.0905049
486	0.117061
498	0.155821
510	0.158164
522	0.254136
534	0.0257748
546	0.0123993
558	0.0268488
570	0.0048816
582	0.000292896
594	0.0109348
606	0.0468634
618	0.200731
630	0.128679
642	0.0370025
654	0.0362215
666	0.0553573
678	0.12907
690	0.602878
702	0.771
714	0.295239
726	0.261361
738	0.498021
750	0.47166
762	0.162069
774	0.0532094
786	0.0218696
798	0.0201122
810	0.0226506
822	0.0259701
834	0.0172809
846	0.059165
858	0.0394433
870	0.0134732
882	0.0192335
894	0.0283133
906	0.0561384
918	0.0915788
930	0.0399315
942	0.0119111
954	0.00654134
966	0.00556502
978	0.00663898
990	0.0135708
1002	0.0334878
1014	0.0168903
1026	0.106614
1038	0.0812298
1050	0.0166951
1062	0.0426652
1074	0.0479373
1086	0.037686
1098	0.0528189
1110	0.0847446
1122	0.097632
1134	0.0630703
1146	0.0934338
1158	0.279228
1170	0.807612
1182	0.228752
1194	0.083573
1206	0.0631679
1218	0.0482302
1230	0.195459
1242	0.405661
1254	0.149084
1266	0.0484255
1278	0.0333901
1290	0.0504757
1302	0.0662921
1314	0.123895
1326	0.0681471
1338	0.0485231
1350	0.0277275
1362	0.0176714
1374	0.0195264
1386	0.0222601
1398	0.0220648
1410	0.0324138
1422	0.0809369
1434	0.172906
1446	0.198876
1458	0.217036
1470	0.0850375
1482	0.0495971
1494	0.323064
1506	0.163143
1518	0.0269464
1530	0.0274346
1542	0.0280204
1554	0.0168903
1566	0.0193311
1578	0.0335854
1590	0.0598484
1602	0.164022
1614	0.0714666
1626	0.015133
1638	0.0148401
1650	0.0207956
1662	0.0157188
1674	0.0104466
1686	0.00986083
1698	0.01113
1710	0.00624845
1722	0.010349
1734	0.0194288
1746	0.0202098
1758	0.0150353
1770	0.0126922
1782	0.0179643
1794	0.0487184
1806	0.0339759
1818	0.0176714
1830	0.0118135
1842	0.0097632
1854	0.014059
1866	0.0275322
1878	0.0289967
1890	0.0264583
1902	0.00888451
1914	0.0076153
1926	0.017769
1938	0.0398339
1950	0.0390528
1962	0.0380765
1974	0.00566266
1986	0.00693187
1998	0.00478397
2010	0.00312422
2022	0.0024408
2034	0.00136685
2046	0.000683424
2058	0.000292896
2070	0.000683424
2082	0.00126922
2094	0.00136685
2106	0.000292896
2118	0.000195264
2130	0.00048816
2142	0.00205027
2154	0.0024408
2166	0.0027337
2178	0.00361238
2190	0.00292896
2202	0.00175738
2214	0.00175738
2226	0.00185501
2238	0.00205027
2250	0.00234317
2262	0.0021479
2274	0.00253843
2286	0.00429581
2298	0.00781056
2310	0.0127898
2322	0.0152306
2334	0.00986083
2346	0.00849398
2358	0.00712714
2370	0.00654134
2382	0.0070295
2394	0.00439344
2406	0.00341712
2418	0.00312422
2430	0.00224554
2442	0.0021479
2454	0.00126922
2466	0.00107395
2478	0.000878688
2490	0.000292896
2502	0.000195264
2514	0.000683424
2526	0.000585792
2538	0.00097632
2550	0.00146448
2562	0.00156211
2574	0.00234317
2586	0.00478397
2598	0.00829872
2610	0.00927504
2622	0.00478397
2634	0.00585792
2646	0.00576029
2658	0.00410054
2670	0.00380765
2682	0.00224554
2694	0.00126922
2706	0.000781056
2718	0.00126922
2730	0.00185501
2742	0.00331949
2754	0.00634608
2766	0.0094703
2778	0.00888451
2790	0.00995846
2802	0.0105443
2814	0.0125945
2826	0.0231388
2838	0.0542834
2850	0.085428
2862	0.076934
2874	0.0716619
2886	0.0809369
2898	0.122821
2910	0.114034
2922	0.0790819
2934	0.103295
2946	0.185598
2958	0.186477
2970	0.210983
2982	0.179741
2994	0.0681471
3006	0.104466
3018	0.239491
3030	0.470586
3042	0.547813
3054	0.228361
3066	0.326774
3078	0.516083
3090	0.261751
3102	0.186184
3114	0.108079
3126	0.0365144
3138	0.0138637
3150	0.00898214
3162	0.00868925
3174	0.00888451
3186	0.00351475
3198	0.00185501
3210	0.00185501
3222	0.00175738
3234	0.00136685
3246	0.00165974
3258	0.00107395
3270	0.00126922
3282	0.00117158
3294	0.00195264
3306	0.00195264
3318	0.00146448
3330	0.00097632
3342	0.00097632
3354	0.00048816
3366	0.00146448
3378	0.00136685
3390	0.00175738
3402	0.00146448
3414	0.00107395
3426	0.00136685
3438	0.00146448
3450	0.00185501
3462	0.00146448
3474	0.000878688
3486	0.00097632
3498	0.0021479
3510	0.00126922
3522	0.000683424
3534	0.00165974
3546	0.00107395
3558	0.00136685
3570	0.000585792
3582	0.00126922
3594	0.000781056
3606	0.000683424
3618	0.0021479
3630	0.0024408
3642	0.00429581
3654	0.00585792
3666	0.00429581
3678	0.00292896
3690	0.00312422
3702	0.00312422
3714	0.00312422
3726	0.00117158
3738	0.000585792
3750	0.00195264
3762	0.00302659
3774	0.000878688
3786	0.00195264
3798	0.00224554
3810	0.00468634
3822	0.00419818
3834	0.00205027
3846	0.00195264
3858	0.0024408
3870	0.00361238
3882	0.0027337
3894	0.00234317
3906	0.00146448
3918	0.00165974
3930	0.00419818
3942	0.00390528
3954	0.00224554
3966	0.0021479
