Infrared Spectrum: Cyclohexanol, 1-(p-chlorophenyl)-,
Formula: C 12 H 15 Cl O
CAS: 17380-83-5
Origin: Sadtler Research Labs Under US-EPA Contract
1/CM	ABSORBANCE
450	0.00704333
462	0.00919546
474	0.0156518
486	0.0179996
498	0.0191735
510	0.0203474
522	0.0481294
534	0.070042
546	0.0596726
558	0.0272929
570	0.0069455
582	0.00567379
594	0.00381514
606	0.00136954
618	0.000586944
630	0.00264125
642	0.00224995
654	0.00234778
666	0.00518467
678	0.00753245
690	0.00371731
702	0.00645638
714	0.00753245
726	0.0166301
738	0.0536076
750	0.0110541
762	0.0189779
774	0.0141845
786	0.0145758
798	0.0362927
810	0.101639
822	0.181659
834	0.128541
846	0.081683
858	0.0360971
870	0.0101737
882	0.0117389
894	0.0259234
906	0.0353145
918	0.0199561
930	0.0224995
942	0.0253364
954	0.0589879
966	0.126584
978	0.111422
990	0.0404991
1002	0.0575205
1014	0.245245
1026	0.0493033
1038	0.0494011
1050	0.0531184
1062	0.0497924
1074	0.0539988
1086	0.0993892
1098	0.37809
1110	0.101052
1122	0.0737593
1134	0.0669116
1146	0.08002
1158	0.0583031
1170	0.0452925
1182	0.0378579
1194	0.036684
1206	0.0525315
1218	0.0450969
1230	0.0353145
1242	0.0443143
1254	0.0549771
1266	0.055564
1278	0.0470533
1290	0.0436295
1302	0.0483251
1314	0.0492055
1326	0.0470533
1338	0.0569336
1350	0.0820743
1362	0.0787483
1374	0.0494989
1386	0.0401078
1398	0.052238
1410	0.0404991
1422	0.0279777
1434	0.0441186
1446	0.0759114
1458	0.0953784
1470	0.1034
1482	0.125704
1494	0.315776
1506	0.0906828
1518	0.015554
1530	0.0114454
1542	0.0111519
1554	0.00899981
1566	0.00841286
1578	0.0139888
1590	0.0299341
1602	0.0304233
1614	0.012228
1626	0.0113476
1638	0.0136954
1650	0.0143801
1662	0.00704333
1674	0.0044999
1686	0.00743462
1698	0.00821722
1710	0.00723898
1722	0.0077281
1734	0.0104672
1746	0.00841286
1758	0.00851069
1770	0.0116411
1782	0.00919546
1794	0.00371731
1806	0.00293472
1818	0.00234778
1830	0.00234778
1842	0.00264125
1854	0.000684768
1866	0.00342384
1878	0.00557597
1890	0.00909763
1902	0.00968458
1914	0.00557597
1926	0.00322819
1938	0.00176083
1950	0.00136954
1962	0.000586944
1974	0.000586944
1986	0.00048912
1998	0.00048912
2010	0.000391296
2022	9.7824e-05
2034	0.000586944
2046	0.000391296
2058	0.000293472
2070	0.000391296
2082	0.000586944
2094	0.000782592
2106	0.000880416
2118	0.000684768
2130	0.000586944
2142	0.000391296
2154	0.00048912
2166	0.000684768
2178	0.00097824
2190	0.00136954
2202	0.00166301
2214	0.0020543
2226	0.00166301
2238	0.00166301
2250	0.00176083
2262	0.00224995
2274	0.0024456
2286	0.00381514
2298	0.00596726
2310	0.0069455
2322	0.00430426
2334	0.000782592
2346	0.00342384
2358	0.00176083
2370	0.00136954
2382	0.00381514
2394	0.00127171
2406	0.000880416
2418	0.00107606
2430	0.000293472
2442	0.000195648
2454	9.7824e-05
2466	0.000586944
2478	0.00097824
2490	0.00136954
2502	0.00156518
2514	0.00195648
2526	0.00166301
2538	0.00136954
2550	0.00117389
2562	0.00185866
2574	0.00234778
2586	0.00303254
2598	0.00371731
2610	0.00420643
2622	0.00381514
2634	0.00361949
2646	0.00518467
2658	0.00723898
2670	0.00968458
2682	0.00841286
2694	0.00684768
2706	0.00577162
2718	0.00440208
2730	0.00352166
2742	0.00332602
2754	0.00430426
2766	0.00547814
2778	0.00763027
2790	0.0101737
2802	0.0125215
2814	0.0150649
2826	0.0196626
2838	0.0380535
2850	0.107313
2862	0.211104
2874	0.216974
2886	0.124041
2898	0.107704
2910	0.146932
2922	0.275766
2934	0.566792
2946	0.97824
2958	0.347764
2970	0.0672051
2982	0.0255321
2994	0.0179996
3006	0.013891
3018	0.0152605
3030	0.0284668
3042	0.0367818
3054	0.0257277
3066	0.0208365
3078	0.0246516
3090	0.0395209
3102	0.0307167
3114	0.0115432
3126	0.00420643
3138	0.00273907
3150	0.0024456
3162	0.00224995
3174	0.00156518
3186	0.000391296
3198	0.000195648
3210	0.000195648
3222	0.000782592
3234	0.000782592
3246	0.00107606
3258	0.000293472
3270	0.000391296
3282	0.000782592
3294	0.000684768
3306	0.00097824
3318	0.000880416
3330	0.00097824
3342	0.000684768
3354	0.00156518
3366	0.00156518
3378	0.00146736
3390	0.00185866
3402	0.0028369
3414	0.00166301
3426	0.00166301
3438	0.00195648
3450	0.00156518
3462	0.00195648
3474	0.00166301
3486	0.00127171
3498	0.000586944
3510	0.000391296
3522	0.00146736
3534	0.00146736
3546	0.00273907
3558	0.00107606
3570	0.00234778
3582	0.00156518
3594	0.00313037
3606	0.00459773
3618	0.0145758
3630	0.0377601
3642	0.0310102
3654	0.0156518
3666	0.00645638
3678	0.00459773
3690	0.00254342
3702	0.00156518
3714	0.0020543
3726	0.00322819
3738	0.00215213
3750	0.000391296
3762	0.00127171
3774	0.00136954
3786	0.000782592
3798	0.00107606
3810	0.000782592
3822	0.00293472
3834	0.00293472
3846	0.0028369
3858	0.00273907
3870	0.00322819
3882	0.00303254
3894	0.00361949
3906	0.00391296
3918	0.00361949
3930	0.0024456
3942	0.00303254
3954	0.00264125
3966	0.00254342
