Infrared Spectrum: m-Nitropropiophenone
Formula: C 9 H 9 N O 3
CAS: 17408-16-1
Origin: Sadtler Research Labs Under US-EPA Contract
1/CM	ABSORBANCE
450	0.00235178
462	0.00963473
474	0.00151728
486	0.00682776
498	0.00417252
510	0.00493116
522	0.00629671
534	0.00644844
546	0.00978646
558	0.0138072
570	0.0238213
582	0.0296628
594	0.0146418
606	0.00849677
618	0.00895195
630	0.0136555
642	0.0181315
654	0.0249593
666	0.0441528
678	0.0883816
690	0.0989267
702	0.0795813
714	0.101203
726	0.124341
738	0.0960438
750	0.0603119
762	0.0738157
774	0.0516634
786	0.0380837
798	0.0679741
810	0.0639534
822	0.0253386
834	0.010621
846	0.0126693
858	0.0279938
870	0.0660775
882	0.057429
894	0.0202557
906	0.0302697
918	0.0276904
930	0.0348974
942	0.0567463
954	0.077533
966	0.0773054
978	0.0411183
990	0.0248834
1002	0.0447598
1014	0.0609188
1026	0.0430149
1038	0.0198005
1050	0.0188143
1062	0.0386906
1074	0.075333
1086	0.0912644
1098	0.115389
1110	0.106058
1122	0.0532565
1134	0.0289042
1146	0.0241248
1158	0.0336078
1170	0.0425597
1182	0.035125
1194	0.0669879
1206	0.208778
1218	0.387286
1230	0.20066
1242	0.0879264
1254	0.0806434
1266	0.0980163
1278	0.0870919
1290	0.0833745
1302	0.0946024
1314	0.119713
1326	0.128665
1338	0.245875
1350	0.682169
1362	0.47984
1374	0.118424
1386	0.0650913
1398	0.0430149
1410	0.0408148
1422	0.0562152
1434	0.0787468
1446	0.0632706
1458	0.0662293
1470	0.088685
1482	0.0782158
1494	0.0707811
1506	0.0869401
1518	0.0826918
1530	0.145052
1542	0.569739
1554	0.667831
1566	0.165232
1578	0.114024
1590	0.120775
1602	0.111748
1614	0.165384
1626	0.091492
1638	0.0342905
1650	0.0297387
1662	0.0330008
1674	0.0453667
1686	0.0706294
1698	0.189812
1710	0.553731
1722	0.282366
1734	0.0714639
1746	0.0522703
1758	0.0342147
1770	0.0211661
1782	0.0114555
1794	0.00986232
1806	0.00910368
1818	0.00788986
1830	0.00735881
1842	0.00622085
1854	0.00553807
1866	0.0048553
1878	0.00432425
1890	0.00531048
1902	0.00553807
1914	0.00546221
1926	0.00599326
1938	0.00394493
1950	0.00326215
1962	0.00493116
1974	0.00455184
1986	0.00311042
1998	0.00128969
2010	0.00075864
2022	0.00075864
2034	0.000682776
2046	0.000606912
2058	0.00037932
2070	0.000606912
2082	0.00075864
2094	0.000682776
2106	0.000531048
2118	0.00075864
2130	0.000531048
2142	0.00037932
2154	0.000531048
2166	0.000834504
2178	0.000986232
2190	0.00121382
2202	0.000986232
2214	0.000910368
2226	0.00113796
2238	0.00121382
2250	0.00075864
2262	0.000910368
2274	0.00151728
2286	0.00257938
2298	0.00531048
2310	0.00697949
2322	0.00622085
2334	0.00561394
2346	0.00705535
2358	0.0046277
2370	0.00500702
2382	0.00637258
2394	0.00242765
2406	0.0029587
2418	0.00371734
2430	0.00257938
2442	0.00288283
2454	0.00326215
2466	0.00326215
2478	0.00227592
2490	0.00159314
2502	0.00121382
2514	0.00151728
2526	0.00136555
2538	0.00151728
2550	0.00144142
2562	0.00151728
2574	0.00257938
2586	0.00235178
2598	0.00197246
2610	0.00227592
2622	0.00204833
2634	0.00182074
2646	0.00235178
2658	0.00265524
2670	0.00333802
2682	0.00477943
2694	0.00644844
2706	0.00644844
2718	0.00523462
2730	0.00553807
2742	0.00576566
2754	0.00606912
2766	0.00576566
2778	0.00660017
2790	0.00751054
2802	0.0086485
2814	0.010621
2826	0.0133521
2838	0.0135038
2850	0.0145659
2862	0.0186625
2874	0.0282973
2886	0.050753
2898	0.0590222
2910	0.0624361
2922	0.0733605
2934	0.0567463
2946	0.0800365
2958	0.0920989
2970	0.0539393
2982	0.0944507
2994	0.12472
3006	0.0517392
3018	0.0267041
3030	0.0197246
3042	0.0176004
3054	0.0160832
3066	0.0182832
3078	0.0433942
3090	0.0553049
3102	0.0235937
3114	0.00834504
3126	0.00523462
3138	0.00432425
3150	0.00402079
3162	0.0029587
3174	0.00318629
3186	0.00318629
3198	0.00318629
3210	0.00250351
3222	0.0018966
3234	0.00220006
3246	0.00174487
3258	0.00151728
3270	0.00182074
3282	0.00113796
3294	0.00151728
3306	0.00166901
3318	0.00128969
3330	0.00166901
3342	0.00174487
3354	0.00174487
3366	0.00242765
3378	0.00303456
3390	0.00629671
3402	0.00925541
3414	0.00690362
3426	0.0027311
3438	0.00204833
3450	0.0018966
3462	0.00166901
3474	0.00121382
3486	0.00121382
3498	0.00166901
3510	0.00174487
3522	0.00151728
3534	0.00197246
3546	0.00113796
3558	0.0010621
3570	0.00182074
3582	0.00470357
3594	0.0018966
3606	0.00197246
3618	0.0010621
3630	0.00242765
3642	0.00159314
3654	0.0018966
3666	0.00113796
3678	0.00182074
3690	0.00227592
3702	0.00220006
3714	0.00242765
3726	0.00220006
3738	0.00197246
3750	0.00303456
3762	0.00144142
3774	0.00235178
3786	0.00159314
3798	0.00197246
3810	0.00144142
3822	0.000986232
3834	0.00204833
3846	0.00166901
3858	0.00128969
3870	0.00121382
3882	0.000910368
3894	0.000910368
3906	0.000986232
3918	0.00174487
3930	0.00204833
3942	0.000910368
3954	0.00220006
3966	0.00227592
