Infrared Spectrum: Phenol, 2-(2-propenyl)-
Formula: C 9 H 10 O
CAS: 1745-81-9
Origin: Sadtler Research Labs Under US-EPA Contract
1/CM	ABSORBANCE
450	0.0433325
462	0.0345168
474	0.0183095
486	0.0133592
498	0.00583192
510	0.0128845
522	0.0158004
534	0.021768
546	0.0288205
558	0.0354662
570	0.0280068
582	0.0102398
594	0.00386534
606	0.00318721
618	0.0110535
630	0.0357375
642	0.0588617
654	0.0419762
666	0.0205473
678	0.0139017
690	0.0160717
702	0.0343812
714	0.0797481
726	0.138406
738	0.395824
750	0.672502
762	0.269692
774	0.0809687
786	0.0427222
798	0.0212933
810	0.0198014
822	0.0457738
834	0.0901235
846	0.108365
858	0.078324
870	0.0484185
882	0.0408912
894	0.0844272
906	0.202964
918	0.280881
930	0.190758
942	0.0887672
954	0.0516735
966	0.0444853
978	0.0711358
990	0.138203
1002	0.125997
1014	0.0589973
1026	0.072153
1038	0.104703
1050	0.0667958
1062	0.0560814
1074	0.0929038
1086	0.143085
1098	0.151833
1110	0.125183
1122	0.0962266
1134	0.0956163
1146	0.169126
1158	0.26759
1170	0.334386
1182	0.383822
1194	0.473335
1206	0.573834
1218	0.452787
1230	0.234633
1242	0.271455
1254	0.451296
1266	0.343744
1278	0.11318
1290	0.0840203
1302	0.114536
1314	0.222494
1326	0.249213
1338	0.115757
1350	0.0307193
1362	0.0182417
1374	0.019598
1386	0.0259724
1398	0.0345846
1410	0.0495035
1422	0.064558
1434	0.113112
1446	0.206965
1458	0.26542
1470	0.240397
1482	0.346118
1494	0.429867
1506	0.266709
1518	0.102398
1530	0.0277355
1542	0.0223783
1554	0.030448
1566	0.0669314
1578	0.163768
1590	0.218358
1602	0.161327
1614	0.104093
1626	0.100092
1638	0.140102
1650	0.0893097
1662	0.0255655
1674	0.0225817
1686	0.0211577
1698	0.0143764
1710	0.00874788
1722	0.00725599
1734	0.00922257
1746	0.00969726
1758	0.0158682
1770	0.0200048
1782	0.0175636
1794	0.0168176
1806	0.015597
1818	0.0182417
1830	0.0254977
1842	0.0271252
1854	0.0206152
1866	0.0156648
1878	0.0158004
1890	0.0214289
1902	0.0190555
1914	0.0143764
1926	0.0189876
1938	0.0120029
1950	0.00298377
1962	0.00298377
1974	0.00474691
1986	0.00528941
1998	0.00372971
2010	0.00284815
2022	0.0036619
2034	0.00413659
2046	0.00339065
2058	0.00189876
2070	0.00135626
2082	0.00203439
2094	0.00372971
2106	0.00359409
2118	0.00339065
2130	0.00169532
2142	0.000881569
2154	0.000542504
2166	0.000949382
2178	0.000406878
2190	0.0010172
2202	0.0021022
2214	0.00237346
2226	0.00217002
2238	0.00318721
2250	0.00305158
2262	0.00372971
2274	0.00372971
2286	0.00318721
2298	0.00393315
2310	0.00583192
2322	0.00739162
2334	0.00712036
2346	0.0073238
2358	0.00718818
2370	0.00447566
2382	0.00440784
2394	0.00562848
2406	0.00671349
2418	0.0073238
2430	0.00779849
2442	0.00820537
2454	0.00874788
2466	0.0088835
2478	0.00874788
2490	0.00827319
2502	0.00895132
2514	0.00840881
2526	0.00637442
2538	0.00461128
2550	0.00400097
2562	0.00332284
2574	0.00230564
2586	0.00291596
2598	0.00332284
2610	0.00393315
2622	0.00447566
2634	0.00447566
2646	0.00454347
2658	0.00284815
2670	0.00142407
2682	0.000406878
2694	0.00115282
2706	0.00203439
2718	0.00217002
2730	0.00223783
2742	0.00237346
2754	0.00250908
2766	0.00217002
2778	0.00291596
2790	0.00250908
2802	0.00379753
2814	0.00725599
2826	0.0164786
2838	0.0358053
2850	0.052216
2862	0.0493001
2874	0.0400097
2886	0.0470622
2898	0.0764931
2910	0.109518
2922	0.127149
2934	0.103279
2946	0.0668636
2958	0.0463841
2970	0.0521482
2982	0.0881569
2994	0.0937176
3006	0.104568
3018	0.157733
3030	0.188724
3042	0.1972
3054	0.168176
3066	0.207779
3078	0.270099
3090	0.263047
3102	0.130743
3114	0.0429256
3126	0.0208186
3138	0.0117995
3150	0.00712036
3162	0.00698474
3174	0.00603536
3186	0.0046791
3198	0.00427222
3210	0.00345846
3222	0.00244127
3234	0.00223783
3246	0.0015597
3258	0.00217002
3270	0.00250908
3282	0.00257689
3294	0.00332284
3306	0.00291596
3318	0.00278033
3330	0.00264471
3342	0.00508597
3354	0.00779849
3366	0.00786631
3378	0.00528941
3390	0.00420441
3402	0.00454347
3414	0.00345846
3426	0.00562848
3438	0.00440784
3450	0.00488254
3462	0.00481472
3474	0.00583192
3486	0.00779849
3498	0.00793412
3510	0.00942601
3522	0.0149867
3534	0.0267861
3546	0.0370937
3558	0.0424509
3570	0.0620489
3582	0.124301
3594	0.195912
3606	0.210017
3618	0.153936
3630	0.10789
3642	0.186486
3654	0.258503
3666	0.143018
3678	0.0356696
3690	0.00922257
3702	0.00379753
3714	0.0021022
3726	0.00318721
3738	0.00325502
3750	0.00386534
3762	0.00420441
3774	0.00352628
3786	0.00318721
3798	0.00284815
3810	0.00298377
3822	0.00651005
3834	0.00603536
3846	0.00868006
3858	0.00962945
3870	0.0133592
3882	0.0142407
3894	0.0128167
3906	0.0108501
3918	0.0136982
3930	0.0172245
3942	0.0155292
3954	0.00664567
3966	0.00406878
