Infrared Spectrum: Benzenepropanoic acid, .beta.-oxo-.alpha.-(phenylmethylene)-, ethyl ester
Formula: C 18 H 16 O 3
CAS: 17451-18-2
Origin: Sadtler Research Labs Under US-EPA Contract
1/CM	ABSORBANCE
450	0.00669362
462	0.00731014
474	0.00466792
486	0.00982025
498	0.00823492
510	0.00330277
522	0.00453581
534	0.00990832
546	0.019024
558	0.0201689
570	0.0143561
582	0.0230754
594	0.0110533
606	0.00735418
618	0.00832299
630	0.00841107
642	0.00955603
654	0.0189799
666	0.0313984
678	0.0482646
690	0.121718
702	0.0513031
714	0.0394572
726	0.0329837
738	0.0302975
750	0.0500701
762	0.0436407
774	0.032103
786	0.0189799
798	0.0147964
810	0.0160295
822	0.010657
834	0.0114056
846	0.0179231
858	0.0162497
870	0.0156331
882	0.0227671
894	0.0129028
906	0.0150607
918	0.0213579
930	0.0362865
942	0.0681693
954	0.0492334
966	0.0199928
978	0.0126386
990	0.0145762
1002	0.029725
1014	0.0576004
1026	0.0624885
1038	0.0295929
1050	0.0239561
1062	0.0424076
1074	0.0662316
1086	0.0945034
1098	0.0900116
1110	0.055883
1122	0.0255415
1134	0.0227231
1146	0.0269506
1158	0.045226
1170	0.0790024
1182	0.186056
1194	0.332347
1206	0.170687
1218	0.200589
1230	0.298747
1242	0.40034
1254	0.355423
1266	0.112647
1278	0.0507747
1290	0.0405581
1302	0.0413067
1314	0.0410425
1326	0.0306057
1338	0.0249249
1350	0.0236919
1362	0.0435526
1374	0.0533728
1386	0.0272149
1398	0.0187157
1410	0.0128588
1422	0.0116698
1434	0.0165139
1446	0.0502462
1458	0.0306938
1470	0.0215341
1482	0.0158093
1494	0.026158
1506	0.0137395
1518	0.00775051
1530	0.00664959
1542	0.0084551
1554	0.00841107
1566	0.0129028
1578	0.0278754
1590	0.0319268
1602	0.0405581
1614	0.0482205
1626	0.078562
1638	0.0408223
1650	0.0311782
1662	0.0400737
1674	0.0778574
1686	0.163201
1698	0.137131
1710	0.0758317
1722	0.103091
1734	0.242248
1746	0.193543
1758	0.040426
1770	0.0229873
1782	0.0135634
1794	0.0117138
1806	0.0113615
1818	0.00651748
1830	0.00480003
1842	0.00290644
1854	0.00184955
1866	0.00369911
1878	0.00374314
1890	0.0052404
1902	0.00488811
1914	0.00427159
1926	0.00290644
1938	0.00352296
1950	0.00594499
1962	0.00647344
1974	0.003567
1986	0.00114496
1998	0.001189
2010	0.000836703
2022	0.00123304
2034	0.00114496
2046	0.00140918
2058	0.00132111
2070	0.00145322
2082	0.0015413
2094	0.00162937
2106	0.00171744
2118	0.001189
2130	0.00105689
2142	0.00140918
2154	0.000836703
2166	0.00114496
2178	0.00123304
2190	0.001189
2202	0.00105689
2214	0.00110092
2226	0.000968814
2238	0.00127707
2250	0.00140918
2262	0.00184955
2274	0.00211378
2286	0.00317066
2298	0.00563674
2310	0.00779455
2322	0.00708996
2334	0.00374314
2346	0.00563674
2358	0.00418351
2370	0.00273029
2382	0.00554866
2394	0.00176148
2406	0.00149726
2418	0.000968814
2430	0.001189
2442	0.001189
2454	0.00123304
2466	0.00110092
2478	0.000484407
2490	0.00105689
2502	0.000924777
2514	0.00101285
2526	0.00123304
2538	0.0015413
2550	0.00145322
2562	0.0015413
2574	0.00132111
2586	0.00180552
2598	0.00211378
2610	0.00171744
2622	0.00145322
2634	0.00162937
2646	0.00145322
2658	0.00127707
2670	0.00136515
2682	0.00180552
2694	0.00176148
2706	0.00211378
2718	0.00273029
2730	0.00268626
2742	0.00246607
2754	0.00264222
2766	0.00259818
2778	0.00361103
2790	0.00383122
2802	0.00457985
2814	0.00581288
2826	0.00581288
2838	0.00502022
2850	0.00629729
2862	0.00766244
2874	0.00933584
2886	0.0133872
2898	0.0137836
2910	0.0172185
2922	0.0184515
2934	0.0228112
2946	0.0341287
2958	0.0229873
2970	0.0307378
2982	0.0485728
2994	0.0465471
3006	0.0269506
3018	0.0212699
3030	0.0308259
3042	0.0306057
3054	0.0235158
3066	0.0545618
3078	0.0579967
3090	0.0359782
3102	0.0193763
3114	0.00990832
3126	0.00462388
3138	0.00339085
3150	0.00400737
3162	0.00365507
3174	0.00290644
3186	0.00206974
3198	0.00220185
3210	0.00167341
3222	0.0020257
3234	0.00184955
3246	0.00140918
3258	0.00145322
3270	0.0015413
3282	0.00176148
3294	0.00136515
3306	0.001189
3318	0.00171744
3330	0.00193763
3342	0.00268626
3354	0.00295048
3366	0.00391929
3378	0.0015413
3390	0.00176148
3402	0.00246607
3414	0.00193763
3426	0.00180552
3438	0.00167341
3450	0.00127707
3462	0.00246607
3474	0.00044037
3486	0.00167341
3498	0.00123304
3510	0.00101285
3522	0.00184955
3534	0.0015413
3546	0.00158533
3558	0.00136515
3570	0.00158533
3582	0.00215781
3594	0.00206974
3606	0.00140918
3618	0.00189359
3630	0.00264222
3642	0.00211378
3654	0.00242203
3666	0.0028624
3678	0.00220185
3690	0.00299452
3702	0.00308259
3714	0.00228992
3726	0.00224589
3738	0.00220185
3750	0.00215781
3762	0.00110092
3774	0.00228992
3786	0.00264222
3798	0.00184955
3810	0.00145322
3822	0.00189359
3834	0.0020257
3846	0.00308259
3858	0.00114496
3870	0.00145322
3882	0.00295048
3894	0.00303855
3906	0.00211378
3918	0.0028624
3930	0.00343489
3942	0.00193763
3954	0.00299452
3966	0.0020257
