Infrared Spectrum: Carbamic acid, 1-methylethyl ester
Formula: C 4 H 9 N O 2
CAS: 1746-77-6
Origin: Sadtler Research Labs Under US-EPA Contract
1/CM	ABSORBANCE
450	0.0372983
462	0.0339772
474	0.0230773
486	0.021289
498	0.0194156
510	0.0128586
522	0.010389
534	0.0329554
546	0.037639
558	0.0286124
570	0.0199265
582	0.009282
594	0.00527967
606	0.00161796
618	0.00323593
630	0.00647186
642	0.00800466
654	0.0110703
666	0.0111554
678	0.0189046
690	0.0235882
702	0.0213742
714	0.0336366
726	0.0583319
738	0.0684654
750	0.0417264
762	0.0434296
774	0.0577358
786	0.0602904
798	0.0755334
810	0.065485
822	0.050753
834	0.0456436
846	0.0381499
858	0.0298046
870	0.027846
882	0.0265687
894	0.0287827
906	0.0272499
918	0.0217999
930	0.0219702
942	0.0202671
954	0.0190749
966	0.017457
978	0.0184789
990	0.0234179
1002	0.0510936
1014	0.149278
1026	0.289275
1038	0.318569
1050	0.0635264
1062	0.0202671
1074	0.0449624
1086	0.0721271
1098	0.1503
1110	0.285954
1122	0.318228
1134	0.244142
1146	0.157198
1158	0.0931607
1170	0.0711904
1182	0.0677842
1194	0.041471
1206	0.0250359
1218	0.0381499
1230	0.0560326
1242	0.0816646
1254	0.102443
1266	0.117004
1278	0.10619
1290	0.119133
1302	0.262877
1314	0.556239
1326	0.607077
1338	0.373835
1350	0.262877
1362	0.378433
1374	0.410452
1386	0.219702
1398	0.0757888
1410	0.0315077
1422	0.0178828
1434	0.0219702
1446	0.0280163
1458	0.0307413
1470	0.0439405
1482	0.034403
1494	0.0161796
1506	0.00306562
1518	0.00374686
1530	0.0109
1542	0.0126031
1554	0.0321038
1566	0.10372
1578	0.229581
1590	0.253595
1602	0.127138
1614	0.0591834
1626	0.0270796
1638	0.0138804
1650	0.0113257
1662	0.013625
1674	0.0140507
1686	0.0115812
1698	0.0176273
1710	0.0348288
1722	0.0563733
1734	0.119048
1746	0.351524
1758	0.706284
1770	0.85156
1782	0.48045
1794	0.152855
1806	0.058417
1818	0.0380647
1830	0.0264835
1842	0.0221406
1854	0.0176273
1866	0.0125179
1878	0.00689764
1890	0.00374686
1902	0.00536483
1914	0.0071531
1926	0.00723826
1938	0.00647186
1950	0.00366171
1962	0.00272499
1974	0.00323593
1986	0.00272499
1998	0.00246952
2010	0.00221406
2022	0.00178828
2034	0.00178828
2046	0.00195859
2058	0.00187343
2070	0.00178828
2082	0.00119218
2094	0.000681248
2106	0.00127734
2118	0.00110703
2130	0.00272499
2142	0.00272499
2154	0.0021289
2166	0.00161796
2178	0.0021289
2190	0.00221406
2202	0.00476874
2214	0.00579061
2226	0.00945232
2238	0.0154132
2250	0.0206078
2262	0.0189046
2274	0.0180531
2286	0.0238437
2298	0.015839
2310	0.00996325
2322	0.0085156
2334	0.00681248
2346	0.00791951
2358	0.00613123
2370	0.00476874
2382	0.00493905
2394	0.00246952
2406	0.00238437
2418	0.00153281
2430	0.00153281
2442	0.000766404
2454	0.00042578
2466	0.0013625
2478	0.00110703
2490	0.0013625
2502	0.0013625
2514	0.0013625
2526	0.000681248
2538	0.00085156
2550	0.000255468
2562	0.00127734
2574	0.00085156
2586	0.000681248
2598	0.00178828
2610	0.00161796
2622	0.00221406
2634	0.00229921
2646	0.00255468
2658	0.00306562
2670	0.00383202
2682	0.00332108
2694	0.00323593
2706	0.00323593
2718	0.0028953
2730	0.00383202
2742	0.00417264
2754	0.00442811
2766	0.00442811
2778	0.00493905
2790	0.00493905
2802	0.00604608
2814	0.00630154
2826	0.00800466
2838	0.00894138
2850	0.0110703
2862	0.0159242
2874	0.0244398
2886	0.0350843
2898	0.0396827
2910	0.0393421
2922	0.0439405
2934	0.0608865
2946	0.0750224
2958	0.0694021
2970	0.0930755
2982	0.179849
2994	0.196796
3006	0.0963966
3018	0.026228
3030	0.0115812
3042	0.00766404
3054	0.00723826
3066	0.00826013
3078	0.00877107
3090	0.00843044
3102	0.00911169
3114	0.00681248
3126	0.00757888
3138	0.00783435
3150	0.0071531
3162	0.00783435
3174	0.00791951
3186	0.00749373
3198	0.00732342
3210	0.00630154
3222	0.00527967
3234	0.00536483
3246	0.00493905
3258	0.0050242
3270	0.0063867
3282	0.00485389
3294	0.00527967
3306	0.00587576
3318	0.00510936
3330	0.0063867
3342	0.00510936
3354	0.00604608
3366	0.00681248
3378	0.0063867
3390	0.00647186
3402	0.00808982
3414	0.00979294
3426	0.0197562
3438	0.041471
3450	0.0580764
3462	0.0767256
3474	0.0623342
3486	0.0288679
3498	0.0149875
3510	0.0159242
3522	0.0233327
3534	0.0338921
3546	0.0478577
3558	0.0547553
3570	0.0570545
3582	0.0695725
3594	0.0564584
3606	0.024014
3618	0.00791951
3630	0.00536483
3642	0.00672732
3654	0.00621639
3666	0.00553514
3678	0.000936716
3690	0.00161796
3702	0.00272499
3714	0.000936716
3726	0.00161796
3738	0.000510936
3750	0.000340624
3762	0.00187343
3774	0.00255468
3786	0.00281015
3798	0.00229921
3810	0.000766404
3822	0.000340624
3834	0.0021289
3846	0.00102187
3858	0.00221406
3870	0.000936716
3882	0.000340624
3894	0.00298046
3906	0.00204374
3918	0.00357655
3930	0.00493905
3942	0.0050242
3954	0
3966	0.000340624
