Infrared Spectrum: Pyrazole, 5-(2-methyl-2,3-butadienyl)-1,3,4-trimethyl-,
Formula: C 11 H 16 N 2
CAS: 17512-08-2
Origin: Sadtler Research Labs Under US-EPA Contract
1/CM	ABSORBANCE
450	0.00598926
462	0.00918653
474	0.000495352
486	0.00495352
498	0.00315224
510	0.00319727
522	0.0128792
534	0.00842098
546	0.00544887
558	0.0175174
570	0.0304416
582	0.0298562
594	0.0240471
606	0.0242272
618	0.0234166
630	0.014095
642	0.0145453
654	0.0245424
666	0.0118884
678	0.0103574
690	0.00684486
702	0.00472836
714	0.00508862
726	0.00927659
738	0.021165
750	0.0297662
762	0.0259835
774	0.0264788
786	0.0159413
798	0.0109428
810	0.0165718
822	0.036521
834	0.0485445
846	0.194898
858	0.183776
870	0.0330085
882	0.0170221
894	0.025263
906	0.0307569
918	0.011303
930	0.00756538
942	0.00824086
954	0.00959182
966	0.0165267
978	0.0315224
990	0.0430056
1002	0.0442214
1014	0.0246775
1026	0.0167969
1038	0.0156261
1050	0.01405
1062	0.0125639
1074	0.0122037
1086	0.0113931
1098	0.0124739
1110	0.0184181
1122	0.0301714
1134	0.0327833
1146	0.0330085
1158	0.0263437
1170	0.0248577
1182	0.0212551
1194	0.0249477
1206	0.0339992
1218	0.0362958
1230	0.0261636
1242	0.0268841
1254	0.0374216
1266	0.0784457
1278	0.0693493
1290	0.0789861
1302	0.109113
1314	0.0785358
1326	0.0501206
1338	0.0344945
1350	0.0447618
1362	0.0864614
1374	0.187693
1386	0.178867
1398	0.10506
1410	0.0659719
1422	0.0808775
1434	0.118659
1446	0.172518
1458	0.217189
1470	0.225745
1482	0.162656
1494	0.0921355
1506	0.0593972
1518	0.044987
1530	0.0397633
1542	0.0376918
1554	0.0388626
1566	0.0502557
1578	0.0586317
1590	0.0308469
1602	0.0172923
1614	0.0127891
1626	0.0102223
1638	0.00851105
1650	0.0077455
1662	0.00580913
1674	0.00716009
1686	0.0116633
1698	0.022516
1710	0.0331886
1722	0.022471
1734	0.0159413
1746	0.00954678
1758	0.00630448
1770	0.00553894
1782	0.00364759
1794	0.00369262
1806	0.00319727
1818	0.0021165
1830	0.00162115
1842	0.000585416
1854	0.000810576
1866	0.000855608
1878	0.000720512
1890	0.00144102
1902	0.00229663
1914	0.00369262
1926	0.0066197
1938	0.0190035
1950	0.0564701
1962	0.0837145
1974	0.0263437
1986	0.00630448
1998	0.00396282
2010	0.00256682
2022	0.00202644
2034	0.00148606
2046	0.00171122
2058	0.00243173
2070	0.0021165
2082	0.00153109
2094	0.00175625
2106	0.00135096
2118	0.00135096
2130	0.000990704
2142	0.00045032
2154	0.000855608
2166	0.000585416
2178	0.000720512
2190	0.000855608
2202	0.000855608
2214	0.000585416
2226	0.00022516
2238	0.00022516
2250	0.000180128
2262	0.000540384
2274	0.00117083
2286	0.00175625
2298	0.00220657
2310	0.00310721
2322	0.00373766
2334	0.00301714
2346	0.00301714
2358	0.00279198
2370	0.0012609
2382	0.00234166
2394	0.00144102
2406	0.00121586
2418	0.00193638
2430	0.0023867
2442	0.0023867
2454	0.00252179
2466	0.00252179
2478	0.00310721
2490	0.00301714
2502	0.00319727
2514	0.00360256
2526	0.0033774
2538	0.00288205
2550	0.00315224
2562	0.00310721
2574	0.00342243
2586	0.00355753
2598	0.00360256
2610	0.00279198
2622	0.00274695
2634	0.00315224
2646	0.00360256
2658	0.00391778
2670	0.00472836
2682	0.00535881
2694	0.00598926
2706	0.00725015
2718	0.00945672
2730	0.0151758
2742	0.0179227
2754	0.019724
2766	0.0163916
2778	0.016842
2790	0.0203545
2802	0.0250378
2814	0.0342694
2826	0.0481392
2838	0.0679083
2850	0.0952427
2862	0.143922
2874	0.198456
2886	0.193548
2898	0.194898
2910	0.251684
2922	0.366425
2934	0.45032
2946	0.397723
2958	0.279018
2970	0.156486
2982	0.142706
2994	0.200573
3006	0.107356
3018	0.0699797
3030	0.0697095
3042	0.0626395
3054	0.0602978
3066	0.0535881
3078	0.0316125
3090	0.0243623
3102	0.0184631
3114	0.0127441
3126	0.00954678
3138	0.00716009
3150	0.00603429
3162	0.00490849
3174	0.00378269
3186	0.0033774
3198	0.00315224
3210	0.00301714
3222	0.00310721
3234	0.00270192
3246	0.00252179
3258	0.0022516
3270	0.00243173
3282	0.00265689
3294	0.00175625
3306	0.00130593
3318	0.00153109
3330	0.00130593
3342	0.00090064
3354	0.000945672
3366	0.0011258
3378	0.000855608
3390	0.000810576
3402	0.000765544
3414	0.000270192
3426	0.000720512
3438	0.00117083
3450	0.000720512
3462	0.00090064
3474	0.000720512
3486	0.0011258
3498	0.00103574
3510	0.00103574
3522	0.00153109
3534	0.0011258
3546	0.00166618
3558	0.00108077
3570	0.00202644
3582	0.00148606
3594	0.00229663
3606	0.00108077
3618	0.00121586
3630	0.0032423
3642	0.000810576
3654	0.00144102
3666	0.000180128
3678	0.00261186
3690	0.00207147
3702	0.00117083
3714	0.00202644
3726	0.00243173
3738	0.00162115
3750	0.000990704
3762	0.00090064
3774	0.00117083
3786	9.0064e-05
3798	0.000765544
3810	0.000495352
3822	0.000810576
3834	0.00153109
3846	0.00103574
3858	0.00256682
3870	0.000810576
3882	0.00022516
3894	0.00175625
3906	0.00274695
3918	0.00108077
3930	0.00202644
3942	0.00202644
3954	0.00261186
3966	0.00162115
