Infrared Spectrum: 3-Furoic acid, 5-formyl-2-trifluoromethyl, ethyl ester
Formula: C 9 H 7 F 3 O 4
CAS: 17515-79-6
Origin: Sadtler Research Labs Under US-EPA Contract
1/CM	ABSORBANCE
450	0.0188919
462	0.00856252
474	0.0101935
486	0.00693156
498	0.00638791
510	0.0114167
522	0.0111449
534	0.0195715
546	0.0206588
558	0.0178046
570	0.0127758
582	0.00964982
594	0.00611609
606	0.00502878
618	0.00815478
630	0.00652382
642	0.00407739
654	0.003126
666	0
678	0.00353374
690	0.00788295
702	0.0135913
714	0.0161736
726	0.0183483
738	0.0428126
750	0.14434
762	0.0773345
774	0.103022
786	0.114303
798	0.0536856
810	0.0241925
822	0.026503
834	0.054637
846	0.0502878
858	0.0430844
870	0.0341142
882	0.00815478
894	0.00231052
906	0.00244643
918	0.00258235
930	0.00489287
942	0.00883435
954	0.0157659
966	0.0429485
978	0.0598017
990	0.0398225
1002	0.0747522
1014	0.107099
1026	0.202646
1038	0.447833
1050	0.300096
1062	0.0861688
1074	0.0595299
1086	0.0731212
1098	0.117021
1110	0.149776
1122	0.14366
1134	0.195715
1146	0.283243
1158	0.525168
1170	1.19753
1182	1.19957
1194	0.590814
1206	0.609298
1218	0.354597
1230	0.522585
1242	0.451095
1254	0.616637
1266	0.446338
1278	0.279165
1290	0.309338
1302	0.515382
1314	0.551399
1326	0.2002
1338	0.0826351
1350	0.0693156
1362	0.0962264
1374	0.122865
1386	0.10941
1398	0.0947314
1410	0.154261
1422	0.18158
1434	0.0977214
1446	0.0479773
1458	0.0441717
1470	0.050016
1482	0.0407739
1494	0.0228334
1506	0.0209306
1518	0.0209306
1530	0.0304445
1542	0.0528702
1554	0.0630636
1566	0.0717621
1578	0.0561321
1590	0.0943236
1602	0.217597
1614	0.164591
1626	0.0644228
1638	0.039007
1650	0.0289495
1662	0.0278622
1674	0.0326191
1686	0.0551807
1698	0.0877998
1710	0.314095
1722	0.606036
1734	0.317629
1746	0.439543
1758	0.413583
1770	0.240838
1782	0.0846738
1794	0.0409098
1806	0.021882
1818	0.0164455
1830	0.0116885
1842	0.00992165
1854	0.00652382
1866	0.00448513
1878	0.00502878
1890	0.00462104
1902	0.00516469
1914	0.00475696
1926	0.0042133
1938	0.00339783
1950	0.00366965
1962	0.00326191
1974	0.00271826
1986	0.00176687
1998	0.000815478
2010	0.00122322
2022	0.000951391
2034	0.00122322
2046	0.000951391
2058	0.00135913
2070	0.00135913
2082	0.00122322
2094	0.00163096
2106	0.00149504
2118	0.00149504
2130	0.00122322
2142	0.00149504
2154	0.00163096
2166	0.00163096
2178	0.00217461
2190	0.00231052
2202	0.00339783
2214	0.00353374
2226	0.00299009
2238	0.00244643
2250	0.00176687
2262	0.00135913
2274	0.00176687
2286	0.0020387
2298	0.00353374
2310	0.00462104
2322	0.00652382
2334	0.00584426
2346	0.00856252
2358	0.00706748
2370	0.00665974
2382	0.00665974
2394	0.00339783
2406	0.00258235
2418	0.00190278
2430	0.00122322
2442	0.000407739
2454	0
2466	0.000407739
2478	0.000543652
2490	0.000407739
2502	0.000543652
2514	0.0010873
2526	0.000951391
2538	0.000951391
2550	0.00122322
2562	0.00163096
2574	0.00231052
2586	0.00285417
2598	0.00231052
2610	0.00244643
2622	0.00244643
2634	0.00299009
2646	0.00285417
2658	0.00285417
2670	0.00339783
2682	0.00434922
2694	0.00652382
2706	0.010873
2718	0.0104653
2730	0.0112808
2742	0.0220179
2754	0.0161736
2766	0.0116885
2778	0.00992165
2790	0.0111449
2802	0.01563
2814	0.0380556
2826	0.057763
2838	0.0612968
2850	0.0800528
2862	0.0226975
2874	0.0184842
2886	0.0232411
2898	0.0224256
2910	0.0248721
2922	0.0270467
2934	0.0339783
2946	0.051511
2958	0.0429485
2970	0.0487928
2982	0.0777422
2994	0.108594
3006	0.0617045
3018	0.040638
3030	0.0246003
3042	0.0164455
3054	0.0131836
3066	0.0129117
3078	0.0126399
3090	0.012504
3102	0.0118244
3114	0.0122322
3126	0.0145427
3138	0.01563
3150	0.01563
3162	0.009378
3174	0.00584426
3186	0.0042133
3198	0.00299009
3210	0.00258235
3222	0.00217461
3234	0.0020387
3246	0.00163096
3258	0.000951391
3270	0.000679565
3282	0.000407739
3294	0.000271826
3306	0.000135913
3318	0.000543652
3330	0.000679565
3342	0.000679565
3354	0.000815478
3366	0.000815478
3378	0.000951391
3390	0.000951391
3402	0.00271826
3414	0.00964982
3426	0.00598017
3438	0.00231052
3450	0.00190278
3462	0.00217461
3474	0.00231052
3486	0.00231052
3498	0.00176687
3510	0.00231052
3522	0.000271826
3534	0.000271826
3546	0.00163096
3558	0.000543652
3570	0.00543652
3582	0.0118244
3594	0.003126
3606	0.000815478
3618	0.000271826
3630	0.00407739
3642	0.00149504
3654	0.0010873
3666	0.0010873
3678	0.00299009
3690	0.00163096
3702	0.00217461
3714	0.00135913
3726	0.00231052
3738	0.00299009
3750	0
3762	0.000951391
3774	0.000679565
3786	0.000543652
3798	0.000407739
3810	0.000951391
3822	0.00176687
3834	0.00149504
3846	0.00149504
3858	0.0010873
3870	0.00231052
3882	0.000815478
3894	0.00217461
3906	0.00271826
3918	0.00271826
3930	0.00190278
3942	0.00217461
3954	0.00231052
3966	0.00149504
