Infrared Spectrum: 1,2-Bis(3-cyclohexenyl)ethylene
Formula: C 14 H 20
CAS: 17527-28-5
Origin: Sadtler Research Labs Under US-EPA Contract
1/CM	ABSORBANCE
450	0
462	0.00381326
474	0.00463774
486	0.00515305
498	0.00711121
510	0.00649284
522	0.00546223
534	0.00597754
546	0.00453468
558	0.00566835
570	0.00752345
582	0.00834794
594	0.011852
606	0.015253
618	0.0220551
630	0.0328765
642	0.0987324
654	0.244461
666	0.167989
678	0.0842008
690	0.0392662
702	0.0341132
714	0.028754
726	0.0398846
738	0.0478203
750	0.0345254
762	0.0225704
774	0.0133979
786	0.0110275
798	0.0106153
810	0.0121612
822	0.0126765
834	0.0108214
846	0.010203
858	0.0174173
870	0.0314336
882	0.0260744
894	0.0264867
906	0.0469958
918	0.0599815
930	0.0543131
942	0.0424611
954	0.0866743
966	0.174379
978	0.113058
990	0.040503
1002	0.0254561
1014	0.0226734
1026	0.0308152
1038	0.049057
1050	0.0391632
1062	0.0232918
1074	0.0222612
1086	0.0159745
1098	0.0167989
1110	0.0175204
1122	0.0172112
1134	0.0288571
1146	0.0342163
1158	0.0171081
1170	0.0205091
1182	0.0293724
1194	0.020303
1206	0.0138102
1218	0.0129857
1230	0.0208183
1242	0.0351438
1254	0.0333918
1266	0.0264867
1278	0.028651
1290	0.0264867
1302	0.0272081
1314	0.0327734
1326	0.0380295
1338	0.0374111
1350	0.0403999
1362	0.0449346
1374	0.0375142
1386	0.0307122
1398	0.0220551
1410	0.0188602
1422	0.0283418
1434	0.081109
1446	0.130578
1458	0.0806968
1470	0.0273112
1482	0.013501
1494	0.0120581
1506	0.00896631
1518	0.00721427
1530	0.00597754
1542	0.00618366
1554	0.00731733
1566	0.00886325
1578	0.0113367
1590	0.0130887
1602	0.0210244
1614	0.0310214
1626	0.0324642
1638	0.0347316
1650	0.0868804
1662	0.0425642
1674	0.0130887
1686	0.0122643
1698	0.0181387
1710	0.0227765
1722	0.0120581
1734	0.0114398
1746	0.00340101
1758	0.00463774
1770	0.0113367
1782	0.0132949
1794	0.0123673
1806	0.00958467
1818	0.00886325
1830	0.00834794
1842	0.00803876
1854	0.008451
1866	0.00937855
1878	0.0114398
1890	0.00968773
1902	0.008451
1914	0.00824488
1926	0.00865712
1938	0.00700815
1950	0.0065959
1962	0.00649284
1974	0.00618366
1986	0.00577142
1998	0.00566835
2010	0.00566835
2022	0.00535917
2034	0.00515305
2046	0.00504999
2058	0.00525611
2070	0.00535917
2082	0.00597754
2094	0.00649284
2106	0.00762651
2118	0.00587448
2130	0.00525611
2142	0.00515305
2154	0.00525611
2166	0.00515305
2178	0.00504999
2190	0.00525611
2202	0.00577142
2214	0.00597754
2226	0.00566835
2238	0.00597754
2250	0.0060806
2262	0.00628672
2274	0.00597754
2286	0.00587448
2298	0.00638978
2310	0.00700815
2322	0.00484387
2334	0.00350407
2346	0.00556529
2358	0.00298877
2370	0.0065959
2382	0.00690509
2394	0.00360714
2406	0.00267959
2418	0.0018551
2430	0.0023704
2442	0.00298877
2454	0.00298877
2466	0.0042255
2478	0.00484387
2490	0.00443162
2502	0.00360714
2514	0.00350407
2526	0.00360714
2538	0.00360714
2550	0.00381326
2562	0.00453468
2574	0.00515305
2586	0.00566835
2598	0.00669896
2610	0.0079357
2622	0.00814182
2634	0.00814182
2646	0.00979079
2658	0.0143255
2670	0.0150469
2682	0.0116459
2694	0.0107183
2706	0.0109245
2718	0.0112336
2730	0.0115428
2742	0.0107183
2754	0.0126765
2766	0.0178296
2778	0.0226734
2790	0.0209214
2802	0.0242193
2814	0.0329795
2826	0.0643101
2838	0.202103
2850	0.424508
2862	0.337009
2874	0.24477
2886	0.336082
2898	0.466351
2910	0.559621
2922	0.96362
2934	0.813254
2946	0.469237
2958	0.219829
2970	0.163043
2982	0.130475
2994	0.0933733
3006	0.0930641
3018	0.151603
3030	0.712976
3042	0.249408
3054	0.0661652
3066	0.0653407
3078	0.0380295
3090	0.0256622
3102	0.0143255
3114	0.0103061
3126	0.00721427
3138	0.0060806
3150	0.00515305
3162	0.00432856
3174	0.00360714
3186	0.00350407
3198	0.00329795
3210	0.00319489
3222	0.00278265
3234	0.00319489
3246	0.00309183
3258	0.0037102
3270	0.00494693
3282	0.00680203
3294	0.00948161
3306	0.00742039
3318	0.00597754
3330	0.00474081
3342	0.00432856
3354	0.00432856
3366	0.00412244
3378	0.00350407
3390	0.0037102
3402	0.00298877
3414	0.00288571
3426	0.00340101
3438	0.00319489
3450	0.00309183
3462	0.00267959
3474	0.00206122
3486	0.00278265
3498	0.00257652
3510	0.0023704
3522	0.0023704
3534	0.00319489
3546	0.00360714
3558	0.00267959
3570	0.0037102
3582	0.00247346
3594	0.00257652
3606	0.0018551
3618	0.00226734
3630	0.00453468
3642	0.00309183
3654	0.00329795
3666	0.00175204
3678	0.00360714
3690	0.00278265
3702	0.00206122
3714	0.00288571
3726	0.00216428
3738	0.00309183
3750	0.00175204
3762	0.00226734
3774	0.00257652
3786	0.0018551
3798	0.00247346
3810	0.00267959
3822	0.00360714
3834	0.00195816
3846	0.00298877
3858	0.0023704
3870	0.00278265
3882	0.0018551
3894	0.00288571
3906	0.00278265
3918	0.0023704
3930	0.00257652
3942	0.00267959
3954	0.0018551
3966	0.0018551
