Infrared Spectrum: 3-Buten-2-one, 4-(m-chlorophenyl)-1-cyclohexyl-,
Formula: C 16 H 19 Cl O
CAS: 1760-62-9
Origin: Sadtler Research Labs Under US-EPA Contract
1/CM	ABSORBANCE
450	0.00465187
462	0.00262932
474	0.00351924
486	0.00432826
498	0.00226526
510	0.00756434
522	0.0103959
534	0.0153714
546	0.0149264
558	0.0307832
570	0.0295292
582	0.020266
594	0.00841381
606	0.00635081
618	0.00679577
630	0.00732163
642	0.011569
654	0.0132679
666	0.0277898
678	0.06278
690	0.0452242
702	0.0267786
714	0.0161399
726	0.0142792
738	0.0330485
750	0.0146028
762	0.0217626
774	0.0891945
786	0.0508469
798	0.0146433
810	0.00671487
822	0.00784749
834	0.00914193
846	0.0154118
858	0.0238661
870	0.033008
882	0.0389139
894	0.03677
906	0.029327
918	0.0154927
930	0.0166254
942	0.0177175
954	0.0234616
966	0.0695757
978	0.0893967
990	0.0230571
1002	0.0110431
1014	0.0149669
1026	0.0228144
1038	0.0400869
1050	0.077585
1062	0.0728523
1074	0.0782727
1086	0.0812256
1098	0.0895585
1110	0.0516559
1122	0.0353946
1134	0.0377408
1146	0.0431208
1158	0.0638721
1170	0.060717
1182	0.0593416
1194	0.079284
1206	0.0689285
1218	0.033008
1230	0.0272235
1242	0.034262
1254	0.0387116
1266	0.0322394
1278	0.0423926
1290	0.0784345
1302	0.0879405
1314	0.0710724
1326	0.0438084
1338	0.0461546
1350	0.0528695
1362	0.0307832
1374	0.0297315
1386	0.0180411
1398	0.0277494
1410	0.0431208
1422	0.059018
1434	0.0459119
1446	0.0609597
1458	0.0495929
1470	0.0622541
1482	0.0419881
1494	0.0105577
1506	0.00525863
1518	0.00667442
1530	0.00885877
1542	0.0144815
1554	0.0404915
1566	0.0901248
1578	0.0521009
1590	0.0885472
1602	0.0919856
1614	0.183486
1626	0.124751
1638	0.0402487
1650	0.0442534
1662	0.0822773
1674	0.107033
1686	0.146392
1698	0.129565
1710	0.0813065
1722	0.0307428
1734	0.0183243
1746	0.0135511
1758	0.00849471
1770	0.00776659
1782	0.00796885
1794	0.00578449
1806	0.00481367
1818	0.00315518
1830	0.00210345
1842	0.0019012
1854	0.00194165
1866	0.00465187
1878	0.0021439
1890	0.00141579
1902	0.00105173
1914	0.00145624
1926	0.00315518
1938	0.00428781
1950	0.00262932
1962	0.00173939
1974	0.00145624
1986	0.00169894
1998	0.00157759
2010	0.00133488
2022	0.00149669
2034	0.00117308
2046	0.00125398
2058	0.00109218
2070	0.00113263
2082	0.00105173
2094	0.00125398
2106	0.00105173
2118	0.00129443
2130	0.00117308
2142	0.000970824
2154	0.00157759
2166	0.00165849
2178	0.00202255
2190	0.00169894
2202	0.00145624
2214	0.00129443
2226	0.00125398
2238	0.00133488
2250	0.00157759
2262	0.00145624
2274	0.00141579
2286	0.00323608
2298	0.00517773
2310	0.00651261
2322	0.00598675
2334	0.00408555
2346	0.00590585
2358	0.00550134
2370	0.00477322
2382	0.00424736
2394	0.00129443
2406	0.00109218
2418	0.000768569
2430	0.000687667
2442	0.000485412
2454	0.000444961
2466	0.000889922
2478	0.00121353
2490	0.00133488
2502	0.00121353
2514	0.00161804
2526	0.00165849
2538	0.00169894
2550	0.00149669
2562	0.00210345
2574	0.0019821
2586	0.00315518
2598	0.00351924
2610	0.00360014
2622	0.00351924
2634	0.00380239
2646	0.00513728
2658	0.00703847
2670	0.00776659
2682	0.00626991
2694	0.00542043
2706	0.00590585
2718	0.0058654
2730	0.00554179
2742	0.00493502
2754	0.00574404
2766	0.00715983
2778	0.00958689
2790	0.0135511
2802	0.016504
2814	0.0196187
2826	0.0275067
2838	0.055701
2850	0.127582
2862	0.151165
2874	0.0938463
2886	0.0838954
2898	0.120584
2910	0.18211
2922	0.296991
2934	0.40451
2946	0.24845
2958	0.0765737
2970	0.0294888
2982	0.0135511
2994	0.008252
3006	0.00711938
3018	0.0106386
3030	0.0147242
3042	0.0192951
3054	0.017758
3066	0.0239874
3078	0.021075
3090	0.0122971
3102	0.00647216
3114	0.00299337
3126	0.00210345
3138	0.00218435
3150	0.0021439
3162	0.00230571
3174	0.00125398
3186	0.00129443
3198	0.000970824
3210	0.00113263
3222	0.000849471
3234	0.00149669
3246	0.00145624
3258	0.00153714
3270	0.00177984
3282	0.00161804
3294	0.00230571
3306	0.00194165
3318	0.00242706
3330	0.00254841
3342	0.00279112
3354	0.00254841
3366	0.00291247
3378	0.00295292
3390	0.00315518
3402	0.00246751
3414	0.00210345
3426	0.0019821
3438	0.00165849
3450	0.00279112
3462	0.00238661
3474	0.0019012
3486	0.00242706
3498	0.00202255
3510	0.00242706
3522	0.00258886
3534	0.0019012
3546	0.00408555
3558	0.0040451
3570	0.00444961
3582	0.00368104
3594	0.00319563
3606	0.00262932
3618	0.00355969
3630	0.00351924
3642	0.00299337
3654	0.00238661
3666	0.00360014
3678	0.00165849
3690	0.000566314
3702	0.00368104
3714	0.00319563
3726	0.00562269
3738	0.0038833
3750	0.00149669
3762	0.00335743
3774	0.00303383
3786	0.00339788
3798	0.000768569
3810	0.00291247
3822	0.000849471
3834	0.002063
3846	0.00291247
3858	0.0018203
3870	0.00173939
3882	0.00509683
3894	0.00145624
3906	0.00501592
3918	0.00408555
3930	0.00347879
3942	0.00230571
3954	0.00355969
3966	0.00368104
