Infrared Spectrum: Oxirane, 2,3-diphenyl-
Formula: C 14 H 12 O
CAS: 17619-97-5
Origin: Sadtler Research Labs Under US-EPA Contract
1/CM	ABSORBANCE
450	0
462	0.00981066
474	0.0124943
486	0.0179935
498	0.0191374
510	0.0237568
522	0.0542446
534	0.05882
546	0.0204132
558	0.0172896
570	0.021865
582	0.0579841
594	0.073162
606	0.0212931
618	0.0248126
630	0.0184775
642	0.0256485
654	0.0257805
666	0.0384068
678	0.0701704
690	0.234928
702	0.358595
714	0.100658
726	0.116144
738	0.230397
750	0.22063
762	0.0967868
774	0.0339634
786	0.0192694
798	0.022261
810	0.0168937
822	0.0162338
834	0.022349
846	0.021997
858	0.0373069
870	0.066343
882	0.0417503
894	0.0780894
906	0.102682
918	0.0562243
930	0.0269683
942	0.0155739
954	0.0154419
966	0.0178616
978	0.0188734
990	0.0199293
1002	0.0211171
1014	0.0249446
1026	0.0687186
1038	0.0379668
1050	0.0330835
1062	0.0278042
1074	0.0388027
1086	0.0247686
1098	0.0187414
1110	0.0171137
1122	0.0106026
1134	0.00862282
1146	0.0128023
1158	0.0197533
1170	0.0339194
1182	0.0544646
1194	0.0245926
1206	0.0190934
1218	0.0198853
1230	0.0227889
1242	0.0263524
1254	0.0314997
1266	0.0355911
1278	0.0324236
1290	0.0238008
1302	0.0260884
1314	0.0329515
1326	0.0313237
1338	0.0287281
1350	0.0307958
1362	0.102066
1374	0.0624275
1386	0.0329515
1398	0.0483054
1410	0.0672228
1422	0.028992
1434	0.0241087
1446	0.0569282
1458	0.0675748
1470	0.0260444
1482	0.0239327
1494	0.073602
1506	0.0564883
1518	0.014386
1530	0.0136821
1542	0.014342
1554	0.0114384
1566	0.0118784
1578	0.0191374
1590	0.0285521
1602	0.0460617
1614	0.0341833
1626	0.0131542
1638	0.0111745
1650	0.0117904
1662	0.014782
1674	0.0208532
1686	0.0273203
1698	0.0345353
1710	0.0263964
1722	0.0240647
1734	0.0371309
1746	0.0445659
1758	0.0275402
1770	0.0207652
1782	0.0157499
1794	0.0226129
1806	0.0258245
1818	0.0163658
1830	0.0124503
1842	0.0109545
1854	0.0110425
1866	0.014562
1878	0.0191814
1890	0.0200613
1902	0.0155739
1914	0.0119664
1926	0.0128023
1938	0.0210291
1950	0.0238887
1962	0.0208532
1974	0.0115264
1986	0.0101186
1998	0.00923874
2010	0.00928273
2022	0.00919475
2034	0.00857883
2046	0.00862282
2058	0.00840285
2070	0.00866682
2082	0.00884279
2094	0.00857883
2106	0.00915075
2118	0.00937072
2130	0.00972267
2142	0.0112625
2154	0.0106026
2166	0.00937072
2178	0.00932673
2190	0.00906276
2202	0.00906276
2214	0.00915075
2226	0.00906276
2238	0.00932673
2250	0.0100306
2262	0.00972267
2274	0.0101626
2286	0.0101186
2298	0.00862282
2310	0.00998664
2322	0.0106465
2334	0.0106465
2346	0.00945871
2358	0.0087988
2370	0.00822688
2382	0.00827087
2394	0.00822688
2406	0.00831487
2418	0.00853484
2430	0.00787493
2442	0.00818288
2454	0.00822688
2466	0.00783093
2478	0.00778694
2490	0.00796291
2502	0.00796291
2514	0.0080949
2526	0.00787493
2538	0.007303
2550	0.00774294
2562	0.007347
2574	0.00752297
2586	0.00800691
2598	0.00840285
2610	0.00923874
2622	0.00835886
2634	0.00844685
2646	0.00818288
2658	0.00813889
2670	0.00844685
2682	0.00857883
2694	0.00866682
2706	0.0101186
2718	0.0114384
2730	0.0103386
2742	0.00937072
2754	0.00928273
2766	0.00967868
2778	0.00976667
2790	0.0103826
2802	0.0124063
2814	0.0137701
2826	0.0113944
2838	0.0102946
2850	0.0109985
2862	0.0126263
2874	0.0138581
2886	0.0140781
2898	0.0152219
2910	0.0161898
2922	0.0175536
2934	0.0208532
2946	0.0263084
2958	0.0389787
2970	0.0889559
2982	0.14738
2994	0.0873281
3006	0.0431141
3018	0.0518689
3030	0.113285
3042	0.146676
3054	0.101494
3066	0.156575
3078	0.176064
3090	0.0984586
3102	0.0665629
3114	0.0390667
3126	0.0215571
3138	0.0120983
3150	0.0106026
3162	0.0116144
3174	0.0107785
3186	0.00871081
3198	0.00871081
3210	0.00871081
3222	0.00813889
3234	0.00822688
3246	0.0080949
3258	0.00818288
3270	0.00844685
3282	0.00813889
3294	0.00840285
3306	0.00831487
3318	0.00787493
3330	0.00778694
3342	0.00769895
3354	0.00774294
3366	0.0080949
3378	0.00857883
3390	0.00866682
3402	0.00866682
3414	0.00813889
3426	0.00857883
3438	0.00866682
3450	0.0087988
3462	0.00937072
3474	0.00871081
3486	0.00761096
3498	0.0080949
3510	0.00835886
3522	0.00857883
3534	0.00813889
3546	0.00791892
3558	0.00822688
3570	0.00959069
3582	0.00945871
3594	0.00910676
3606	0.00791892
3618	0.00800691
3630	0.00813889
3642	0.00831487
3654	0.00871081
3666	0.00827087
3678	0.00827087
3690	0.00765496
3702	0.00783093
3714	0.00796291
3726	0.007303
3738	0.00752297
3750	0.007303
3762	0.00769895
3774	0.00778694
3786	0.00769895
3798	0.00840285
3810	0.00998664
3822	0.0103826
3834	0.00976667
3846	0.00893078
3858	0.00893078
3870	0.00932673
3882	0.00888679
3894	0.0095467
3906	0.0095467
3918	0.00937072
3930	0.00919475
3942	0.00998664
3954	0.0104266
3966	0.0102946
