Infrared Spectrum: 2-Propanone, 1,1,1,3,3-pentachloro-
Formula: C 3 H Cl 5 O
CAS: 1768-31-6
Origin: Sadtler Research Labs Under US-EPA Contract
1/CM	ABSORBANCE
450	0.0287775
462	0.00647806
474	0.0173163
486	0.00878275
498	0.00909419
510	0.0160706
522	0.0206799
534	0.0178769
546	0.0122709
558	0.00853359
570	0.00772384
582	0.0158837
594	0.0186867
606	0.0198079
618	0.0293381
630	0.0586139
642	0.174845
654	0.238754
666	0.287962
678	0.484671
690	0.172977
702	0.0326394
714	0.0251648
726	0.0266597
738	0.0260368
750	0.0313937
762	0.025227
774	0.0188113
786	0.0427925
798	0.0427303
810	0.0558109
822	0.149494
834	0.425309
846	0.618717
858	0.333308
870	0.204557
882	0.125325
894	0.0432909
906	0.0158214
918	0.00635348
930	0.00386192
942	0.00230469
954	0.000186867
966	0.000311445
978	0.00186867
990	0.0022424
1002	0.00199325
1014	0.00342589
1026	0.00878275
1038	0.022424
1050	0.0433531
1062	0.108258
1074	0.108196
1086	0.0176278
1098	0.0149494
1110	0.0158837
1122	0.0106514
1134	0.00778612
1146	0.00915648
1158	0.00703866
1170	0.00766155
1182	0.00928106
1194	0.0145756
1206	0.0528211
1218	0.0528834
1230	0.0120841
1242	0.00977937
1254	0.0112743
1266	0.0113989
1278	0.0343212
1290	0.045471
1302	0.0120841
1314	0.00940564
1326	0.00654035
1338	0.00373734
1350	0.00467168
1362	0.00386192
1374	0.00442252
1386	0.00442252
1398	0.00373734
1410	0.00336361
1422	0.00317674
1434	0.00305216
1446	0.00242927
1458	0.00174409
1470	0.00336361
1482	0.00274072
1494	0.00186867
1506	0.000747468
1518	0.00105891
1530	0.00180638
1542	0.000124578
1554	0.00186867
1566	0.00149494
1578	0.00130807
1590	0.00186867
1602	0.00199325
1614	0.00211783
1626	0.00149494
1638	0.00118349
1650	0.000747468
1662	0.00230469
1674	0.000498312
1686	0.0016818
1698	0.00161951
1710	0.00610432
1722	0.0125824
1734	0.0219257
1746	0.0393666
1758	0.0554372
1770	0.0663378
1782	0.147874
1794	0.250153
1806	0.0579911
1818	0.0166935
1830	0.00815986
1842	0.00411107
1854	0.0022424
1866	0.00161951
1878	0.00161951
1890	0.000934335
1902	0.00124578
1914	0.00174409
1926	0.00242927
1938	0.00155722
1950	0.00137036
1962	0.000996624
1974	0.000809757
1986	0.000747468
1998	0.00062289
2010	0.000560601
2022	0.00062289
2034	0.000498312
2046	0.000685179
2058	0.000809757
2070	0.000747468
2082	0.00118349
2094	0.000872046
2106	0.000685179
2118	0.000747468
2130	0.00062289
2142	0.000809757
2154	0.00105891
2166	0.000809757
2178	0.00062289
2190	0.00062289
2202	0.000249156
2214	0.000373734
2226	0.000685179
2238	0.000498312
2250	0.000560601
2262	0.000560601
2274	0.000685179
2286	0.000996624
2298	0.0011212
2310	0.00174409
2322	0.00143265
2334	0.000872046
2346	0.00137036
2358	0.00193096
2370	0.000934335
2382	0.00124578
2394	0.00105891
2406	0.00105891
2418	0.000685179
2430	0.000436023
2442	0.00062289
2454	0.00062289
2466	0.000747468
2478	0.000872046
2490	0.00105891
2502	0.0011212
2514	0.000747468
2526	0.00105891
2538	0.0011212
2550	0.000934335
2562	0.000872046
2574	0.000498312
2586	0.00062289
2598	0.000186867
2610	0.000186867
2622	0.000311445
2634	0.000311445
2646	0.000373734
2658	0.000186867
2670	0.000685179
2682	0.000436023
2694	0.000560601
2706	0.000560601
2718	0.000311445
2730	0.000373734
2742	0.000373734
2754	0.000560601
2766	0.000373734
2778	0.000560601
2790	0.000809757
2802	0.00105891
2814	0.0011212
2826	0.00143265
2838	0.00205554
2850	0.002803
2862	0.00330132
2874	0.00199325
2886	0.00143265
2898	0.00161951
2910	0.0011212
2922	0.00118349
2934	0.00155722
2946	0.002803
2958	0.00305216
2970	0.00292758
2982	0.00274072
2994	0.00404879
3006	0.0039865
3018	0.00585517
3030	0.0112743
3042	0.00348818
3054	0.0011212
3066	0.00130807
3078	0.00149494
3090	0.000872046
3102	0.000747468
3114	0.000685179
3126	0.000809757
3138	0.00062289
3150	0.00105891
3162	0.000498312
3174	0.000685179
3186	0.000747468
3198	0.000560601
3210	0.000872046
3222	0.00062289
3234	0.00062289
3246	0.00105891
3258	0.00062289
3270	0.000685179
3282	0.00105891
3294	0.000996624
3306	0.000872046
3318	0.000685179
3330	0.00105891
3342	0.000996624
3354	0.000685179
3366	0.000747468
3378	0.000809757
3390	0.00118349
3402	0.000996624
3414	0.000934335
3426	0.000560601
3438	0.00130807
3450	0.00161951
3462	0.00143265
3474	0.00149494
3486	0.00174409
3498	0.00193096
3510	0.00292758
3522	0.00373734
3534	0.00429794
3546	0.00467168
3558	0.00516999
3570	0.00529457
3582	0.00541914
3594	0.00267843
3606	0.00186867
3618	0.0011212
3630	0.000498312
3642	0.00143265
3654	0.00130807
3666	0.00137036
3678	0.000186867
3690	0.00186867
3702	0.00186867
3714	0.000809757
3726	0.0016818
3738	0.00236698
3750	0.000996624
3762	0.00118349
3774	0.00236698
3786	0.00199325
3798	0.00186867
3810	0.0016818
3822	0.00124578
3834	0.00130807
3846	0.00149494
3858	0.00124578
3870	0.00130807
3882	0.00130807
3894	0.00130807
3906	0.00199325
3918	0.00155722
3930	0.00155722
3942	0.00218011
3954	0.00286529
3966	0.00143265
