Infrared Spectrum: Methanol, tri-2-norbornyl-,
Formula: C 22 H 34 N
CAS: 17687-75-1
Origin: Sadtler Research Labs Under US-EPA Contract
1/CM	ABSORBANCE
450	0.0547822
462	0.0143613
474	0.0213993
486	0.0265351
498	0.0233015
510	0.019402
522	0.0147417
534	0.0144564
546	0.0163586
558	0.0234917
570	0.0138858
582	0.0180705
594	0.0164537
606	0.0215895
618	0.0228259
630	0.0146466
642	0.0147417
654	0.0139809
666	0.0118885
678	0.019402
690	0.00741842
702	0.0116032
714	0.0107472
726	0.0144564
738	0.0153124
750	0.0245379
762	0.019402
774	0.0188314
786	0.0162635
798	0.0156928
810	0.0230161
822	0.023777
834	0.0252036
846	0.0248232
858	0.0249183
870	0.0257743
882	0.0244428
894	0.0157879
906	0.0107472
918	0.00960591
930	0.00989123
942	0.00817929
954	0.00865483
966	0.00523094
978	0.00979612
990	0.012364
1002	0.0155977
1014	0.0195922
1026	0.0230161
1038	0.0186412
1050	0.0127445
1062	0.0131249
1074	0.0181656
1086	0.0339536
1098	0.0319563
1110	0.0242525
1122	0.0249183
1134	0.0164537
1146	0.0228259
1158	0.0259645
1170	0.0219699
1182	0.015883
1194	0.0134102
1206	0.0183558
1218	0.016739
1230	0.00551626
1242	0.000760864
1254	0.00808418
1266	0.0174999
1278	0.0238721
1290	0.031671
1302	0.0379481
1314	0.029103
1326	0.0189265
1338	0.0155977
1350	0.0155977
1362	0.017595
1374	0.0169292
1386	0.0180705
1398	0.0125543
1410	0.0111276
1422	0.0145515
1434	0.0148368
1446	0.0245379
1458	0.0552577
1470	0.0255841
1482	0.027296
1494	0.014076
1506	0.0198776
1518	0.0127445
1530	0.00646734
1542	0.00732332
1554	0.00903526
1566	0.00580159
1578	0.00399454
1590	0.00523094
1602	0.00874994
1614	0.00684778
1626	0.00456518
1638	0.00370921
1650	0.00513583
1662	0.00694288
1674	0.00389943
1686	0.00760864
1698	0.00418475
1710	0.00542116
1722	0.00656245
1734	0.00874994
1746	0.00656245
1758	0.00523094
1770	0.00722821
1782	0.00608691
1794	0.00437497
1806	0.00532605
1818	0.00608691
1830	0.00447008
1842	0.00456518
1854	0.00504072
1866	0.003519
1878	0.00427986
1890	0.00304346
1902	0.00342389
1914	0.00285324
1926	0.00342389
1938	0.00399454
1950	0.00427986
1962	0.00285324
1974	0.00275813
1986	0.00408964
1998	0.00266302
2010	0.00370921
2022	0.00256792
2034	0.00190216
2046	0.003519
2058	0.00285324
2070	0.00427986
2082	0.00437497
2094	0.00456518
2106	0.00427986
2118	0.00313856
2130	0.00332878
2142	0.0023777
2154	0.00313856
2166	0.00466029
2178	0.00494562
2190	0.00370921
2202	0.00399454
2214	0.00418475
2226	0.00342389
2238	0.00380432
2250	0.003519
2262	0.00332878
2274	0.00437497
2286	0.00513583
2298	0.00485051
2310	0.00532605
2322	0.00304346
2334	0.00171194
2346	0.000190216
2358	0.00266302
2370	0.00275813
2382	0.00627713
2394	0.00494562
2406	0.00513583
2418	0.00561137
2430	0.00551626
2442	0.00504072
2454	0.00466029
2466	0.00466029
2478	0.00466029
2490	0.00447008
2502	0.00466029
2514	0.00504072
2526	0.00542116
2538	0.00494562
2550	0.00618202
2562	0.00637224
2574	0.00665756
2586	0.00665756
2598	0.00656245
2610	0.00618202
2622	0.00627713
2634	0.00618202
2646	0.00570648
2658	0.00646734
2670	0.00675267
2682	0.00722821
2694	0.00722821
2706	0.0071331
2718	0.00779886
2730	0.00741842
2742	0.00751353
2754	0.00874994
2766	0.00979612
2778	0.00960591
2790	0.00970102
2802	0.0102717
2814	0.0116983
2826	0.0138858
2838	0.0215895
2850	0.0324318
2862	0.0595376
2874	0.209998
2886	0.196683
2898	0.102526
2910	0.111847
2922	0.165203
2934	0.226072
2946	0.325364
2958	0.95108
2970	0.386138
2982	0.143613
2994	0.0828391
3006	0.0497415
3018	0.0324318
3030	0.0218748
3042	0.0213993
3054	0.018451
3066	0.0131249
3078	0.00932058
3090	0.00941569
3102	0.00846461
3114	0.00865483
3126	0.0083695
3138	0.00760864
3150	0.00760864
3162	0.00694288
3174	0.00789396
3186	0.0071331
3198	0.00694288
3210	0.00770375
3222	0.00703799
3234	0.00798907
3246	0.00798907
3258	0.00798907
3270	0.0082744
3282	0.00798907
3294	0.00798907
3306	0.00865483
3318	0.00855972
3330	0.00855972
3342	0.00846461
3354	0.00922548
3366	0.00941569
3378	0.00932058
3390	0.0100814
3402	0.00941569
3414	0.00979612
3426	0.00970102
3438	0.0103668
3450	0.00970102
3462	0.00894015
3474	0.00884504
3486	0.00903526
3498	0.0083695
3510	0.00798907
3522	0.0082744
3534	0.00884504
3546	0.00798907
3558	0.00646734
3570	0.00903526
3582	0.0102717
3594	0.00694288
3606	0.0083695
3618	0.0071331
3630	0.00751353
3642	0.00846461
3654	0.00256792
3666	0.00874994
3678	0.00665756
3690	0.00418475
3702	0.00903526
3714	0.00913037
3726	0.00932058
3738	0.00932058
3750	0.00494562
3762	0.00846461
3774	0.00932058
3786	0.00979612
3798	0.00798907
3810	0.0119836
3822	0.00760864
3834	0.0115081
3846	0.0111276
3858	0.00760864
3870	0.00770375
3882	0.011413
3894	0.0102717
3906	0.0110325
3918	0.0109374
3930	0.00760864
3942	0.00970102
3954	0.0101766
3966	0.0104619
