Infrared Spectrum: 1,4-Dioxaspiro[4.5]decane
Formula: C 8 H 14 O 2
CAS: 177-10-6
Origin: Sadtler Research Labs Under US-EPA Contract
1/CM	ABSORBANCE
450	0.0037008
462	0.0002313
474	0.0157284
486	0.0241323
498	0.013878
510	0.006168
522	0.0089436
534	0.0063993
546	0.0036237
558	0.0029298
570	0.0024672
582	0.0055512
594	0.0020046
606	0.0049344
618	0.0045489
630	0.0057054
642	0.0122589
654	0.0185811
666	0.0103314
678	0.0084039
690	0.006168
702	0.0054741
714	0.0047802
726	0.0031611
738	0.0057054
750	0.0049344
762	0.0153429
774	0.0137238
786	0.0066306
798	0.0052428
810	0.0090978
822	0.0210483
834	0.0316881
846	0.0409401
858	0.0178872
870	0.0075558
882	0.0086352
894	0.01542
906	0.041634
918	0.0962979
930	0.148495
942	0.112103
954	0.039321
966	0.0145719
978	0.0116421
990	0.0130299
1002	0.0151116
1014	0.0196605
1026	0.0427905
1038	0.145719
1050	0.172935
1062	0.0750183
1074	0.0651495
1086	0.0878169
1098	0.262603
1110	0.504928
1122	0.238008
1134	0.0727053
1146	0.0713175
1158	0.13932
1170	0.156128
1182	0.0625281
1194	0.0359286
1206	0.0325362
1218	0.0457974
1230	0.0579021
1242	0.0522738
1254	0.0511173
1266	0.0445638
1278	0.10023
1290	0.0984567
1302	0.0270621
1314	0.0151887
1326	0.0328446
1338	0.0498066
1350	0.0418653
1362	0.0828825
1374	0.0769458
1386	0.0203544
1398	0.0106398
1410	0.0110253
1422	0.0165765
1434	0.0305316
1446	0.0572853
1458	0.0696213
1470	0.0417882
1482	0.0180414
1494	0.0088665
1506	0.0075558
1518	0.0051657
1530	0.0048573
1542	0.0070932
1554	0.004626
1566	0.003084
1578	0.0050115
1590	0.0042405
1602	0.0031611
1614	0.0040863
1626	0.0032382
1638	0.0047031
1650	0.0040092
1662	0.0040863
1674	0.0045489
1686	0.0067848
1698	0.0070932
1710	0.0086352
1722	0.0188895
1734	0.0289896
1746	0.0245949
1758	0.0114108
1770	0.0070161
1782	0.0053199
1794	0.0055512
1806	0.0045489
1818	0.0062451
1830	0.0109482
1842	0.00771
1854	0.0040092
1866	0.0050115
1878	0.0043176
1890	0.0037779
1902	0.003084
1914	0.0033153
1926	0.002313
1938	0.0031611
1950	0.0023901
1962	0.0029298
1974	0.0043947
1986	0.0057054
1998	0.004626
2010	0.0020817
2022	0.002313
2034	0.0022359
2046	0.0024672
2058	0.0026985
2070	0.0039321
2082	0.0043176
2094	0.0037008
2106	0.0030069
2118	0.0032382
2130	0.0026985
2142	0.0037779
2154	0.0032382
2166	0.0029298
2178	0.0021588
2190	0.0016962
2202	0.0022359
2214	0.0012336
2226	0.0021588
2238	0.0012336
2250	0.0016962
2262	0.0010794
2274	0.0018504
2286	0.003084
2298	0.0036237
2310	0.0021588
2322	0.0027756
2334	0.0022359
2346	0.0020817
2358	0.0034695
2370	0.0037779
2382	0.0023901
2394	0.0010794
2406	0.0010794
2418	0.0016191
2430	0.0010023
2442	0.0006168
2454	0
2466	0.0005397
2478	0.0009252
2490	0.0009252
2502	0.0006939
2514	0.000771
2526	0.0012336
2538	0.0013107
2550	0.0013107
2562	0.0017733
2574	0.0013107
2586	0.0019275
2598	0.0020817
2610	0.0027756
2622	0.0024672
2634	0.0030069
2646	0.0029298
2658	0.0063222
2670	0.0098688
2682	0.0094833
2694	0.0066306
2706	0.0047031
2718	0.0031611
2730	0.0027756
2742	0.0029298
2754	0.0039321
2766	0.0047802
2778	0.0064764
2790	0.008481
2802	0.0103314
2814	0.0122589
2826	0.0178101
2838	0.0263682
2850	0.0552036
2862	0.152658
2874	0.24965
2886	0.246257
2898	0.155279
2910	0.129605
2922	0.163067
2934	0.385963
2946	0.764447
2958	0.532761
2970	0.177715
2982	0.111718
2994	0.0813405
3006	0.0432531
3018	0.024672
3030	0.0134925
3042	0.0082497
3054	0.0053199
3066	0.0054741
3078	0.0037008
3090	0.0033153
3102	0.0024672
3114	0.0029298
3126	0.0026214
3138	0.0026985
3150	0.0019275
3162	0.0020817
3174	0.0022359
3186	0.000771
3198	0.0017733
3210	0.0008481
3222	0.002313
3234	0.0021588
3246	0.0026985
3258	0.0018504
3270	0.0024672
3282	0.0010794
3294	0.0025443
3306	0.0022359
3318	0.0026214
3330	0.0006168
3342	0.0012336
3354	0.0010023
3366	0.0011565
3378	0.0012336
3390	0.0010794
3402	0.0020817
3414	0.0003084
3426	0.0018504
3438	0.0013878
3450	0.0014649
3462	0.0021588
3474	0.0022359
3486	0.0010023
3498	0.0020046
3510	0.0013878
3522	0.0021588
3534	0.0024672
3546	0.0016962
3558	0.0016962
3570	0.002313
3582	0.0013107
3594	0.0023901
3606	0.0025443
3618	0.0009252
3630	0.0032382
3642	0.0005397
3654	0.0024672
3666	0.0006939
3678	0.0027756
3690	0.0021588
3702	0.0021588
3714	0.0032382
3726	0.0035466
3738	0.0047031
3750	0.0043947
3762	0.0043947
3774	0.0032382
3786	0.003855
3798	0.0032382
3810	0.0035466
3822	0.0035466
3834	0.0023901
3846	0.0020046
3858	0.0037779
3870	0.0026985
3882	0.003084
3894	0.0018504
3906	0.0023901
3918	0.0031611
3930	0.0048573
3942	0.0048573
3954	0.0004626
3966	0.0010023
