Infrared Spectrum: 1,2,3-Trichloro-4-nitrobenzene
Formula: C 6 H 2 Cl 3 N O 2
CAS: 17700-09-3
Origin: Sadtler Research Labs Under US-EPA Contract
1/CM	ABSORBANCE
450	0.0273126
462	0
474	0.0235705
486	0.0095254
498	0.0149685
510	0.0320753
522	0.0191966
534	0.00714405
546	0.0139479
558	0.029451
570	0.0788762
582	0.0398512
594	0.0292566
606	0.018662
618	0.0187106
630	0.00899081
642	0.00694966
654	0.00364492
666	0.00646367
678	0.00422811
690	0.00612347
702	0.00714405
714	0.0102058
726	0.0160377
738	0.0416493
750	0.0661918
762	0.0911717
774	0.14186
786	0.0548683
798	0.0849997
810	0.0626441
822	0.129905
834	0.0375184
846	0.0128301
858	0.0155517
870	0.0246397
882	0.0501056
894	0.185308
906	0.076106
918	0.0129759
930	0.0097684
942	0.00724125
954	0.00539449
966	0.00364492
978	0.00155517
990	0.00194396
1002	0.00272154
1014	0.00242995
1026	0.00320753
1038	0.00301314
1050	0.00383932
1062	0.00388792
1074	0.00437391
1086	0.00602628
1098	0.00874782
1110	0.0101086
1122	0.0161349
1134	0.0379558
1146	0.038539
1158	0.0549655
1170	0.150511
1182	0.108862
1194	0.0565692
1206	0.0190022
1218	0.0147741
1230	0.0190994
1242	0.031152
1254	0.0462662
1266	0.0186134
1278	0.0129759
1290	0.0157947
1302	0.0227929
1314	0.0339707
1326	0.0626441
1338	0.181517
1350	0.446965
1362	0.370179
1374	0.200179
1386	0.0809659
1398	0.0540907
1410	0.0378586
1422	0.0827155
1434	0.239496
1446	0.0601656
1458	0.0221125
1470	0.01769
1482	0.0223555
1494	0.03018
1506	0.0477728
1518	0.0837361
1530	0.158773
1542	0.316088
1554	0.439141
1566	0.442834
1578	0.331202
1590	0.186912
1602	0.0732387
1614	0.0352829
1626	0.021821
1638	0.0223555
1650	0.0192452
1662	0.00738705
1674	0.00660946
1686	0.00869922
1698	0.00767864
1710	0.00374212
1722	0.00359633
1734	0.00442251
1746	0.0049085
1758	0.00874782
1770	0.00656086
1782	0.00325613
1794	0.00281874
1806	0.00286734
1818	0.00257575
1830	0.00301314
1842	0.00228415
1854	0.00301314
1866	0.00549169
1878	0.0094768
1890	0.0096226
1902	0.00437391
1914	0.00345053
1926	0.00277014
1938	0.00345053
1950	0.00354773
1962	0.00374212
1974	0.00325613
1986	0.00257575
1998	0.00242995
2010	0.00247855
2022	0.00233275
2034	0.00199256
2046	0.00218695
2058	0.00238135
2070	0.00233275
2082	0.00155517
2094	0.00145797
2106	0.00170097
2118	0.00238135
2130	0.00218695
2142	0.00208976
2154	0.00252715
2166	0.00296454
2178	0.00252715
2190	0.00228415
2202	0.00218695
2214	0.00213836
2226	0.00267294
2238	0.00242995
2250	0.00213836
2262	0.00281874
2274	0.00403372
2286	0.0047141
2298	0.00607488
2310	0.00763004
2322	0.00641507
2334	0.0048113
2346	0.00379072
2358	0.00578328
2370	0.00622067
2382	0.00539449
2394	0.00223555
2406	0.00165237
2418	0.00242995
2430	0.00301314
2442	0.00340193
2454	0.00277014
2466	0.00311034
2478	0.00325613
2490	0.00388792
2502	0.0050543
2514	0.00408232
2526	0.00262435
2538	0.00257575
2550	0.00208976
2562	0.00145797
2574	0.00150657
2586	0.00140937
2598	0.00179816
2610	0.00184676
2622	0.00228415
2634	0.00252715
2646	0.00320753
2658	0.00325613
2670	0.00359633
2682	0.00461691
2694	0.00602628
2706	0.00597768
2718	0.00422811
2730	0.00393652
2742	0.00447111
2754	0.00379072
2766	0.00320753
2778	0.00257575
2790	0.00267294
2802	0.00335333
2814	0.00301314
2826	0.00218695
2838	0.00311034
2850	0.00422811
2862	0.00558889
2874	0.00733845
2886	0.00894222
2898	0.0109348
2910	0.0101572
2922	0.00937961
2934	0.00743565
2946	0.00563748
2958	0.00432531
2970	0.00413091
2982	0.00330473
2994	0.00330473
3006	0.00374212
3018	0.00364492
3030	0.00252715
3042	0.00223555
3054	0.00252715
3066	0.00272154
3078	0.00413091
3090	0.0049571
3102	0.00281874
3114	0.00277014
3126	0.00242995
3138	0.00340193
3150	0.00257575
3162	0.00189536
3174	0.00213836
3186	0.00218695
3198	0.00184676
3210	0.00242995
3222	0.00238135
3234	0.00311034
3246	0.00291594
3258	0.00262435
3270	0.00345053
3282	0.00315893
3294	0.00262435
3306	0.00233275
3318	0.00257575
3330	0.00262435
3342	0.00242995
3354	0.00160377
3366	0.00213836
3378	0.00145797
3390	0.00179816
3402	0.00116638
3414	0.00228415
3426	0.00296454
3438	0.00359633
3450	0.00315893
3462	0.00369352
3474	0.00301314
3486	0.00340193
3498	0.00447111
3510	0.00364492
3522	0.00383932
3534	0.00335333
3546	0.00442251
3558	0.00422811
3570	0.0046655
3582	0.00272154
3594	0.00403372
3606	0.00330473
3618	0.00218695
3630	0.00379072
3642	0.00315893
3654	0.00636647
3666	0.00233275
3678	0.0049571
3690	0.00660946
3702	0.0048599
3714	0.00442251
3726	0.00398512
3738	0.00583188
3750	0.0103516
3762	0.00437391
3774	0.00403372
3786	0.00461691
3798	0.00592908
3810	0.00320753
3822	0.00451971
3834	0.00233275
3846	0.00242995
3858	0.00422811
3870	0.00189536
3882	0.00242995
3894	0.00277014
3906	0.00408232
3918	0.00228415
3930	0.00354773
3942	0.00549169
3954	0.00806743
3966	0.00942821
