Infrared Spectrum: Benzene, 1-bromo-2,4-dimethoxy-
Formula: C 8 H 9 Br O 2
CAS: 17715-69-4
Origin: Sadtler Research Labs Under US-EPA Contract
1/CM	ABSORBANCE
450	0.0373188
462	0.0210289
474	0.0118472
486	0.00217199
498	0.0062198
510	0.01086
522	0.00928034
534	0.00898416
546	0.00898416
558	0.0107612
570	0.0123409
582	0.0253728
594	0.0534113
606	0.129234
618	0.123804
630	0.0816472
642	0.0391946
654	0.0212263
666	0.0150065
678	0.011946
690	0.0103663
702	0.00908288
714	0.0110574
726	0.0136243
738	0.00829307
750	0.00641726
762	0.00967525
774	0.0302105
786	0.0919148
798	0.0837205
810	0.0746376
822	0.0930996
834	0.14118
846	0.108698
858	0.0510419
870	0.0247805
882	0.0146116
894	0.0139205
906	0.0211276
918	0.0520291
930	0.0608158
942	0.0320863
954	0.0168823
966	0.0168823
978	0.0235958
990	0.0381086
1002	0.0670356
1014	0.183731
1026	0.50025
1038	0.415937
1050	0.382567
1062	0.36993
1074	0.264095
1086	0.0933957
1098	0.0789816
1110	0.111759
1122	0.219964
1134	0.20239
1146	0.235069
1158	0.61655
1170	0.739268
1182	0.275448
1194	0.285815
1206	0.827431
1218	0.742131
1230	0.246423
1242	0.210782
1254	0.295885
1266	0.281569
1278	0.364006
1290	0.535989
1302	0.741144
1314	0.463227
1326	0.115511
1338	0.0588413
1350	0.0367264
1362	0.0394908
1374	0.061112
1386	0.109587
1398	0.207425
1410	0.236451
1422	0.171193
1434	0.253333
1446	0.405669
1458	0.440717
1470	0.708465
1482	0.897428
1494	0.701752
1506	0.161419
1518	0.0661471
1530	0.0520291
1542	0.0663445
1554	0.104848
1566	0.24198
1578	0.53283
1590	0.821507
1602	0.610034
1614	0.180868
1626	0.0668382
1638	0.0377137
1650	0.0313952
1662	0.0216212
1674	0.0249779
1686	0.0264588
1698	0.0244843
1710	0.0142167
1722	0.0142167
1734	0.0203378
1746	0.0155989
1758	0.0100702
1770	0.00898416
1782	0.0062198
1794	0.00671344
1806	0.00533126
1818	0.00552871
1830	0.0116498
1842	0.0125383
1854	0.00750325
1866	0.0102676
1878	0.00789816
1890	0.00829307
1902	0.00454144
1914	0.0051338
1926	0.00858925
1938	0.00997143
1950	0.00779943
1962	0.00552871
1974	0.00483762
1986	0.00385035
1998	0.00306054
2010	0.0036529
2022	0.00552871
2034	0.00562744
2046	0.00651598
2058	0.00829307
2070	0.0110574
2082	0.0132294
2094	0.0120447
2106	0.0087867
2118	0.00720707
2130	0.00562744
2142	0.00394908
2154	0.00227072
2166	0.00276436
2178	0.00464017
2190	0.00740453
2202	0.00957652
2214	0.00918161
2226	0.00710834
2238	0.00444271
2250	0.00167836
2262	9.8727e-05
2274	0.000296181
2286	0.00118472
2298	0.0036529
2310	0.00572617
2322	0.00483762
2334	0.00355417
2346	0.00207327
2358	0.00148091
2370	0.00335672
2382	0.00444271
2394	0.00335672
2406	0.00286308
2418	0.00325799
2430	0.00394908
2442	0.00523253
2454	0.00523253
2466	0.00562744
2478	0.00681216
2490	0.00789816
2502	0.00858925
2514	0.00937907
2526	0.00681216
2538	0.00424526
2550	0.00355417
2562	0.00424526
2574	0.00572617
2586	0.00631853
2598	0.00641726
2610	0.00760198
2622	0.00700962
2634	0.00612107
2646	0.00612107
2658	0.00582489
2670	0.00631853
2682	0.00661471
2694	0.00602235
2706	0.0051338
2718	0.00503508
2730	0.00523253
2742	0.00631853
2754	0.00700962
2766	0.00779943
2778	0.00967525
2790	0.0134269
2802	0.0197454
2814	0.0302105
2826	0.056768
2838	0.145129
2850	0.20318
2862	0.125877
2874	0.0958639
2886	0.0940868
2898	0.110476
2910	0.139699
2922	0.178301
2934	0.196467
2946	0.349395
2958	0.339818
2970	0.225789
2982	0.11166
2994	0.102676
3006	0.25284
3018	0.24741
3030	0.0658509
3042	0.039787
3054	0.0335672
3066	0.0307041
3078	0.0396883
3090	0.0505482
3102	0.0373188
3114	0.0197454
3126	0.0124396
3138	0.00977397
3150	0.00858925
3162	0.00661471
3174	0.00612107
3186	0.00523253
3198	0.00385035
3210	0.0036529
3222	0.00306054
3234	0.00306054
3246	0.00246817
3258	0.00217199
3270	0.00217199
3282	0.00177709
3294	0.00207327
3306	0.00217199
3318	0.00177709
3330	0.00138218
3342	0.00167836
3354	0.00138218
3366	0.00128345
3378	0.00167836
3390	0.00098727
3402	0.00148091
3414	0.00148091
3426	0.00227072
3438	0.00157963
3450	0.00197454
3462	0.00128345
3474	0.00187581
3486	0.00138218
3498	0.00227072
3510	0.00138218
3522	0.00118472
3534	0.00148091
3546	0.000789816
3558	0.000691089
3570	0.00138218
3582	0.00148091
3594	0.000789816
3606	0.00098727
3618	0.00128345
3630	0.00148091
3642	0.000789816
3654	0.001086
3666	0.00118472
3678	0.000691089
3690	0.00177709
3702	0.00157963
3714	0
3726	0.00157963
3738	0.000888543
3750	0.001086
3762	0.00148091
3774	0.000296181
3786	0.00098727
3798	0.001086
3810	0
3822	0.000691089
3834	9.8727e-05
3846	0
3858	0.00118472
3870	0.000888543
3882	0
3894	0.000888543
3906	0.000394908
3918	0.000691089
3930	0
3942	0.000394908
3954	0.000197454
3966	0.001086
