Infrared Spectrum: Propiophenone, 3'-bromo-2'-hydroxy-,
Formula: C 9 H 9 Br O 2
CAS: 17764-91-9
Origin: Sadtler Research Labs Under US-EPA Contract
1/CM	ABSORBANCE
450	0.00123015
462	0.00893909
474	0.00483859
486	0.00401849
498	0.00303437
510	0.00688884
522	0.00926713
534	0.0150078
546	0.0360844
558	0.0170581
570	0.0145158
582	0.0238649
594	0.0363304
606	0.0688884
618	0.112354
630	0.0453515
642	0.0278014
654	0.0278014
666	0.0341162
678	0.0699545
690	0.0965258
702	0.0676583
714	0.0474838
726	0.0716767
738	0.204861
750	0.260546
762	0.300157
774	0.27539
786	0.156065
798	0.0942295
810	0.0729889
822	0.0770894
834	0.0849624
846	0.0364124
858	0.00975919
870	0.00697085
882	0.00434653
894	0.00369045
906	0.00565869
918	0.00893909
930	0.0155819
942	0.0454335
954	0.0769254
966	0.0702006
978	0.0346082
990	0.016648
1002	0.0307537
1014	0.0785656
1026	0.0564229
1038	0.0212406
1050	0.0218967
1062	0.057161
1074	0.150898
1086	0.118094
1098	0.126049
1110	0.0916872
1122	0.098576
1134	0.347148
1146	0.817476
1158	0.100954
1170	0.0825841
1182	0.222493
1194	0.165414
1206	0.148766
1218	0.238895
1230	0.500343
1242	0.373638
1254	0.291382
1266	0.292202
1278	0.334847
1290	0.301633
1302	0.152047
1314	0.154343
1326	0.274651
1338	0.310408
1350	0.286297
1362	0.26194
1374	0.241191
1386	0.174189
1398	0.121703
1410	0.193872
1422	0.470409
1434	0.704138
1446	0.393894
1458	0.16279
1470	0.195758
1482	0.131626
1494	0.0774994
1506	0.0692164
1518	0.0647879
1530	0.0621636
1542	0.0583911
1554	0.0534705
1566	0.0686424
1578	0.0839782
1590	0.11137
1602	0.185507
1614	0.139007
1626	0.11793
1638	0.256855
1650	0.624178
1662	0.726527
1674	0.277358
1686	0.090621
1698	0.0667561
1710	0.0480579
1722	0.0219787
1734	0.0147618
1746	0.00893909
1758	0.00918512
1770	0.00803698
1782	0.00729889
1794	0.008201
1806	0.00885708
1818	0.0110713
1830	0.00828301
1842	0.00565869
1854	0.0144338
1866	0.0200924
1878	0.00524864
1890	0.00475658
1902	0.00926713
1914	0.0123835
1926	0.0041005
1938	0.00180422
1950	0.00172221
1962	0.00172221
1974	0.00098412
1986	0.00123015
1998	0.00114814
2010	0.00057407
2022	0.00073809
2034	0.00049206
2046	0.00057407
2058	0.00049206
2070	0.00049206
2082	0.00049206
2094	0.00180422
2106	0.00147618
2118	0.00139417
2130	0.00024603
2142	0
2154	0.00032804
2166	0.00057407
2178	0.00073809
2190	0.0016402
2202	0.00172221
2214	0.00106613
2226	0.0008201
2238	0.0016402
2250	0.00344442
2262	0.00418251
2274	0.00369045
2286	0.00237829
2298	0.00213226
2310	0.00295236
2322	0.00442854
2334	0.00393648
2346	0.00377246
2358	0.00549467
2370	0.0041005
2382	0.00631477
2394	0.00623276
2406	0.00697085
2418	0.00746291
2430	0.00795497
2442	0.00787296
2454	0.00762693
2466	0.00762693
2478	0.008201
2490	0.0098412
2502	0.0111534
2514	0.0126295
2526	0.0138597
2538	0.0158279
2550	0.0190263
2562	0.0218967
2574	0.0225527
2586	0.0196004
2598	0.0183702
2610	0.0189443
2622	0.0181242
2634	0.0178782
2646	0.0184522
2658	0.0209946
2670	0.0238649
2682	0.0272273
2694	0.0302617
2706	0.033214
2718	0.032804
2730	0.0296876
2742	0.0305077
2754	0.0317379
2766	0.0304257
2778	0.0305897
2790	0.0316559
2802	0.0337881
2814	0.0373966
2826	0.0425632
2838	0.0467457
2850	0.0509282
2862	0.0559308
2874	0.0661001
2886	0.0917692
2898	0.111534
2910	0.0976739
2922	0.121703
2934	0.123261
2946	0.156147
2958	0.191821
2970	0.131626
2982	0.184933
2994	0.251443
3006	0.15057
3018	0.120719
3030	0.11711
3042	0.114978
3054	0.114076
3066	0.118504
3078	0.136383
3090	0.156147
3102	0.111288
3114	0.0961977
3126	0.0939014
3138	0.0926713
3150	0.0933274
3162	0.0922612
3174	0.0868486
3186	0.081846
3198	0.0773354
3210	0.0724968
3222	0.0682323
3234	0.0666741
3246	0.065854
3258	0.0638858
3270	0.0600313
3282	0.0560128
3294	0.0559308
3306	0.0556028
3318	0.0510102
3330	0.0463356
3342	0.0429732
3354	0.0392828
3366	0.0362484
3378	0.0333781
3390	0.0302617
3402	0.0282934
3414	0.025013
3426	0.0219787
3438	0.0205845
3450	0.0175501
3462	0.0154999
3474	0.0147618
3486	0.0132856
3498	0.0121375
3510	0.0118914
3522	0.0158279
3534	0.0262432
3546	0.0173041
3558	0.00852904
3570	0.0065608
3582	0.00483859
3594	0.00541266
3606	0.00360844
3618	0.00262432
3630	0.00459256
3642	0.00311638
3654	0.00180422
3666	0.00196824
3678	0.00237829
3690	0.00229628
3702	0.00188623
3714	0.0016402
3726	0.0032804
3738	0.00188623
3750	0.00090211
3762	0.00073809
3774	0.00155819
3786	0.0008201
3798	0.00180422
3810	0.00016402
3822	0.00114814
3834	0.0024603
3846	0.00123015
3858	0.00352643
3870	0.00360844
3882	0.00229628
3894	0.00270633
3906	0.00336241
3918	0.0032804
3930	0.00393648
3942	0.00311638
3954	0.00467457
3966	0.00295236
