Infrared Spectrum: Propiophenone, 4-bromo-2-hydroxy-,
Formula: C 9 H 9 Br O 2
CAS: 17764-92-0
Origin: Sadtler Research Labs Under US-EPA Contract
1/CM	ABSORBANCE
450	0.0128367
462	0.0354675
474	0.0694135
486	0.0209191
498	0.0202535
510	0.0137876
522	0.00741679
534	0.00152139
546	0.00237718
558	0.00332805
570	0.0201584
582	0.0095087
594	0.010935
606	0.0127417
618	0.0209191
630	0.0239619
642	0.0136925
654	0.0100792
666	0.0112203
678	0.0205388
690	0.0249128
702	0.0261489
714	0.0341362
726	0.0329001
738	0.0358478
750	0.0464975
762	0.0737875
774	0.15889
786	0.254833
798	0.138256
810	0.0431695
822	0.0232963
834	0.0215847
846	0.0230111
858	0.0618066
870	0.165642
882	0.217464
894	0.0790173
906	0.0281458
918	0.0259588
930	0.0672265
942	0.304849
954	0.369508
966	0.0627574
978	0.0246275
990	0.0315689
1002	0.091759
1014	0.142345
1026	0.0470681
1038	0.030618
1050	0.0253882
1062	0.109635
1074	0.1529
1086	0.0373692
1098	0.017496
1110	0.0184469
1122	0.0295721
1134	0.0784468
1146	0.12038
1158	0.0423137
1170	0.0511568
1182	0.194928
1194	0.497685
1206	0.347353
1218	0.159651
1230	0.216323
1242	0.224786
1254	0.156323
1266	0.192171
1278	0.141109
1290	0.143011
1302	0.12561
1314	0.107258
1326	0.187607
1338	0.280887
1350	0.28916
1362	0.267004
1374	0.219271
1386	0.188558
1398	0.154611
1410	0.170871
1422	0.127702
1434	0.0817748
1446	0.0956575
1458	0.146339
1470	0.202916
1482	0.272044
1494	0.227638
1506	0.119429
1518	0.107163
1530	0.118764
1542	0.143867
1554	0.247702
1566	0.334992
1578	0.256545
1590	0.271188
1602	0.556829
1614	0.466592
1626	0.211378
1638	0.304373
1650	0.774769
1662	0.789602
1674	0.238288
1686	0.0744531
1698	0.0412678
1710	0.0292868
1722	0.0279556
1734	0.0250079
1746	0.0170206
1758	0.0139778
1770	0.0104596
1782	0.00665609
1794	0.00589539
1806	0.00703644
1818	0.00694135
1830	0.00741679
1842	0.006561
1854	0.00646592
1866	0.00884309
1878	0.0111252
1890	0.006561
1902	0.00380348
1914	0.00266244
1926	0.00313787
1938	0.00285261
1950	0.00313787
1962	0.0029477
1974	0.00180665
1986	0.00123613
1998	0.00123613
2010	0.000855783
2022	0.000855783
2034	0.00114104
2046	0.000855783
2058	0.000760696
2070	0.000855783
2082	0.00104596
2094	0.00114104
2106	0.000760696
2118	0.00095087
2130	0.00123613
2142	0.00171157
2154	0.00161648
2166	0.00142631
2178	0.00142631
2190	0.000475435
2202	0
2214	0.000380348
2226	0.000760696
2238	0.00104596
2250	0.00180665
2262	0.00228209
2274	0.00256735
2286	0.00351822
2298	0.00399365
2310	0.00323296
2322	0.00133122
2334	0.00247226
2346	0.00427892
2358	0.00313787
2370	0.00694135
2382	0.00694135
2394	0.00503961
2406	0.00475435
2418	0.00389857
2430	0.004374
2442	0.00580031
2454	0.00722661
2466	0.00741679
2478	0.00760696
2490	0.00855783
2502	0.00846274
2514	0.00770205
2526	0.008748
2538	0.0104596
2550	0.0116957
2562	0.0114104
2574	0.0112203
2586	0.0123613
2598	0.014168
2610	0.0148336
2622	0.015309
2634	0.0155943
2646	0.0155943
2658	0.0171157
2670	0.019683
2682	0.0214897
2694	0.0212995
2706	0.0206339
2718	0.0186371
2730	0.0193027
2742	0.0205388
2754	0.0217749
2766	0.0210142
2778	0.020729
2790	0.0219651
2802	0.0236767
2814	0.0254833
2826	0.0270998
2838	0.0281458
2850	0.0302377
2862	0.0335657
2874	0.0407923
2886	0.0596195
2898	0.0758794
2910	0.0664658
2922	0.0864341
2934	0.084152
2946	0.106402
2958	0.131791
2970	0.091759
2982	0.131505
2994	0.171157
3006	0.104025
3018	0.0781615
3030	0.0778763
3042	0.0780664
3054	0.0769254
3066	0.0779713
3078	0.0851029
3090	0.0812994
3102	0.0776861
3114	0.0720759
3126	0.0690332
3138	0.0685577
3150	0.0698889
3162	0.0695086
3174	0.0661806
3186	0.0631378
3198	0.0604753
3210	0.0563866
3222	0.053534
3234	0.0528684
3246	0.0523929
3258	0.0510617
3270	0.04916
3282	0.0467828
3294	0.0462123
3306	0.0452614
3318	0.0411727
3330	0.0369888
3342	0.0334706
3354	0.0315689
3366	0.0292868
3378	0.0265293
3390	0.0247226
3402	0.0220602
3414	0.0192076
3426	0.0179714
3438	0.0157844
3450	0.0143581
3462	0.0127417
3474	0.0112203
3486	0.0102694
3498	0.00884309
3510	0.00741679
3522	0.00665609
3534	0.006561
3546	0.00551505
3558	0.00418383
3570	0.00408874
3582	0.00237718
3594	0.00342313
3606	0.00152139
3618	0.0029477
3630	0.00342313
3642	0.00256735
3654	0.00256735
3666	0.00104596
3678	0.00199683
3690	0.000760696
3702	0.000475435
3714	0.00095087
3726	0.00161648
3738	0.00095087
3750	0.000570522
3762	0.000760696
3774	0.000760696
3786	0.00104596
3798	0
3810	0
3822	0.00152139
3834	0.00199683
3846	0.000475435
3858	0.000760696
3870	0
3882	0.00123613
3894	0.00152139
3906	0.00199683
3918	0.00104596
3930	0.000855783
3942	0.00209191
3954	0.002187
3966	0.00342313
