Infrared Spectrum: Benzenamine, 3-(methylthio)-
Formula: C 7 H 9 N S
CAS: 1783-81-9
Origin: Sadtler Research Labs Under US-EPA Contract
1/CM	ABSORBANCE
450	0.00357972
462	0.06354
474	0.0456414
486	0.035648
498	0.0495195
510	0.0392278
522	0.0368413
534	0.0275937
546	0.00134239
558	0.0220749
570	0.0308751
582	0.0274445
594	0.0184952
606	0.014468
618	0.0255055
630	0.065479
642	0.134239
654	0.331721
666	0.504144
678	0.509812
690	0.389891
702	0.188234
714	0.102022
726	0.0738317
738	0.0613027
750	0.148857
762	0.359464
774	0.366176
786	0.188084
798	0.0835268
810	0.0614519
822	0.0613027
834	0.0835268
846	0.121263
858	0.130958
870	0.125141
882	0.230295
894	0.223136
906	0.0350514
918	0.00686113
930	0.00492211
942	0.0149155
954	0.0380345
966	0.093371
978	0.0736826
990	0.0645841
1002	0.0478788
1014	0.00656282
1026	0.00820352
1038	0.0089493
1050	0.0167054
1062	0.0438516
1074	0.12007
1086	0.158999
1098	0.0884489
1110	0.0441499
1122	0.0217766
1134	0.00536958
1146	0.00626451
1158	0.0420617
1170	0.0684621
1182	0.0165562
1194	0.00238648
1206	0.00522042
1218	0.00641366
1230	0.0196885
1242	0.085615
1254	0.249387
1266	0.298608
1278	0.208519
1290	0.246702
1302	0.171976
1314	0.141101
1326	0.108585
1338	0.0466855
1350	0.0158104
1362	0.0158104
1374	0.0189427
1386	0.0249089
1398	0.05295
1410	0.0897913
1422	0.170335
1434	0.298757
1446	0.339924
1458	0.239543
1470	0.298012
1482	0.566192
1494	0.354541
1506	0.132748
1518	0.110226
1530	0.129765
1542	0.126931
1554	0.131704
1566	0.226865
1578	0.504293
1590	1.19458
1602	1.12448
1614	0.924164
1626	0.981887
1638	0.426882
1650	0.16422
1662	0.0884489
1674	0.0806929
1686	0.0738317
1698	0.0674181
1710	0.0466855
1722	0.0398244
1734	0.0408685
1746	0.0243123
1758	0.0177494
1770	0.0180478
1782	0.0161087
1794	0.0196885
1806	0.0152138
1818	0.0149155
1830	0.0165562
1842	0.0113358
1854	0.0059662
1866	0.00909846
1878	0.00820352
1890	0.014468
1902	0.0214783
1914	0.0253563
1926	0.0158104
1938	0.00745775
1950	0.00507127
1962	0.00328141
1974	0.00238648
1986	0.00119324
1998	0.00238648
2010	0.00328141
2022	0.0046238
2034	0.00447465
2046	0.00536958
2058	0.0046238
2070	0.00253563
2082	0.000447465
2094	0.000447465
2106	0.000745775
2118	0.0016407
2130	0.00328141
2142	0.00581704
2154	0.00686113
2166	0.00477296
2178	0.0029831
2190	0.00208817
2202	0.00104408
2214	0.000447465
2226	0.000149155
2238	0.00149155
2250	0.00283395
2262	0.00432549
2274	0.0046238
2286	0.00357972
2298	0.00268479
2310	0.00193901
2322	0.00387803
2334	0.00507127
2346	0.00671197
2358	0.00626451
2370	0.00566789
2382	0.00611535
2394	0.00611535
2406	0.00522042
2418	0.00357972
2430	0.00208817
2442	0.00149155
2454	0.00223733
2466	0.00283395
2478	0.00357972
2490	0.00343057
2502	0.00447465
2514	0.0059662
2526	0.00522042
2538	0.00626451
2550	0.00805437
2562	0.00656282
2574	0.0059662
2586	0.00536958
2598	0.00522042
2610	0.00522042
2622	0.00387803
2634	0.00313225
2646	0.00417634
2658	0.00492211
2670	0.00611535
2682	0.00611535
2694	0.00551873
2706	0.0059662
2718	0.00865099
2730	0.00999338
2742	0.0089493
2754	0.00790522
2766	0.00581704
2778	0.00477296
2790	0.00492211
2802	0.00611535
2814	0.0110375
2826	0.0199868
2838	0.0349023
2850	0.0522042
2862	0.0429566
2874	0.0378854
2886	0.0381837
2898	0.0431058
2910	0.0668214
2922	0.14483
2934	0.234173
2946	0.137521
2958	0.0648824
2970	0.0566789
2982	0.0800962
2994	0.13066
3006	0.130958
3018	0.132002
3030	0.149453
3042	0.172572
3054	0.223434
3066	0.184654
3078	0.14125
3090	0.111866
3102	0.0629434
3114	0.0262513
3126	0.0143189
3138	0.0113358
3150	0.0110375
3162	0.00954592
3174	0.00850183
3186	0.00805437
3198	0.0126782
3210	0.0176003
3222	0.0193901
3234	0.0181969
3246	0.0126782
3258	0.00865099
3270	0.00641366
3282	0.00581704
3294	0.0059662
3306	0.00536958
3318	0.00581704
3330	0.0059662
3342	0.00820352
3354	0.0107392
3366	0.0150647
3378	0.0229699
3390	0.0410176
3402	0.0838251
3414	0.114551
3426	0.083676
3438	0.0387803
3450	0.0202851
3462	0.0226716
3474	0.0392278
3486	0.0706995
3498	0.0829302
3510	0.0613027
3522	0.0332616
3534	0.0129765
3546	0.0059662
3558	0.00387803
3570	0.00477296
3582	0.00417634
3594	0.00313225
3606	0.00357972
3618	0.00268479
3630	0.0016407
3642	0.00402718
3654	0.00119324
3666	0.00343057
3678	0.00208817
3690	0.00149155
3702	0.00507127
3714	0.00447465
3726	0.00551873
3738	0.00357972
3750	0.00343057
3762	0.00387803
3774	0.00238648
3786	0.00268479
3798	0.00193901
3810	0.00417634
3822	0.00119324
3834	0.00417634
3846	0.0076069
3858	0.0126782
3870	0.00924761
3882	0.00536958
3894	0.00432549
3906	0.00536958
3918	0.00730859
3930	0.0046238
3942	0.00924761
3954	0.00924761
3966	0.00492211
