Infrared Spectrum: Benzene, 1,2,4-tris-trimethylsilyl-,
Formula: C 15 H 30 Si 3
CAS: 17864-15-2
Origin: Sadtler Research Labs Under US-EPA Contract
1/CM	ABSORBANCE
450	0.0586924
462	0.0908786
474	0.131585
486	0.0209616
498	0.00459802
510	0.00202854
522	0.00554468
534	0.0140645
546	0.00405708
558	0.00311043
570	0.000811416
582	0.0018933
594	0.00243425
606	0.0105484
618	0.0795188
630	0.189195
642	0.0788426
654	0.0355671
666	0.043005
678	0.102103
690	0.149301
702	0.129015
714	0.09453
726	0.0964233
738	0.135642
750	0.258436
762	0.269661
774	0.165664
786	0.120901
798	0.136588
810	0.245724
822	0.509704
834	0.930559
846	1.35236
858	1.12733
870	0.672393
882	0.297249
894	0.165935
906	0.101968
918	0.0616676
930	0.0373251
942	0.0233958
954	0.0146055
966	0.00919605
978	0.0067618
990	0.0052742
1002	0.00419232
1014	0.00419232
1026	0.00473326
1038	0.0151464
1050	0.0239368
1062	0.00851987
1074	0.0105484
1086	0.0233958
1098	0.0401651
1110	0.0150112
1122	0.0114951
1134	0.0613971
1146	0.221787
1158	0.0984518
1170	0.0261005
1182	0.0105484
1194	0.00879034
1206	0.0124417
1218	0.0200149
1230	0.0485497
1242	0.181216
1254	0.496857
1266	0.430591
1278	0.1516
1290	0.0501726
1302	0.0459802
1314	0.0385423
1326	0.0275881
1338	0.029211
1350	0.0600448
1362	0.0266415
1374	0.0174454
1386	0.0190683
1398	0.0289405
1410	0.0381366
1422	0.0317805
1434	0.0220435
1446	0.0201502
1458	0.0193387
1470	0.0109541
1482	0.0067618
1494	0.0052742
1506	0.00567991
1518	0.00635609
1530	0.0052742
1542	0.00473326
1554	0.00432755
1566	0.00973699
1578	0.00540944
1590	0.00270472
1602	0.00243425
1614	0.00175807
1626	0.00229901
1638	0.00365137
1650	0.00175807
1662	0.00067618
1674	0.000405708
1686	0.000540944
1698	0.00067618
1710	0.00067618
1722	0.00135236
1734	0.000946652
1746	0.000135236
1758	0.000946652
1770	0.00297519
1782	0.00283996
1794	0.00270472
1806	0.00229901
1818	0.00067618
1830	0.000270472
1842	0.000946652
1854	0.00270472
1866	0.00622086
1878	0.00649133
1890	0.00540944
1902	0.00432755
1914	0.00838463
1926	0.00892558
1938	0.0082494
1950	0.0067618
1962	0.00459802
1974	0.00311043
1986	0.00256948
1998	0.00256948
2010	0.00270472
2022	0.00256948
2034	0.00202854
2046	0.0014876
2058	0.0014876
2070	0.00162283
2082	0.00229901
2094	0.00324566
2106	0.00351614
2118	0.00311043
2130	0.00243425
2142	0.0018933
2154	0.00135236
2166	0.00121712
2178	0.0014876
2190	0.00121712
2202	0.00135236
2214	0.00108189
2226	0.00108189
2238	0.00135236
2250	0.000946652
2262	0.00108189
2274	0.000540944
2286	0.000540944
2298	0.000405708
2310	0.000270472
2322	0.000540944
2334	0.000811416
2346	0.000135236
2358	0.000405708
2370	0.000135236
2382	0.000405708
2394	0.000270472
2406	0.000270472
2418	0.000270472
2430	0.000270472
2442	0
2454	0.000270472
2466	0.00067618
2478	0.000811416
2490	0.0018933
2502	0.0018933
2514	0.000811416
2526	0.000540944
2538	0.000135236
2550	0.000540944
2562	0.000811416
2574	0.000270472
2586	0.00067618
2598	0.000811416
2610	0.00216378
2622	0.0014876
2634	0.00121712
2646	0.00175807
2658	0.00256948
2670	0.00256948
2682	0.00229901
2694	0.00270472
2706	0.00378661
2718	0.00473326
2730	0.00419232
2742	0.00392184
2754	0.0052742
2766	0.00703227
2778	0.0109541
2790	0.0159578
2802	0.0227196
2814	0.0252891
2826	0.0259653
2838	0.0293462
2850	0.0346204
2862	0.0386775
2874	0.0457098
2886	0.0685647
2898	0.133748
2910	0.169315
2922	0.099128
2934	0.0830349
2946	0.150923
2958	0.41842
2970	0.304281
2982	0.142404
2994	0.0970994
3006	0.0872272
3018	0.0657247
3030	0.0470621
3042	0.0478735
3054	0.0597743
3066	0.0803302
3078	0.0539592
3090	0.0302929
3102	0.0231254
3114	0.0190683
3126	0.016634
3138	0.0135236
3150	0.00987223
3162	0.00770845
3174	0.00662656
3186	0.00595038
3198	0.00540944
3210	0.00459802
3222	0.00351614
3234	0.00324566
3246	0.00256948
3258	0.00202854
3270	0.0014876
3282	0.0014876
3294	0.00162283
3306	0.00121712
3318	0.0014876
3330	0.00108189
3342	0.000811416
3354	0.00067618
3366	0.000135236
3378	0.000270472
3390	0.000270472
3402	0.00067618
3414	0.000540944
3426	0.000270472
3438	0.000270472
3450	0.00067618
3462	0.00067618
3474	0.000405708
3486	0.000946652
3498	0.00067618
3510	0.000946652
3522	0.00135236
3534	0.0014876
3546	0.0018933
3558	0.00175807
3570	0.00229901
3582	0.00324566
3594	0.00324566
3606	0.0033809
3618	0.00351614
3630	0.00513897
3642	0.00581515
3654	0.00703227
3666	0.00649133
3678	0.00567991
3690	0.00567991
3702	0.00513897
3714	0.00622086
3726	0.00703227
3738	0.00851987
3750	0.00581515
3762	0.00540944
3774	0.00500373
3786	0.00446279
3798	0.00473326
3810	0.00324566
3822	0.00175807
3834	0.00202854
3846	0.00162283
3858	0.00121712
3870	0.000540944
3882	0.000405708
3894	0
3906	0.00067618
3918	0.000135236
3930	0.0014876
3942	0
3954	0.000540944
3966	0.00067618
