Infrared Spectrum: DL-Phenylalanine, ethyl ester
Formula: C 11 H 15 N O 2
CAS: 1795-96-6
Origin: Sadtler Research Labs Under US-EPA Contract
1/CM	ABSORBANCE
450	0.0300479
462	0.0276405
474	0.02131
486	0.01917
498	0.0204183
510	0.0300479
522	0.0225582
534	0.0358435
546	0.0358435
558	0.0411933
570	0.0230932
582	0.0186351
594	0.0139986
606	0.00802467
618	0.015336
630	0.0188134
642	0.0243415
654	0.0300479
666	0.0378051
678	0.0823866
690	0.189115
702	0.0805142
714	0.0461864
726	0.0578668
738	0.147743
750	0.298964
762	0.120281
774	0.0534978
786	0.0203292
798	0.0143552
810	0.00543894
822	0.0144444
834	0.0179218
846	0.0199725
858	0.0343278
870	0.0608983
882	0.0431549
894	0.0268381
906	0.0131961
918	0.0116804
930	0.0121262
942	0.00847048
954	0.0089163
966	0.00258573
978	0.00579559
990	0.0214883
1002	0.0352194
1014	0.0619683
1026	0.155768
1038	0.138113
1050	0.203827
1062	0.252688
1074	0.196694
1086	0.163257
1098	0.185548
1110	0.149526
1122	0.140164
1134	0.248051
1146	0.545588
1158	0.804696
1170	0.614155
1182	0.645273
1194	0.624587
1206	0.506357
1218	0.307434
1230	0.293257
1242	0.424059
1254	0.428339
1266	0.341583
1278	0.270966
1290	0.31323
1302	0.473188
1314	0.445102
1326	0.236014
1338	0.185102
1350	0.0969202
1362	0.084259
1374	0.162009
1386	0.135082
1398	0.0641974
1410	0.0559944
1422	0.0838132
1434	0.142304
1446	0.0978118
1458	0.133834
1470	0.138024
1482	0.125987
1494	0.342386
1506	0.732831
1518	0.279348
1530	0.0852398
1542	0.0487722
1554	0.0493963
1566	0.0548352
1578	0.0789093
1590	0.228971
1602	0.605506
1614	0.433243
1626	0.120727
1638	0.0427982
1650	0.0242523
1662	0.0222016
1674	0.0255006
1686	0.0312962
1698	0.0416391
1710	0.0698146
1722	0.103875
1734	0.206858
1746	0.606576
1758	0.89163
1770	0.357187
1782	0.12893
1794	0.0659806
1806	0.0431549
1818	0.0307612
1830	0.0214883
1842	0.0132853
1854	0.00847048
1866	0.00748969
1878	0.00766802
1890	0.0096296
1902	0.0138203
1914	0.019705
1926	0.015871
1938	0.0108779
1950	0.00543894
1962	0.00436899
1974	0.0048148
1986	0.00499313
1998	0.00624141
2010	0.0065089
2022	0.00668722
2034	0.00757885
2046	0.00659806
2058	0.00641974
2070	0.00517145
2082	0.00436899
2094	0.00463648
2106	0.00374485
2118	0.00401233
2130	0.00356652
2142	0.00187242
2154	0.00115912
2166	0.000980793
2178	0.00160493
2190	0.00115912
2202	0.000713304
2214	0.000267489
2226	0.000624141
2238	0.000713304
2250	0.00089163
2262	0.00106996
2274	0.00133745
2286	0.00106996
2298	0.00187242
2310	0.00276405
2322	0.00338819
2334	0.00454731
2346	0.00419066
2358	0.00383401
2370	0.0041015
2382	0.00303154
2394	0.00222908
2406	0.00347736
2418	0.00320987
2430	0.00320987
2442	0.00303154
2454	0.00249656
2466	0.00231824
2478	0.00205075
2490	0.00285322
2502	0.00276405
2514	0.00276405
2526	0.00347736
2538	0.00445815
2550	0.00686555
2562	0.00713304
2574	0.00517145
2586	0.00365568
2598	0.00285322
2610	0.00285322
2622	0.00267489
2634	0.00213991
2646	0.0024074
2658	0.00196159
2670	0.00178326
2682	0.00205075
2694	0.00106996
2706	0.00124828
2718	0.00160493
2730	0.00347736
2742	0.00427982
2754	0.00508229
2766	0.00579559
2778	0.0065089
2790	0.00695471
2802	0.00882714
2814	0.011502
2826	0.0146227
2838	0.0172085
2850	0.0205075
2862	0.0276405
2874	0.0451165
2886	0.0764127
2898	0.0717762
2910	0.0784634
2922	0.0864881
2934	0.119389
2946	0.174938
2958	0.124739
2970	0.147654
2982	0.284608
2994	0.359951
3006	0.16834
3018	0.119033
3030	0.13
3042	0.103964
3054	0.141858
3066	0.163792
3078	0.0928187
3090	0.0859531
3102	0.0637515
3114	0.0380726
3126	0.0185459
3138	0.00882714
3150	0.00534978
3162	0.00499313
3174	0.00454731
3186	0.00445815
3198	0.00463648
3210	0.00436899
3222	0.00338819
3234	0.00258573
3246	0.00231824
3258	0.000980793
3270	0.000178326
3282	0.0016941
3294	0.000802467
3306	0.00124828
3318	0.000445815
3330	0.00222908
3342	0.00392317
3354	0.00526062
3366	0.00936212
3378	0.0127503
3390	0.0203292
3402	0.0364677
3414	0.0605417
3426	0.0641974
3438	0.0401234
3450	0.0269272
3462	0.0177434
3474	0.0123937
3486	0.012037
3498	0.00864881
3510	0.00499313
3522	0.0016941
3534	0.00187242
3546	0.00142661
3558	0.00187242
3570	0.00142661
3582	0.00222908
3594	0.000802467
3606	0.00106996
3618	0.000356652
3630	0.00089163
3642	0.00151577
3654	0.00258573
3666	0.0016941
3678	0.00303154
3690	0.000445815
3702	0.00142661
3714	0.000534978
3726	0.00115912
3738	0.00445815
3750	0.000980793
3762	0.00231824
3774	0.000178326
3786	0.000178326
3798	0.000178326
3810	0.000624141
3822	0.000178326
3834	0.000178326
3846	0.000534978
3858	0.00124828
3870	0.000178326
3882	0.000178326
3894	0.00142661
3906	0.000267489
3918	0.00196159
3930	0.000178326
3942	0.000356652
3954	0.000178326
3966	0.00151577
