Infrared Spectrum: Benzeneacetic acid, 2-propenyl ester
Formula: C 11 H 12 O 2
CAS: 1797-74-6
Origin: Sadtler Research Labs Under US-EPA Contract
1/CM	ABSORBANCE
450	0
462	0.02132
474	0.0262768
486	0.0191104
498	0.0245449
510	0.019409
522	0.0252616
534	0.0305766
546	0.0272323
558	0.0214395
570	0.028367
582	0.0327863
594	0.0380416
606	0.0417443
618	0.0423415
630	0.0327266
642	0.0295614
654	0.0220964
666	0.0275309
678	0.0475371
690	0.101285
702	0.137416
714	0.1536
726	0.111378
738	0.0581673
750	0.038818
762	0.0289642
774	0.0135564
786	0.0213798
798	0.0112274
810	0.0117648
822	0.014512
834	0.0173785
846	0.0185729
858	0.018991
870	0.0219172
882	0.0254407
894	0.0311738
906	0.0439539
918	0.0736348
930	0.121172
942	0.0868329
954	0.0532702
966	0.0569132
978	0.0942979
990	0.208542
1002	0.254049
1014	0.188237
1026	0.0913716
1038	0.0567937
1050	0.0389374
1062	0.0400124
1074	0.0504634
1086	0.0595408
1098	0.0815178
1110	0.129652
1122	0.229922
1134	0.434344
1146	0.514966
1158	0.351631
1170	0.2175
1182	0.160527
1194	0.137117
1206	0.14512
1218	0.1963
1230	0.290478
1242	0.382447
1254	0.317233
1266	0.206452
1278	0.170978
1290	0.14506
1302	0.124337
1314	0.111139
1326	0.108392
1338	0.0913119
1350	0.0693349
1362	0.0829511
1374	0.0674239
1386	0.0459844
1398	0.0345182
1410	0.0382805
1422	0.0530911
1434	0.0649156
1446	0.0714251
1458	0.0732167
1470	0.0401318
1482	0.0274115
1494	0.0699321
1506	0.057152
1518	0.0180354
1530	0.0169008
1542	0.0170799
1554	0.016005
1566	0.0158258
1578	0.0182743
1590	0.025381
1602	0.0410276
1614	0.0350556
1626	0.0205437
1638	0.0228728
1650	0.0309947
1662	0.0241269
1674	0.0217381
1686	0.0244852
1698	0.0354737
1710	0.0549424
1722	0.0745903
1734	0.139984
1746	0.373489
1758	0.5972
1770	0.401617
1782	0.176592
1794	0.0988366
1806	0.0584659
1818	0.0346973
1830	0.0260379
1842	0.0232908
1854	0.0240074
1866	0.0260976
1878	0.0229325
1890	0.019827
1902	0.0179757
1914	0.0171396
1926	0.0184535
1938	0.0208423
1950	0.0217978
1962	0.0200659
1974	0.0161244
1986	0.0161841
1998	0.0152286
2010	0.0142134
2022	0.0129592
2034	0.0128398
2046	0.0127204
2058	0.0135564
2070	0.0125412
2082	0.0142134
2094	0.0146911
2106	0.0131981
2118	0.0127801
2130	0.0126606
2142	0.0125412
2154	0.0122426
2166	0.0117648
2178	0.0117648
2190	0.011944
2202	0.0115857
2214	0.0121232
2226	0.0114065
2238	0.0115857
2250	0.0118246
2262	0.0121232
2274	0.0117648
2286	0.0124815
2298	0.0148106
2310	0.0178563
2322	0.0200659
2334	0.0169008
2346	0.0121829
2358	0.0213798
2370	0.00824136
2382	0.00824136
2394	0.010033
2406	0.0106302
2418	0.0114662
2430	0.010451
2442	0.00979408
2454	0.00997324
2466	0.00973436
2478	0.0095552
2490	0.00961492
2502	0.00979408
2514	0.00967464
2526	0.0095552
2538	0.00919688
2550	0.00931632
2562	0.00943576
2574	0.00919688
2586	0.0092566
2598	0.00901772
2610	0.008958
2622	0.00967464
2634	0.0105704
2646	0.0095552
2658	0.0107496
2670	0.011526
2682	0.00937604
2694	0.00907744
2706	0.00901772
2718	0.0092566
2730	0.0098538
2742	0.00943576
2754	0.00973436
2766	0.00991352
2778	0.0095552
2790	0.0105704
2802	0.0106899
2814	0.0120037
2826	0.0121829
2838	0.0136162
2850	0.0155869
2862	0.0166619
2874	0.0196479
2886	0.0259185
2898	0.0314127
2910	0.0306961
2922	0.0386388
2934	0.0542258
2946	0.0737542
2958	0.0817567
2970	0.0561368
2982	0.0485524
2994	0.049687
3006	0.045208
3018	0.0508814
3030	0.0862954
3042	0.10887
3054	0.06611
3066	0.0796068
3078	0.108929
3090	0.0825928
3102	0.0719029
3114	0.0412665
3126	0.0207826
3138	0.0147508
3150	0.0133176
3162	0.0121232
3174	0.0114662
3186	0.0111676
3198	0.0109288
3210	0.0103913
3222	0.0115857
3234	0.0105704
3246	0.0111079
3258	0.011526
3270	0.0102121
3282	0.0107496
3294	0.0109288
3306	0.0101524
3318	0.0118246
3330	0.0102718
3342	0.0109288
3354	0.0114662
3366	0.0136162
3378	0.0108093
3390	0.0108093
3402	0.00931632
3414	0.0124218
3426	0.0126606
3438	0.0114065
3450	0.0130787
3462	0.0114065
3474	0.0134967
3486	0.0148106
3498	0.0159452
3510	0.0140342
3522	0.0128995
3534	0.0102718
3546	0.0118246
3558	0.0150494
3570	0.0257393
3582	0.0287253
3594	0.0167813
3606	0.0125412
3618	0.0121232
3630	0.00991352
3642	0.0155272
3654	0.0106899
3666	0.0121232
3678	0.0103913
3690	0.0124218
3702	0.0111079
3714	0.00883856
3726	0.0121829
3738	0.00824136
3750	0.00997324
3762	0.00824136
3774	0.00824136
3786	0.00848024
3798	0.00937604
3810	0.0086594
3822	0.0092566
3834	0.00883856
3846	0.0124815
3858	0.0102121
3870	0.0105704
3882	0.011944
3894	0.00937604
3906	0.00824136
3918	0.0109288
3930	0.0135564
3942	0.0114065
3954	0.0131981
3966	0.0128995
