Infrared Spectrum: Heptanenitrile, 7-hydroxy-
Formula: C 7 H 13 N O
CAS: 17976-80-6
Origin: Sadtler Research Labs Under US-EPA Contract
1/CM	ABSORBANCE
450	0.0239856
462	0.00746883
474	0.00943206
486	0.00554827
498	0.0085358
510	0.00994421
522	0.00665792
534	0.0042679
546	0.00503612
558	0.003457
570	0.00375575
582	0.00422522
594	0.00221931
606	0.00187788
618	0.00290217
630	0.00192056
642	0.00285949
654	0.00273146
666	0.000896259
678	0.00285949
690	0.00379843
702	0.00469469
714	0.0083224
726	0.0116087
738	0.00994421
750	0.00725543
762	0.00584702
774	0.00473737
786	0.00303021
798	0.00298753
810	0.00413986
822	0.00618846
834	0.00712739
846	0.00806633
858	0.00866384
870	0.00964545
882	0.0113953
894	0.0149377
906	0.0192909
918	0.0178825
930	0.0152791
942	0.0155352
954	0.0182239
966	0.0236868
978	0.0315398
990	0.0418254
1002	0.0526232
1014	0.0645306
1026	0.0904368
1038	0.122873
1050	0.144383
1062	0.12697
1074	0.0918452
1086	0.0701216
1098	0.040289
1110	0.0254794
1122	0.0192056
1134	0.0187788
1146	0.0181386
1158	0.0182666
1170	0.0189068
1182	0.0201018
1194	0.0224918
1206	0.026589
1218	0.0316678
1230	0.036832
1242	0.0337591
1254	0.0297899
1266	0.028979
1278	0.0295339
1290	0.0279974
1302	0.0267171
1314	0.0267597
1326	0.028851
1338	0.0304728
1350	0.034442
1362	0.0361918
1374	0.0364905
1386	0.03935
1398	0.0336737
1410	0.0233027
1422	0.0244977
1434	0.0458799
1446	0.0515989
1458	0.0527086
1470	0.044002
1482	0.0263756
1494	0.0119501
1506	0.00687132
1518	0.00354236
1530	0.00307289
1542	0.00226199
1554	0.00217663
1566	0.00200591
1578	0.00277414
1590	0.00196323
1602	0.0016218
1614	0.00145109
1626	0.00157912
1638	0.0010243
1650	0.00149377
1662	0.000640185
1674	0.00140841
1686	0.00136573
1698	0.00332896
1710	0.00358504
1722	0.00495076
1734	0.00495076
1746	0.00418254
1758	0.00661525
1770	0.00729811
1782	0.00431058
1794	0.00315825
1806	0.00149377
1818	0.00110965
1830	0.000597506
1842	0.000384111
1854	0.000554827
1866	0.000298753
1878	0.000640185
1890	0.000597506
1902	0.000512148
1914	0.000384111
1926	0.000298753
1938	0.000384111
1950	0.000725543
1962	0.000597506
1974	0.00042679
1986	0.000554827
1998	0.000768222
2010	0.000640185
2022	0.00110965
2034	0.00132305
2046	0.0016218
2058	0.00170716
2070	0.00115233
2082	0.000896259
2094	0.000554827
2106	0.000298753
2118	0.00042679
2130	0.000256074
2142	0.000128037
2154	0.000298753
2166	0.000384111
2178	0.000298753
2190	0.000170716
2202	0.000298753
2214	0.000597506
2226	0.0010243
2238	0.00277414
2250	0.00840776
2262	0.00721275
2274	0.00234735
2286	0.00119501
2298	0.000768222
2310	0.000554827
2322	0.00119501
2334	0.00213395
2346	0.00230467
2358	0.00149377
2370	0.00179252
2382	0.00106697
2394	0.00119501
2406	0.00110965
2418	0.00115233
2430	0.00128037
2442	0.00132305
2454	0.00128037
2466	0.000554827
2478	0.00085358
2490	0.000981617
2502	0.000896259
2514	0.0010243
2526	0.00132305
2538	0.00145109
2550	0.00153644
2562	0.00153644
2574	0.00157912
2586	0.00192056
2598	0.00209127
2610	0.00268878
2622	0.00298753
2634	0.00328628
2646	0.00388379
2658	0.00460933
2670	0.00495076
2682	0.00597506
2694	0.00687132
2706	0.00678596
2718	0.00746883
2730	0.00810901
2742	0.00951742
2754	0.0104564
2766	0.0120355
2778	0.0130598
2790	0.0147669
2802	0.0168155
2814	0.0190348
2826	0.0237295
2838	0.0347834
2850	0.064744
2862	0.124708
2874	0.183434
2886	0.177075
2898	0.141396
2910	0.161668
2922	0.230125
2934	0.347791
2946	0.42679
2958	0.334689
2970	0.17827
2982	0.0683718
2994	0.0304728
3006	0.0181386
3018	0.0122916
3030	0.00947474
3042	0.00682864
3054	0.00580434
3066	0.00486541
3078	0.00443862
3090	0.00354236
3102	0.00320093
3114	0.00307289
3126	0.00285949
3138	0.00251806
3150	0.00281681
3162	0.00221931
3174	0.00251806
3186	0.0024327
3198	0.00221931
3210	0.00192056
3222	0.00179252
3234	0.00179252
3246	0.00170716
3258	0.00170716
3270	0.00166448
3282	0.00153644
3294	0.00123769
3306	0.000810901
3318	0.00132305
3330	0.00128037
3342	0.000597506
3354	0.00110965
3366	0.00110965
3378	0.00085358
3390	0.000896259
3402	0.00085358
3414	0.000938938
3426	0.00119501
3438	0.00170716
3450	0.00132305
3462	0.00140841
3474	0.00174984
3486	0.000810901
3498	0.0018352
3510	0.00110965
3522	0.000896259
3534	0.000896259
3546	0.000768222
3558	0.000640185
3570	0.00170716
3582	0.00217663
3594	0.00226199
3606	0.00217663
3618	0.00354236
3630	0.00657257
3642	0.0102003
3654	0.0234734
3666	0.0444288
3678	0.0461787
3690	0.017157
3702	0.00623113
3714	0.00341432
3726	0.00268878
3738	0.00221931
3750	0.000128037
3762	0.000298753
3774	0.0016218
3786	0.000725543
3798	0.00123769
3810	0.0010243
3822	0.00192056
3834	0.00140841
3846	0.00106697
3858	0.000725543
3870	0.00123769
3882	0.00145109
3894	0.00239002
3906	0.00136573
3918	0.000896259
3930	0.000981617
3942	0.000768222
3954	0.00145109
3966	0.00187788
