Infrared Spectrum: Phenol, 2-chloro-5-methoxy-,
Formula: C 7 H 7 Cl O 2
CAS: 18113-04-7
Origin: Sadtler Research Labs Under US-EPA Contract
1/CM	ABSORBANCE
450	0.011131
462	0.0117446
474	0.0032429
486	0.0066611
498	0.00192821
510	0.0066611
522	0.0118322
534	0.0108681
546	0.015601
558	0.00683639
570	0.0163022
582	0.0134098
594	0.0209474
606	0.0177921
618	0.0683639
630	0.163898
642	0.135062
654	0.0469783
666	0.033919
678	0.0321661
690	0.0260309
702	0.0264691
714	0.0241026
726	0.0445242
738	0.0352337
750	0.0286602
762	0.0258556
774	0.0578464
786	0.0970241
798	0.110083
810	0.0533764
822	0.0485559
834	0.102896
846	0.09755
858	0.0959724
870	0.0393531
882	0.0180551
894	0.0146369
906	0.0199833
918	0.0220868
930	0.0346202
942	0.0848413
954	0.133134
966	0.0698539
978	0.0312896
990	0.030939
1002	0.0348831
1014	0.0890483
1026	0.264077
1038	0.186072
1050	0.0570575
1062	0.0659974
1074	0.0603881
1086	0.0411936
1098	0.0455759
1110	0.0539899
1122	0.150751
1134	0.215259
1146	0.296331
1158	0.694595
1170	0.444278
1182	0.209649
1194	0.258906
1206	0.243042
1218	0.431394
1230	0.264691
1242	0.162057
1254	0.192996
1266	0.15934
1278	0.167667
1290	0.210438
1302	0.333318
1314	0.383364
1326	0.364081
1338	0.184758
1350	0.052237
1362	0.0319908
1374	0.0304132
1386	0.0287479
1398	0.0278714
1410	0.0326043
1422	0.0464524
1434	0.102721
1446	0.175906
1458	0.227354
1470	0.285025
1482	0.496164
1494	0.87646
1506	0.323326
1518	0.0769532
1530	0.0541652
1542	0.0586352
1554	0.066348
1566	0.0902754
1578	0.175029
1590	0.341206
1602	0.45164
1614	0.446907
1626	0.146281
1638	0.0610016
1650	0.0390025
1662	0.0325167
1674	0.0271703
1686	0.0249791
1698	0.0244532
1710	0.0173539
1722	0.0182304
1734	0.0192821
1746	0.0119199
1758	0.0103422
1770	0.0131469
1782	0.0120075
1794	0.0150751
1806	0.0106928
1818	0.0104299
1830	0.0131469
1842	0.0127087
1854	0.0141987
1866	0.0132345
1878	0.0109557
1890	0.0122704
1902	0.0112187
1914	0.00709933
1926	0.00867695
1938	0.00806343
1950	0.00972871
1962	0.00841402
1974	0.00832637
1986	0.00797579
1998	0.00718697
2010	0.00929048
2022	0.00771285
2034	0.00858931
2046	0.00911518
2058	0.011394
2070	0.00841402
2082	0.0102546
2094	0.0102546
2106	0.00744991
2118	0.0064858
2130	0.00560934
2142	0.00499582
2154	0.00420701
2166	0.00595993
2178	0.00578464
2190	0.00718697
2202	0.00569699
2214	0.00832637
2226	0.00946577
2238	0.00955341
2250	0.0076252
2262	0.0064858
2274	0.00534641
2286	0.00482053
2298	0.00525876
2310	0.00587228
2322	0.00815108
2334	0.00411936
2346	0.00455759
2358	0.00639816
2370	0.00368113
2382	0.00446995
2394	0.00797579
2406	0.00560934
2418	0.00622287
2430	0.00736226
2442	0.00771285
2454	0.00893989
2466	0.0066611
2478	0.00692403
2490	0.00639816
2502	0.00780049
2514	0.00560934
2526	0.00709933
2538	0.0064858
2550	0.0064858
2562	0.00490818
2574	0.00534641
2586	0.00604757
2598	0.00517111
2610	0.00604757
2622	0.00517111
2634	0.00604757
2646	0.00385642
2658	0.00411936
2670	0.00245409
2682	0.00341819
2694	0.0021035
2706	0.00219115
2718	0.00184057
2730	0.00280467
2742	0.00394407
2754	0.00517111
2766	0.00727462
2778	0.00613522
2790	0.00701168
2802	0.00683639
2814	0.011394
2826	0.017091
2838	0.0517111
2850	0.0824749
2862	0.0356719
2874	0.0235768
2886	0.028222
2898	0.0395283
2910	0.053727
2922	0.0681009
2934	0.0650333
2946	0.110346
2958	0.126736
2970	0.0821243
2982	0.0384766
2994	0.0333931
3006	0.0881719
3018	0.0967612
3030	0.0234891
3042	0.0163022
3054	0.0167404
3066	0.0137604
3078	0.0164774
3090	0.0159516
3102	0.0179674
3114	0.0119199
3126	0.00701168
3138	0.00420701
3150	0.00482053
3162	0.00578464
3174	0.00420701
3186	0.00464524
3198	0.00411936
3210	0.00578464
3222	0.00403172
3234	0.00385642
3246	0.00166527
3258	0.00262938
3270	0.00175292
3282	0.00315526
3294	0.00201586
3306	0.00245409
3318	0.00376878
3330	0.00297996
3342	0.00333055
3354	0.00245409
3366	0.00289232
3378	0.00140234
3390	0.0032429
3402	0.00175292
3414	0.00411936
3426	0.0021035
3438	0.00254173
3450	0.00184057
3462	0.0032429
3474	0.00271703
3486	0.0022788
3498	0.00280467
3510	0.00201586
3522	0.00341819
3534	0.00385642
3546	0.00955341
3558	0.0260309
3570	0.31202
3582	0.356369
3594	0.0412813
3606	0.012621
3618	0.00955341
3630	0.0100793
3642	0.0138481
3654	0.0222621
3666	0.0134098
3678	0.00972871
3690	0.00692403
3702	0.00517111
3714	0.00569699
3726	0.00823872
3738	0.00858931
3750	0.0109557
3762	0.00587228
3774	0.00595993
3786	0.00683639
3798	0.00893989
3810	0.00920283
3822	0.0106052
3834	0.0124457
3846	0.00964106
3858	0.0104299
3870	0.009904
3882	0.0107805
3894	0.00815108
3906	0.00964106
3918	0.00867695
3930	0.00955341
3942	0.00858931
3954	0
3966	0.00087646
