Infrared Spectrum: Phenol, 2-chloro-4-methoxy-
Formula: C 7 H 7 Cl O 2
CAS: 18113-03-6
Origin: Sadtler Research Labs Under US-EPA Contract
1/CM	ABSORBANCE
450	0.0418023
462	0.00629897
474	0.0103074
486	0.0381756
498	0.0460016
510	0.0326401
522	0.021951
534	0.0418023
546	0.0257685
558	0.0179425
570	0.0204239
582	0.0303496
594	0.034358
606	0.0290135
618	0.0251959
630	0.0154611
642	0.0143159
654	0.0364577
666	0.10002
678	0.106128
690	0.0337854
702	0.00572634
714	0.00324493
726	0.00744424
738	0.00763512
750	0.0061081
762	0.00496283
774	0.00534458
786	0.0127888
798	0.0404661
810	0.109564
822	0.146403
834	0.202712
846	0.250432
858	0.353697
870	0.387864
882	0.134569
894	0.0383665
906	0.0280591
918	0.0232871
930	0.0208057
942	0.0353124
954	0.0851316
966	0.17389
978	0.179234
990	0.0837954
1002	0.0570725
1014	0.0301587
1026	0.0427567
1038	0.13037
1050	0.334227
1062	0.312467
1074	0.112809
1086	0.144113
1098	0.148121
1110	0.101738
1122	0.15442
1134	0.37183
1146	0.976532
1158	1.06777
1170	0.48483
1182	0.306359
1194	0.393209
1206	0.290898
1218	0.086086
1230	0.0467651
1242	0.0698613
1254	0.218746
1266	0.289944
1278	0.131897
1290	0.136478
1302	0.154229
1314	0.211684
1326	0.196032
1338	0.0935302
1350	0.0425658
1362	0.0530641
1374	0.0616536
1386	0.0605083
1398	0.0912397
1410	0.107655
1422	0.2218
1434	0.423749
1446	0.401989
1458	0.337281
1470	0.342435
1482	0.495519
1494	0.300251
1506	0.105746
1518	0.0900944
1530	0.0942937
1542	0.110137
1554	0.125407
1566	0.205766
1578	0.464406
1590	1.03666
1602	1.90878
1614	0.918696
1626	0.37832
1638	0.174844
1650	0.113
1662	0.0673799
1674	0.0660438
1686	0.0585995
1698	0.0528732
1710	0.0259594
1722	0.0209966
1734	0.0324493
1746	0.0238598
1758	0.015652
1770	0.0166064
1782	0.0118344
1794	0.0160338
1806	0.00706249
1818	0.00400844
1830	0.0106892
1842	0.00763512
1854	0.00209966
1866	0.0061081
1878	0.00133615
1890	0.00362668
1902	0.00362668
1914	0.00496283
1926	0.00286317
1938	0.00229054
1950	0.00267229
1962	0.00248141
1974	0.00248141
1986	0.00324493
1998	0.00725336
2010	0.01088
2022	0.0106892
2034	0.0061081
2046	0.00534458
2058	0.00534458
2070	0.00477195
2082	0.00439019
2094	0.0061081
2106	0.00763512
2118	0.00706249
2130	0.0061081
2142	0.00439019
2154	0.0034358
2166	0.00381756
2178	0.00439019
2190	0.00400844
2202	0.0034358
2214	0.00286317
2226	0.00209966
2238	0.00229054
2250	0.00400844
2262	0.00534458
2274	0.00496283
2286	0.00439019
2298	0.007826
2310	0.0104983
2322	0.0103074
2334	0.0124071
2346	0.0125979
2358	0.00858951
2370	0.0148885
2382	0.00858951
2394	0.00267229
2406	0.00305405
2418	0.00496283
2430	0.007826
2442	0.0112618
2454	0.00973478
2466	0.00744424
2478	0.00572634
2490	0.00400844
2502	0.00324493
2514	0.00229054
2526	0.0017179
2538	0.000381756
2550	0.000381756
2562	0.000381756
2574	0.00114527
2586	0.00190878
2598	0.00324493
2610	0.00553546
2622	0.00534458
2634	0.00286317
2646	0.00229054
2658	0.00152702
2670	0.00133615
2682	0.00152702
2694	0.00209966
2706	0.0017179
2718	0.00305405
2730	0.00419932
2742	0.00572634
2754	0.00668073
2766	0.00687161
2778	0.00725336
2790	0.00668073
2802	0.00801688
2814	0.0104983
2826	0.0175608
2838	0.0496283
2850	0.0874221
2862	0.0528732
2874	0.0353124
2886	0.0398935
2898	0.0494374
2910	0.0620354
2922	0.0748242
2934	0.0805505
2946	0.134378
2958	0.152512
2970	0.109946
2982	0.0580269
2994	0.046956
3006	0.0942937
3018	0.103838
3030	0.0347398
3042	0.0223327
3054	0.0196604
3066	0.0196604
3078	0.0179425
3090	0.0139341
3102	0.0106892
3114	0.00858951
3126	0.00591722
3138	0.00458107
3150	0.00496283
3162	0.00439019
3174	0.00381756
3186	0.00400844
3198	0.00534458
3210	0.00572634
3222	0.0034358
3234	0.00324493
3246	0.00267229
3258	0.00267229
3270	0.00267229
3282	0.00286317
3294	0.00286317
3306	0.0034358
3318	0.00477195
3330	0.00515371
3342	0.00629897
3354	0.007826
3366	0.00744424
3378	0.00687161
3390	0.00648985
3402	0.0061081
3414	0.00572634
3426	0.00648985
3438	0.00534458
3450	0.00477195
3462	0.00477195
3474	0.0061081
3486	0.00362668
3498	0.00381756
3510	0.00477195
3522	0.00458107
3534	0.00458107
3546	0.00267229
3558	0.00439019
3570	0.00190878
3582	0.00801688
3594	0.00458107
3606	0.00725336
3618	0.00878039
3630	0.0309222
3642	0.19794
3654	0.372594
3666	0.119108
3678	0.00858951
3690	0.00114527
3702	0.00267229
3714	0.000381756
3726	0.000572634
3738	0.000381756
3750	0
3762	0.00229054
3774	0.000381756
3786	0.000763512
3798	0
3810	0.00458107
3822	0.000381756
3834	0.000381756
3846	0.00477195
3858	0.000381756
3870	0.000381756
3882	0.000381756
3894	0.00286317
3906	0.000763512
3918	0.000381756
3930	0.00324493
3942	0.0034358
3954	0.00209966
3966	0.00305405
