Infrared Spectrum: Bicyclo[3.1.1]heptane, 6,6-dimethyl-2-methylene-, (1S)-
Formula: C 10 H 16
CAS: 18172-67-3
Origin: Sadtler Research Labs Under US-EPA Contract
1/CM	ABSORBANCE
450	0.00292572
462	0.00351086
474	0.00482744
486	0.00336458
498	0.00482744
510	0.013312
522	0.0272092
534	0.0185783
546	0.00599773
558	0.00614401
570	0.00321829
582	0.0093623
594	0.018432
606	0.0157989
618	0.00263315
630	0.00409601
642	0.00453487
654	0.00307201
666	0.00146286
678	0.00336458
690	0.00438858
702	0.00453487
714	0.00643658
726	0.00482744
738	0.00336458
750	0.00775316
762	0.0185783
774	0.0172617
786	0.00994745
798	0.00892345
810	0.00614401
822	0.00702173
834	0.01024
846	0.0359864
858	0.0716801
870	0.200266
882	0.358254
894	0.132974
906	0.0294035
918	0.0231132
930	0.0234058
942	0.0210652
954	0.0191635
966	0.0177006
978	0.0138972
990	0.00775316
1002	0.0073143
1014	0.00848459
1026	0.00658287
1038	0.0108252
1050	0.0238446
1062	0.0188709
1074	0.00804573
1086	0.00994745
1098	0.0247223
1110	0.0333532
1122	0.0190172
1134	0.0231132
1146	0.0296961
1158	0.0117029
1170	0.00702173
1182	0.0130195
1194	0.0276481
1206	0.0346698
1218	0.0285258
1230	0.0228206
1242	0.0228206
1254	0.0330606
1266	0.0286721
1278	0.0171155
1290	0.018432
1302	0.017408
1314	0.0213578
1326	0.0177006
1338	0.0105326
1350	0.0125806
1362	0.0419841
1374	0.106935
1386	0.121125
1398	0.082359
1410	0.0273555
1422	0.0241372
1434	0.0650973
1446	0.0953785
1458	0.119516
1470	0.149797
1482	0.106642
1494	0.0415452
1506	0.0114103
1518	0.00789944
1530	0.0083383
1542	0.00277943
1554	0.00409601
1566	0.00497372
1578	0.00555887
1590	0.0103863
1602	0.0118492
1614	0.0209189
1626	0.0592458
1638	0.159598
1650	0.180078
1662	0.0712413
1674	0.02048
1686	0.0103863
1698	0.00994745
1710	0.00892345
1722	0.00789944
1734	0.00702173
1746	0.0114103
1758	0.0209189
1770	0.0222355
1782	0.00994745
1794	0.00307201
1806	0.00234058
1818	0.00131657
1830	0.00175543
1842	0.00190172
1854	0.00131657
1866	0.00117029
1878	0.00073143
1890	0
1902	0.000877716
1914	0.000877716
1926	0.000585144
1938	0.000585144
1950	0.000585144
1962	0.000877716
1974	0.00073143
1986	0.00073143
1998	0.001024
2010	0.00117029
2022	0.00175543
2034	0.00131657
2046	0.00117029
2058	0.00175543
2070	0.00160915
2082	0.00160915
2094	0.00175543
2106	0.00234058
2118	0.002048
2130	0.00190172
2142	0.00175543
2154	0.00131657
2166	0.00160915
2178	0.00146286
2190	0.00146286
2202	0.00175543
2214	0.002048
2226	0.00175543
2238	0.00131657
2250	0.00146286
2262	0.00190172
2274	0.002048
2286	0.00219429
2298	0.00263315
2310	0.00351086
2322	0.00351086
2334	0.00146286
2346	0.001024
2358	0
2370	0
2382	0
2394	0
2406	0.000146286
2418	0.000146286
2430	0.000292572
2442	0
2454	0.000585144
2466	0.000585144
2478	0.000585144
2490	0.000438858
2502	0.001024
2514	0.00219429
2526	0.002048
2538	0.00160915
2550	0.00234058
2562	0.00292572
2574	0.00219429
2586	0.00263315
2598	0.00263315
2610	0.002048
2622	0.00175543
2634	0.00263315
2646	0.00336458
2658	0.00570515
2670	0.00819202
2682	0.0052663
2694	0.00351086
2706	0.00468115
2718	0.00804573
2730	0.0147749
2742	0.0138972
2754	0.00980116
2766	0.0119955
2778	0.0127269
2790	0.0130195
2802	0.0157989
2814	0.0193098
2826	0.0242835
2838	0.0364252
2850	0.0734356
2862	0.145847
2874	0.354597
2886	0.451146
2898	0.414721
2910	0.672477
2922	1.35022
2934	1.43902
2946	1.18243
2958	0.910484
2970	0.592019
2982	0.538625
2994	0.596115
3006	0.319196
3018	0.0715339
3030	0.0383269
3042	0.0323292
3054	0.0351086
3066	0.0943545
3078	0.200412
3090	0.0909899
3102	0.0190172
3114	0.01536
3126	0.0131657
3138	0.0127269
3150	0.0119955
3162	0.0105326
3174	0.00760687
3186	0.00482744
3198	0.00263315
3210	0.00219429
3222	0.00131657
3234	0.00073143
3246	0.000438858
3258	0.000146286
3270	0.000877716
3282	0.00073143
3294	0.00117029
3306	0.00146286
3318	0.00146286
3330	0.00234058
3342	0.00307201
3354	0.00336458
3366	0.00365715
3378	0.00307201
3390	0.00277943
3402	0.00234058
3414	0.00263315
3426	0.00248686
3438	0.00248686
3450	0.00263315
3462	0.00307201
3474	0.00263315
3486	0.00263315
3498	0.00175543
3510	0.00190172
3522	0.00190172
3534	0.00219429
3546	0.00190172
3558	0.00292572
3570	0.00175543
3582	0.00160915
3594	0.00117029
3606	0.00234058
3618	0.00146286
3630	0.000146286
3642	0.00234058
3654	0.00307201
3666	0.00277943
3678	0.000585144
3690	0.00190172
3702	0.00365715
3714	0.00263315
3726	0.00394972
3738	0.00292572
3750	0.00321829
3762	0.00365715
3774	0.00321829
3786	0.00365715
3798	0.00336458
3810	0.00409601
3822	0.00365715
3834	0.00555887
3846	0.00424229
3858	0.00438858
3870	0.00468115
3882	0.00409601
3894	0.00336458
3906	0.00307201
3918	0.00234058
3930	0.00365715
3942	0.00453487
3954	0.00263315
3966	0.00409601
