Infrared Spectrum: p-Cresol, 2-(.alpha.-methylbenzyl)-,
Formula: C 15 H 16 O
CAS: 1817-67-0
Origin: Sadtler Research Labs Under US-EPA Contract
1/CM	ABSORBANCE
450	0.0156356
462	0.0257795
474	0.0284379
486	0.0300819
498	0.0275635
510	0.0312362
522	0.0214421
534	0.0163702
546	0.0124175
558	0.0112982
570	0.00933939
582	0.0124175
594	0.0172446
606	0.00353288
618	0.00104937
630	0.00185389
642	0.00815011
654	0.0041625
666	0.00360284
678	0.0182241
690	0.0796822
702	0.168949
714	0.0548471
726	0.0214771
738	0.0330552
750	0.0428843
762	0.0573656
774	0.0328803
786	0.061633
798	0.10875
810	0.0842294
822	0.0548471
834	0.00689086
846	0.00146912
858	0.000804517
870	0.00601639
882	0.0149011
894	0.00447731
906	0.0174545
918	0.00580651
930	0.00202878
942	0.00136418
954	0.000314811
966	0.00377773
978	0.00657605
990	0.0115431
1002	0.0167899
1014	0.0135019
1026	0.0396312
1038	0.0337198
1050	0.0344893
1062	0.0336148
1074	0.0262692
1086	0.0334049
1098	0.0431991
1110	0.0694333
1122	0.0593943
1134	0.033335
1146	0.0560014
1158	0.0647461
1170	0.135753
1182	0.238102
1194	0.17535
1206	0.0944783
1218	0.0863981
1230	0.0857685
1242	0.104762
1254	0.151809
1266	0.134179
1278	0.0872726
1290	0.0479912
1302	0.043374
1314	0.076674
1326	0.0745053
1338	0.0362732
1350	0.0195183
1362	0.0179092
1374	0.0354337
1386	0.038267
1398	0.0229112
1410	0.0295922
1422	0.0474665
1434	0.0470817
1446	0.0626824
1458	0.0933939
1470	0.0768838
1482	0.106826
1494	0.297636
1506	0.293019
1518	0.0864681
1530	0.0294173
1542	0.0182241
1554	0.0143414
1566	0.0137467
1578	0.0223166
1590	0.043374
1602	0.0664251
1614	0.0438637
1626	0.0222117
1638	0.013292
1650	0.00905956
1662	0.00552668
1674	0.00622626
1686	0.00580651
1698	0.00689086
1710	0.0068209
1722	0.00884969
1734	0.0122426
1746	0.0145163
1758	0.0135719
1770	0.00884969
1782	0.00717069
1794	0.013397
1806	0.0135019
1818	0.00975914
1830	0.00909454
1842	0.00797521
1854	0.00842994
1866	0.0107036
1878	0.0142015
1890	0.00853488
1902	0.00339296
1914	0.003323
1926	0.00426744
1938	0.00933939
1950	0.00961923
1962	0.00657605
1974	0.00304317
1986	0.00262342
1998	0.00230861
2010	0.00195882
2022	0.00192384
2034	0.00248351
2046	0.00223866
2058	0.00125924
2070	0.00125924
2082	0.00115431
2094	0.00101439
2106	0.00069958
2118	0.00069958
2130	0.000664601
2142	0.000629622
2154	0.000559664
2166	0.000594643
2178	0.000454727
2190	0.000629622
2202	0.00034979
2214	0.000419748
2226	0.000629622
2238	0.000769538
2250	0.00146912
2262	0.00188887
2274	0.00195882
2286	0.00318309
2298	0.00458225
2310	0.00594643
2322	0.00444233
2334	0.00262342
2346	0.00692584
2358	0.00293824
2370	0.00353288
2382	0.00514191
2394	0.00311313
2406	0.00276334
2418	0.00297321
2430	0.00335798
2442	0.00325305
2454	0.00318309
2466	0.00318309
2478	0.00314811
2490	0.00377773
2502	0.00391765
2514	0.00318309
2526	0.00272836
2538	0.0019938
2550	0.00139916
2562	0.00174895
2574	0.00209874
2586	0.00188887
2598	0.00220368
2610	0.00241355
2622	0.00234359
2634	0.00276334
2646	0.00244853
2658	0.00220368
2670	0.0019938
2682	0.00143414
2694	0.00174895
2706	0.00157405
2718	0.0019938
2730	0.00346292
2742	0.00685588
2754	0.00461723
2766	0.00339296
2778	0.00325305
2790	0.00360284
2802	0.00444233
2814	0.00570158
2826	0.00776534
2838	0.0118229
2850	0.0168949
2862	0.0341745
2874	0.0756246
2886	0.10067
2898	0.0728263
2910	0.0644663
2922	0.0927993
2934	0.142155
2946	0.113962
2958	0.064991
2970	0.122706
2982	0.208615
2994	0.0652358
3006	0.0702378
3018	0.0967519
3030	0.148591
3042	0.134774
3054	0.105287
3066	0.13278
3078	0.113297
3090	0.0686288
3102	0.038232
3114	0.0246952
3126	0.0121027
3138	0.00622626
3150	0.00430242
3162	0.0041625
3174	0.00279832
3186	0.00272836
3198	0.00206376
3210	0.00188887
3222	0.00255347
3234	0.00143414
3246	0.00192384
3258	0.00146912
3270	0.00174895
3282	0.000559664
3294	0.000489706
3306	0.000279832
3318	0.000804517
3330	0.000874475
3342	0.000629622
3354	0.00125924
3366	0.00171397
3378	0.00125924
3390	0.00185389
3402	0.00220368
3414	0.00111933
3426	0.000769538
3438	0.00157405
3450	0.000629622
3462	0.00139916
3474	0.00118929
3486	0.00118929
3498	0.00251849
3510	0.00374275
3522	0.00531681
3534	0.00958425
3546	0.0196232
3558	0.0381971
3570	0.0890915
3582	0.125295
3594	0.130087
3606	0.0653408
3618	0.0264791
3630	0.0257096
3642	0.0535878
3654	0.118579
3666	0.0245203
3678	0.00752048
3690	0.00153908
3702	0.0013292
3714	0.000244853
3726	0.00034979
3738	0.000559664
3750	6.9958e-05
3762	0.000979412
3774	0.00136418
3786	0.000384769
3798	0.00153908
3810	0.000139916
3822	0.000629622
3834	0.0019938
3846	0.000524685
3858	0.00108435
3870	0.00234359
3882	0.00139916
3894	0.00174895
3906	0.000769538
3918	0.0021687
3930	0.00398761
3942	0.00171397
3954	0.00230861
3966	0.00139916
