Infrared Spectrum: 4-Phenyl-3-butyn-2-one
Formula: C 10 H 8 O
CAS: 1817-57-8
Origin: Sadtler Research Labs Under US-EPA Contract
1/CM	ABSORBANCE
450	0.00114824
462	0.0191373
474	0.0236027
486	0.00676185
498	0.0173512
510	0.0469502
522	0.0400607
534	0.0345747
546	0.0178615
558	0.00982381
570	0.0262819
582	0.070808
594	0.14034
606	0.0262819
618	0.00816525
630	0.00625152
642	0.0193925
654	0.0223268
666	0.0456744
678	0.143657
690	0.179763
702	0.0935176
714	0.0298542
726	0.0188821
738	0.0722114
750	0.176701
762	0.179508
774	0.0611118
786	0.00433779
798	0.000893074
810	0.000510328
822	0.00421021
834	0.000127582
846	0.0131409
858	0.0126306
870	0.00382746
882	0.00765492
894	0.00791008
906	0.0091859
918	0.0147995
930	0.0099514
942	0.0126306
954	0.0294714
966	0.106659
978	0.214465
990	0.0535844
1002	0.0229648
1014	0.0265371
1026	0.0671081
1038	0.0431227
1050	0.0449089
1062	0.0413366
1074	0.028068
1086	0.0209234
1098	0.0220717
1110	0.0162029
1122	0.024113
1134	0.0651944
1146	0.263584
1158	0.814739
1170	0.207576
1182	0.109848
1194	0.0539672
1206	0.0415917
1218	0.0428676
1230	0.0548603
1242	0.0447813
1254	0.150419
1266	0.466695
1278	0.592618
1290	0.279149
1302	0.0538396
1314	0.0298542
1326	0.0330437
1338	0.0400607
1350	0.0853524
1362	0.262564
1374	0.130516
1386	0.04274
1398	0.020158
1410	0.0293439
1422	0.046695
1434	0.0556258
1446	0.0650668
1458	0.0281956
1470	0.0118651
1482	0.0510328
1494	0.214465
1506	0.0276853
1518	0.0181166
1530	0.0130134
1542	0.0105893
1554	0.0122479
1566	0.0128858
1578	0.0156926
1590	0.0236027
1602	0.0424848
1614	0.0172236
1626	0.0182442
1638	0.0285784
1650	0.0322782
1662	0.0719562
1674	0.146974
1686	0.476136
1698	1.27582
1710	0.588281
1722	0.153609
1734	0.0616221
1746	0.0418469
1758	0.0340644
1770	0.0173512
1782	0.0144168
1794	0.0167132
1806	0.0156926
1818	0.00484812
1830	0.00574119
1842	0.00242406
1854	0.00446537
1866	0.00459295
1878	0.00765492
1890	0.00969623
1902	0.010079
1914	0.00178615
1926	0.00395504
1938	0.00803767
1950	0.0113548
1962	0.0144168
1974	0.00791008
1986	0.00063791
1998	0.00102066
2010	0.00165857
2022	0.000510328
2034	0.00114824
2046	0.000765492
2058	0.000255164
2070	0.000893074
2082	0.0028068
2094	0.00791008
2106	0.0257716
2118	0.0392953
2130	0.03113
2142	0.0190097
2154	0.0165857
2166	0.0363609
2178	0.0734872
2190	0.269964
2202	0.735893
2214	0.655261
2226	0.152716
2238	0.028068
2250	0.0199028
2262	0.0108445
2274	0.0035723
2286	0.00446537
2298	0.00382746
2310	0.00408262
2322	0.00561361
2334	0.00510328
2346	0.00484812
2358	0.00293439
2370	0.0014034
2382	0.00229648
2394	0.00204131
2406	0.00178615
2418	0.00204131
2430	0.00102066
2442	0.000893074
2454	0.00114824
2466	0.00267922
2478	0.00510328
2490	0.00893074
2502	0.00982381
2514	0.00791008
2526	0.00510328
2538	0.00472053
2550	0.00472053
2562	0.00331713
2574	0.00204131
2586	0.00191373
2598	0.00216889
2610	0.00153098
2622	0.00102066
2634	0.00114824
2646	0.00102066
2658	0.00114824
2670	0.00216889
2682	0.0014034
2694	0.000382746
2706	0
2718	0
2730	0.000382746
2742	0.00102066
2754	0.00242406
2766	0.00153098
2778	0.000893074
2790	0.000893074
2802	0.000765492
2814	0.000765492
2826	0.00165857
2838	0.00306197
2850	0.00472053
2862	0.00586877
2874	0.00739976
2886	0.00880316
2898	0.00701701
2910	0.00816525
2922	0.01161
2934	0.0153098
2946	0.0139064
2958	0.0131409
2970	0.0167132
2982	0.0178615
2994	0.0149271
3006	0.0278129
3018	0.0606015
3030	0.0338092
3042	0.0594532
3054	0.0461847
3066	0.0900729
3078	0.127965
3090	0.0815249
3102	0.070808
3114	0.034192
3126	0.00969623
3138	0.00625152
3150	0.00663426
3162	0.00523086
3174	0.00293439
3186	0.00255164
3198	0.00153098
3210	0.000893074
3222	0.00114824
3234	0.00102066
3246	0.00063791
3258	0.00102066
3270	0.00114824
3282	0.00102066
3294	0.00127582
3306	0.00178615
3318	0.00216889
3330	0.00344471
3342	0.00561361
3354	0.010079
3366	0.0206683
3378	0.0273025
3390	0.0117375
3402	0.00548603
3414	0.00216889
3426	0.00216889
3438	0.00114824
3450	0.000893074
3462	0.00153098
3474	0.00127582
3486	0.0014034
3498	0.000765492
3510	0.000127582
3522	0.00063791
3534	0.00127582
3546	0.000765492
3558	0.00153098
3570	0.000255164
3582	0.00178615
3594	0.00127582
3606	0.000510328
3618	0.000127582
3630	0.00153098
3642	0.000893074
3654	0.0014034
3666	0.00165857
3678	0.00216889
3690	0.00242406
3702	0.00127582
3714	0.00229648
3726	0.000765492
3738	0.00114824
3750	0.00255164
3762	0.00165857
3774	0.00063791
3786	0.00165857
3798	0.0014034
3810	0.00191373
3822	0.00204131
3834	0.000765492
3846	0.000893074
3858	0.000893074
3870	0.00165857
3882	0.000765492
3894	0.00153098
3906	0.00178615
3918	0.00191373
3930	0.00204131
3942	0.00127582
3954	0.0014034
3966	0.00102066
