Infrared Spectrum: 2,4,5-Trimethoxyacetophenone
Formula: C 11 H 14 O 4
CAS: 1818-28-6
Origin: Sadtler Research Labs Under US-EPA Contract
1/CM	ABSORBANCE
450	0.00738535
462	0.00255647
474	0.00227242
486	0.00255647
498	0.00127823
510	0.00610712
522	0.00866359
534	0.0115041
546	0.0242864
558	0.0732854
570	0.132084
582	0.0678884
594	0.0292574
606	0.016191
618	0.0187474
630	0.0441701
642	0.0421817
654	0.0150548
666	0.0117882
678	0.00568104
690	0.00113621
702	0.00255647
714	0.00440281
726	0.0120722
738	0.00852156
750	0.00596509
762	0.00681725
774	0.0144867
786	0.0558162
798	0.141316
810	0.142168
822	0.0785404
834	0.0460164
846	0.0410455
858	0.0311037
870	0.0387731
882	0.0643378
894	0.0562423
906	0.0365007
918	0.0244285
930	0.0312457
942	0.0559582
954	0.0480048
966	0.0534018
978	0.0899025
990	0.10936
1002	0.11149
1014	0.198552
1026	0.472378
1038	0.715669
1050	0.430197
1062	0.204944
1074	0.125125
1086	0.0687406
1098	0.0514134
1110	0.0482888
1122	0.0633436
1134	0.123421
1146	0.346543
1158	0.497659
1170	0.438718
1182	0.464425
1194	0.577052
1206	1.24642
1218	1.31758
1230	0.868773
1242	0.441275
1254	0.369836
1266	0.429487
1278	0.467834
1290	0.382618
1302	0.41713
1314	0.466839
1326	0.322967
1338	0.193865
1350	0.197984
1362	0.309191
1374	0.218152
1386	0.486723
1398	0.656586
1410	0.218862
1422	0.169579
1434	0.279507
1446	0.336886
1458	0.3295
1470	0.455903
1482	0.331205
1494	0.730866
1506	1.12627
1518	0.430623
1530	0.180515
1542	0.116887
1554	0.127113
1566	0.187758
1578	0.236189
1590	0.246415
1602	0.41642
1614	0.324813
1626	0.109502
1638	0.0673203
1650	0.0693087
1662	0.0952994
1674	0.16333
1686	0.465419
1698	0.588698
1710	0.266725
1722	0.135067
1734	0.0813809
1746	0.0404774
1758	0.0235763
1770	0.0157649
1782	0.0117882
1794	0.00894764
1806	0.00724333
1818	0.00468686
1830	0.00312457
1842	0.00482888
1854	0.0065332
1866	0.0065332
1878	0.00624914
1890	0.00426078
1902	0.00284052
1914	0.00227242
1926	0.00525496
1938	0.00610712
1950	0.00610712
1962	0.00752738
1974	0.00809548
1986	0.00823751
1998	0.00908966
2010	0.0116461
2022	0.0122142
2034	0.0126403
2046	0.0119302
2058	0.0124983
2070	0.0134925
2082	0.0129244
2094	0.011078
2106	0.00795346
2118	0.00482888
2130	0.00312457
2142	0.00255647
2154	0.00298255
2166	0.00284052
2178	0.00213039
2190	0.00227242
2202	0.00255647
2214	0.00213039
2226	0.00213039
2238	0.00142026
2250	0.00071013
2262	0.000426078
2274	0.00071013
2286	0.00213039
2298	0.00454483
2310	0.00497091
2322	0.00312457
2334	0.00255647
2346	0.00255647
2358	0.00213039
2370	0.00071013
2382	0.00170431
2394	0.00142026
2406	0.00284052
2418	0.00312457
2430	0.00312457
2442	0.00284052
2454	0.00255647
2466	0.00284052
2478	0.00269849
2490	0.00340862
2502	0.00340862
2514	0.0038347
2526	0.00482888
2538	0.00511294
2550	0.00511294
2562	0.00497091
2574	0.00596509
2586	0.00852156
2598	0.0117882
2610	0.0122142
2622	0.00908966
2634	0.00639117
2646	0.00539699
2658	0.00454483
2670	0.00497091
2682	0.00355065
2694	0.00269849
2706	0.0032666
2718	0.0038347
2730	0.00440281
2742	0.00482888
2754	0.00610712
2766	0.00866359
2778	0.0119302
2790	0.0174692
2802	0.0267009
2814	0.0450222
2826	0.087346
2838	0.162904
2850	0.214033
2862	0.171851
2874	0.105383
2886	0.106377
2898	0.129102
2910	0.159069
2922	0.206364
2934	0.268855
2946	0.413296
2958	0.36174
2970	0.24883
2982	0.178669
2994	0.204801
3006	0.332767
3018	0.198694
3030	0.0796766
3042	0.0552481
3054	0.0478628
3066	0.0465845
3078	0.0457324
3090	0.0389151
3102	0.027553
3114	0.0207358
3126	0.0160489
3138	0.0117882
3150	0.00951574
3162	0.00752738
3174	0.00596509
3186	0.00511294
3198	0.00411875
3210	0.0032666
3222	0.00255647
3234	0.00170431
3246	0.00198836
3258	0.00184634
3270	0.00127823
3282	0.00156229
3294	0.00213039
3306	0.00127823
3318	0.00198836
3330	0.00269849
3342	0.00355065
3354	0.00639117
3366	0.00866359
3378	0.00639117
3390	0.00468686
3402	0.00355065
3414	0.00255647
3426	0.00269849
3438	0.00170431
3450	0.00184634
3462	0.00213039
3474	0.00198836
3486	0.00071013
3498	0.000994182
3510	0.00127823
3522	0.00156229
3534	0.00142026
3546	0.000852156
3558	0.000994182
3570	0.00156229
3582	0.000852156
3594	0.000142026
3606	0.00170431
3618	0.000568104
3630	0.000994182
3642	0.000852156
3654	0.000426078
3666	0.00170431
3678	0.00142026
3690	0.00071013
3702	0.00113621
3714	0.000142026
3726	0.00184634
3738	0.000852156
3750	0.000568104
3762	0.00113621
3774	0.000568104
3786	0.000426078
3798	0.000426078
3810	0.000994182
3822	0.000852156
3834	0.000142026
3846	0.000284052
3858	0.000852156
3870	0.00127823
3882	0.00170431
3894	0.000852156
3906	0.00127823
3918	0.00156229
3930	0.000142026
3942	0.000852156
3954	0.00198836
3966	0.00198836
