Infrared Spectrum: Anthranilic acid, 5-chloro-, butyl ester
Formula: C 11 H 14 Cl N O 2
CAS: 18189-08-7
Origin: Sadtler Research Labs Under US-EPA Contract
1/CM	ABSORBANCE
450	0
462	0.0070354
474	0.0194508
486	0.0269001
498	0.0457991
510	0.0750443
522	0.109669
534	0.0725612
546	0.0376601
558	0.0262103
570	0.0183472
582	0.0164159
594	0.0186231
606	0.0197267
618	0.0249688
630	0.0416606
642	0.0754581
654	0.0750443
666	0.0131052
678	0.0217959
690	0.0390396
702	0.0633186
714	0.124292
726	0.0532483
738	0.0233134
750	0.027176
762	0.00965643
774	0.00358667
786	0.0176575
798	0.0260724
810	0.14126
822	0.125947
834	0.0340734
846	0.027176
858	0.024417
870	0.0256585
882	0.0336596
894	0.0489719
906	0.0371083
918	0.0158641
930	0.01614
942	0.0416606
954	0.0437298
966	0.0455232
978	0.0212441
990	0.0222098
1002	0.0234513
1014	0.0235893
1026	0.0186231
1038	0.0184852
1050	0.0469027
1062	0.106083
1074	0.195198
1086	0.423228
1098	0.265138
1110	0.212304
1122	0.43716
1134	0.502272
1146	0.248446
1158	0.240169
1170	0.0847007
1182	0.0623529
1194	0.0871838
1206	0.240307
1218	0.532345
1230	0.942606
1242	1.14636
1254	0.327629
1266	0.226236
1278	0.467785
1290	0.757616
1302	0.386947
1314	0.206234
1326	0.158503
1338	0.0780791
1350	0.0445575
1362	0.0336596
1374	0.0332457
1386	0.0800104
1398	0.0653878
1410	0.101117
1422	0.0889771
1434	0.0452473
1446	0.056697
1458	0.124706
1470	0.201543
1482	0.39481
1494	0.256999
1506	0.0699401
1518	0.0354529
1530	0.0286934
1542	0.0515929
1554	0.138777
1566	0.186369
1578	0.173126
1590	0.293418
1602	0.264034
1614	0.401432
1626	0.304591
1638	0.0911843
1650	0.040557
1662	0.0358667
1674	0.0509032
1686	0.0911843
1698	0.261689
1710	0.851835
1722	0.402121
1734	0.171333
1746	0.0740786
1758	0.0413847
1770	0.0314524
1782	0.0219339
1794	0.0204165
1806	0.00882874
1818	0.00441437
1830	0.00413847
1842	0.0062077
1854	0.00262103
1866	0.00289693
1878	0.00869079
1890	0.00841489
1902	0.00289693
1914	0.00303488
1926	0.00372462
1938	0.00372462
1950	0.00331078
1962	0.00344873
1974	0.00275898
1986	0.00262103
1998	0.00303488
2010	0.00358667
2022	0.00441437
2034	0.00482822
2046	0.00496616
2058	0.00469027
2070	0.00455232
2082	0.00524206
2094	0.00551796
2106	0.00579386
2118	0.00551796
2130	0.00510411
2142	0.00413847
2154	0.00413847
2166	0.00455232
2178	0.00524206
2190	0.00524206
2202	0.00496616
2214	0.00524206
2226	0.00524206
2238	0.00413847
2250	0.00372462
2262	0.00441437
2274	0.00496616
2286	0.00455232
2298	0.00441437
2310	0.00441437
2322	0.00372462
2334	0.00289693
2346	0.00538001
2358	0.00303488
2370	0.0064836
2382	0.00551796
2394	0.00344873
2406	0.00317283
2418	0.00220718
2430	0.00234513
2442	0.00275898
2454	0.00289693
2466	0.00220718
2478	0.00220718
2490	0.00220718
2502	0.00275898
2514	0.00331078
2526	0.00317283
2538	0.00275898
2550	0.00234513
2562	0.00248308
2574	0.00275898
2586	0.00344873
2598	0.00372462
2610	0.00413847
2622	0.00441437
2634	0.00427642
2646	0.00455232
2658	0.00413847
2670	0.00441437
2682	0.00510411
2694	0.00538001
2706	0.0062077
2718	0.00689745
2730	0.00689745
2742	0.00717335
2754	0.00869079
2766	0.00951848
2778	0.0103462
2790	0.0114498
2802	0.0124154
2814	0.0131052
2826	0.0157262
2838	0.0213821
2850	0.0368324
2862	0.0578006
2874	0.0891151
2886	0.123602
2898	0.102496
2910	0.112566
2922	0.144709
2934	0.182369
2946	0.240583
2958	0.249688
2970	0.362116
2982	0.207613
2994	0.0957366
3006	0.0495237
3018	0.0366944
3030	0.043316
3042	0.0434539
3054	0.0295211
3066	0.029659
3078	0.0387637
3090	0.0177954
3102	0.013519
3114	0.0113118
3126	0.00827694
3138	0.0067595
3150	0.00717335
3162	0.00772514
3174	0.00827694
3186	0.0073113
3198	0.00662155
3210	0.00593181
3222	0.00441437
3234	0.00386257
3246	0.00372462
3258	0.00510411
3270	0.00634565
3282	0.00827694
3294	0.0103462
3306	0.0117257
3318	0.0124154
3330	0.0144846
3342	0.0150364
3354	0.0200026
3366	0.0401432
3378	0.143053
3390	0.256861
3402	0.0874597
3414	0.0412468
3426	0.035177
3438	0.0168298
3450	0.0125534
3462	0.0146226
3474	0.02152
3486	0.0355908
3498	0.0637324
3510	0.114912
3522	0.147605
3534	0.0671812
3546	0.0197267
3558	0.00979438
3570	0.00606976
3582	0.00496616
3594	0.00289693
3606	0.00248308
3618	0.00275898
3630	0.00262103
3642	0.00220718
3654	0.00262103
3666	0.00303488
3678	0.00372462
3690	0.00303488
3702	0.00262103
3714	0.00275898
3726	0.00317283
3738	0.00372462
3750	0.00206923
3762	0.00206923
3774	0.00206923
3786	0.00275898
3798	0.00206923
3810	0.00206923
3822	0.00262103
3834	0.00275898
3846	0.00220718
3858	0.00206923
3870	0.00262103
3882	0.00220718
3894	0.00303488
3906	0.00275898
3918	0.00303488
3930	0.00206923
3942	0.00303488
3954	0.00331078
3966	0.00331078
