Infrared Spectrum: Anthranilic acid, 5-chloro-, heptyl ester
Formula: C 14 H 20 Cl N O 2
CAS: 18189-09-8
Origin: Sadtler Research Labs Under US-EPA Contract
1/CM	ABSORBANCE
450	0.00267077
462	0.00510588
474	0.00518443
486	0.0131967
498	0.0229372
510	0.0402186
522	0.0600137
534	0.0334632
546	0.0147678
558	0.0107616
570	0.00369194
582	0.00157104
594	0.00463457
606	0.00329918
618	0.0060485
630	0.0165745
642	0.0351127
654	0.034013
666	0.0018067
678	0.00699113
690	0.0213661
702	0.0349556
714	0.0733676
726	0.0375479
738	0.0153176
750	0.0183812
762	0.00424181
774	0.000235656
786	0.0154747
798	0.0115471
810	0.0735247
822	0.0651196
834	0.0142965
846	0.0144536
858	0.0157104
870	0.0148463
882	0.0215232
894	0.0288286
906	0.020345
918	0.00809086
930	0.00871927
942	0.0131967
954	0.0183812
966	0.0214447
978	0.0161032
990	0.0104474
1002	0.0142965
1014	0.0193238
1026	0.0159461
1038	0.0159461
1050	0.0322063
1062	0.0650411
1074	0.117514
1086	0.24084
1098	0.156947
1110	0.133538
1122	0.25553
1134	0.276817
1146	0.131182
1158	0.130868
1170	0.042261
1182	0.036291
1194	0.0602494
1206	0.163624
1218	0.388125
1230	0.573587
1242	0.608071
1254	0.203685
1266	0.162131
1278	0.272183
1290	0.410591
1302	0.236991
1314	0.119085
1326	0.0900206
1338	0.0389618
1350	0.0201093
1362	0.0183812
1374	0.0212876
1386	0.0519229
1398	0.0305567
1410	0.0545936
1422	0.0519229
1434	0.0351127
1446	0.0528655
1458	0.123248
1470	0.141315
1482	0.230079
1494	0.124583
1506	0.0340916
1518	0.0155533
1530	0.0148463
1542	0.037705
1554	0.0919844
1566	0.106909
1578	0.114136
1590	0.175171
1602	0.154983
1614	0.24736
1626	0.159539
1638	0.0469741
1650	0.0211305
1662	0.0210519
1674	0.0360554
1686	0.0850718
1698	0.231414
1710	0.473433
1722	0.204471
1734	0.0964619
1746	0.043125
1758	0.0253723
1770	0.0156318
1782	0.0100547
1794	0.00840506
1806	0.00267077
1818	0.00078552
1830	0.00039276
1842	0.00164959
1854	0
1866	0.000235656
1878	0.00306353
1890	0.00314208
1902	0.000628416
1914	0.000706968
1926	0.00117828
1938	0.00164959
1950	0.00164959
1962	0.00188525
1974	0.00204235
1986	0.00219946
1998	0.00290642
2010	0.00322063
2022	0.00337774
2034	0.00345629
2046	0.00369194
2058	0.00337774
2070	0.00322063
2082	0.00361339
2094	0.00369194
2106	0.0040847
2118	0.00361339
2130	0.00329918
2142	0.00306353
2154	0.00329918
2166	0.00314208
2178	0.00353484
2190	0.00353484
2202	0.00337774
2214	0.00329918
2226	0.00267077
2238	0.00251366
2250	0.00274932
2262	0.00322063
2274	0.00369194
2286	0.00369194
2298	0.00439891
2310	0.00439891
2322	0.0018067
2334	0.00039276
2346	0.00353484
2358	0.000628416
2370	0.00424181
2382	0.0040847
2394	0.00141394
2406	0.00125683
2418	0.000157104
2430	7.8552e-05
2442	0.00078552
2454	0.00102118
2466	0.000549864
2478	0.00078552
2490	0.000864072
2502	0.00109973
2514	0.00157104
2526	0.00149249
2538	0.00141394
2550	0.000942624
2562	0.00125683
2574	0.00141394
2586	0.0019638
2598	0.0021209
2610	0.00251366
2622	0.00306353
2634	0.00314208
2646	0.00345629
2658	0.00384905
2670	0.0040847
2682	0.00447746
2694	0.00455602
2706	0.00502733
2718	0.00526298
2730	0.0057343
2742	0.00612706
2754	0.00683402
2766	0.00793375
2778	0.00895493
2790	0.0106045
2802	0.0127254
2814	0.0147678
2826	0.0208948
2838	0.0331489
2850	0.0697542
2862	0.13723
2874	0.137387
2886	0.113115
2898	0.111544
2910	0.154826
2922	0.240448
2934	0.360789
2946	0.306824
2958	0.245318
2970	0.246418
2982	0.112094
2994	0.0600137
3006	0.0327562
3018	0.0234085
3030	0.0242726
3042	0.0233299
3054	0.0169672
3066	0.0179884
3078	0.0219946
3090	0.0116257
3102	0.00926914
3114	0.00683402
3126	0.00510588
3138	0.00455602
3150	0.00518443
3162	0.00542009
3174	0.00542009
3186	0.00487022
3198	0.00439891
3210	0.00361339
3222	0.00290642
3234	0.00267077
3246	0.00235656
3258	0.0040847
3270	0.00502733
3282	0.0058914
3294	0.00793375
3306	0.00864072
3318	0.00958334
3330	0.0112329
3342	0.0130396
3354	0.0212876
3366	0.0456387
3378	0.0999967
3390	0.133853
3402	0.0469741
3414	0.0252152
3426	0.020345
3438	0.0118614
3450	0.0124112
3462	0.0160246
3474	0.0260007
3486	0.0399044
3498	0.0553792
3510	0.0734461
3522	0.0804372
3534	0.034013
3546	0.0099761
3558	0.00510588
3570	0.00259222
3582	0.00109973
3594	0.000706968
3606	0.000549864
3618	0.000706968
3630	0.00125683
3642	0.00133538
3654	0.00117828
3666	0.000864072
3678	0.00157104
3690	0.00149249
3702	0.000942624
3714	0.000549864
3726	0.00078552
3738	0.00188525
3750	0.000549864
3762	0.000706968
3774	0.000314208
3786	0.00102118
3798	0.000942624
3810	0.000549864
3822	0.00157104
3834	0.000549864
3846	0.00141394
3858	0.000549864
3870	0.00117828
3882	0.000549864
3894	0.00219946
3906	0.00102118
3918	0.000549864
3930	0.00109973
3942	0.00188525
3954	0.00149249
3966	0.000942624
