Infrared Spectrum: Aniline, 2-ethyl-N-methyl-,
Formula: C 9 H 13 N
CAS: 1821-38-1
Origin: Sadtler Research Labs Under US-EPA Contract
1/CM	ABSORBANCE
450	0
462	0.0442012
474	0.0357073
486	0.0323263
498	0.034223
510	0.0337282
522	0.0275433
534	0.0304296
546	0.0391709
558	0.0205338
570	0.0297699
582	0.0396657
594	0.0261414
606	0.0310068
618	0.041315
630	0.0406552
642	0.0403254
654	0.0382638
666	0.0347178
678	0.0378514
690	0.0407377
702	0.051788
714	0.0775996
726	0.160889
738	0.424035
750	0.425767
762	0.13549
774	0.0451908
786	0.0405728
798	0.0464278
810	0.0577255
822	0.0570658
834	0.0374391
846	0.0335633
858	0.0315016
870	0.0319964
882	0.0305945
894	0.0308419
906	0.0346353
918	0.0422221
930	0.0469226
942	0.042387
954	0.0538496
966	0.0592099
978	0.051788
990	0.0441188
1002	0.0393358
1014	0.041315
1026	0.0526951
1038	0.081393
1050	0.140273
1062	0.148437
1074	0.117513
1086	0.0698479
1098	0.0602819
1110	0.0723218
1122	0.0620961
1134	0.0541795
1146	0.0745484
1158	0.169383
1170	0.207399
1182	0.0936802
1194	0.0564061
1206	0.0531075
1218	0.0564061
1230	0.0749607
1242	0.131284
1254	0.284422
1266	0.329365
1278	0.183814
1290	0.223315
1302	0.361856
1314	0.336127
1326	0.221583
1338	0.109514
1350	0.07059
1362	0.0660545
1374	0.0694355
1386	0.0752081
1398	0.0618488
1410	0.0691057
1422	0.119574
1434	0.15891
1446	0.182083
1458	0.319552
1470	0.351301
1482	0.290029
1494	0.321284
1506	0.687428
1518	0.751339
1530	0.315099
1542	0.101597
1554	0.071827
1566	0.0945874
1578	0.19338
1590	0.322933
1602	0.426344
1614	0.389812
1626	0.11842
1638	0.0528601
1650	0.0418098
1662	0.0472524
1674	0.042387
1686	0.0362021
1698	0.0386761
1710	0.0680336
1722	0.0418098
1734	0.0300997
1746	0.0348002
1758	0.0446136
1770	0.0417273
1782	0.0333159
1794	0.0336457
1806	0.0337282
1818	0.0290277
1830	0.0270485
1842	0.0315841
1854	0.0315016
1866	0.0315841
1878	0.0462629
1890	0.0397481
1902	0.0326561
1914	0.0415624
1926	0.0358723
1938	0.0260589
1950	0.024822
1962	0.024657
1974	0.0239149
1986	0.024657
1998	0.0242447
2010	0.0233376
2022	0.022348
2034	0.0221006
2046	0.0220182
2058	0.0216058
2070	0.0219357
2082	0.0250694
2094	0.0261414
2106	0.0256466
2118	0.0269661
2130	0.0269661
2142	0.0259765
2154	0.0242447
2166	0.0230077
2178	0.0230077
2190	0.0231727
2202	0.0230902
2214	0.0233376
2226	0.0245746
2238	0.0243272
2250	0.0241622
2262	0.0239149
2274	0.0229253
2286	0.0230902
2298	0.0226779
2310	0.0236675
2322	0.0261414
2334	0.0252343
2346	0.0225129
2358	0.0235025
2370	0.0205338
2382	0.0205338
2394	0.0221006
2406	0.023585
2418	0.0253168
2430	0.0257291
2442	0.0227603
2454	0.0210286
2466	0.0205338
2478	0.0215234
2490	0.0220182
2502	0.0215234
2514	0.021111
2526	0.0215234
2538	0.0236675
2550	0.0265537
2562	0.028203
2574	0.0301822
2586	0.0303471
2598	0.0291101
2610	0.0277907
2622	0.0293575
2634	0.0307594
2646	0.0296874
2658	0.0291101
2670	0.0290277
2682	0.028203
2694	0.02944
2706	0.0300173
2718	0.0315016
2730	0.0359547
2742	0.0419747
2754	0.0433766
2766	0.0463453
2778	0.0533549
2790	0.0648175
2802	0.0905466
2814	0.169383
2826	0.239231
2838	0.175156
2850	0.149509
2862	0.205585
2874	0.323345
2886	0.417685
2898	0.389317
2910	0.35963
2922	0.391131
2934	0.427993
2946	0.42923
2958	0.396574
2970	0.631435
2982	0.603809
2994	0.251766
3006	0.13549
3018	0.168229
3030	0.179279
3042	0.181176
3054	0.208966
3066	0.216636
3078	0.227274
3090	0.168558
3102	0.0947523
3114	0.0621786
3126	0.0503861
3138	0.0409026
3150	0.0355424
3162	0.0334808
3174	0.031914
3186	0.0313367
3198	0.0298523
3210	0.028368
3222	0.027131
3234	0.0268836
3246	0.0264713
3258	0.0244921
3270	0.0261414
3282	0.0269661
3294	0.0250694
3306	0.0245746
3318	0.0254817
3330	0.0239973
3342	0.025894
3354	0.0253168
3366	0.0252343
3378	0.0269661
3390	0.0262239
3402	0.0259765
3414	0.0266362
3426	0.0270485
3438	0.0327386
3450	0.0522828
3462	0.102009
3474	0.102751
3486	0.0511283
3498	0.0348002
3510	0.0299348
3522	0.0261414
3534	0.0260589
3546	0.0259765
3558	0.0252343
3570	0.0263063
3582	0.024657
3594	0.0239149
3606	0.0263888
3618	0.0249869
3630	0.0241622
3642	0.0233376
3654	0.0231727
3666	0.0229253
3678	0.0239149
3690	0.0206987
3702	0.0216883
3714	0.0219357
3726	0.0220182
3738	0.021111
3750	0.0205338
3762	0.0205338
3774	0.021111
3786	0.0205338
3798	0.022348
3810	0.0222656
3822	0.0205338
3834	0.0205338
3846	0.0213584
3858	0.0205338
3870	0.0213584
3882	0.0214409
3894	0.0244096
3906	0.0238324
3918	0.0214409
3930	0.0233376
3942	0.0239149
3954	0.0206987
3966	0.0232551
