Infrared Spectrum: Spiro[5.5]undecane-3-carboxylic acid
Formula: C 12 H 20 O 2
CAS: 18244-47-8
Origin: Sadtler Research Labs Under US-EPA Contract
1/CM	ABSORBANCE
450	0.00979325
462	0.00114467
474	0.00788547
486	0.0164069
498	0.0236564
510	0.0344671
522	0.0482031
534	0.0606672
546	0.0861042
558	0.121589
570	0.152876
582	0.126295
594	0.0843237
606	0.0700789
618	0.0499837
630	0.0485847
642	0.106708
654	0.0937353
666	0.0324322
678	0.0256914
690	0.0259457
702	0.0382827
714	0.0515099
726	0.0497293
738	0.044006
750	0.0330681
762	0.0272176
774	0.0208583
786	0.0146263
798	0.0124641
810	0.0123369
822	0.0129729
834	0.0125913
846	0.0241652
858	0.00903013
870	0.0085214
882	0.0152622
894	0.0384099
906	0.0433701
918	0.0396817
930	0.03434
942	0.0223846
954	0.0164069
966	0.0222574
978	0.0363749
990	0.0638469
1002	0.0727498
1014	0.0470585
1026	0.045405
1038	0.0512556
1050	0.0485847
1062	0.0614304
1074	0.114212
1086	0.21914
1098	0.368201
1110	0.543462
1122	0.465116
1134	0.297613
1146	0.252081
1158	0.210491
1170	0.153512
1182	0.114085
1194	0.110269
1206	0.0638469
1218	0.0548167
1230	0.0396817
1242	0.0413351
1254	0.0462953
1266	0.0493478
1278	0.0610488
1290	0.0621935
1302	0.0620663
1314	0.0565973
1326	0.0620663
1338	0.0756751
1350	0.0826703
1362	0.0586323
1374	0.059141
1386	0.0835605
1398	0.061176
1410	0.0344671
1422	0.030906
1434	0.0424798
1446	0.126295
1458	0.178695
1470	0.130619
1482	0.027472
1494	0.00801266
1506	0.00025437
1518	0.00534177
1530	0.00381555
1542	0.00190778
1554	0.00394274
1566	0.00305244
1578	0.0025437
1590	0.0025437
1602	0.00190778
1614	0.00356118
1626	0.00330681
1638	0.00394274
1650	0.00406992
1662	0.0050874
1674	0.00635925
1686	0.0106835
1698	0.0192049
1710	0.0372652
1722	0.0735129
1734	0.143337
1746	0.230968
1758	0.437644
1770	0.881774
1782	0.456721
1794	0.217486
1806	0.0981868
1818	0.0422254
1830	0.0211127
1842	0.010302
1854	0.00610488
1866	0.00381555
1878	0.00292526
1890	0.00203496
1902	0.00241652
1914	0.00190778
1926	0.00203496
1938	0.00279807
1950	0.00228933
1962	0.00165341
1974	0.00101748
1986	0.00139904
1998	0.00165341
2010	0.00216215
2022	0.00203496
2034	0.00178059
2046	0.00152622
2058	0.00101748
2070	0.00025437
2082	0.000381555
2094	0.00050874
2106	0.00076311
2118	0.000890295
2130	0.000890295
2142	0.00025437
2154	0.00101748
2166	0.00139904
2178	0.00203496
2190	0.00216215
2202	0.00241652
2214	0.00241652
2226	0.00241652
2238	0.00216215
2250	0.00203496
2262	0.00152622
2274	0.0025437
2286	0.00406992
2298	0.00661362
2310	0.00864858
2322	0.00839421
2334	0.00546896
2346	0.00750392
2358	0.00483303
2370	0.00127185
2382	0.00432429
2394	0.00050874
2406	0
2418	0.00076311
2430	0.00127185
2442	0.00101748
2454	0.000635925
2466	0.00139904
2478	0.00165341
2490	0.00165341
2502	0.00165341
2514	0.00165341
2526	0.00127185
2538	0.00114467
2550	0.000890295
2562	0.00101748
2574	0.00165341
2586	0.00267089
2598	0.00381555
2610	0.00483303
2622	0.00585051
2634	0.00699518
2646	0.00941169
2658	0.0139904
2670	0.0167884
2682	0.0131001
2694	0.00890295
2706	0.0085214
2718	0.00864858
2730	0.00724955
2742	0.00712236
2754	0.00890295
2766	0.0108107
2778	0.0129729
2790	0.0162797
2802	0.0211127
2814	0.0264545
2826	0.0367565
2838	0.0881392
2850	0.266071
2862	0.417294
2874	0.350013
2886	0.242415
2898	0.273321
2910	0.465497
2922	0.754716
2934	1.24476
2946	1.03808
2958	0.600568
2970	0.157837
2982	0.0366293
2994	0.0186962
3006	0.0124641
3018	0.00813984
3030	0.00877577
3042	0.00635925
3054	0.00432429
3066	0.00330681
3078	0.00305244
3090	0.00368837
3102	0.00330681
3114	0.00228933
3126	0.00267089
3138	0.00216215
3150	0.00178059
3162	0.00165341
3174	0.00178059
3186	0.00216215
3198	0.00203496
3210	0.00139904
3222	0.00165341
3234	0.00139904
3246	0.00178059
3258	0.00152622
3270	0.00267089
3282	0.00178059
3294	0.00178059
3306	0.00203496
3318	0.00216215
3330	0.00279807
3342	0.00165341
3354	0.00216215
3366	0.00114467
3378	0.00127185
3390	0.00127185
3402	0.0025437
3414	0.000635925
3426	0.00139904
3438	0.00114467
3450	0.00076311
3462	0.00178059
3474	0.00076311
3486	0.00241652
3498	0.00267089
3510	0.00406992
3522	0.00648644
3534	0.00470585
3546	0.00686799
3558	0.0223846
3570	0.309695
3582	0.216596
3594	0.0136088
3606	0.00470585
3618	0.00610488
3630	0.00890295
3642	0.00381555
3654	0.00496022
3666	0.000635925
3678	0.00559614
3690	0.00496022
3702	0.0025437
3714	0.00585051
3726	0.0059777
3738	0.0076311
3750	0.00686799
3762	0.00292526
3774	0.00228933
3786	0.00228933
3798	0.00445148
3810	0.00432429
3822	0.00496022
3834	0.003434
3846	0.003434
3858	0.00406992
3870	0.00534177
3882	0.00483303
3894	0.00292526
3906	0.00610488
3918	0.00483303
3930	0.00419711
3942	0.003434
3954	0.00330681
3966	0.00152622
