Infrared Spectrum: Pentane, 2,4-dibromo-,
Formula: C 5 H 10 Br 2
CAS: 1825-11-2
Origin: Sadtler Research Labs Under US-EPA Contract
1/CM	ABSORBANCE
450	0.0116305
462	0.00811549
474	0.0063063
486	0.0115271
498	0.0175749
510	0.018402
522	0.0711268
534	0.131243
546	0.123335
558	0.110877
570	0.0777433
582	0.0231059
594	0.0160242
606	0.019074
618	0.0430069
630	0.0819302
642	0.0448161
654	0.0158691
666	0.0173165
678	0.0121474
690	0.0106483
702	0.00842563
714	0.00465219
726	0.00852901
738	0.00883916
750	0.00702998
762	0.00739181
774	0.00666814
786	0.00708167
798	0.00796041
810	0.00904592
822	0.0134914
834	0.0124575
846	0.028947
858	0.0590311
870	0.0599099
882	0.0841013
894	0.0282233
906	0.0250701
918	0.0475557
930	0.0775365
942	0.0552577
954	0.0160242
966	0.0228474
978	0.0488997
990	0.0586176
1002	0.0833259
1014	0.140134
1026	0.0570669
1038	0.0357185
1050	0.062391
1062	0.0373209
1074	0.0393369
1086	0.0390267
1098	0.0402156
1110	0.0667331
1122	0.160914
1134	0.218291
1146	0.0736597
1158	0.0881848
1170	0.140806
1182	0.157658
1194	0.138997
1206	0.302289
1218	0.51691
1230	0.330357
1242	0.114289
1254	0.114599
1266	0.175698
1278	0.146182
1290	0.0910279
1302	0.0490548
1314	0.0267759
1326	0.0285334
1338	0.0377344
1350	0.0442992
1362	0.0590828
1374	0.105036
1386	0.215345
1398	0.0778466
1410	0.0337542
1422	0.0627529
1434	0.0906143
1446	0.155745
1458	0.188465
1470	0.09201
1482	0.0239329
1494	0.0100797
1506	0.00811549
1518	0.00537586
1530	0.00387682
1542	0.00429035
1554	0.00377344
1566	0.00310146
1578	0.00413528
1590	0.00304977
1602	0.00320484
1614	0.00351499
1626	0.00335991
1638	0.00387682
1650	0.00310146
1662	0.00454881
1674	0.00542755
1686	0.00801211
1698	0.00584108
1710	0.0040319
1722	0.0046005
1734	0.0051691
1746	0.00816718
1758	0.019901
1770	0.0134914
1782	0.00429035
1794	0.00320484
1806	0.0034633
1818	0.0028947
1830	0.00191257
1842	0.00186088
1854	0.00253286
1866	0.00222271
1878	0.00196426
1890	0.00206764
1902	0.00196426
1914	0.00217102
1926	0.00217102
1938	0.00232609
1950	0.00273962
1962	0.00273962
1974	0.00268793
1986	0.00315315
1998	0.00351499
2010	0.00320484
2022	0.00304977
2034	0.00191257
2046	0.0011372
2058	0.00206764
2070	5.1691e-05
2082	0.00139566
2094	0.00284301
2106	0.0034633
2118	0.00341161
2130	0.00330822
2142	0.00320484
2154	0.00372175
2166	0.00361837
2178	0.00408359
2190	0.00454881
2202	0.00496234
2214	0.00522079
2226	0.00485895
2238	0.00532417
2250	0.00537586
2262	0.00553094
2274	0.0051691
2286	0.00491064
2298	0.00449712
2310	0.00392852
2322	0.00232609
2334	0.00248117
2346	0.00594446
2358	0.000206764
2370	0.011372
2382	0.00971791
2394	0.00713336
2406	0.00723674
2418	0.00728843
2430	0.00796041
2442	0.00889085
2454	0.00930438
2466	0.0097696
2478	0.00940776
2490	0.00899423
2502	0.00889085
2514	0.00992467
2526	0.00904592
2538	0.00935607
2550	0.0103899
2562	0.00956283
2574	0.00858071
2586	0.009201
2598	0.0100797
2610	0.0104933
2622	0.0111653
2634	0.0115271
2646	0.009201
2658	0.0106483
2670	0.0097696
2682	0.00873578
2694	0.00930438
2706	0.00858071
2718	0.0102348
2730	0.0138532
2742	0.0199527
2754	0.0176783
2766	0.0115271
2778	0.0100281
2790	0.0115271
2802	0.0129744
2814	0.0192807
2826	0.0268276
2838	0.0330305
2850	0.0350465
2862	0.0492615
2874	0.107155
2886	0.127212
2898	0.148353
2910	0.176215
2922	0.227337
2934	0.330926
2946	0.167117
2958	0.0996086
2970	0.234264
2982	0.329995
2994	0.436014
3006	0.220049
3018	0.0351499
3030	0.0144735
3042	0.0110619
3054	0.00966622
3066	0.00961453
3078	0.0086324
3090	0.00868409
3102	0.00878747
3114	0.00837394
3126	0.00811549
3138	0.00770196
3150	0.00842563
3162	0.00945945
3174	0.00956283
3186	0.00987298
3198	0.0143701
3210	0.013543
3222	0.0125092
3234	0.0104933
3246	0.00816718
3258	0.0100797
3270	0.0102348
3282	0.00858071
3294	0.00594446
3306	0.00609954
3318	0.00609954
3330	0.00713336
3342	0.0063063
3354	0.00594446
3366	0.00677152
3378	0.00563432
3390	0.00423866
3402	0.0040319
3414	0.00330822
3426	0.00444543
3438	0.0040319
3450	0.00522079
3462	0.00558263
3474	0.00511741
3486	0.00429035
3498	0.00578939
3510	0.00470388
3522	0.00511741
3534	0.00532417
3546	0.0034633
3558	0.00454881
3570	0.00351499
3582	0.00465219
3594	0.00429035
3606	0.00398021
3618	0.00325653
3630	0.00718505
3642	0.00377344
3654	0.00532417
3666	0.00589277
3678	0.00584108
3690	0.00454881
3702	0.00646137
3714	0.00692659
3726	0.00558263
3738	0.0051691
3750	0.00702998
3762	0.00599616
3774	0.00496234
3786	0.00470388
3798	0.00315315
3810	0.00439373
3822	0.00501403
3834	0.00532417
3846	0.00501403
3858	0.00485895
3870	0.00439373
3882	0.00501403
3894	0.00553094
3906	0.0046005
3918	0.00470388
3930	0.00392852
3942	0.00434204
3954	0.00465219
3966	0.00682321
