Infrared Spectrum: 3-Octadecanone
Formula: C 18 H 36 O
CAS: 18261-92-2
Origin: Sadtler Research Labs Under US-EPA Contract
1/CM	ABSORBANCE
450	0
462	0.0111674
474	0.014174
486	0.0147109
498	0.0118117
510	0.0146035
522	0.0127781
534	0.0143888
546	0.0127781
558	0.0114896
570	0.0142814
582	0.0128855
594	0.0126707
606	0.0113822
618	0.0128855
630	0.0128855
642	0.0114896
654	0.0107379
666	0.01106
678	0.0117043
690	0.0132076
702	0.0181471
714	0.0233012
726	0.0256636
738	0.0208315
750	0.0186839
762	0.0166437
774	0.016429
786	0.0156773
798	0.0153552
810	0.0162142
822	0.0162142
834	0.0161068
846	0.0158921
858	0.0146035
870	0.0152478
882	0.0153552
894	0.0163216
906	0.0170733
918	0.0182544
930	0.0214758
942	0.0260931
954	0.0293145
966	0.0292071
978	0.027489
990	0.0264152
1002	0.0269521
1014	0.0308178
1026	0.0338244
1038	0.0329654
1050	0.0316768
1062	0.0313547
1074	0.0321063
1086	0.0372605
1098	0.0474615
1110	0.0599175
1122	0.0551928
1134	0.0485353
1146	0.0445623
1158	0.0450992
1170	0.0432737
1182	0.0388712
1194	0.0352203
1206	0.032858
1218	0.0298514
1230	0.0286702
1242	0.0284554
1254	0.0294218
1266	0.0310325
1278	0.0322137
1290	0.0335022
1302	0.0375827
1314	0.0427368
1326	0.0483206
1338	0.0606691
1350	0.0805343
1362	0.0780645
1374	0.0590584
1386	0.0491796
1398	0.0375827
1410	0.0415557
1422	0.0487501
1434	0.0517567
1446	0.070548
1458	0.104265
1470	0.094923
1482	0.0426295
1494	0.0258783
1506	0.0197577
1518	0.0158921
1530	0.0143888
1542	0.0136371
1554	0.0132076
1566	0.013315
1578	0.0139593
1590	0.0131002
1602	0.0125633
1614	0.0128855
1626	0.0134224
1638	0.0138519
1650	0.0146035
1662	0.01557
1674	0.0198651
1686	0.0283481
1698	0.0459582
1710	0.0906279
1722	0.176746
1734	0.188665
1746	0.0876213
1758	0.0444549
1770	0.0286702
1782	0.0211537
1794	0.0167511
1806	0.0146035
1818	0.0125633
1830	0.0107379
1842	0.0100936
1854	0.00977149
1866	0.00944935
1878	0.00934197
1890	0.00934197
1902	0.00912722
1914	0.00901984
1926	0.00912722
1938	0.00891246
1950	0.00901984
1962	0.00912722
1974	0.00912722
1986	0.00912722
1998	0.00901984
2010	0.00955673
2022	0.00966411
2034	0.00987887
2046	0.00998625
2058	0.0100936
2070	0.0100936
2082	0.010201
2094	0.00977149
2106	0.00998625
2118	0.00998625
2130	0.00987887
2142	0.00977149
2154	0.00987887
2166	0.0104158
2178	0.0105231
2190	0.010201
2202	0.010201
2214	0.00977149
2226	0.00977149
2238	0.00998625
2250	0.0103084
2262	0.0103084
2274	0.0100936
2286	0.010201
2298	0.0107379
2310	0.0111674
2322	0.0108453
2334	0.00987887
2346	0.0109527
2358	0.0109527
2370	0.00998625
2382	0.01106
2394	0.00966411
2406	0.00934197
2418	0.00912722
2430	0.00912722
2442	0.00923459
2454	0.00901984
2466	0.00934197
2478	0.00955673
2490	0.00944935
2502	0.00987887
2514	0.0100936
2526	0.0103084
2538	0.0108453
2550	0.0107379
2562	0.0111674
2574	0.0114896
2586	0.0115969
2598	0.0123486
2610	0.0129929
2622	0.0136371
2634	0.0147109
2646	0.0154626
2658	0.0163216
2670	0.0175028
2682	0.0193282
2694	0.0194356
2706	0.0194356
2718	0.0193282
2730	0.0197577
2742	0.0209389
2754	0.0213684
2766	0.0224422
2778	0.0242677
2790	0.0286702
2802	0.0353277
2814	0.0435959
2826	0.0558371
2838	0.0774203
2850	0.156129
2862	0.406859
2874	0.300554
2886	0.221845
2898	0.243321
2910	0.368954
2922	0.63869
2934	1.07379
2946	0.674555
2958	0.362297
2970	0.2954
2982	0.181793
2994	0.111459
3006	0.0670045
3018	0.0464951
3030	0.0353277
3042	0.0280259
3054	0.0234086
3066	0.0202946
3078	0.0184692
3090	0.0175028
3102	0.0161068
3114	0.0158921
3126	0.0144962
3138	0.014174
3150	0.0139593
3162	0.0135298
3174	0.0129929
3186	0.0128855
3198	0.012456
3210	0.0112748
3222	0.01106
3234	0.0108453
3246	0.0109527
3258	0.0106305
3270	0.0104158
3282	0.0100936
3294	0.0104158
3306	0.0104158
3318	0.0104158
3330	0.0105231
3342	0.0107379
3354	0.0105231
3366	0.0103084
3378	0.0108453
3390	0.0111674
3402	0.0111674
3414	0.0117043
3426	0.0121338
3438	0.0119191
3450	0.0115969
3462	0.0111674
3474	0.00955673
3486	0.00977149
3498	0.00923459
3510	0.00923459
3522	0.0100936
3534	0.00955673
3546	0.00966411
3558	0.0100936
3570	0.0113822
3582	0.0112748
3594	0.0108453
3606	0.0100936
3618	0.00998625
3630	0.0119191
3642	0.0113822
3654	0.0107379
3666	0.0111674
3678	0.0113822
3690	0.01106
3702	0.0109527
3714	0.0108453
3726	0.0112748
3738	0.0109527
3750	0.0103084
3762	0.00966411
3774	0.0107379
3786	0.00955673
3798	0.0100936
3810	0.00998625
3822	0.00891246
3834	0.0111674
3846	0.00998625
3858	0.0100936
3870	0.00966411
3882	0.0104158
3894	0.00934197
3906	0.0105231
3918	0.0113822
3930	0.0109527
3942	0.0107379
3954	0.0117043
3966	0.0126707
