Infrared Spectrum: Eicosanoic acid, ethyl ester
Formula: C 22 H 44 O 2
CAS: 18281-05-5
Origin: Sadtler Research Labs Under US-EPA Contract
1/CM	ABSORBANCE
450	0
462	0.0077219
474	0.00810799
486	0.0104246
498	0.00393817
510	0.00579142
522	0.0028571
534	0.00679527
546	0.00803078
558	0.00579142
570	0.00787634
582	0.00756746
594	0.00980681
606	0.00903462
618	0.00911184
630	0.00826243
642	0.00779912
654	0.00710415
666	0.00579142
678	0.00579142
690	0.00903462
702	0.0114284
714	0.0197681
726	0.0210036
738	0.015521
750	0.0136678
762	0.0125867
774	0.0125867
786	0.0119689
798	0.00942072
810	0.00664083
822	0.00849409
834	0.00996125
846	0.0115056
858	0.0135133
870	0.0111195
882	0.00949794
894	0.00911184
906	0.00996125
918	0.0121234
930	0.0125095
942	0.0122006
954	0.0108879
966	0.0107334
978	0.0102701
990	0.0118145
1002	0.016911
1014	0.02749
1026	0.0433199
1038	0.0545938
1050	0.0430882
1062	0.0316598
1074	0.0288799
1086	0.0384551
1098	0.0552888
1110	0.0606169
1122	0.0620069
1134	0.0680299
1146	0.097682
1158	0.132431
1170	0.147797
1182	0.136292
1194	0.112663
1206	0.0960604
1218	0.0905007
1230	0.0930489
1242	0.0955199
1254	0.0840143
1266	0.058532
1278	0.0511962
1290	0.0499607
1302	0.0542077
1314	0.0515051
1326	0.0444009
1338	0.048648
1350	0.0572193
1362	0.0525089
1374	0.0660995
1386	0.0399222
1398	0.02749
1410	0.0238607
1422	0.0294204
1434	0.0393045
1446	0.0594586
1458	0.0877208
1470	0.0728947
1482	0.0298838
1494	0.016216
1506	0.0114284
1518	0.00841687
1530	0.00617752
1542	0.00579142
1554	0.00532811
1566	0.00594586
1578	0.00633196
1590	0.00625474
1602	0.00625474
1614	0.00540533
1626	0.00532811
1638	0.00409261
1650	0.00332042
1662	0.00401539
1674	0.00679527
1686	0.0107334
1698	0.0195364
1710	0.0322003
1722	0.0551344
1734	0.120307
1746	0.210731
1758	0.177372
1770	0.0836282
1782	0.03915
1794	0.0200769
1806	0.0119689
1818	0.00803078
1830	0.00548255
1842	0.00393817
1854	0.00401539
1866	0.0032432
1878	0.00308876
1890	0.00339764
1902	0.0028571
1914	0.00239379
1926	0.00293432
1938	0.00277988
1950	0.0028571
1962	0.00301154
1974	0.00270266
1986	0.00293432
1998	0.00277988
2010	0.00316598
2022	0.00347485
2034	0.00362929
2046	0.00362929
2058	0.00332042
2070	0.00355207
2082	0.00308876
2094	0.00316598
2106	0.0028571
2118	0.00254823
2130	0.00270266
2142	0.00262545
2154	0.00270266
2166	0.00254823
2178	0.0028571
2190	0.00262545
2202	0.00254823
2214	0.00254823
2226	0.00239379
2238	0.00262545
2250	0.00270266
2262	0.00254823
2274	0.0032432
2286	0.00525089
2298	0.00818521
2310	0.0111968
2322	0.00926628
2334	0.00532811
2346	0.0077219
2358	0.00617752
2370	0.00471036
2382	0.00803078
2394	0.00332042
2406	0.00308876
2418	0.00293432
2430	0.00308876
2442	0.0028571
2454	0.00332042
2466	0.00316598
2478	0.00332042
2490	0.00370651
2502	0.00416983
2514	0.00401539
2526	0.00455592
2538	0.00540533
2550	0.00540533
2562	0.00532811
2574	0.00579142
2586	0.0064864
2598	0.00710415
2610	0.00779912
2622	0.00841687
2634	0.00864853
2646	0.00972959
2658	0.010579
2670	0.0118917
2682	0.0128184
2694	0.0120462
2706	0.0117373
2718	0.0117373
2730	0.0120462
2742	0.0129728
2754	0.0135133
2766	0.014826
2778	0.0167565
2790	0.0206175
2802	0.0253278
2814	0.0332042
2826	0.0458681
2838	0.0723542
2850	0.171426
2862	0.329648
2874	0.214206
2886	0.15799
2898	0.18687
2910	0.293509
2922	0.508642
2934	0.77219
2946	0.444318
2958	0.238838
2970	0.185017
2982	0.127411
2994	0.0857131
3006	0.052895
3018	0.0342852
3030	0.0241695
3042	0.0180692
3054	0.014826
3066	0.0124323
3078	0.0111195
3090	0.00949794
3102	0.00888018
3114	0.00849409
3126	0.00779912
3138	0.00702693
3150	0.00718137
3162	0.00640918
3174	0.00571421
3186	0.00571421
3198	0.00478758
3210	0.00424704
3222	0.00432426
3234	0.00378373
3246	0.00316598
3258	0.00277988
3270	0.00262545
3282	0.00231657
3294	0.00239379
3306	0.00262545
3318	0.00247101
3330	0.00223935
3342	0.00254823
3354	0.00293432
3366	0.00277988
3378	0.00277988
3390	0.0032432
3402	0.00277988
3414	0.0028571
3426	0.00223935
3438	0.00270266
3450	0.00270266
3462	0.00308876
3474	0.00332042
3486	0.00301154
3498	0.00277988
3510	0.00239379
3522	0.00231657
3534	0.00308876
3546	0.00355207
3558	0.00386095
3570	0.00471036
3582	0.0061003
3594	0.00347485
3606	0.00416983
3618	0.00386095
3630	0.0044787
3642	0.00463314
3654	0.00455592
3666	0.00416983
3678	0.00339764
3690	0.00440148
3702	0.00362929
3714	0.00370651
3726	0.00301154
3738	0.00432426
3750	0.0032432
3762	0.00386095
3774	0.00393817
3786	0.00432426
3798	0.00370651
3810	0.00440148
3822	0.00308876
3834	0.00386095
3846	0.0048648
3858	0.00316598
3870	0.00386095
3882	0.00378373
3894	0.00416983
3906	0.00339764
3918	0.00362929
3930	0.00455592
3942	0.00555977
3954	0.00416983
3966	0.00455592
