Infrared Spectrum: 1-Cyclohexenylacetic acid
Formula: C 8 H 12 O 2
CAS: 18294-87-6
Origin: Sadtler Research Labs Under US-EPA Contract
1/CM	ABSORBANCE
450	0.0120706
462	0.00935275
474	0.0137493
486	0.0303764
498	0.0394094
510	0.0498014
522	0.0550773
534	0.0817766
546	0.0955259
558	0.069626
570	0.068347
582	0.0775399
594	0.117988
606	0.185696
618	0.251405
630	0.265154
642	0.159476
654	0.0804176
666	0.0581949
678	0.0321351
690	0.0242212
702	0.0199845
714	0.0188654
726	0.0163074
738	0.0173465
750	0.00791386
762	0.0120706
774	0.0102321
786	0.0157478
798	0.0200644
810	0.00935275
822	0.00551572
834	0.00855337
846	0.0117509
858	0.0158277
870	0.0187854
882	0.0163873
894	0.0216632
906	0.0172666
918	0.0236616
930	0.0227024
942	0.0132697
954	0.0133496
966	0.0139092
978	0.0096725
990	0.0127101
1002	0.0073543
1014	0.00151882
1026	0.00415678
1038	0.00887312
1050	0.0214234
1062	0.0465239
1074	0.0991231
1086	0.160276
1098	0.345172
1110	0.759891
1122	0.641582
1134	0.354845
1146	0.280902
1158	0.163953
1170	0.104879
1182	0.0872923
1194	0.0878519
1206	0.0980839
1218	0.0950463
1230	0.0843346
1242	0.0763408
1254	0.0662686
1266	0.0675476
1278	0.0605131
1290	0.0506807
1302	0.0535585
1314	0.0646698
1326	0.0763408
1338	0.0939272
1350	0.119667
1362	0.129819
1374	0.0999225
1386	0.0727436
1398	0.0607529
1410	0.0470035
1422	0.0505208
1434	0.0699458
1446	0.0916889
1458	0.073463
1470	0.0315755
1482	0.00999225
1494	0.00703454
1506	0.00775399
1518	0.00839349
1530	0.0073543
1542	0.00559566
1554	0.00767405
1566	0.00695461
1578	0.00887312
1590	0.00775399
1602	0.0063151
1614	0.0096725
1626	0.0195049
1638	0.0262996
1650	0.0556368
1662	0.0570757
1674	0.0273388
1686	0.0278984
1698	0.0388499
1710	0.0571557
1722	0.0842547
1734	0.143249
1746	0.294332
1758	0.443576
1770	0.638065
1782	0.744143
1794	0.462761
1806	0.211596
1818	0.0880117
1830	0.0398891
1842	0.0223826
1854	0.0112713
1866	0.00695461
1878	0.0063151
1890	0.00599535
1902	0.00559566
1914	0.00431665
1926	0.00367715
1938	0.00519597
1950	0.00535585
1962	0.00423671
1974	0.00351727
1986	0.00319752
1998	0.00343733
2010	0.00359721
2022	0.00327746
2034	0.00207839
2046	0.00183857
2058	0.00207839
2070	0.00175864
2082	0.00183857
2094	0.00159876
2106	0.000879318
2118	0.000879318
2130	0.000959256
2142	0.00135895
2154	0.00143888
2166	0.00199845
2178	0.00215833
2190	0.00295771
2202	0.00375709
2214	0.00431665
2226	0.00407684
2238	0.00303764
2250	0.00255802
2262	0.00239814
2274	0.00199845
2286	0.00079938
2298	0.00039969
2310	0.00039969
2322	0.000319752
2334	0.00207839
2346	0.000319752
2358	0.00191851
2370	0.000319752
2382	0.000719442
2394	0.00215833
2406	0.0016787
2418	0.00191851
2430	0.00159876
2442	0.00127901
2454	0.00143888
2466	0.00183857
2478	0.00239814
2490	0.0023182
2502	0.00255802
2514	0.00255802
2526	0.00287777
2538	0.00207839
2550	0.00159876
2562	0.00175864
2574	0.00263795
2586	0.00279783
2598	0.0033574
2610	0.00319752
2622	0.00367715
2634	0.00391696
2646	0.0063151
2658	0.00951262
2670	0.0107117
2682	0.00911293
2694	0.00759411
2706	0.00583547
2718	0.00511603
2730	0.00391696
2742	0.00423671
2754	0.00487622
2766	0.00535585
2778	0.00751417
2790	0.0106318
2802	0.0151083
2814	0.0184657
2826	0.0306163
2838	0.0848142
2850	0.186176
2862	0.216552
2874	0.214634
2886	0.163233
2898	0.175464
2910	0.222228
2922	0.359002
2934	0.577792
2946	0.724638
2958	0.345732
2970	0.0926481
2982	0.0571557
2994	0.0474032
3006	0.0558767
3018	0.0486822
3030	0.030936
3042	0.0248607
3054	0.0264595
3066	0.020624
3078	0.0121506
3090	0.00879318
3102	0.00695461
3114	0.00647498
3126	0.00623516
3138	0.00623516
3150	0.0063151
3162	0.00583547
3174	0.00447653
3186	0.00423671
3198	0.00471634
3210	0.00375709
3222	0.00391696
3234	0.00391696
3246	0.00319752
3258	0.00343733
3270	0.00271789
3282	0.00191851
3294	0.00135895
3306	0.00215833
3318	0.0023182
3330	0.00159876
3342	0.00287777
3354	0.00223826
3366	0.00215833
3378	0.00223826
3390	0.00175864
3402	0.00303764
3414	0.00279783
3426	0.00247808
3438	0.00279783
3450	0.00223826
3462	0.00255802
3474	0.0033574
3486	0.00527591
3498	0.00599535
3510	0.00775399
3522	0.0110314
3534	0.0136694
3546	0.0211836
3558	0.0446054
3570	0.24477
3582	0.303525
3594	0.0583547
3606	0.01287
3618	0.00903299
3630	0.00527591
3642	0.00551572
3654	0.00191851
3666	0.00343733
3678	0.00527591
3690	0.00327746
3702	0.00287777
3714	0.00471634
3726	0.00639504
3738	0.00711448
3750	0.000479628
3762	0.0033574
3774	0.00343733
3786	0.00215833
3798	0.00159876
3810	0.00447653
3822	0.00319752
3834	0.00223826
3846	0.00127901
3858	0.00695461
3870	0.0016787
3882	0.0039969
3894	0.00143888
3906	0.00295771
3918	0.00223826
3930	0.00303764
3942	0.00199845
3954	0
3966	0.00199845
