Infrared Spectrum: 1-Propanone, 1-(4-hydroxy-3-methoxyphenyl)-
Formula: C 10 H 12 O 3
CAS: 1835-14-9
Origin: Sadtler Research Labs Under US-EPA Contract
1/CM	ABSORBANCE
450	0.0986865
462	0.104803
474	0.131386
486	0.102215
498	0.054107
510	0.0262302
522	0.0163497
534	0.0162321
546	0.0329347
558	0.0598706
570	0.0613997
582	0.0339933
594	0.0217604
606	0.0249363
618	0.0455205
630	0.0304646
642	0.00917467
654	0.0029406
666	0.00058812
678	0.00117624
690	0.00317585
702	0.00623407
714	0.0178788
726	0.0251715
738	0.0244658
750	0.0295236
762	0.0490492
774	0.133621
786	0.227014
798	0.143972
810	0.0980984
822	0.0733974
834	0.0446971
846	0.0319937
858	0.0651637
870	0.0883356
882	0.0881004
894	0.0621055
906	0.0335228
918	0.0245834
930	0.0251715
942	0.0310527
954	0.0443442
966	0.0530484
978	0.0435209
990	0.0356401
1002	0.0563419
1014	0.122211
1026	0.192668
1038	0.212664
1050	0.107273
1062	0.0477553
1074	0.0548128
1086	0.0685748
1098	0.0664576
1110	0.098216
1122	0.186905
1134	0.151617
1146	0.116683
1158	0.244423
1170	0.386395
1182	0.522368
1194	0.772084
1206	0.659165
1218	0.393335
1230	0.230896
1242	0.333111
1254	0.521898
1266	1.08355
1278	0.969575
1290	0.456263
1302	0.206901
1314	0.203137
1326	0.185258
1338	0.191139
1350	0.216428
1362	0.174319
1374	0.21831
1386	0.200667
1398	0.102333
1410	0.119741
1422	0.330053
1434	0.340404
1446	0.1495
1458	0.187846
1470	0.272652
1482	0.167144
1494	0.206901
1506	0.551186
1518	0.513546
1530	0.110684
1542	0.041286
1554	0.041286
1566	0.0613997
1578	0.131033
1590	0.326171
1602	0.436973
1614	0.275358
1626	0.0865713
1638	0.0442266
1650	0.0401098
1662	0.0603411
1674	0.092923
1686	0.333935
1698	0.637875
1710	0.238659
1722	0.0685748
1734	0.0442266
1746	0.0342286
1758	0.0325818
1770	0.018467
1782	0.0121153
1794	0.00764556
1806	0.00846893
1818	0.00693982
1830	0.00223486
1842	0.00329347
1854	0.00823368
1866	0.00893942
1878	0.00693982
1890	0.00423446
1902	0.00741031
1914	0.00623407
1926	0.00470496
1938	0.00376397
1950	0.00388159
1962	0.00399922
1974	0.00446971
1986	0.00494021
1998	0.00482258
2010	0.00505783
2022	0.00611645
2034	0.00964517
2046	0.0123505
2058	0.012821
2070	0.0104685
2082	0.00646932
2094	0.00376397
2106	0.00364634
2118	0.00329347
2130	0.00258773
2142	0.00235248
2154	0.0024701
2166	0.00235248
2178	0.00129386
2190	0.00129386
2202	0.00164674
2214	0.00105862
2226	0.000470496
2238	0.000235248
2250	0.00105862
2262	0.000705744
2274	0.0024701
2286	0.00494021
2298	0.00693982
2310	0.00670457
2322	0.00611645
2334	0.00646932
2346	0.00811606
2358	0.00658694
2370	0.00799843
2382	0.00717506
2394	0.00388159
2406	0.00270535
2418	0.00223486
2430	0.00199961
2442	0.00305822
2454	0.00529308
2466	0.00682219
2478	0.00670457
2490	0.0058812
2502	0.00623407
2514	0.00741031
2526	0.00988042
2538	0.00976279
2550	0.00611645
2562	0.00458734
2574	0.00376397
2586	0.00282298
2598	0.00235248
2610	0.00352872
2622	0.00458734
2634	0.0063517
2646	0.00799843
2658	0.00846893
2670	0.00729269
2682	0.00552833
2694	0.00494021
2706	0.00599882
2718	0.0063517
2730	0.00741031
2742	0.00870418
2754	0.0108214
2766	0.010939
2778	0.0112919
2790	0.01188
2802	0.0143501
2814	0.0170555
2826	0.0244658
2838	0.0369339
2850	0.0608116
2862	0.064458
2874	0.055989
2886	0.0779847
2898	0.0822192
2910	0.0861008
2922	0.120447
2934	0.115389
2946	0.20843
2958	0.208665
2970	0.157851
2982	0.199726
2994	0.167379
3006	0.115389
3018	0.115977
3030	0.0474025
3042	0.0317585
3054	0.032229
3066	0.0443442
3078	0.0696334
3090	0.0406979
3102	0.0162321
3114	0.0129386
3126	0.0108214
3138	0.00846893
3150	0.00576358
3162	0.00435209
3174	0.00399922
3186	0.00470496
3198	0.00423446
3210	0.00423446
3222	0.00188198
3234	0.00270535
3246	0.00223486
3258	0.00176436
3270	0.00258773
3282	0.00141149
3294	0.00141149
3306	0.00117624
3318	0.000470496
3330	0.00176436
3342	0.00258773
3354	0.00411684
3366	0.00693982
3378	0.00788081
3390	0.00446971
3402	0.0024701
3414	0.000705744
3426	0.00152911
3438	0.00152911
3450	0.00164674
3462	0.00282298
3474	0.000940992
3486	0.00176436
3498	0.00176436
3510	0.0029406
3522	0.00399922
3534	0.00764556
3546	0.0198785
3558	0.0693982
3570	0.331935
3582	0.490139
3594	0.140796
3606	0.0248187
3618	0.0121153
3630	0.0124681
3642	0.0127034
3654	0.00964517
3666	0.00188198
3678	0.00317585
3690	0.00446971
3702	0.00188198
3714	0.00411684
3726	0.00411684
3738	0.00435209
3750	0.00423446
3762	0.00211723
3774	0.000705744
3786	0.000352872
3798	0.00058812
3810	0.00188198
3822	0.00188198
3834	0.00152911
3846	0.00399922
3858	0.00446971
3870	0.00270535
3882	0.00235248
3894	0.00317585
3906	0.00482258
3918	0.00329347
3930	0.000470496
3942	0.00388159
3954	0.000352872
3966	0.000352872
