Infrared Spectrum: Propiophenone, 3',4'-dimethoxy-
Formula: C 11 H 14 O 3
CAS: 1835-04-7
Origin: Sadtler Research Labs Under US-EPA Contract
1/CM	ABSORBANCE
450	0.0127061
462	0.00227456
474	0.00462755
486	0.00776487
498	0.00415695
510	0.00650994
522	0.00603934
534	0.00752957
546	0.0123924
558	0.0236868
570	0.0232946
582	0.0189808
594	0.0160788
606	0.01702
618	0.0265104
630	0.022275
642	0.0105885
654	0.00627464
666	0.00188239
678	7.8433e-05
690	0.00305889
702	0.00501971
714	0.0115297
726	0.0192945
738	0.0243927
750	0.0445499
762	0.0625895
774	0.0320007
786	0.033334
798	0.0549031
810	0.0459617
822	0.0323144
834	0.0254123
846	0.0319222
858	0.0643151
870	0.0475304
882	0.0449421
894	0.0265888
906	0.0148238
918	0.0116865
930	0.0134905
942	0.0221965
954	0.0434519
966	0.0575698
978	0.0476873
990	0.0418832
1002	0.0786683
1014	0.174592
1026	0.220554
1038	0.196082
1050	0.0824331
1062	0.0402361
1074	0.0393734
1086	0.051452
1098	0.0563933
1110	0.0672955
1122	0.139454
1134	0.194357
1146	0.171768
1158	0.194122
1170	0.271692
1182	0.171847
1194	0.193494
1206	0.198435
1218	0.12863
1230	0.162121
1242	0.228318
1254	0.333576
1266	0.690995
1278	0.704642
1290	0.35287
1302	0.184553
1314	0.162199
1326	0.149572
1338	0.141336
1350	0.140395
1362	0.0871391
1374	0.0527854
1386	0.0648641
1398	0.109963
1410	0.214279
1422	0.145336
1434	0.0821978
1446	0.11765
1458	0.142983
1470	0.182827
1482	0.105179
1494	0.14165
1506	0.330124
1518	0.262907
1530	0.0796879
1542	0.0373341
1554	0.0445499
1566	0.0779624
1578	0.146042
1590	0.194514
1602	0.220554
1614	0.0800801
1626	0.0330203
1638	0.0247848
1650	0.0254907
1662	0.0324713
1674	0.0472167
1686	0.157493
1698	0.395459
1710	0.185651
1722	0.0488638
1734	0.0320791
1746	0.0267457
1758	0.0261966
1770	0.0192161
1782	0.00972569
1794	0.00815703
1806	0.00705897
1818	0.00549031
1830	0.00588247
1842	0.00415695
1854	0.00501971
1866	0.00556874
1878	0.00580404
1890	0.00611777
1902	0.00627464
1914	0.00454911
1926	0.00376478
1938	0.00431382
1950	0.00384322
1962	0.00454911
1974	0.00478441
1986	0.00596091
1998	0.0080786
2010	0.0103532
2022	0.0127846
2034	0.0139611
2046	0.0111375
2058	0.0102747
2070	0.00886293
2082	0.00658837
2094	0.00525501
2106	0.00462755
2118	0.00447068
2130	0.00439225
2142	0.00431382
2154	0.00392165
2166	0.00447068
2178	0.00400008
2190	0.00407852
2202	0.00423538
2214	0.00368635
2226	0.00384322
2238	0.00415695
2250	0.00447068
2262	0.00501971
2274	0.00572561
2286	0.00462755
2298	0.00290202
2310	0.00188239
2322	0.000862763
2334	0.000392165
2346	0.00447068
2358	0.000392165
2370	0.000392165
2382	0.00219612
2394	0.00392165
2406	0.00360792
2418	0.00352949
2430	0.00431382
2442	0.00478441
2454	0.00541188
2466	0.00580404
2478	0.00525501
2490	0.00501971
2502	0.00501971
2514	0.00541188
2526	0.00635307
2538	0.0071374
2550	0.00800017
2562	0.00870606
2574	0.0101179
2586	0.0109022
2598	0.0106669
2610	0.00972569
2622	0.00792173
2634	0.0073727
2646	0.0066668
2658	0.00627464
2670	0.00635307
2682	0.00611777
2694	0.00627464
2706	0.00572561
2718	0.00619621
2730	0.00705897
2742	0.00792173
2754	0.00886293
2766	0.00925509
2778	0.00988256
2790	0.0117649
2802	0.0152944
2814	0.0207847
2826	0.0357654
2838	0.0723152
2850	0.0959236
2862	0.0640013
2874	0.0568639
2886	0.0693348
2898	0.0799232
2910	0.0963157
2922	0.12714
2934	0.135611
2946	0.221024
2958	0.189886
2970	0.142513
2982	0.154827
2994	0.14267
3006	0.135689
3018	0.1011
3030	0.0452558
3042	0.0349811
3054	0.0330987
3066	0.0379616
3078	0.0447852
3090	0.0317654
3102	0.0192161
3114	0.0145101
3126	0.0122355
3138	0.00941196
3150	0.0083139
3162	0.007608
3174	0.0069021
3186	0.00627464
3198	0.00541188
3210	0.00462755
3222	0.00454911
3234	0.00454911
3246	0.00407852
3258	0.00415695
3270	0.00407852
3282	0.00400008
3294	0.00407852
3306	0.00376478
3318	0.00329419
3330	0.00439225
3342	0.00400008
3354	0.00470598
3366	0.00705897
3378	0.00705897
3390	0.00588247
3402	0.00447068
3414	0.00345105
3426	0.00400008
3438	0.00345105
3450	0.00298045
3462	0.00407852
3474	0.00345105
3486	0.00368635
3498	0.00352949
3510	0.00329419
3522	0.00384322
3534	0.00298045
3546	0.00556874
3558	0.00501971
3570	0.00580404
3582	0.00517658
3594	0.00815703
3606	0.00368635
3618	0.00556874
3630	0.00815703
3642	0.00509815
3654	0.00509815
3666	0
3678	0.0101179
3690	0.00501971
3702	0.00541188
3714	0.00572561
3726	0.00533344
3738	0.00839233
3750	0.00156866
3762	0.00415695
3774	0.00400008
3786	0.00321575
3798	0.00792173
3810	0.000470598
3822	0.00462755
3834	0.00454911
3846	0.00188239
3858	0.00533344
3870	0.00541188
3882	0.00509815
3894	0.00705897
3906	0.00431382
3918	0.00470598
3930	0.00509815
3942	0.00337262
3954	0.00517658
3966	0.00486285
