Infrared Spectrum: Phenol, 2,4-bis(1-methylpropyl)-
Formula: C 14 H 22 O
CAS: 1849-18-9
Origin: Sadtler Research Labs Under US-EPA Contract
1/CM	ABSORBANCE
450	0
462	0.0413533
474	0.0710058
486	0.0458412
498	0.0666781
510	0.0500086
522	0.0157078
534	0.036705
546	0.0352625
558	0.042315
570	0.0343008
582	0.024844
594	0.0230809
606	0.0242029
618	0.0179518
630	0.0415136
642	0.0520923
654	0.0280497
666	0.0208369
678	0.0240426
690	0.0339802
702	0.0227603
714	0.0266071
726	0.0328582
738	0.0687618
750	0.0929647
762	0.0653959
774	0.0479249
786	0.0681207
798	0.121976
810	0.171985
822	0.132555
834	0.0711661
846	0.0302937
858	0.0230809
870	0.0169901
882	0.0419944
894	0.0745321
906	0.0291717
918	0.0267674
930	0.0208369
942	0.0198752
954	0.0291717
966	0.0403916
978	0.0317362
990	0.0363845
1002	0.0609079
1014	0.0764555
1026	0.0501689
1038	0.0346213
1050	0.0424753
1062	0.0679604
1074	0.110917
1086	0.159002
1098	0.111077
1110	0.0921633
1122	0.129029
1134	0.138646
1146	0.184968
1158	0.328742
1170	0.376187
1182	0.381476
1194	0.285626
1206	0.165734
1218	0.183846
1230	0.158361
1242	0.239625
1254	0.40087
1266	0.236579
1278	0.15227
1290	0.127746
1302	0.121816
1314	0.207728
1326	0.240586
1338	0.117488
1350	0.0775775
1362	0.0695633
1374	0.122778
1386	0.166856
1398	0.0609079
1410	0.0613888
1422	0.123419
1434	0.148263
1446	0.1239
1458	0.246837
1470	0.246036
1482	0.184166
1494	0.413693
1506	0.490309
1518	0.110275
1530	0.0604271
1542	0.0326979
1554	0.0254852
1566	0.0272483
1578	0.0334994
1590	0.0474441
1602	0.0565803
1614	0.0613888
1626	0.0334994
1638	0.0203561
1650	0.0179518
1662	0.0203561
1674	0.0166695
1686	0.0147461
1698	0.0144256
1710	0.0126624
1722	0.0121816
1734	0.0142653
1746	0.0128227
1758	0.0136241
1770	0.0149064
1782	0.015227
1794	0.0115404
1806	0.0108993
1818	0.0133036
1830	0.0113802
1842	0.0150667
1854	0.0173107
1866	0.0121816
1878	0.0147461
1890	0.0110596
1902	0.00833477
1914	0.00849505
1926	0.00753335
1938	0.00753335
1950	0.00737306
1962	0.00769363
1974	0.00753335
1986	0.00769363
1998	0.00849505
2010	0.00881562
2022	0.00785392
2034	0.0070525
2046	0.0080142
2058	0.0080142
2070	0.00785392
2082	0.00753335
2094	0.00737306
2106	0.00689221
2118	0.00673193
2130	0.00609079
2142	0.00657164
2154	0.00625108
2166	0.00673193
2178	0.00641136
2190	0.00657164
2202	0.00609079
2214	0.00673193
2226	0.00753335
2238	0.00769363
2250	0.00849505
2262	0.00833477
2274	0.00881562
2286	0.0100979
2298	0.0113802
2310	0.0112199
2322	0.010739
2334	0.0115404
2346	0.010739
2358	0.0121816
2370	0.0120213
2382	0.0133036
2394	0.0134639
2406	0.014105
2418	0.0142653
2430	0.0142653
2442	0.0137844
2454	0.0131433
2466	0.0137844
2478	0.0137844
2490	0.0139447
2502	0.0142653
2514	0.0133036
2526	0.0121816
2538	0.0125022
2550	0.0137844
2562	0.015227
2574	0.016349
2586	0.0168298
2598	0.016349
2610	0.0169901
2622	0.0165093
2634	0.0169901
2646	0.0168298
2658	0.0176312
2670	0.0193944
2682	0.0192341
2694	0.0184327
2706	0.0195546
2718	0.0226
2730	0.0278894
2742	0.0338199
2754	0.0291717
2766	0.0264469
2778	0.0277291
2790	0.0325377
2802	0.0381476
2814	0.0437575
2826	0.0549774
2838	0.0732498
2850	0.102582
2862	0.221673
2874	0.434049
2886	0.617254
2898	0.373943
2910	0.388368
2922	0.616292
2934	0.765997
2946	0.664698
2958	0.712783
2970	1.60284
2982	0.719034
2994	0.208529
3006	0.141691
3018	0.162207
3030	0.141691
3042	0.117809
3054	0.112519
3066	0.0886371
3078	0.0602668
3090	0.0484058
3102	0.0424753
3114	0.037827
3126	0.0318965
3138	0.0274086
3150	0.025966
3162	0.0261263
3174	0.0258057
3186	0.0254852
3198	0.0229206
3210	0.0198752
3222	0.0177915
3234	0.0149064
3246	0.0139447
3258	0.0126624
3270	0.012983
3282	0.0123419
3294	0.0123419
3306	0.0115404
3318	0.0120213
3330	0.0125022
3342	0.0133036
3354	0.0144256
3366	0.014105
3378	0.015227
3390	0.0161887
3402	0.0153873
3414	0.015227
3426	0.014105
3438	0.0126624
3450	0.0131433
3462	0.0125022
3474	0.0120213
3486	0.0108993
3498	0.0113802
3510	0.0112199
3522	0.0126624
3534	0.0123419
3546	0.0102582
3558	0.0205164
3570	0.0169901
3582	0.015227
3594	0.0115404
3606	0.0113802
3618	0.0117007
3630	0.0331788
3642	0.205965
3654	0.402473
3666	0.090881
3678	0.0206766
3690	0.00977732
3702	0.00625108
3714	0.00609079
3726	0.00753335
3738	0.00609079
3750	0.00609079
3762	0.00609079
3774	0.00721278
3786	0.00737306
3798	0.00609079
3810	0.00785392
3822	0.00609079
3834	0.00609079
3846	0.00625108
3858	0.00625108
3870	0.00609079
3882	0.00593051
3894	0.00769363
3906	0.00609079
3918	0.00625108
3930	0.00609079
3942	0.00769363
3954	0.00609079
3966	0.00609079
