Infrared Spectrum: 1-Undecene, 2-methyl-
Formula: C 12 H 24
CAS: 18516-37-5
Origin: Sadtler Research Labs Under US-EPA Contract
1/CM	ABSORBANCE
450	0.0940875
462	0.0132968
474	0.0104355
486	0.00286134
498	0.0132968
510	0.0114454
522	0.0109404
534	0.017673
546	0.020366
558	0.0134651
570	0.00875233
582	0.00639593
594	0.0060593
606	0.00673256
618	0.00774244
630	0.00488111
642	0.00572268
654	0.00538605
666	0.00336628
678	0.0084157
690	0.00875233
702	0.0141384
714	0.0265936
726	0.0277718
738	0.0218808
750	0.0169997
762	0.0148116
774	0.0154849
786	0.0166631
798	0.0106038
810	0.0106038
822	0.0111087
834	0.0131285
846	0.0168314
858	0.0250788
870	0.0449398
882	0.131622
894	0.227729
906	0.0639593
918	0.0309698
930	0.0181779
942	0.0156532
954	0.0141384
966	0.0127919
978	0.0131285
990	0.0131285
1002	0.014475
1014	0.0148116
1026	0.0136334
1038	0.0136334
1050	0.0141384
1062	0.014475
1074	0.0129602
1086	0.0121186
1098	0.0107721
1110	0.0131285
1122	0.0148116
1134	0.0106038
1146	0.00925727
1158	0.011782
1170	0.011782
1182	0.0126236
1194	0.0132968
1206	0.0139701
1218	0.0156532
1230	0.0201977
1242	0.0198611
1254	0.0215442
1266	0.0259204
1278	0.0308015
1290	0.02895
1302	0.0311381
1314	0.0281084
1326	0.0250788
1338	0.0319797
1350	0.046118
1362	0.0511675
1374	0.075068
1386	0.078266
1398	0.0358509
1410	0.0304648
1422	0.0371974
1434	0.0590782
1446	0.111424
1458	0.168987
1470	0.14374
1482	0.058405
1494	0.0252471
1506	0.0158215
1518	0.0119503
1530	0.0102672
1542	0.0084157
1554	0.00858401
1566	0.00892064
1578	0.00942558
1590	0.0106038
1602	0.011782
1614	0.0149799
1626	0.0225541
1638	0.0446032
1650	0.0888698
1662	0.0518407
1674	0.0178413
1686	0.00993053
1698	0.0084157
1710	0.0111087
1722	0.0084157
1734	0.00993053
1746	0.0127919
1758	0.00875233
1770	0.00892064
1782	0.0154849
1794	0.0126236
1806	0.00639593
1818	0.00353459
1830	0.00201977
1842	0.00168314
1854	0.00185145
1866	0.0011782
1878	0.00185145
1890	0.0011782
1902	0.0011782
1914	0.00185145
1926	0.00134651
1938	0.0011782
1950	0.00134651
1962	0.0011782
1974	0.00151483
1986	0.00151483
1998	0.00201977
2010	0.00168314
2022	0.00168314
2034	0.00252471
2046	0.00218808
2058	0.00218808
2070	0.000504942
2082	0.00084157
2094	0.0023564
2106	0.00168314
2118	0.00134651
2130	0.0011782
2142	0.00168314
2154	0.00201977
2166	0.00151483
2178	0.00151483
2190	0.00185145
2202	0.00151483
2214	0.00168314
2226	0.00185145
2238	0.00134651
2250	0.00168314
2262	0.00151483
2274	0.00168314
2286	0.0011782
2298	0.00134651
2310	0.000673256
2322	0.00218808
2334	0.00353459
2346	0.00336628
2358	0.00084157
2370	0.00521773
2382	0.00302965
2394	0.00252471
2406	0.0023564
2418	0.00269302
2430	0.0023564
2442	0.00151483
2454	0.00168314
2466	0.00218808
2478	0.00201977
2490	0.00201977
2502	0.00269302
2514	0.00286134
2526	0.00302965
2538	0.00336628
2550	0.00286134
2562	0.00302965
2574	0.00353459
2586	0.00437616
2598	0.00572268
2610	0.00673256
2622	0.00690087
2634	0.00791076
2646	0.00875233
2658	0.0121186
2670	0.0136334
2682	0.0143067
2694	0.0161581
2706	0.0156532
2718	0.0148116
2730	0.0166631
2742	0.0195244
2754	0.0180096
2766	0.0178413
2778	0.0205343
2790	0.0260887
2802	0.034841
2814	0.0464547
2826	0.0661474
2838	0.107553
2850	0.241362
2862	0.596505
2874	0.527664
2886	0.393686
2898	0.364905
2910	0.525308
2922	0.925895
2934	1.68314
2946	1.17062
2958	0.569406
2970	0.625287
2982	0.354301
2994	0.165621
3006	0.0981271
3018	0.0622762
3030	0.0479695
3042	0.0383756
3054	0.0373657
3066	0.0528506
3078	0.124552
3090	0.0929093
3102	0.0338311
3114	0.0185145
3126	0.0138017
3138	0.0107721
3150	0.0106038
3162	0.00993053
3174	0.00925727
3186	0.00757413
3198	0.00740582
3210	0.00521773
3222	0.00622762
3234	0.00538605
3246	0.00488111
3258	0.00454448
3270	0.00521773
3282	0.00504942
3294	0.00403954
3306	0.00370291
3318	0.00353459
3330	0.00454448
3342	0.00353459
3354	0.00319797
3366	0.00387122
3378	0.00454448
3390	0.00387122
3402	0.00336628
3414	0.00252471
3426	0.00353459
3438	0.00286134
3450	0.00185145
3462	0.0011782
3474	0.00336628
3486	0.00403954
3498	0.00319797
3510	0.00218808
3522	0.00252471
3534	0.00521773
3546	0.00403954
3558	0.00370291
3570	0.00403954
3582	0.00538605
3594	0.00370291
3606	0.00622762
3618	0.00471279
3630	0.00504942
3642	0.00807907
3654	0.00656425
3666	0.00656425
3678	0.00336628
3690	0.00656425
3702	0.00488111
3714	0.00555436
3726	0.00639593
3738	0.00471279
3750	0.00521773
3762	0.00437616
3774	0.00420785
3786	0.00690087
3798	0.00319797
3810	0.00706919
3822	0.00336628
3834	0.00420785
3846	0.00673256
3858	0.00656425
3870	0.000336628
3882	0.00504942
3894	0.00168314
3906	0.0129602
3918	0.00252471
3930	0.00690087
3942	0.000336628
3954	0.00201977
3966	0.011277
