Infrared Spectrum: Oxanilic acid, 4-methyl-, ethyl ester
Formula: C 11 H 13 N O 3
CAS: 18522-98-0
Origin: Sadtler Research Labs Under US-EPA Contract
1/CM	ABSORBANCE
450	0.0116525
462	0.0128177
474	0.0221397
486	0.04661
498	0.0925209
510	0.0744595
522	0.0240041
534	0.021091
546	0.0228389
558	0.0227224
570	0.0220232
582	0.0199258
594	0.0198093
606	0.0243537
618	0.0298304
630	0.0315783
642	0.0254025
654	0.0111864
666	0.0069915
678	0.00244702
690	0.0037288
702	0.00769065
714	0.00477753
726	0.00769065
738	0.0576799
750	0.0174788
762	0.0103707
774	0.0199258
786	0.0393855
798	0.0875103
810	0.137733
822	0.0936861
834	0.0504553
846	0.0474257
858	0.0378706
870	0.0247033
882	0.0153813
894	0.00862285
906	0.0118855
918	0.0250529
930	0.0433473
942	0.0187605
954	0.0109534
966	0.0116525
978	0.0149152
990	0.023072
1002	0.0436969
1014	0.12375
1026	0.143442
1038	0.060593
1050	0.0404342
1062	0.0333261
1074	0.0329766
1086	0.0446291
1098	0.0802857
1110	0.111165
1122	0.180148
1134	0.239692
1146	0.470062
1158	0.572138
1170	0.248781
1182	0.159872
1194	0.0904234
1206	0.0899573
1218	0.118972
1230	0.143209
1242	0.158124
1254	0.18341
1266	0.374511
1278	0.876851
1290	0.824065
1302	0.439416
1314	0.22501
1326	0.112447
1338	0.0680506
1350	0.0536015
1362	0.0573303
1374	0.140762
1386	0.0729446
1398	0.0914721
1410	0.117224
1422	0.07679
1434	0.0625739
1446	0.069915
1458	0.0776056
1470	0.0940357
1482	0.108951
1494	0.149851
1506	0.266027
1518	0.61665
1530	0.797614
1542	0.318579
1554	0.110349
1566	0.06304
1578	0.0678176
1590	0.152997
1602	0.142044
1614	0.100561
1626	0.0680506
1638	0.0407838
1650	0.039502
1662	0.0429977
1674	0.0539511
1686	0.0833154
1698	0.13447
1710	0.226991
1722	0.495348
1734	1.10606
1746	0.75112
1758	0.226292
1770	0.130508
1782	0.136684
1794	0.104173
1806	0.0411333
1818	0.021091
1830	0.0122351
1842	0.00827328
1854	0.00769065
1866	0.00780718
1878	0.009322
1890	0.0107203
1902	0.0069915
1914	0.00396185
1926	0.00221397
1938	0.00128177
1950	0.0009322
1962	0.00104872
1974	0.00104872
1986	0.000349575
1998	0.0004661
2010	0.000582625
2022	0.0004661
2034	0.00069915
2046	0.000582625
2058	0.00151483
2070	0.00174788
2082	0.0018644
2094	0.00163135
2106	0.000815675
2118	0.00104872
2130	0.00163135
2142	0.0013983
2154	0.00151483
2166	0.0009322
2178	0.00069915
2190	0.0004661
2202	0.00104872
2214	0.00104872
2226	0.0013983
2238	0.0018644
2250	0.0023305
2262	0.00349575
2274	0.00664192
2286	0.00815675
2298	0.0083898
2310	0.00943852
2322	0.00710802
2334	0.00536015
2346	0.00722455
2358	0.00629235
2370	0.00547668
2382	0.0074576
2394	0.00256355
2406	0.00244702
2418	0.00221397
2430	0.00244702
2442	0.00244702
2454	0.00244702
2466	0.0023305
2478	0.00209745
2490	0.00128177
2502	0.00174788
2514	0.00174788
2526	0.0018644
2538	0.00163135
2550	0.00198093
2562	0.0023305
2574	0.00268008
2586	0.00209745
2598	0.00256355
2610	0.00209745
2622	0.0018644
2634	0.00256355
2646	0.0032627
2658	0.00489405
2670	0.00489405
2682	0.00314618
2694	0.00314618
2706	0.00314618
2718	0.00337923
2730	0.00431142
2742	0.00687498
2754	0.00640887
2766	0.00536015
2778	0.00524363
2790	0.00524363
2802	0.0055932
2814	0.00687498
2826	0.0088559
2838	0.0111864
2850	0.016197
2862	0.0273834
2874	0.0467265
2886	0.0573303
2898	0.0494066
2910	0.0556989
2922	0.0704976
2934	0.107669
2946	0.103358
2958	0.0661862
2970	0.0688663
2982	0.10126
2994	0.140529
3006	0.0997454
3018	0.0843641
3030	0.100445
3042	0.0737603
3054	0.0595443
3066	0.0431142
3078	0.0228389
3090	0.0159639
3102	0.0157309
3114	0.013983
3126	0.0113029
3138	0.00804022
3150	0.0055932
3162	0.00442795
3174	0.00384533
3186	0.00384533
3198	0.00431142
3210	0.00396185
3222	0.00361227
3234	0.0041949
3246	0.00477753
3258	0.00454448
3270	0.00547668
3282	0.00501057
3294	0.00570972
3306	0.00594277
3318	0.0074576
3330	0.00827328
3342	0.0097881
3354	0.00943852
3366	0.0109534
3378	0.0128177
3390	0.0178283
3402	0.0398515
3414	0.120603
3426	0.111981
3438	0.0379871
3450	0.0353071
3462	0.0219067
3474	0.00908895
3486	0.00396185
3498	0.00221397
3510	0.00174788
3522	0.0013983
3534	0.00268008
3546	0.00221397
3558	0.00116525
3570	0.00128177
3582	0.00104872
3594	0.00302965
3606	0.00151483
3618	0.00151483
3630	0.0027966
3642	0.00244702
3654	0.00209745
3666	0.00151483
3678	0.00256355
3690	0.00302965
3702	0.00221397
3714	0.00198093
3726	0.00198093
3738	0.00268008
3750	0.00174788
3762	0.0013983
3774	0.00198093
3786	0.00244702
3798	0.00209745
3810	0.00256355
3822	0.0018644
3834	0.00244702
3846	0.0013983
3858	0.0018644
3870	0.00302965
3882	0.0013983
3894	0.00291312
3906	0.00361227
3918	0.00174788
3930	0.00116525
3942	0.00198093
3954	0.00244702
3966	0.00361227
