Infrared Spectrum: 1-Cyclohexene-1-carbonitrile
Formula: C 7 H 9 N
CAS: 1855-63-6
Origin: Sadtler Research Labs Under US-EPA Contract
1/CM	ABSORBANCE
450	0.00573222
462	0.0122705
474	0.00958356
486	0.00250785
498	0.00349307
510	0.00465743
522	0.0212271
534	0.0694137
546	0.0492613
558	0.0145993
570	0.00725485
582	0.00223915
594	0.00295568
606	0.00143306
618	0.000268698
630	0.000626962
642	0.00259741
654	0.00241828
666	0.00259741
678	0.004747
690	0.00671745
702	0.00958356
714	0.00850877
726	0.00877747
738	0.00967313
750	0.0103897
762	0.009494
774	0.00913573
786	0.0198837
798	0.0445143
810	0.0401256
822	0.0223915
834	0.0250785
846	0.0530231
858	0.054277
870	0.0240933
882	0.00806094
894	0.0117331
906	0.0360055
918	0.0629649
930	0.0650249
942	0.0306316
954	0.014241
966	0.00850877
978	0.00528439
990	0.00662788
1002	0.012181
1014	0.0195254
1026	0.0224811
1038	0.0327812
1050	0.0330499
1062	0.0273176
1074	0.0407525
1086	0.0398569
1098	0.0222124
1110	0.0209584
1122	0.0267802
1134	0.0377969
1146	0.039409
1158	0.019615
1170	0.0107479
1182	0.0092253
1194	0.00528439
1206	0.00358264
1218	0.00385134
1230	0.00806094
1242	0.0134349
1254	0.0206002
1266	0.0343038
1278	0.0260637
1290	0.0122705
1302	0.00824007
1314	0.00850877
1326	0.00967313
1338	0.0151367
1350	0.0255263
1362	0.0226602
1374	0.0119123
1386	0.00438873
1398	0.0050157
1410	0.00886703
1422	0.0263324
1434	0.0894764
1446	0.127721
1458	0.108733
1470	0.0528439
1482	0.0146888
1494	0.00376177
1506	0.00241828
1518	0.00206002
1530	0.00161219
1542	0.00107479
1554	0.00125392
1566	0.00107479
1578	0.00161219
1590	0.00116436
1602	0.00295568
1614	0.0044783
1626	0.0106584
1638	0.0360951
1650	0.0375282
1662	0.00743398
1674	0.00286611
1686	0.00331394
1698	0.00349307
1710	0.00537396
1722	0.00707571
1734	0.00698615
1746	0.00680702
1758	0.00618005
1770	0.00698615
1782	0.00770268
1794	0.00635919
1806	0.00609049
1818	0.00376177
1830	0.00232872
1842	0.00268698
1854	0.00313481
1866	0.00232872
1878	0.00214958
1890	0.00188089
1902	0.00188089
1914	0.00241828
1926	0.00367221
1938	0.00367221
1950	0.00295568
1962	0.00188089
1974	0.00161219
1986	0.00223915
1998	0.00206002
2010	0.00143306
2022	0.00089566
2034	0.00125392
2046	0.00152262
2058	0.00223915
2070	0.00214958
2082	0.00188089
2094	0.00179132
2106	0.00143306
2118	0.00170175
2130	0.00152262
2142	0.00125392
2154	0.00152262
2166	0.00214958
2178	0.00259741
2190	0.00385134
2202	0.0119123
2214	0.0456787
2226	0.065204
2238	0.0324229
2250	0.0128079
2262	0.0119123
2274	0.0111958
2286	0.00653832
2298	0.00170175
2310	8.9566e-05
2322	0.00143306
2334	0.00331394
2346	0.00277655
2358	0.0042096
2370	0.00322438
2382	0.00188089
2394	0.00385134
2406	0.00340351
2418	0.00313481
2430	0.00232872
2442	0.00134349
2454	0.00116436
2466	0.00125392
2478	0.00277655
2490	0.00331394
2502	0.00340351
2514	0.00277655
2526	0.00232872
2538	0.00179132
2550	0.00116436
2562	0.000985226
2574	0.00188089
2586	0.00223915
2598	0.00259741
2610	0.00376177
2622	0.00403047
2634	0.00358264
2646	0.00537396
2658	0.00824007
2670	0.0109271
2682	0.011554
2694	0.0092253
2706	0.00635919
2718	0.00546353
2730	0.00483656
2742	0.004747
2754	0.00555309
2766	0.00761311
2778	0.00931486
2790	0.0111958
2802	0.0149575
2814	0.0179132
2826	0.0273176
2838	0.0729067
2850	0.126019
2862	0.177162
2874	0.245232
2886	0.21675
2898	0.175818
2910	0.181819
2922	0.313033
2934	0.527633
2946	0.892973
2958	0.739278
2970	0.271295
2982	0.0425439
2994	0.0231976
3006	0.0175549
3018	0.0152262
3030	0.0218541
3042	0.0554414
3054	0.0574118
3066	0.0215854
3078	0.0089566
3090	0.00626962
3102	0.00555309
3114	0.00412004
3126	0.0044783
3138	0.00367221
3150	0.00268698
3162	0.00161219
3174	0.00179132
3186	0.00188089
3198	0.00152262
3210	0.00241828
3222	0.00250785
3234	0.00188089
3246	0.00170175
3258	0.00188089
3270	0.00206002
3282	0.00214958
3294	0.00223915
3306	0.00277655
3318	0.00170175
3330	0.00259741
3342	0.00412004
3354	0.00385134
3366	0.00277655
3378	0.00161219
3390	0.00107479
3402	0.00206002
3414	0.00259741
3426	0.00223915
3438	0.00170175
3450	0.000985226
3462	0.000985226
3474	0.00125392
3486	0.00161219
3498	0.00134349
3510	0.000985226
3522	0.00223915
3534	0.00134349
3546	0.00116436
3558	0.00107479
3570	0.00223915
3582	0.00340351
3594	0.00232872
3606	0.00161219
3618	0.00107479
3630	0.00322438
3642	0.00143306
3654	0.00152262
3666	0.00089566
3678	0.00179132
3690	0.00313481
3702	0.00268698
3714	0.00116436
3726	0.00259741
3738	0.00331394
3750	0.00250785
3762	0.00161219
3774	0.000179132
3786	0.00188089
3798	0.00268698
3810	0.00188089
3822	0.00170175
3834	0.00259741
3846	0.00206002
3858	0.00331394
3870	0.00322438
3882	0.00161219
3894	0.00143306
3906	0.00259741
3918	0.00241828
3930	0.000806094
3942	0.00161219
3954	0.00152262
3966	0.00125392
