Infrared Spectrum: Benzopyran-3-carboxylic acid, (4H)-1-5,6,7,8-tetrahydro-2,4,4,7-tetramethyl-, ethyl ester
Formula: C 16 H 24 O 3
CAS: 18600-02-7
Origin: Sadtler Research Labs Under US-EPA Contract
1/CM	ABSORBANCE
450	0.00648125
462	0.00038694
474	0.0121886
486	0.0096735
498	0.00609431
510	0.00715839
522	0.00667472
534	0.00512695
546	0.00425634
558	0.00493349
570	0.00444981
582	0.00590084
594	0.0055139
606	0.00474002
618	0.00493349
630	0.00512695
642	0.00435307
654	0.00464328
666	0.00474002
678	0.00561063
690	0.0055139
702	0.00532043
714	0.0099637
726	0.0114147
738	0.00793227
750	0.0100604
762	0.0296009
774	0.0638451
786	0.0409189
798	0.0266021
810	0.0217654
822	0.0314389
834	0.0513663
846	0.0352115
858	0.0298911
870	0.0203144
882	0.0161547
894	0.012769
906	0.0171221
918	0.0235066
930	0.032503
942	0.0302781
954	0.0435307
966	0.0472067
978	0.0661667
990	0.0754533
1002	0.095284
1014	0.0910276
1026	0.118694
1038	0.205465
1050	0.643384
1062	0.621329
1074	0.271729
1086	0.154486
1098	0.170447
1110	0.122176
1122	0.147908
1134	0.231777
1146	0.364981
1158	0.603433
1170	0.96735
1182	0.425827
1194	0.156807
1206	0.143942
1218	0.169673
1230	0.156227
1242	0.14607
1254	0.233228
1266	0.226263
1278	0.161934
1290	0.307908
1302	0.737604
1314	0.617266
1326	0.197436
1338	0.0834823
1350	0.102636
1362	0.186312
1374	0.161451
1386	0.182539
1398	0.0796129
1410	0.0472067
1422	0.0453687
1434	0.0621039
1446	0.0924787
1458	0.11792
1470	0.114728
1482	0.0537847
1494	0.0286336
1506	0.0239903
1518	0.0207013
1530	0.0199274
1542	0.0257315
1554	0.0251511
1566	0.0242805
1578	0.0309552
1590	0.0412091
1602	0.0596855
1614	0.085417
1626	0.122273
1638	0.15555
1650	0.14694
1662	0.0809672
1674	0.0620071
1686	0.0810639
1698	0.137944
1710	0.323869
1722	0.634001
1734	0.540458
1746	0.171511
1758	0.0681014
1770	0.0366626
1782	0.0203144
1794	0.0149939
1806	0.00986697
1818	0.00725513
1830	0.00802901
1842	0.00570736
1854	0.00328899
1866	0.00474002
1878	0.00338573
1890	0.00483675
1902	0.00493349
1914	0.0058041
1926	0.00570736
1938	0.00444981
1950	0.00309552
1962	0.00232164
1974	0.00212817
1986	0.00183796
1998	0.00222491
2010	0.00251511
2022	0.00280532
2034	0.0019347
2046	0.00183796
2058	0.00145103
2070	0.00212817
2082	0.00241837
2094	0.00212817
2106	0.00164449
2118	0.00183796
2130	0.00183796
2142	0.00203143
2154	0.00222491
2166	0.00241837
2178	0.00222491
2190	0.00203143
2202	0.00222491
2214	0.00241837
2226	0.00241837
2238	0.00222491
2250	0.00222491
2262	0.00241837
2274	0.00270858
2286	0.00241837
2298	0.00251511
2310	0.00222491
2322	0.00116082
2334	9.6735e-05
2346	0.00145103
2358	0.00019347
2370	0.00135429
2382	0.00241837
2394	0.00164449
2406	0.00125756
2418	0.00145103
2430	0.00145103
2442	0.00154776
2454	0.00154776
2466	0.00222491
2478	0.00164449
2490	0.00125756
2502	0.000677145
2514	0.000870615
2526	0.000290205
2538	9.6735e-05
2550	0.00019347
2562	0.00058041
2574	0.00019347
2586	0.00077388
2598	0.00154776
2610	0.00174123
2622	0.00145103
2634	0.00135429
2646	0.00280532
2658	0.00367593
2670	0.0038694
2682	0.00425634
2694	0.00444981
2706	0.00406287
2718	0.00522369
2730	0.0077388
2742	0.00889962
2754	0.00928656
2766	0.00909309
2778	0.00918983
2790	0.0114147
2802	0.0150907
2814	0.0194437
2826	0.0252478
2838	0.0442079
2850	0.135816
2862	0.172188
2874	0.148778
2886	0.213204
2898	0.203337
2910	0.25422
2922	0.402708
2934	0.62723
2946	0.3674
2958	0.354244
2970	0.454461
2982	0.351245
2994	0.21301
3006	0.101765
3018	0.0570737
3030	0.0355985
3042	0.0237968
3054	0.0187666
3066	0.0155743
3078	0.0148005
3090	0.0126723
3102	0.0108343
3114	0.00977024
3126	0.00899635
3138	0.00822247
3150	0.00802901
3162	0.00764206
3174	0.00686818
3186	0.00677145
3198	0.00541716
3210	0.00377267
3222	0.00270858
3234	0.00222491
3246	0.00164449
3258	0.00154776
3270	0.00183796
3282	0.00145103
3294	0.00125756
3306	0.00183796
3318	0.00174123
3330	0.0019347
3342	0.00222491
3354	0.00135429
3366	0.00164449
3378	0.00203143
3390	0.00212817
3402	0.00280532
3414	0.00222491
3426	0.00396613
3438	0.00280532
3450	0.00135429
3462	0.00096735
3474	0.00038694
3486	0.00019347
3498	0.00116082
3510	0.00164449
3522	0.00125756
3534	0.00154776
3546	0.00164449
3558	0.00154776
3570	0.00145103
3582	0.00241837
3594	0.00212817
3606	0.00135429
3618	0.00116082
3630	0.00125756
3642	0.00183796
3654	0.00183796
3666	0.00058041
3678	0.00212817
3690	0.00183796
3702	0.00174123
3714	0.00174123
3726	0.00203143
3738	0.00212817
3750	0.00183796
3762	0.00203143
3774	0.00164449
3786	0.00183796
3798	0.00212817
3810	0.00183796
3822	0.00261185
3834	0.00251511
3846	0.00164449
3858	0.00164449
3870	0.00261185
3882	0.00222491
3894	0.00154776
3906	0.00232164
3918	0.00154776
3930	0.00232164
3942	0.000870615
3954	0.00290205
3966	0.00319226
