Infrared Spectrum: DCPA
Formula: C 10 H 6 Cl 4 O 4
CAS: 1861-32-1
Origin: Sadtler Research Labs Under US-EPA Contract
1/CM	ABSORBANCE
450	0.00611938
462	0
474	0.0154716
486	0.0075049
498	0.0113151
510	0.0110842
522	0.00762036
534	0.00912134
546	0.0098141
558	0.00623484
570	0.00554208
582	0.00554208
594	0.0129315
606	0.0407574
618	0.114767
630	0.0727398
642	0.0509179
654	0.0426047
666	0.0195127
678	0.00958318
690	0.00969864
702	0.010045
714	0.00912134
726	0.00484932
738	0.00473386
750	0.00508024
762	0.0063503
774	0.0139707
786	0.0227456
798	0.0040411
810	0.00242466
822	0.0167417
834	0.0222838
846	0.0069276
858	0.00184736
870	0.0023092
882	0.00704306
894	0.0228611
906	0.00715852
918	0.00427202
930	0.00531116
942	0.0092368
954	0.0290959
966	0.122041
978	0.0516106
990	0.00992956
1002	0.0136243
1014	0.00900588
1026	0.00542662
1038	0.00912134
1050	0.00842858
1062	0.00854404
1074	0.0155871
1086	0.0423738
1098	0.142824
1110	0.177462
1122	0.0475695
1134	0.0212446
1146	0.0213601
1158	0.0339452
1170	0.0688142
1182	0.0733171
1194	0.113613
1206	0.191895
1218	0.395566
1230	1.04099
1242	0.855559
1254	0.26348
1266	0.148712
1278	0.137744
1290	0.0997574
1302	0.0569218
1314	0.053458
1326	0.110611
1338	0.181272
1350	0.129892
1362	0.158642
1374	0.0976792
1386	0.0432975
1398	0.0842858
1410	0.0356771
1422	0.0233229
1434	0.0740099
1446	0.139938
1458	0.0392564
1470	0.0277104
1482	0.0206673
1494	0.0160489
1506	0.0147789
1518	0.0125851
1530	0.0098141
1542	0.0122388
1554	0.0148943
1566	0.0113151
1578	0.0106223
1590	0.0107378
1602	0.00785128
1614	0.00646576
1626	0.0075049
1638	0.00565754
1650	0.0102759
1662	0.00611938
1674	0.0069276
1686	0.0092368
1698	0.0092368
1710	0.0140861
1722	0.0528807
1734	0.0411038
1746	0.048955
1758	0.290613
1770	0.873686
1782	0.0779355
1794	0.0308278
1806	0.0630412
1818	0.0132779
1830	0.0107378
1842	0.0106223
1854	0.0063503
1866	0.00669668
1878	0.00450294
1890	0.0028865
1902	0.00242466
1914	0.00219374
1926	0.00242466
1938	0.0046184
1950	0.0046184
1962	0.00588846
1974	0.00508024
1986	0.00427202
1998	0.0040411
2010	0.0028865
2022	0.00207828
2034	0.0023092
2046	0.00265558
2058	0.0023092
2070	0.00254012
2082	0.00254012
2094	0.00334834
2106	0.00450294
2118	0.00508024
2130	0.0046184
2142	0.00369472
2154	0.00219374
2166	0.00184736
2178	0.00184736
2190	0.00103914
2202	0.00092368
2214	0.00127006
2226	0.00080822
2238	0.00092368
2250	0.00080822
2262	0.00092368
2274	0.00127006
2286	0.00150098
2298	0.00207828
2310	0.00323288
2322	0.00300196
2334	0.0028865
2346	0.00392564
2358	0.00254012
2370	0.00242466
2382	0.00357926
2394	0.00161644
2406	0.00161644
2418	0.00138552
2430	0.00080822
2442	0.0011546
2454	0.00103914
2466	0.0005773
2478	0.00103914
2490	0.00080822
2502	0.00080822
2514	0.00138552
2526	0.00092368
2538	0.00080822
2550	0.00103914
2562	0.00103914
2574	0.0005773
2586	0.0017319
2598	0.00207828
2610	0.00196282
2622	0.00161644
2634	0.00150098
2646	0.00127006
2658	0.00184736
2670	0.00127006
2682	0.00138552
2694	0.0011546
2706	0.00092368
2718	0.0011546
2730	0.0011546
2742	0.00138552
2754	0.00196282
2766	0.00242466
2778	0.00254012
2790	0.00265558
2802	0.00207828
2814	0.00254012
2826	0.00357926
2838	0.005773
2850	0.0125851
2862	0.013047
2874	0.00496478
2886	0.00658122
2898	0.0127006
2910	0.0146634
2922	0.0131624
2934	0.0107378
2946	0.0159335
2958	0.0795519
2970	0.088096
2982	0.0146634
2994	0.0142016
3006	0.0235538
3018	0.0180118
3030	0.0152407
3042	0.0184736
3054	0.0105069
3066	0.00681214
3078	0.0063503
3090	0.00611938
3102	0.00600392
3114	0.00496478
3126	0.00415656
3138	0.00369472
3150	0.00300196
3162	0.00277104
3174	0.00242466
3186	0.00242466
3198	0.00265558
3210	0.00254012
3222	0.00219374
3234	0.0023092
3246	0.00196282
3258	0.0023092
3270	0.00184736
3282	0.00161644
3294	0.00161644
3306	0.0023092
3318	0.00103914
3330	0.00207828
3342	0.0017319
3354	0.00196282
3366	0.00184736
3378	0.00219374
3390	0.00207828
3402	0.00242466
3414	0.0023092
3426	0.00254012
3438	0.00196282
3450	0.00138552
3462	0.00277104
3474	0.00265558
3486	0.0028865
3498	0.00392564
3510	0.00842858
3522	0.00496478
3534	0.00277104
3546	0.00300196
3558	0.00300196
3570	0.00381018
3582	0.00069276
3594	0.00300196
3606	0.00184736
3618	0.00265558
3630	0.00392564
3642	0.00300196
3654	0.00277104
3666	0.00161644
3678	0.00369472
3690	0.00323288
3702	0.0034638
3714	0.00357926
3726	0.0028865
3738	0.0040411
3750	0.0028865
3762	0.00427202
3774	0.00392564
3786	0.00265558
3798	0.00300196
3810	0.00242466
3822	0.00473386
3834	0.0034638
3846	0.00415656
3858	0.00438748
3870	0.00588846
3882	0.00415656
3894	0.0034638
3906	0.00473386
3918	0.0046184
3930	0.00277104
3942	0.00369472
3954	0.00357926
3966	0.00392564
