Infrared Spectrum: p-Methylcinnamic acid
Formula: C 10 H 10 O 2
CAS: 1866-39-3
Origin: Sadtler Research Labs Under US-EPA Contract
1/CM	ABSORBANCE
450	0.00387789
462	0.00917767
474	0.0117629
486	0.0206821
498	0.0544197
510	0.125385
522	0.116724
534	0.13159
546	0.158089
558	0.194282
570	0.179029
582	0.122541
594	0.0504126
606	0.0342547
618	0.0695435
630	0.139346
642	0.175539
654	0.0134434
666	0.00685094
678	0.00710947
690	0.0222332
702	0.0186139
714	0.00517052
726	0.000517052
738	0.00193895
750	0.00995325
762	0.0156408
774	0.0059461
786	0.00995325
798	0.074714
810	0.191309
822	0.126678
834	0.0329621
846	0.0162871
858	0.0175798
870	0.025077
882	0.0205528
894	0.0279208
906	0.0254648
918	0.01228
930	0.0178383
942	0.0408471
954	0.0228796
966	0.0551953
978	0.123705
990	0.0930694
1002	0.0237844
1014	0.0174505
1026	0.0156408
1038	0.00891915
1050	0.0125385
1062	0.0164164
1074	0.0325743
1086	0.0688972
1098	0.20346
1110	0.853136
1122	0.986147
1134	0.38417
1146	0.365297
1158	0.529849
1170	0.159769
1182	0.121636
1194	0.0646315
1206	0.07717
1218	0.0592025
1230	0.0623048
1242	0.0699313
1254	0.0664412
1266	0.10173
1278	0.108193
1290	0.103152
1302	0.122541
1314	0.0841502
1326	0.0696728
1338	0.0981106
1350	0.249736
1362	0.302992
1374	0.10341
1386	0.0470517
1398	0.034901
1410	0.0579098
1422	0.0571342
1434	0.031928
1446	0.0211991
1458	0.0170627
1470	0.0124092
1482	0.0100825
1494	0.0168042
1506	0.0635974
1518	0.12629
1530	0.0165457
1542	0.0113751
1554	0.0124092
1566	0.0274038
1578	0.0351595
1590	0.0266282
1602	0.0635974
1614	0.111166
1626	0.125902
1638	0.399164
1650	0.351983
1662	0.0462762
1674	0.0306353
1686	0.0352888
1698	0.0478273
1710	0.0811772
1722	0.135468
1734	0.288386
1746	0.862055
1758	1.26096
1770	0.476334
1782	0.191697
1794	0.150333
1806	0.0660534
1818	0.02456
1830	0.0153823
1842	0.0139604
1854	0.0102118
1866	0.00723873
1878	0.00995325
1890	0.0170627
1902	0.012797
1914	0.00581684
1926	0.00323158
1938	0.00478273
1950	0.00504126
1962	0.00478273
1974	0.00387789
1986	0.00142189
1998	0.002456
2010	0.00284379
2022	0.00206821
2034	0.0034901
2046	0.00633389
2058	0.00801431
2070	0.00400715
2082	0.0010341
2094	0.000517052
2106	0.000258526
2118	0.000517052
2130	0.000258526
2142	0.000775578
2154	0.000387789
2166	0.000129263
2178	0.000129263
2190	0.000258526
2202	0.0010341
2214	0.00219747
2226	0.00310231
2238	0.00258526
2250	0.00206821
2262	0.00193895
2274	0.00219747
2286	0.00452421
2298	0.00930694
2310	0.0120215
2322	0.00878988
2334	0.00491199
2346	0.00917767
2358	0.00568757
2370	0.00581684
2382	0.00788504
2394	0.000904841
2406	0.000387789
2418	0.000646315
2430	0.00116337
2442	0.00155116
2454	0.00193895
2466	0.00284379
2478	0.00258526
2490	0.00206821
2502	0.00206821
2514	0.00155116
2526	0.00193895
2538	0.00193895
2550	0.00142189
2562	0.00206821
2574	0.00361936
2586	0.00529978
2598	0.00387789
2610	0.00206821
2622	0.00232673
2634	0.00206821
2646	0.00168042
2658	0.00129263
2670	0.00116337
2682	0.00168042
2694	0.00310231
2706	0.00374863
2718	0.00478273
2730	0.00607536
2742	0.00801431
2754	0.00659241
2766	0.00504126
2778	0.00491199
2790	0.00620462
2802	0.00659241
2814	0.00775578
2826	0.0084021
2838	0.00891915
2850	0.0131848
2862	0.0237844
2874	0.0440787
2886	0.0462762
2898	0.0358059
2910	0.0374863
2922	0.0567465
2934	0.0970765
2946	0.0651486
2958	0.0351595
2970	0.0315402
2982	0.0372277
2994	0.047698
3006	0.0589439
3018	0.0707069
3030	0.1281
3042	0.0875111
3054	0.0751018
3066	0.0731629
3078	0.0581684
3090	0.0434324
3102	0.0280501
3114	0.0162871
3126	0.0139604
3138	0.0107288
3150	0.00581684
3162	0.00491199
3174	0.00452421
3186	0.00413642
3198	0.00413642
3210	0.0034901
3222	0.00361936
3234	0.00374863
3246	0.0034901
3258	0.00361936
3270	0.00219747
3282	0.00219747
3294	0.00297305
3306	0.00336084
3318	0.00336084
3330	0.002456
3342	0.00284379
3354	0.00336084
3366	0.00374863
3378	0.00413642
3390	0.00439494
3402	0.00478273
3414	0.00361936
3426	0.00284379
3438	0.002456
3450	0.002456
3462	0.00400715
3474	0.00517052
3486	0.00723873
3498	0.00853136
3510	0.00452421
3522	0.00426568
3534	0.00387789
3546	0.00193895
3558	0.0059461
3570	0.0341254
3582	0.462632
3594	0.234095
3606	0.0129263
3618	0.00413642
3630	0.00297305
3642	0.00400715
3654	0.002456
3666	0.00400715
3678	0.002456
3690	0.00193895
3702	0.00310231
3714	0.0010341
3726	0
3738	0.000387789
3750	0
3762	0.00168042
3774	0.00206821
3786	0.00129263
3798	0.00193895
3810	0.00180968
3822	0.00142189
3834	0.00116337
3846	0.00206821
3858	0.00155116
3870	0.00155116
3882	0.000904841
3894	0.00323158
3906	0.00193895
3918	0.00310231
3930	0.00374863
3942	0.00374863
3954	0.00297305
3966	0.00465347
