Infrared Spectrum: Benzene, 1,3,5-trichloro-2-nitro-
Formula: C 6 H 2 Cl 3 N O 2
CAS: 18708-70-8
Origin: Sadtler Research Labs Under US-EPA Contract
1/CM	ABSORBANCE
450	0.00696688
462	0.00778119
474	0.00298581
486	0.00090479
498	0.00280485
510	0.00199054
522	0.00497635
534	0.021715
546	0.07745
558	0.0290438
570	0.0111289
582	0.0163767
594	0.0195435
606	0.00289533
618	0.00425251
630	0.00289533
642	0.00325724
654	0.00199054
666	0.00624305
678	0.00533826
690	0.00244293
702	0.00271437
714	0.00416203
726	0.0111289
738	0.0158338
750	0.00370964
762	0.00199054
774	0.00416203
786	0.00868598
798	0.0272342
810	0.040806
822	0.0865884
834	0.165215
846	0.0610733
858	0.180415
870	0.278675
882	0.0275056
894	0.00868598
906	0.00325724
918	0.00533826
930	0.0073288
942	0.00497635
954	0.00289533
966	0.00253341
978	0.00416203
990	0.0034382
1002	0.00235245
1014	0.00153814
1026	0.00144766
1038	0.00235245
1050	0.0073288
1062	0.0142957
1074	0.00570018
1086	0.00226197
1098	0.00416203
1110	0.00334772
1122	0.0180958
1134	0.0628829
1146	0.00705736
1158	0.0021715
1170	0.00325724
1182	0.0104051
1194	0.025877
1206	0.00615257
1218	0.00271437
1230	0.00298581
1242	0.00461443
1254	0.00597161
1266	0.00461443
1278	0.0038906
1290	0.00416203
1302	0.00479539
1314	0.00823359
1326	0.0285914
1338	0.0836931
1350	0.162591
1362	0.248636
1374	0.123504
1386	0.0829692
1398	0.0600781
1410	0.0416203
1422	0.0596257
1434	0.0288628
1446	0.0150195
1458	0.0129385
1470	0.0132099
1482	0.0110384
1494	0.0181863
1506	0.0271437
1518	0.0240674
1530	0.0304914
1542	0.0812501
1554	0.387703
1566	0.90479
1578	0.343006
1590	0.0757309
1602	0.0478634
1614	0.0684021
1626	0.0340201
1638	0.0110384
1650	0.00606209
1662	0.00506682
1674	0.00325724
1686	0.00208102
1698	0.00262389
1710	0.00380012
1722	0.0119432
1734	0.0095003
1746	0.00262389
1758	0.00153814
1770	0.00199054
1782	0.00226197
1794	0.00144766
1806	0.00153814
1818	0.00144766
1830	0.00153814
1842	0.00144766
1854	0.00135718
1866	0.00144766
1878	0.00144766
1890	0.00144766
1902	0.00144766
1914	0.00144766
1926	0.00135718
1938	0.00235245
1950	0.00199054
1962	0.00180958
1974	0.00135718
1986	0.00126671
1998	0.00180958
2010	0.00117623
2022	0.00117623
2034	0.00117623
2046	0.00117623
2058	0.00117623
2070	0.00117623
2082	0.00117623
2094	0.000723832
2106	0.00108575
2118	0.000633353
2130	0.00117623
2142	0.00108575
2154	0.000814311
2166	0.00108575
2178	0.00108575
2190	0.000995269
2202	0.00108575
2214	0.00108575
2226	0.00108575
2238	0.00090479
2250	0.000995269
2262	0.00090479
2274	0.00090479
2286	0.00090479
2298	0.00144766
2310	0.00190006
2322	0.00135718
2334	0.000361916
2346	0.00090479
2358	0.00090479
2370	0.00180958
2382	0.000995269
2394	0.000814311
2406	0.000723832
2418	0.00126671
2430	0.00144766
2442	0.000814311
2454	0.000814311
2466	0.000723832
2478	0.000723832
2490	0.000723832
2502	0.000723832
2514	0.000723832
2526	0.000723832
2538	0.000723832
2550	0.000452395
2562	0.000542874
2574	0.000542874
2586	0.000542874
2598	0.000180958
2610	0.000723832
2622	0.00108575
2634	0.00153814
2646	0.000814311
2658	0.00108575
2670	0.00117623
2682	0.0021715
2694	0.00361916
2706	0.0038906
2718	0.00271437
2730	0.00135718
2742	0.00135718
2754	0.00126671
2766	0.00090479
2778	0.00090479
2790	0.000995269
2802	0.00108575
2814	0.00135718
2826	0.00144766
2838	0.000995269
2850	0.00144766
2862	0.00208102
2874	0.00334772
2886	0.00497635
2898	0.00642401
2910	0.00750976
2922	0.00624305
2934	0.00370964
2946	0.00162862
2958	0.00162862
2970	0.00117623
2982	0.00180958
2994	0.00135718
3006	0.00126671
3018	0.00135718
3030	0.000814311
3042	0.00153814
3054	0.000814311
3066	0.00144766
3078	0.00235245
3090	0.00877646
3102	0.00361916
3114	0.00153814
3126	0.00180958
3138	0.00280485
3150	0.00199054
3162	0.000633353
3174	0.00108575
3186	0.00135718
3198	0.000633353
3210	0.000542874
3222	0.00108575
3234	0.00108575
3246	0.00090479
3258	0.000723832
3270	0.000814311
3282	0.00090479
3294	0.000995269
3306	0.000723832
3318	0.00126671
3330	0.000814311
3342	0.00135718
3354	0.00135718
3366	0.00144766
3378	0.00153814
3390	0.00108575
3402	0.00199054
3414	0.000633353
3426	0.00199054
3438	0.00153814
3450	0.00126671
3462	0.00190006
3474	0.00117623
3486	0.00208102
3498	0.0017191
3510	0.0017191
3522	0.00190006
3534	0.00153814
3546	0.00126671
3558	0.0017191
3570	0.00180958
3582	0.0017191
3594	0.000814311
3606	0.00135718
3618	0.00144766
3630	0.000633353
3642	0.00153814
3654	0.00199054
3666	0.00153814
3678	0.000180958
3690	0.00126671
3702	0.00108575
3714	0.000542874
3726	0.00135718
3738	0.000814311
3750	0.000814311
3762	0.0017191
3774	0.00162862
3786	0.0017191
3798	0.00162862
3810	0.0017191
3822	0.000814311
3834	0.00090479
3846	0.00144766
3858	0.00135718
3870	0.00090479
3882	0.00144766
3894	0.00144766
3906	0.00180958
3918	0.00153814
3930	0.00144766
3942	0.00180958
3954	0
3966	0
