Infrared Spectrum: Malonic acid, 3-chloropropyl-, diethyl ester
Formula: C 10 H 17 Cl O 4
CAS: 18719-43-2
Origin: Sadtler Research Labs Under US-EPA Contract
1/CM	ABSORBANCE
450	0.00398037
462	0.00922723
474	0.0024425
486	0.00280435
498	0.00578963
510	0.00624195
522	0.00208065
534	0.000723704
546	0.00117602
558	0.00090463
570	0.00162833
582	0.00452315
594	0.00470408
606	0.00470408
618	0.00434222
630	0.00379945
642	0.00578963
654	0.0179117
666	0.036728
678	0.0163738
690	0.016012
702	0.0132076
714	0.0115793
726	0.0170975
738	0.0291291
750	0.0354615
762	0.0349187
774	0.0339236
786	0.0327476
798	0.0280435
810	0.0230681
822	0.0189972
834	0.0201732
846	0.0282245
858	0.0412511
870	0.0403465
882	0.020897
894	0.0144741
906	0.0189972
918	0.0166452
930	0.0151978
942	0.0192686
954	0.018364
966	0.0175498
978	0.0185449
990	0.0258724
1002	0.0397133
1014	0.0806025
1026	0.161386
1038	0.215211
1050	0.203361
1062	0.194405
1074	0.132166
1086	0.11724
1098	0.162833
1110	0.145465
1122	0.159486
1134	0.310469
1146	0.542326
1158	0.489224
1170	0.40057
1182	0.401294
1194	0.406993
1206	0.386458
1218	0.375512
1230	0.383744
1242	0.39469
1254	0.368275
1266	0.361581
1278	0.340141
1290	0.297261
1302	0.237918
1314	0.193591
1326	0.17396
1338	0.17984
1350	0.11136
1362	0.0808739
1374	0.157948
1386	0.0730941
1398	0.0504784
1410	0.0378135
1422	0.0310288
1434	0.0444173
1446	0.0850352
1458	0.0912772
1470	0.0777077
1482	0.0480359
1494	0.0198114
1506	0.00768936
1518	0.004885
1530	0.00452315
1542	0.00117602
1554	0.00307574
1566	0.00379945
1578	0.00352806
1590	0.00407084
1602	0.00407084
1614	0.00443269
1626	0.00425176
1638	0.00452315
1650	0.00443269
1662	0.00759889
1674	0.00967954
1686	0.0142027
1698	0.0252392
1710	0.0506593
1722	0.0856685
1734	0.195219
1746	0.672954
1758	0.818419
1770	0.599951
1782	0.185087
1794	0.0717372
1806	0.0392609
1818	0.0237013
1830	0.0138408
1842	0.00877491
1854	0.00705611
1866	0.00542778
1878	0.00569917
1890	0.00542778
1902	0.00560871
1914	0.00443269
1926	0.00352806
1938	0.00298528
1950	0.00280435
1962	0.00280435
1974	0.00298528
1986	0.00307574
1998	0.00361852
2010	0.00379945
2022	0.00352806
2034	0.00361852
2046	0.00352806
2058	0.00352806
2070	0.00352806
2082	0.00352806
2094	0.00361852
2106	0.00316621
2118	0.00235204
2130	0.00226158
2142	0.00199019
2154	0.00153787
2166	0.00162833
2178	0.00126648
2190	0.00135695
2202	0.00117602
2214	0.00135695
2226	0.00153787
2238	0.00162833
2250	0.00162833
2262	0.0017188
2274	0.00208065
2286	0.0024425
2298	0.00298528
2310	0.00334713
2322	0.00334713
2334	0.00226158
2346	0.00398037
2358	0.00235204
2370	0.00316621
2382	0.00307574
2394	0.00144741
2406	0.00153787
2418	0.00144741
2430	0.00135695
2442	0.00108556
2454	0.00117602
2466	0.00135695
2478	0.00090463
2490	0.00090463
2502	0.00090463
2514	0.000633241
2526	0.000542778
2538	0.000452315
2550	0.000361852
2562	0.000271389
2574	0
2586	0.000180926
2598	0.000723704
2610	0.00090463
2622	0.000995093
2634	0.000633241
2646	0.000723704
2658	0.000723704
2670	0.00117602
2682	0.00153787
2694	0.00144741
2706	0.00235204
2718	0.00217111
2730	0.00271389
2742	0.00298528
2754	0.00370898
2766	0.00407084
2778	0.00533732
2790	0.00551824
2802	0.00578963
2814	0.00750843
2826	0.0101319
2838	0.0120316
2850	0.0190877
2862	0.0283149
2874	0.0400751
2886	0.0612435
2898	0.0540969
2910	0.0715562
2922	0.0829546
2934	0.101499
2946	0.161386
2958	0.155235
2970	0.200376
2982	0.230047
2994	0.241355
3006	0.142027
3018	0.0640478
3030	0.0322953
3042	0.0197209
3054	0.0137504
3066	0.0103128
3078	0.00886537
3090	0.0073275
3102	0.00651334
3114	0.00624195
3126	0.00542778
3138	0.00524685
3150	0.00569917
3162	0.00533732
3174	0.004885
3186	0.00388991
3198	0.00361852
3210	0.00398037
3222	0.00316621
3234	0.00370898
3246	0.00253296
3258	0.00226158
3270	0.00262343
3282	0.00226158
3294	0.00217111
3306	0.00253296
3318	0.00217111
3330	0.00199019
3342	0.00226158
3354	0.00262343
3366	0.00217111
3378	0.00235204
3390	0.00226158
3402	0.00208065
3414	0.00199019
3426	0.00199019
3438	0.00217111
3450	0.0024425
3462	0.00235204
3474	0.00370898
3486	0.0058801
3498	0.00687519
3510	0.00370898
3522	0.00199019
3534	0.000452315
3546	0.000542778
3558	0.000814167
3570	0.00153787
3582	0.00235204
3594	0.000452315
3606	0.00180926
3618	0.00180926
3630	0.00090463
3642	0.0017188
3654	0.00262343
3666	0.00162833
3678	0.00153787
3690	0.00162833
3702	0.0024425
3714	0.0024425
3726	0.00262343
3738	0.00180926
3750	0.00262343
3762	0.0017188
3774	0.0024425
3786	0.00262343
3798	0.00298528
3810	0.00189972
3822	0.00108556
3834	0.00226158
3846	0.00307574
3858	0.00307574
3870	0.0017188
3882	0.00153787
3894	0.00208065
3906	0.00262343
3918	0
3930	0.00235204
3942	0.00280435
3954	0.00226158
3966	0.00189972
