Infrared Spectrum: 3-Heptanol, 2-methyl-
Formula: C 8 H 18 O
CAS: 18720-62-2
Origin: Sadtler Research Labs Under US-EPA Contract
1/CM	ABSORBANCE
450	0.0180026
462	0.00249671
474	0.0137976
486	0.0103811
498	0.0149803
510	0.00959264
522	0.00709592
534	0.00998686
546	0.00551905
558	0.00512483
570	0.00775295
582	0.00709592
594	0.00578186
606	0.00407359
618	0.00459921
630	0.00367937
642	0.00683311
654	0.00512483
666	0.00341656
678	0.00643889
690	0.00591327
702	0.00814717
714	0.0120894
726	0.0185282
738	0.0226018
750	0.0237845
762	0.0173456
774	0.0202365
786	0.0298292
798	0.0237845
810	0.0118265
822	0.00709592
834	0.00578186
846	0.00814717
858	0.0135348
870	0.0318003
882	0.065046
894	0.0904073
906	0.0726675
918	0.106964
930	0.153088
942	0.0985545
954	0.0423127
966	0.034954
978	0.0647832
990	0.102497
1002	0.11682
1014	0.0984231
1026	0.0718791
1038	0.0681997
1050	0.074113
1062	0.0725361
1074	0.0766097
1086	0.0822602
1098	0.0808147
1110	0.0781866
1122	0.113141
1134	0.153614
1146	0.170696
1158	0.196978
1170	0.180946
1182	0.135742
1194	0.104993
1206	0.09159
1218	0.090933
1230	0.0876478
1242	0.0872536
1254	0.0981603
1266	0.100526
1278	0.0926412
1290	0.0931669
1302	0.0921156
1314	0.0864651
1326	0.0881734
1338	0.102102
1350	0.108804
1362	0.119185
1374	0.195795
1386	0.229698
1398	0.107622
1410	0.0504599
1422	0.0423127
1434	0.052431
1446	0.0911958
1458	0.178318
1470	0.206964
1482	0.100788
1494	0.0329829
1506	0.0193167
1518	0.0156373
1530	0.0115637
1542	0.00906701
1554	0.00919842
1566	0.00722733
1578	0.00722733
1590	0.00630749
1602	0.00551905
1614	0.00578186
1626	0.0043364
1638	0.00459921
1650	0.00381077
1662	0.00407359
1674	0.00315374
1686	0.0043364
1698	0.00315374
1710	0.00289093
1722	0.00249671
1734	0.0022339
1746	0.0021025
1758	0.00183968
1770	0.00157687
1782	0.0021025
1794	0.00157687
1806	0.00183968
1818	0.00183968
1830	0.00131406
1842	0.00170828
1854	0.00118265
1866	0.00131406
1878	0.00131406
1890	0.00131406
1902	0.000919842
1914	0.00118265
1926	0.00131406
1938	0.000788436
1950	0.000788436
1962	0.000525624
1974	0.000394218
1986	0.000525624
1998	0.000131406
2010	0.000131406
2022	0.00105125
2034	0.000788436
2046	0.00131406
2058	0.00118265
2070	0.00118265
2082	0.00118265
2094	0.00118265
2106	0.000919842
2118	0.000788436
2130	0.000394218
2142	0.000262812
2154	0.000262812
2166	0.00065703
2178	0.00065703
2190	0.000788436
2202	0.00105125
2214	0.00118265
2226	0.00118265
2238	0.00131406
2250	0.00170828
2262	0.0021025
2274	0.00170828
2286	0.00157687
2298	0.00105125
2310	0.000919842
2322	0.000788436
2334	0.000788436
2346	0.00236531
2358	0.00183968
2370	0.00486202
2382	0.00420499
2394	0.00302234
2406	0.00236531
2418	0.00197109
2430	0.0021025
2442	0.00183968
2454	0.00183968
2466	0.00170828
2478	0.00144547
2490	0.00157687
2502	0.00183968
2514	0.00236531
2526	0.00275953
2538	0.00302234
2550	0.00328515
2562	0.00394218
2574	0.00394218
2586	0.00473062
2598	0.00486202
2610	0.00551905
2622	0.00617608
2634	0.00696452
2646	0.00749014
2658	0.0088042
2670	0.00932983
2682	0.00985545
2694	0.00959264
2706	0.00932983
2718	0.0111695
2730	0.0144547
2742	0.0182654
2754	0.0183968
2766	0.0164257
2778	0.0183968
2790	0.0231275
2802	0.0310118
2814	0.040473
2826	0.0533508
2838	0.0801577
2850	0.143758
2862	0.275821
2874	0.41774
2886	0.481472
2898	0.428646
2910	0.437713
2922	0.613403
2934	0.948751
2946	1.06426
2958	0.878055
2970	1.2774
2982	1.03101
2994	0.388173
3006	0.128121
3018	0.0703022
3030	0.0528252
3042	0.0394218
3054	0.0303548
3066	0.0270696
3078	0.0261498
3090	0.0232589
3102	0.0204993
3114	0.0178712
3126	0.0156373
3138	0.0127464
3150	0.0118265
3162	0.0111695
3174	0.0119579
3186	0.0114323
3198	0.0103811
3210	0.0086728
3222	0.00578186
3234	0.00420499
3246	0.00289093
3258	0.00157687
3270	0.00170828
3282	0.000919842
3294	0.00118265
3306	0.00131406
3318	0.00065703
3330	0.000919842
3342	0.00144547
3354	0.00131406
3366	0.00170828
3378	0.0021025
3390	0.00249671
3402	0.00275953
3414	0.00354796
3426	0.00302234
3438	0.00341656
3450	0.00289093
3462	0.00262812
3474	0.00236531
3486	0.00183968
3498	0.00144547
3510	0.00131406
3522	0.00157687
3534	0.000919842
3546	0.000788436
3558	0.000525624
3570	0.00105125
3582	0.00170828
3594	0.000919842
3606	0.00341656
3618	0.00840998
3630	0.0339027
3642	0.0733245
3654	0.0458607
3666	0.0140604
3678	0.00197109
3690	0.0021025
3702	0.00197109
3714	0.00131406
3726	0.000525624
3738	0.000919842
3750	0.00197109
3762	0.00144547
3774	0.00131406
3786	0.0022339
3798	0.00131406
3810	0.0043364
3822	0.00328515
3834	0.00289093
3846	0.00328515
3858	0.00367937
3870	0.00315374
3882	0.00354796
3894	0.00328515
3906	0.00289093
3918	0.00144547
3930	0.00183968
3942	0.00144547
3954	0.00289093
3966	0.00236531
