Infrared Spectrum: Benzeneethanol, 3-methyl-
Formula: C 9 H 12 O
CAS: 1875-89-4
Origin: Sadtler Research Labs Under US-EPA Contract
1/CM	ABSORBANCE
450	0.0503926
462	0.0437657
474	0.0209854
486	0.0122185
498	0.0131159
510	0.0129778
522	0.0163603
534	0.0127017
546	0.00835275
558	0.0057986
570	0.00628182
582	0.00510829
594	0.0105617
606	0.020019
618	0.011045
630	0.00165674
642	0.00151868
654	0.00345155
666	0.00503926
678	0.0256105
690	0.116455
702	0.199223
714	0.0873242
726	0.0348607
738	0.0410734
750	0.0582622
762	0.12467
774	0.29566
786	0.189214
798	0.0414186
810	0.0144275
822	0.00773147
834	0.0129088
846	0.0316162
858	0.0375529
870	0.0391406
882	0.0414186
894	0.024437
906	0.0176029
918	0.015532
930	0.0163603
942	0.024437
954	0.0348607
966	0.0361032
978	0.0429373
990	0.0697903
1002	0.120804
1014	0.174441
1026	0.295591
1038	0.582
1050	0.674709
1062	0.483631
1074	0.208474
1086	0.122461
1098	0.0975408
1110	0.0535681
1122	0.0417638
1134	0.0484598
1146	0.0456985
1158	0.0447321
1170	0.0546035
1182	0.0571577
1194	0.0621969
1206	0.0704116
1218	0.0563293
1230	0.0480456
1242	0.0496333
1254	0.0499094
1266	0.0502546
1278	0.0484598
1290	0.0481146
1302	0.0501165
1314	0.0541203
1326	0.0606782
1338	0.0703426
1350	0.0708948
1362	0.0755889
1374	0.130261
1386	0.186522
1398	0.130814
1410	0.0755199
1422	0.0666839
1434	0.0920183
1446	0.110243
1458	0.0877384
1470	0.0939512
1482	0.147519
1494	0.154698
1506	0.0888429
1518	0.0504617
1530	0.0434895
1542	0.0357581
1554	0.0260937
1566	0.0284408
1578	0.049081
1590	0.0882216
1602	0.159807
1614	0.195427
1626	0.0606782
1638	0.00931918
1650	0.00538442
1662	0.00538442
1674	0.00883597
1686	0.00352058
1698	0.00144965
1710	0
1722	0.00220899
1734	0.00662698
1746	0.0078005
1758	0.0104927
1770	0.011114
1782	0.011183
1794	0.00655794
1806	0.00213996
1818	0.00213996
1830	0.00331349
1842	0.00918112
1854	0.0149797
1866	0.0135301
1878	0.00683407
1890	0.00407283
1902	0.00552248
1914	0.00773147
1926	0.0154629
1938	0.0164294
1950	0.00628182
1962	0.00227802
1974	0.00193287
1986	0.00151868
1998	0.00193287
2010	0.00241609
2022	0.00269221
2034	0.00386574
2046	0.00566054
2058	0.00628182
2070	0.0057986
2082	0.00469411
2094	0.00421089
2106	0.00324446
2118	0.00269221
2130	0.00186384
2142	0.00151868
2154	0.00103546
2166	0.000828372
2178	0.000897403
2190	0.000897403
2202	0.00138062
2214	0.00144965
2226	0.00158771
2238	0.00186384
2250	0.00227802
2262	0.00262318
2274	0.00317543
2286	0.00303736
2298	0.00338252
2310	0.00448701
2322	0.00414186
2334	0.0049012
2346	0.00572957
2358	0.00455605
2370	0.00317543
2382	0.00434895
2394	0.00441798
2406	0.00503926
2418	0.00517732
2430	0.0049012
2442	0.00462508
2454	0.00441798
2466	0.00427992
2478	0.00469411
2490	0.00441798
2502	0.0040038
2514	0.00379671
2526	0.00358961
2538	0.00379671
2550	0.00276124
2562	0.00296833
2574	0.00296833
2586	0.00386574
2598	0.00434895
2610	0.00510829
2622	0.00566054
2634	0.00607473
2646	0.00676504
2658	0.00766244
2670	0.00842178
2682	0.0100095
2694	0.0102856
2706	0.011045
2718	0.0135991
2730	0.0196738
2742	0.0271982
2754	0.0259557
2766	0.022297
2778	0.0231254
2790	0.0256105
2802	0.0280956
2814	0.0336181
2826	0.044594
2838	0.066753
2850	0.110795
2862	0.184382
2874	0.33266
2886	0.385538
2898	0.295246
2910	0.318095
2922	0.470653
2934	0.575166
2946	0.540582
2958	0.43738
2970	0.307464
2982	0.168367
2994	0.130469
3006	0.161533
3018	0.248719
3030	0.334524
3042	0.294624
3054	0.227112
3066	0.216619
3078	0.121011
3090	0.0620589
3102	0.0509449
3114	0.0395548
3126	0.0187764
3138	0.00793856
3150	0.00497023
3162	0.00427992
3174	0.00365864
3186	0.00338252
3198	0.00213996
3210	0.0020019
3222	0.00179481
3234	0.00227802
3246	0.00207093
3258	0.00165674
3270	0.00151868
3282	0.00131159
3294	0.00151868
3306	0.00193287
3318	0.00220899
3330	0.00248512
3342	0.00241609
3354	0.00213996
3366	0.00220899
3378	0.00248512
3390	0.00172577
3402	0.0028993
3414	0.00220899
3426	0.00227802
3438	0.00213996
3450	0.0020019
3462	0.00276124
3474	0.0028993
3486	0.00248512
3498	0.00234705
3510	0.00179481
3522	0.00220899
3534	0.0028993
3546	0.00503926
3558	0.00586763
3570	0.00559151
3582	0.00510829
3594	0.00586763
3606	0.00931918
3618	0.0364484
3630	0.08905
3642	0.0608853
3654	0.0677884
3666	0.100302
3678	0.0755889
3690	0.0258866
3702	0.0127707
3714	0.00904306
3726	0.00621279
3738	0.00510829
3750	0.00310639
3762	0.00276124
3774	0.00331349
3786	0.00234705
3798	0.00269221
3810	0.00276124
3822	0.00296833
3834	0.00151868
3846	0.00324446
3858	0.00338252
3870	0.00427992
3882	0.00352058
3894	0.00283027
3906	0.00455605
3918	0.00469411
3930	0.00296833
3942	0.00441798
3954	0.00234705
3966	0.00227802
