Infrared Spectrum: Malonic acid, 2-cyanoethyl-, pentyl-, diethyl ester
Formula: C 15 H 25 N O 4
CAS: 18755-33-4
Origin: Sadtler Research Labs Under US-EPA Contract
1/CM	ABSORBANCE
450	0.00886068
462	0.0173522
474	0.00566099
486	0.00344582
498	0.00369195
510	0.00110758
522	0.00406115
534	0.0049226
546	0.00713777
558	0.00947601
570	0.00799923
582	0.00750696
594	0.00812229
606	0.00812229
618	0.00344582
630	0.000123065
642	0.000369195
654	0.00135372
666	0.00369195
678	0.00812229
690	0.0111989
702	0.00935294
714	0.0127988
726	0.0230132
738	0.0199365
750	0.0216594
762	0.0220286
774	0.0260898
786	0.0253514
798	0.0196904
810	0.0177214
822	0.0200596
834	0.0248591
846	0.041596
858	0.0755619
870	0.0729775
882	0.0268282
894	0.018952
906	0.0200596
918	0.0204288
930	0.0211672
942	0.0182136
954	0.0188289
966	0.0231362
978	0.028428
990	0.0403653
1002	0.0712546
1014	0.152478
1026	0.220779
1038	0.186936
1050	0.21241
1062	0.271851
1074	0.255606
1086	0.198012
1098	0.251422
1110	0.343597
1122	0.411283
1134	0.328337
1146	0.274927
1158	0.268897
1170	0.433312
1182	0.744051
1194	0.818875
1206	0.702086
1218	0.590097
1230	0.601911
1242	0.580744
1254	0.511089
1266	0.37781
1278	0.267666
1290	0.220163
1302	0.204903
1314	0.147432
1326	0.101036
1338	0.083315
1350	0.0732237
1362	0.0806076
1374	0.140663
1386	0.0934063
1398	0.0669474
1410	0.0525488
1422	0.0557484
1434	0.0970983
1446	0.150632
1458	0.164907
1470	0.149524
1482	0.0829458
1494	0.0349505
1506	0.0209211
1518	0.0156293
1530	0.0121834
1542	0.011322
1554	0.0111989
1566	0.00947601
1578	0.00799923
1590	0.00775309
1602	0.00664551
1614	0.00849149
1626	0.00898374
1638	0.0100913
1650	0.0116912
1662	0.0156293
1674	0.0214133
1686	0.034089
1698	0.0590712
1710	0.107928
1722	0.215856
1734	0.610525
1746	1.23065
1758	0.748851
1770	0.267913
1782	0.100052
1794	0.054887
1806	0.0355658
1818	0.0235054
1830	0.0153831
1842	0.0109528
1854	0.00824535
1866	0.00713777
1878	0.00726084
1890	0.00652244
1902	0.0049226
1914	0.00430728
1926	0.00381502
1938	0.00319969
1950	0.00307662
1962	0.00270743
1974	0.0028305
1986	0.00295356
1998	0.00258436
2010	0.0028305
2022	0.00307662
2034	0.00393808
2046	0.00430728
2058	0.00443034
2070	0.00467647
2082	0.00443034
2094	0.00393808
2106	0.00344582
2118	0.0028305
2130	0.00233824
2142	0.00159984
2154	0.00159984
2166	0.00135372
2178	0.00110758
2190	0.00098452
2202	0.00098452
2214	0.00135372
2226	0.0024613
2238	0.00615325
2250	0.0179675
2262	0.00824535
2274	0.00258436
2286	0.00196904
2298	0.0020921
2310	0.0028305
2322	0.00369195
2334	0.00443034
2346	0.00541486
2358	0.00443034
2370	0.00430728
2382	0.00344582
2394	0.00258436
2406	0.00295356
2418	0.0024613
2430	0.00233824
2442	0.00172291
2454	0.00135372
2466	0.00110758
2478	0.000615325
2490	0.00049226
2502	0.00024613
2514	0
2526	0.000369195
2538	0.00073839
2550	0.000861455
2562	0.00098452
2574	0.00098452
2586	0.00159984
2598	0.00233824
2610	0.0024613
2622	0.0020921
2634	0.00196904
2646	0.0020921
2658	0.0024613
2670	0.00332276
2682	0.00381502
2694	0.00406115
2706	0.00443034
2718	0.00541486
2730	0.00652244
2742	0.00812229
2754	0.00861455
2766	0.00910681
2778	0.0111989
2790	0.0129218
2802	0.0158754
2814	0.0210441
2826	0.0275666
2838	0.0371656
2850	0.0620248
2862	0.132541
2874	0.177214
2886	0.194689
2898	0.149278
2910	0.196781
2922	0.275543
2934	0.407714
2946	0.468262
2958	0.403161
2970	0.553546
2982	0.402053
2994	0.321569
3006	0.162569
3018	0.0898374
3030	0.0507028
3042	0.032243
3054	0.0212902
3066	0.0175983
3078	0.0142755
3090	0.0124296
3102	0.0111989
3114	0.0102144
3126	0.00873762
3138	0.00775309
3150	0.00726084
3162	0.00664551
3174	0.00627632
3186	0.00590712
3198	0.00578405
3210	0.00406115
3222	0.00295356
3234	0.00196904
3246	0.00159984
3258	0.00147678
3270	0.00147678
3282	0.00110758
3294	0.00110758
3306	0.00123065
3318	0.00049226
3330	0.00123065
3342	0.00159984
3354	0.000615325
3366	0.00110758
3378	0.00123065
3390	0.00123065
3402	0.00123065
3414	0.00147678
3426	0.00196904
3438	0.00319969
3450	0.00332276
3462	0.00590712
3474	0.0073839
3486	0.00799923
3498	0.00479953
3510	0.00221517
3522	0.00159984
3534	0.00073839
3546	0.00049226
3558	0.000123065
3570	0.000369195
3582	0.000615325
3594	0.000123065
3606	0.00049226
3618	0.00073839
3630	0.000369195
3642	0.000369195
3654	0.00073839
3666	0.000861455
3678	0.00098452
3690	0.000369195
3702	0.00098452
3714	0.00049226
3726	0.00123065
3738	0.00049226
3750	0.00159984
3762	0.00073839
3774	0.00147678
3786	0.00172291
3798	0.00196904
3810	0.00159984
3822	0.00123065
3834	0.00172291
3846	0.00196904
3858	0.00135372
3870	0.00123065
3882	0.00233824
3894	0.00123065
3906	0.00098452
3918	0.00135372
3930	0.00073839
3942	0.00110758
3954	0.0024613
3966	0.00270743
