Infrared Spectrum: 1,4-Butanediol, 2-hexyl-,
Formula: C 10 H 22 O 2
CAS: 18755-31-2
Origin: Sadtler Research Labs Under US-EPA Contract
1/CM	ABSORBANCE
450	0.0113087
462	0.00646938
474	0.005094
486	0.00718254
498	0.00881262
510	0.00361674
522	0.00626562
534	0.00708066
546	0.00427896
558	0.00545058
570	0.0020376
582	0.00448272
594	0.00351486
606	0.00244512
618	0.00117162
630	0.00015282
642	0.0017829
654	0.00168102
666	0.00035658
678	0.00188478
690	0.00147726
702	0.00269982
714	0.00539964
726	0.00667314
738	0.00667314
750	0.00519588
762	0.00504306
774	0.00519588
786	0.00524682
798	0.00514494
810	0.00448272
822	0.00443178
834	0.00514494
846	0.0061128
858	0.00652032
870	0.00753912
882	0.00896544
894	0.00952578
906	0.0104936
918	0.0132953
930	0.0171158
942	0.0234324
954	0.0275585
966	0.0317356
978	0.0410576
990	0.0565943
1002	0.0708575
1014	0.0887884
1026	0.130763
1038	0.174979
1050	0.152667
1062	0.112068
1074	0.0744233
1086	0.0493609
1098	0.0362183
1110	0.0285264
1122	0.0250625
1134	0.0229739
1146	0.0215476
1158	0.0215986
1170	0.0222608
1182	0.0236362
1194	0.0253172
1206	0.0269473
1218	0.0291377
1230	0.0305131
1242	0.0302584
1254	0.0299527
1266	0.0295961
1278	0.0287302
1290	0.0276604
1302	0.0262341
1314	0.0249606
1326	0.0254191
1338	0.028017
1350	0.0311753
1362	0.0331619
1374	0.0362693
1386	0.0434009
1398	0.0351995
1410	0.0262341
1422	0.0217514
1434	0.0232286
1446	0.0312772
1458	0.0419236
1470	0.0447253
1482	0.029698
1494	0.0130406
1506	0.0071316
1518	0.00489024
1530	0.00366768
1542	0.00269982
1554	0.00264888
1566	0.00249606
1578	0.00213948
1590	0.00208854
1602	0.0017829
1614	0.00147726
1626	0.00122256
1638	0.00096786
1650	0.00086598
1662	0.00066222
1674	0.00071316
1686	0.00096786
1698	0.0012735
1710	0.0015282
1722	0.00173196
1734	0.0022923
1746	0.0022923
1758	0.00183384
1770	0.00163008
1782	0.00147726
1794	0.00132444
1806	0.00137538
1818	0.00137538
1830	0.00091692
1842	0.00106974
1854	0.0010188
1866	0.00112068
1878	0.00106974
1890	0.00117162
1902	0.00122256
1914	0.0012735
1926	0.0012735
1938	0.00122256
1950	0.00132444
1962	0.00142632
1974	0.0015282
1986	0.00173196
1998	0.00188478
2010	0.00183384
2022	0.00219042
2034	0.00234324
2046	0.00275076
2058	0.00239418
2070	0.00239418
2082	0.00183384
2094	0.00147726
2106	0.00163008
2118	0.00147726
2130	0.0015282
2142	0.00122256
2154	0.00163008
2166	0.0012735
2178	0.00147726
2190	0.0015282
2202	0.00147726
2214	0.0012735
2226	0.0012735
2238	0.00137538
2250	0.00137538
2262	0.00142632
2274	0.00168102
2286	0.00096786
2298	0.00015282
2310	0.00040752
2322	0.00096786
2334	0.0017829
2346	0.00208854
2358	0.00188478
2370	0.00213948
2382	0.00173196
2394	0.0020376
2406	0.00213948
2418	0.0020376
2430	0.00213948
2442	0.0022923
2454	0.00224136
2466	0.0020376
2478	0.00219042
2490	0.00219042
2502	0.00219042
2514	0.00249606
2526	0.00234324
2538	0.00290358
2550	0.002547
2562	0.00300546
2574	0.00300546
2586	0.00336204
2598	0.00371862
2610	0.00402426
2622	0.0040752
2634	0.00504306
2646	0.00519588
2658	0.00606186
2670	0.00682596
2682	0.00753912
2694	0.00820134
2706	0.0086598
2718	0.0099333
2730	0.011003
2742	0.0128369
2754	0.01355
2766	0.0145688
2778	0.0162499
2790	0.0188987
2802	0.0213439
2814	0.0252662
2826	0.0320922
2838	0.046712
2850	0.0881262
2862	0.179716
2874	0.21135
2886	0.217412
2898	0.194693
2910	0.242474
2922	0.372728
2934	0.5094
2946	0.372524
2958	0.235954
2970	0.226632
2982	0.099333
2994	0.0454385
3006	0.0285773
3018	0.0201213
3030	0.0153839
3042	0.0113087
3054	0.0089145
3066	0.00743724
3078	0.00646938
3090	0.0053487
3102	0.0048393
3114	0.00412614
3126	0.00387144
3138	0.00341298
3150	0.00264888
3162	0.00290358
3174	0.00239418
3186	0.00208854
3198	0.0022923
3210	0.00224136
3222	0.00132444
3234	0.00137538
3246	0.00112068
3258	0.0007641
3270	0.00117162
3282	0.00061128
3294	0.00086598
3306	0.00015282
3318	0.00061128
3330	0.00086598
3342	0.0007641
3354	0.00045846
3366	0.00056034
3378	0.00030564
3390	0.00040752
3402	0.00061128
3414	0.00091692
3426	0.00096786
3438	0.00081504
3450	0.0012735
3462	0.00142632
3474	0.0020376
3486	0.00213948
3498	0.0020376
3510	0.00290358
3522	0.00417708
3534	0.00657126
3546	0.0129388
3558	0.0163008
3570	0.0139066
3582	0.0112068
3594	0.0120728
3606	0.0120728
3618	0.00983142
3630	0.0096786
3642	0.0121237
3654	0.0270491
3666	0.0498193
3678	0.0403445
3690	0.0134991
3702	0.00606186
3714	0.00412614
3726	0.00239418
3738	0.00259794
3750	0.00168102
3762	0.00030564
3774	0.00081504
3786	0.00096786
3798	0.0007641
3810	0.00117162
3822	0.00137538
3834	0.00168102
3846	0.00071316
3858	0.0010188
3870	0.00168102
3882	0.0007641
3894	0.00081504
3906	5.094e-05
3918	0.00040752
3930	0.00015282
3942	0.0010188
3954	0.00122256
3966	0.00081504
