Infrared Spectrum: Benzo[b]thiophene, 6-acetyl-3-methyl-,
Formula: C 11 H 10 O S
CAS: 18781-31-2
Origin: Sadtler Research Labs Under US-EPA Contract
1/CM	ABSORBANCE
450	0.000678024
462	0.00421882
474	0.00715692
486	0.0112251
498	0.010547
510	0.0134851
522	0.026895
534	0.0394761
546	0.0487424
558	0.0516052
570	0.0761647
582	0.0543173
594	0.0238062
606	0.0153685
618	0.0247102
630	0.0522078
642	0.0556733
654	0.0681791
666	0.0180806
678	0.0128825
690	0.0110744
702	0.0112251
714	0.0164986
726	0.0342779
738	0.0147659
750	0.0125058
762	0.0394761
774	0.103813
786	0.0401541
798	0.0358599
810	0.115791
822	0.131311
834	0.125585
846	0.101252
858	0.0222241
870	0.028929
882	0.0228268
894	0.0251622
906	0.0254636
918	0.0151425
930	0.0151425
942	0.0440716
954	0.0637343
966	0.0515298
978	0.0321685
990	0.028929
1002	0.0210187
1014	0.0182313
1026	0.0262923
1038	0.0334492
1050	0.0215461
1062	0.0214708
1074	0.0373667
1086	0.0526599
1098	0.0384214
1110	0.0183066
1122	0.0155192
1134	0.017704
1146	0.0198134
1158	0.0229021
1170	0.0338259
1182	0.0620015
1194	0.0310384
1206	0.0479137
1218	0.117449
1230	0.296296
1242	0.582498
1254	0.268422
1266	0.352949
1278	0.324397
1290	0.085883
1302	0.0522832
1314	0.0730759
1326	0.065241
1338	0.0592141
1350	0.118654
1362	0.225556
1374	0.0875404
1386	0.0830956
1398	0.122873
1410	0.064789
1422	0.0359353
1434	0.0428662
1446	0.0614742
1458	0.0581594
1470	0.0390994
1482	0.0201147
1494	0.0152179
1506	0.0250869
1518	0.0518312
1530	0.0366886
1542	0.0519818
1554	0.0405308
1566	0.0266689
1578	0.0294564
1590	0.076692
1602	0.0806849
1614	0.0242582
1626	0.0191353
1638	0.0167999
1650	0.0212448
1662	0.0482904
1674	0.0479137
1686	0.114737
1698	0.634856
1710	0.495334
1722	0.0603441
1734	0.0288537
1746	0.0437702
1758	0.0213201
1770	0.00881431
1782	0.0128825
1794	0.00919099
1806	0.0067049
1818	0.00534886
1830	0.00158206
1842	0.00218474
1854	0.00512285
1866	0.00308878
1878	0.00655423
1890	0.00738293
1902	0.00519818
1914	0.00602688
1926	0.00775961
1938	0.00429415
1950	0.00248609
1962	0.00195874
1974	0.0018834
1986	0.00210941
1998	0.00233542
2010	0.00286277
2022	0.00286277
2034	0.00226008
2046	0.00180806
2058	0.00233542
2070	0.00203407
2082	0.00195874
2094	0.00150672
2106	0.00135605
2118	0.0010547
2130	0.000678024
2142	0.00037668
2154	0.000527352
2166	0.000979368
2178	0.00158206
2190	0.00143138
2202	0.000828696
2214	0.000678024
2226	0.0010547
2238	0.00037668
2250	7.5336e-05
2262	0.000527352
2274	0.000979368
2286	0.00248609
2298	0.00497218
2310	0.00625289
2322	0.00452016
2334	0.00384214
2346	0.00406814
2358	0.00474617
2370	0.00346546
2382	0.00369146
2394	0.00135605
2406	0.00158206
2418	0.0018834
2430	0.00203407
2442	0.00158206
2454	0.00128071
2466	0.00150672
2478	0.0018834
2490	0.00210941
2502	0.00218474
2514	0.00218474
2526	0.00218474
2538	0.00248609
2550	0.00248609
2562	0.00233542
2574	0.00263676
2586	0.00256142
2598	0.00203407
2610	0.0027121
2622	0.00421882
2634	0.00730759
2646	0.00632822
2658	0.00301344
2670	0.00241075
2682	0.00241075
2694	0.00218474
2706	0.00210941
2718	0.0027121
2730	0.00339012
2742	0.00474617
2754	0.00534886
2766	0.00346546
2778	0.00323945
2790	0.00369146
2802	0.00414348
2814	0.00504751
2826	0.00715692
2838	0.009417
2850	0.0136358
2862	0.0231282
2874	0.038798
2886	0.0315658
2898	0.0238815
2910	0.0256896
2922	0.0515298
2934	0.0888965
2946	0.057632
2958	0.0494958
2970	0.0404554
2982	0.0648643
2994	0.0412841
3006	0.0303604
3018	0.0394761
3030	0.0258402
3042	0.0244842
3054	0.0298331
3066	0.0353326
3078	0.0449756
3090	0.0391747
3102	0.017704
3114	0.0122798
3126	0.00926633
3138	0.00572554
3150	0.00474617
3162	0.00436949
3174	0.00301344
3186	0.00339012
3198	0.0029381
3210	0.00301344
3222	0.00323945
3234	0.00241075
3246	0.00218474
3258	0.00256142
3270	0.00210941
3282	0.00195874
3294	0.00165739
3306	0.00233542
3318	0.00256142
3330	0.00256142
3342	0.00278743
3354	0.0029381
3366	0.00444482
3378	0.00986902
3390	0.0122044
3402	0.00504751
3414	0.00158206
3426	0.00195874
3438	0.00203407
3450	0.00218474
3462	0.00143138
3474	0.00173273
3486	0.00158206
3498	0.000904032
3510	0.000979368
3522	0.00173273
3534	0.00195874
3546	0.000904032
3558	0.000602688
3570	7.5336e-05
3582	0.000904032
3594	0.000979368
3606	0.00150672
3618	0.00180806
3630	0.00173273
3642	0.0018834
3654	0.00256142
3666	0.000678024
3678	0.00354079
3690	0.0029381
3702	0.00165739
3714	0.00143138
3726	0.00113004
3738	0.00195874
3750	0.00180806
3762	0.00120538
3774	0.00195874
3786	0.00075336
3798	0.00113004
3810	0.00120538
3822	0.00226008
3834	0.00233542
3846	0.00128071
3858	0.00263676
3870	0.00263676
3882	0.00210941
3894	0.00429415
3906	0.00301344
3918	0.00233542
3930	0.00248609
3942	0.0010547
3954	0.00203407
3966	0.00195874
