Infrared Spectrum: 4-Bromophenylacetic acid
Formula: C 8 H 7 Br O 2
CAS: 1878-68-8
Origin: Sadtler Research Labs Under US-EPA Contract
1/CM	ABSORBANCE
450	0
462	0.0192308
474	0.0366789
486	0.0659032
498	0.065255
510	0.0649849
522	0.0942632
534	0.0685501
546	0.0498055
558	0.0469425
570	0.051102
582	0.0754645
594	0.129051
606	0.183016
618	0.191605
630	0.120949
642	0.0847018
654	0.0644447
666	0.0558016
678	0.0547753
690	0.0613116
702	0.0573142
714	0.0614736
726	0.0897256
738	0.0911301
750	0.0530467
762	0.0411085
774	0.0438094
786	0.0774632
798	0.127269
810	0.090914
822	0.0552614
834	0.0566659
846	0.0635263
858	0.042621
870	0.0384075
882	0.0394879
894	0.0388937
906	0.036841
918	0.037057
930	0.0424589
942	0.0406763
954	0.0380294
966	0.0386236
978	0.0348423
990	0.0339239
1002	0.0468345
1014	0.215914
1026	0.0538029
1038	0.0353284
1050	0.0447277
1062	0.0802182
1074	0.256536
1086	0.167675
1098	0.239682
1110	0.448628
1122	0.481903
1134	0.259075
1146	0.172051
1158	0.11949
1170	0.102636
1182	0.105067
1194	0.116573
1206	0.117599
1218	0.113656
1230	0.0934529
1242	0.0730877
1254	0.0647148
1266	0.0580704
1278	0.0534788
1290	0.0547212
1302	0.0581244
1314	0.0615276
1326	0.0683881
1338	0.0837835
1350	0.0951275
1362	0.104149
1374	0.0928587
1386	0.0672537
1398	0.0620678
1410	0.0671456
1422	0.0656871
1434	0.059583
1446	0.0465644
1458	0.036949
1470	0.0412705
1482	0.111765
1494	0.274687
1506	0.0555315
1518	0.0252269
1530	0.0224179
1542	0.0216616
1554	0.019771
1566	0.0220938
1578	0.0271175
1590	0.0374352
1602	0.0339239
1614	0.0290082
1626	0.0273336
1638	0.0261992
1650	0.0239844
1662	0.0243626
1674	0.0282519
1686	0.0338159
1698	0.0395959
1710	0.0478608
1722	0.0694144
1734	0.0975583
1746	0.156115
1758	0.248703
1770	0.38791
1782	0.523066
1794	0.39677
1806	0.226124
1818	0.100962
1830	0.048401
1842	0.0292243
1854	0.0220938
1866	0.0194468
1878	0.0192848
1890	0.0224719
1902	0.0211754
1914	0.0166379
1926	0.0144771
1938	0.0136668
1950	0.0128025
1962	0.0130186
1974	0.0124244
1986	0.0116681
1998	0.0116681
2010	0.0104257
2022	0.00972342
2034	0.00950734
2046	0.00907519
2058	0.00848098
2070	0.00815687
2082	0.00761668
2094	0.00756266
2106	0.00702247
2118	0.00702247
2130	0.00729256
2142	0.00637424
2154	0.00599611
2166	0.00621219
2178	0.00588807
2190	0.00572601
2202	0.00605013
2214	0.00632022
2226	0.00669836
2238	0.0065363
2250	0.00637424
2262	0.00637424
2274	0.00696845
2286	0.00799481
2298	0.00934529
2310	0.0100475
2322	0.00869706
2334	0.00837294
2346	0.0100475
2358	0.00772472
2370	0.00945333
2382	0.00972342
2394	0.00686041
2406	0.00718453
2418	0.00707649
2430	0.00734658
2442	0.00745462
2454	0.00783276
2466	0.00788677
2478	0.00799481
2490	0.00783276
2502	0.00799481
2514	0.00831893
2526	0.00799481
2538	0.00831893
2550	0.00821089
2562	0.00821089
2574	0.00810285
2586	0.00815687
2598	0.00821089
2610	0.00842696
2622	0.00772472
2634	0.00745462
2646	0.00734658
2658	0.00729256
2670	0.00756266
2682	0.0074006
2694	0.00723855
2706	0.00750864
2718	0.00815687
2730	0.00821089
2742	0.00761668
2754	0.00750864
2766	0.0076707
2778	0.00837294
2790	0.00842696
2802	0.008535
2814	0.00918323
2826	0.00977744
2838	0.00988548
2850	0.0106958
2862	0.0107498
2874	0.0106417
2886	0.0109118
2898	0.0118842
2910	0.014153
2922	0.0207973
2934	0.025713
2946	0.0270095
2958	0.022742
2970	0.0196629
2982	0.0208513
2994	0.0203652
3006	0.0180423
3018	0.0191767
3030	0.0293863
3042	0.0347882
3054	0.0278738
3066	0.0239304
3078	0.0229041
3090	0.0265773
3102	0.022742
3114	0.0137748
3126	0.011398
3138	0.0108038
3150	0.0105877
3162	0.0105877
3174	0.0102096
3186	0.00988548
3198	0.00972342
3210	0.00918323
3222	0.0096694
3234	0.00950734
3246	0.00902117
3258	0.00902117
3270	0.00896715
3282	0.00869706
3294	0.00907519
3306	0.00864304
3318	0.00864304
3330	0.00848098
3342	0.00826491
3354	0.00794079
3366	0.00837294
3378	0.00799481
3390	0.00772472
3402	0.00788677
3414	0.00756266
3426	0.00783276
3438	0.00783276
3450	0.00729256
3462	0.00691443
3474	0.0062662
3486	0.00669836
3498	0.00718453
3510	0.0076707
3522	0.00912921
3534	0.0133967
3546	0.0217697
3558	0.0478608
3570	0.202733
3582	0.182152
3594	0.0420268
3606	0.0153414
3618	0.0129105
3630	0.0137748
3642	0.00718453
3654	0.00875108
3666	0.00605013
3678	0.00999351
3690	0.00939931
3702	0.00713051
3714	0.00918323
3726	0.00826491
3738	0.00934529
3750	0.0103716
3762	0.00588807
3774	0.00567199
3786	0.00572601
3798	0.00594209
3810	0.00572601
3822	0.00891313
3834	0.00777874
3846	0.00680639
3858	0.00761668
3870	0.0076707
3882	0.0088051
3894	0.00772472
3906	0.00999351
3918	0.00826491
3930	0.00723855
3942	0.00599611
3954	0.00659032
3966	0.00729256
