Infrared Spectrum: Benzo[b]thiophene-6-carboxylic acid, 2-methyl-, methyl ester
Formula: C 11 H 10 O 2 S
CAS: 18781-42-5
Origin: Sadtler Research Labs Under US-EPA Contract
1/CM	ABSORBANCE
450	0
462	0.00983899
474	0.0112966
486	0.0167627
498	0.0261158
510	0.0228362
522	0.0199209
534	0.019435
546	0.0146977
558	0.0160339
570	0.0165198
582	0.0145763
594	0.0125113
606	0.0109322
618	0.0117825
630	0.0108107
642	0.00898871
654	0.0109322
666	0.0170057
678	0.0261158
690	0.0142119
702	0.015548
714	0.0337684
726	0.0453079
738	0.0722741
750	0.0598842
762	0.0936526
774	0.0394774
786	0.0154266
798	0.0222288
810	0.0515029
822	0.039356
834	0.0663221
846	0.118189
858	0.0326752
870	0.0160339
882	0.0376554
894	0.0417853
906	0.0287882
918	0.0163983
930	0.0138475
942	0.0149407
954	0.0160339
966	0.0325537
978	0.0586695
990	0.0624351
1002	0.0224718
1014	0.0161554
1026	0.0172486
1038	0.0188277
1050	0.0360763
1062	0.0428786
1074	0.0392345
1086	0.0737317
1098	0.212328
1110	0.299664
1122	0.206619
1134	0.251319
1146	0.123413
1158	0.0595198
1170	0.0533249
1182	0.0765255
1194	0.159853
1206	0.146127
1218	0.14637
1230	0.350802
1242	0.671116
1254	0.267353
1266	0.497901
1278	1.2057
1290	0.6665
1302	0.213421
1314	0.0816272
1326	0.0688729
1338	0.0629209
1350	0.0470085
1362	0.0457938
1374	0.0488305
1386	0.0676582
1398	0.105557
1410	0.0649859
1422	0.0433644
1434	0.15876
1446	0.118797
1458	0.0602486
1470	0.0603701
1482	0.0348616
1494	0.0250226
1506	0.0291526
1518	0.0461582
1530	0.074582
1542	0.0508955
1554	0.0307317
1566	0.0386271
1578	0.0293955
1590	0.0439718
1602	0.096082
1614	0.0385057
1626	0.0246582
1638	0.0180989
1650	0.0188277
1662	0.0197994
1674	0.0257514
1686	0.0323108
1698	0.054904
1710	0.0580622
1722	0.0996046
1734	0.48624
1746	0.956325
1758	0.153294
1770	0.0511384
1782	0.0477373
1794	0.0457938
1806	0.0273305
1818	0.0156695
1830	0.0106893
1842	0.0114181
1854	0.0132401
1866	0.0114181
1878	0.0086243
1890	0.00947458
1902	0.0128757
1914	0.0144548
1926	0.0136045
1938	0.0123898
1950	0.0125113
1962	0.0115396
1974	0.0108107
1986	0.00947458
1998	0.00983899
2010	0.00911017
2022	0.00959605
2034	0.0100819
2046	0.0105678
2058	0.0104463
2070	0.0120254
2082	0.0131187
2094	0.0127542
2106	0.0120254
2118	0.0111751
2130	0.00996046
2142	0.00801695
2154	0.00813842
2166	0.00911017
2178	0.00813842
2190	0.00753108
2202	0.00728814
2214	0.00716667
2226	0.00716667
2238	0.00728814
2250	0.00753108
2262	0.00801695
2274	0.00813842
2286	0.00825989
2298	0.00923164
2310	0.00935311
2322	0.00898871
2334	0.00959605
2346	0.0102034
2358	0.00935311
2370	0.00959605
2382	0.00935311
2394	0.00789549
2406	0.00825989
2418	0.00850283
2430	0.00813842
2442	0.00813842
2454	0.00765255
2466	0.00825989
2478	0.00935311
2490	0.00935311
2502	0.00923164
2514	0.00911017
2526	0.00923164
2538	0.00911017
2550	0.00935311
2562	0.00935311
2574	0.00947458
2586	0.00959605
2598	0.00959605
2610	0.00996046
2622	0.0109322
2634	0.0125113
2646	0.0111751
2658	0.0100819
2670	0.00923164
2682	0.00850283
2694	0.00813842
2706	0.00801695
2718	0.00886724
2730	0.00911017
2742	0.0106893
2754	0.0111751
2766	0.00898871
2778	0.00911017
2790	0.00911017
2802	0.0100819
2814	0.0115396
2826	0.0143333
2838	0.0211356
2850	0.0431215
2862	0.0330396
2874	0.0427571
2886	0.0412995
2898	0.041178
2910	0.0416639
2922	0.0551469
2934	0.108593
2946	0.0675368
2958	0.155602
2970	0.106164
2982	0.0502882
2994	0.0518673
3006	0.046887
3018	0.041178
3030	0.0466441
3042	0.0431215
3054	0.0445791
3066	0.0499238
3078	0.0398418
3090	0.031339
3102	0.0200424
3114	0.0146977
3126	0.0139689
3138	0.0121469
3150	0.0105678
3162	0.0103249
3174	0.00935311
3186	0.00983899
3198	0.00923164
3210	0.00886724
3222	0.00886724
3234	0.00777402
3246	0.00801695
3258	0.00850283
3270	0.00789549
3282	0.00813842
3294	0.00789549
3306	0.00789549
3318	0.0086243
3330	0.00923164
3342	0.00996046
3354	0.00886724
3366	0.00789549
3378	0.0086243
3390	0.00813842
3402	0.00850283
3414	0.00850283
3426	0.00789549
3438	0.00850283
3450	0.00983899
3462	0.0134831
3474	0.0111751
3486	0.00728814
3498	0.00728814
3510	0.00789549
3522	0.00801695
3534	0.00825989
3546	0.00765255
3558	0.00765255
3570	0.00740961
3582	0.0086243
3594	0.00898871
3606	0.0086243
3618	0.00740961
3630	0.00813842
3642	0.00765255
3654	0.00765255
3666	0.00765255
3678	0.00753108
3690	0.00911017
3702	0.00850283
3714	0.00850283
3726	0.00874577
3738	0.00898871
3750	0.00850283
3762	0.0070452
3774	0.00850283
3786	0.00716667
3798	0.0070452
3810	0.00740961
3822	0.00692373
3834	0.00801695
3846	0.0070452
3858	0.00692373
3870	0.0086243
3882	0.00740961
3894	0.00825989
3906	0.00874577
3918	0.00765255
3930	0.00825989
3942	0.00740961
3954	0.0086243
3966	0.00801695
