Infrared Spectrum: 3-Hexadecanone
Formula: C 16 H 32 O
CAS: 18787-64-9
Origin: Sadtler Research Labs Under US-EPA Contract
1/CM	ABSORBANCE
450	0
462	0.0273949
474	0.0290159
486	0.0288538
498	0.0392282
510	0.0359862
522	0.0338789
534	0.0361483
546	0.0295022
558	0.0348515
570	0.0306369
582	0.0320958
594	0.03242
606	0.0337168
618	0.0338789
630	0.0330684
642	0.0293401
654	0.0329063
666	0.0319337
678	0.0342031
690	0.03242
702	0.0398766
714	0.04863
726	0.0547898
738	0.0468469
750	0.0392282
762	0.0426323
774	0.0397145
786	0.0382556
798	0.0402008
810	0.0371209
822	0.038904
834	0.0377693
846	0.0384177
858	0.0393903
870	0.0366346
882	0.0382556
894	0.038904
906	0.0424702
918	0.042146
930	0.0484679
942	0.056735
954	0.0625706
966	0.0611117
978	0.0572213
990	0.0543035
1002	0.0517099
1014	0.0573834
1026	0.0633811
1038	0.063219
1050	0.0585181
1062	0.0539793
1074	0.0559245
1086	0.063219
1098	0.0800774
1110	0.101961
1122	0.0958011
1134	0.089155
1146	0.0838057
1158	0.0838057
1170	0.0799153
1182	0.0722966
1194	0.068082
1206	0.061598
1218	0.0588423
1230	0.0543035
1242	0.0559245
1254	0.0573834
1266	0.0611117
1278	0.0614359
1290	0.0651642
1302	0.069703
1314	0.0779701
1326	0.0862372
1338	0.111201
1350	0.143621
1362	0.132436
1374	0.106824
1386	0.0909381
1398	0.0726208
1410	0.0742418
1422	0.0868856
1434	0.0943422
1446	0.122872
1458	0.173933
1470	0.163883
1482	0.0804016
1494	0.0520341
1506	0.0465227
1518	0.0366346
1530	0.0342031
1542	0.0337168
1554	0.0322579
1566	0.0312853
1578	0.029178
1590	0.0303127
1602	0.0319337
1614	0.0306369
1626	0.0316095
1638	0.0312853
1650	0.0353378
1662	0.0333926
1674	0.0423081
1686	0.0588423
1698	0.0919107
1710	0.166153
1722	0.308476
1734	0.318527
1746	0.149456
1758	0.077808
1770	0.0496026
1782	0.0393903
1794	0.0335547
1806	0.0314474
1818	0.0262602
1830	0.0267465
1842	0.0252876
1854	0.0252876
1866	0.0252876
1878	0.0239908
1890	0.0244771
1902	0.0241529
1914	0.0256118
1926	0.0251255
1938	0.0248013
1950	0.0251255
1962	0.0251255
1974	0.0241529
1986	0.0251255
1998	0.0249634
2010	0.025936
2022	0.0246392
2034	0.0262602
2046	0.0254497
2058	0.0256118
2070	0.0264223
2082	0.0248013
2094	0.0256118
2106	0.0248013
2118	0.025936
2130	0.0241529
2142	0.0251255
2154	0.0244771
2166	0.0262602
2178	0.0248013
2190	0.0241529
2202	0.0249634
2214	0.0256118
2226	0.024315
2238	0.0252876
2250	0.024315
2262	0.0249634
2274	0.0246392
2286	0.0235045
2298	0.0256118
2310	0.0278812
2322	0.0265844
2334	0.0256118
2346	0.027557
2358	0.0254497
2370	0.0296643
2382	0.0260981
2394	0.0244771
2406	0.0238287
2418	0.0252876
2430	0.024315
2442	0.0248013
2454	0.0246392
2466	0.024315
2478	0.0251255
2490	0.0239908
2502	0.0256118
2514	0.0251255
2526	0.0265844
2538	0.0267465
2550	0.0278812
2562	0.0272328
2574	0.0278812
2586	0.0288538
2598	0.0303127
2610	0.0299885
2622	0.0316095
2634	0.0327442
2646	0.0342031
2658	0.035662
2670	0.0377693
2682	0.0392282
2694	0.0390661
2706	0.0382556
2718	0.0380935
2730	0.0397145
2742	0.0413355
2754	0.0434428
2766	0.0442533
2778	0.0473332
2790	0.0533309
2802	0.0637053
2814	0.0765112
2826	0.0966116
2838	0.131301
2850	0.254011
2862	0.609982
2874	0.492298
2886	0.378017
2898	0.404277
2910	0.591989
2922	1.00389
2934	1.621
2946	1.08088
2958	0.61598
2970	0.513695
2982	0.321282
2994	0.196952
3006	0.121089
3018	0.0862372
3030	0.0671094
3042	0.0544656
3054	0.0468469
3066	0.0419839
3078	0.038904
3090	0.0376072
3102	0.0351757
3114	0.034041
3126	0.0329063
3138	0.0329063
3150	0.0314474
3162	0.0312853
3174	0.0301506
3186	0.0295022
3198	0.0283675
3210	0.0282054
3222	0.0269086
3234	0.0265844
3246	0.0269086
3258	0.025936
3270	0.0262602
3282	0.0260981
3294	0.0267465
3306	0.0257739
3318	0.0260981
3330	0.0262602
3342	0.0273949
3354	0.0254497
3366	0.0269086
3378	0.0257739
3390	0.0270707
3402	0.0264223
3414	0.0278812
3426	0.0309611
3438	0.0299885
3450	0.0286917
3462	0.0264223
3474	0.0257739
3486	0.0239908
3498	0.0260981
3510	0.0233424
3522	0.0236666
3534	0.0230182
3546	0.0239908
3558	0.0236666
3570	0.0244771
3582	0.0251255
3594	0.0238287
3606	0.0236666
3618	0.0244771
3630	0.0251255
3642	0.0251255
3654	0.0254497
3666	0.0230182
3678	0.0273949
3690	0.0228561
3702	0.024315
3714	0.0241529
3726	0.0244771
3738	0.0236666
3750	0.0236666
3762	0.0231803
3774	0.0251255
3786	0.025936
3798	0.0249634
3810	0.0230182
3822	0.0256118
3834	0.0239908
3846	0.0244771
3858	0.029178
3870	0.0249634
3882	0.0278812
3894	0.024315
3906	0.0283675
3918	0.0256118
3930	0.0269086
3942	0.0264223
3954	0.0236666
3966	0.0241529
