Infrared Spectrum: Benzene, 1,4-dimethoxy-2-(2-nitro-1-propenyl)-
Formula: C 11 H 13 N O 4
CAS: 18790-57-3
Origin: Sadtler Research Labs Under US-EPA Contract
1/CM	ABSORBANCE
450	0.0127472
462	0.00496841
474	0.00260967
486	0.00526953
498	0.00727697
510	0.00757809
522	0.0135
534	0.0107398
546	0.00587176
558	0.00983646
570	0.00792939
582	0.00667474
594	0.0071766
606	0.0165614
618	0.0193216
630	0.00356321
642	0.000351302
654	0.00130484
666	0.0025093
678	0.00712641
690	0.0203253
702	0.0377399
714	0.0461711
726	0.0335242
738	0.0268997
750	0.0261971
762	0.0130484
774	0.00883274
786	0.0150056
798	0.0261971
810	0.04587
822	0.0360335
834	0.0163606
846	0.0365354
858	0.0820541
870	0.0311655
882	0.0326209
894	0.0226841
906	0.0236878
918	0.0257454
930	0.0389945
942	0.0341265
954	0.0146041
966	0.0157082
978	0.0293086
990	0.0823552
1002	0.0577139
1014	0.0568106
1026	0.0904854
1038	0.151712
1050	0.229601
1062	0.104989
1074	0.0267491
1086	0.0161599
1098	0.0175149
1110	0.0255447
1122	0.0325205
1134	0.0313662
1146	0.0311153
1158	0.0672994
1170	0.0897326
1182	0.0901842
1194	0.0753794
1206	0.12406
1218	0.346785
1230	0.431349
1242	0.171686
1254	0.123056
1266	0.150407
1278	0.194019
1290	0.166567
1302	0.130985
1314	0.105742
1326	0.177859
1338	0.296649
1350	0.171787
1362	0.0602734
1374	0.0382919
1386	0.0624816
1398	0.0705615
1410	0.101878
1422	0.126519
1434	0.0958051
1446	0.10253
1458	0.102179
1470	0.160394
1482	0.198185
1494	0.479728
1506	0.319835
1518	0.151813
1530	0.205763
1542	0.382718
1554	0.195073
1566	0.11056
1578	0.0971099
1590	0.0632845
1602	0.044515
1614	0.0382919
1626	0.019422
1638	0.0129982
1650	0.0116933
1662	0.016461
1674	0.0168625
1686	0.00707623
1698	0.00853162
1710	0.00813013
1722	0.00557065
1734	0.00577139
1746	0.00456693
1758	0.00476767
1770	0.00481786
1782	0.00441637
1794	0.00441637
1806	0.00401488
1818	0.0032119
1830	0.00341265
1842	0.00401488
1854	0.00436618
1866	0.00376395
1878	0.00260967
1890	0.00160595
1902	0.00115428
1914	0.00130484
1926	0.00130484
1938	0.00200744
1950	0.00220818
1962	0.00376395
1974	0.00446655
1986	0.00446655
1998	0.0050186
2010	0.00577139
2022	0.00597213
2034	0.00602232
2046	0.00552046
2058	0.00577139
2070	0.00592195
2082	0.00496841
2094	0.00291079
2106	0.00160595
2118	0.000853162
2130	0.00075279
2142	0.00075279
2154	0.00125465
2166	0.00140521
2178	0.00120446
2190	0.00130484
2202	0.00165614
2214	0.00160595
2226	0.00170632
2238	0.00125465
2250	0.00170632
2262	0.00125465
2274	0.00185688
2286	0.00245911
2298	0.00230856
2310	0.00220818
2322	0.00140521
2334	0.000552046
2346	0.00100372
2358	0.00205763
2370	5.0186e-05
2382	0.00170632
2394	0.000853162
2406	0.000702604
2418	0.000552046
2430	0.000802976
2442	0.00115428
2454	0.00140521
2466	0.00170632
2478	0.00195725
2490	0.00276023
2502	0.00301116
2514	0.00271004
2526	0.00271004
2538	0.00200744
2550	0.00145539
2562	0.00115428
2574	0.00140521
2586	0.00125465
2598	0.00185688
2610	0.00185688
2622	0.0018067
2634	0.002158
2646	0.00235874
2658	0.00235874
2670	0.00195725
2682	0.00170632
2694	0.00155577
2706	0.0018067
2718	0.00210781
2730	0.0025093
2742	0.00311153
2754	0.00341265
2766	0.00471748
2778	0.00547027
2790	0.00667474
2802	0.00958553
2814	0.0144536
2826	0.0252436
2838	0.0652418
2850	0.0770355
2862	0.0464722
2874	0.0376395
2886	0.0336246
2898	0.0376395
2910	0.055857
2922	0.0695578
2934	0.073924
2946	0.12411
2958	0.113721
2970	0.0663459
2982	0.0454685
2994	0.0469741
3006	0.0985653
3018	0.0659444
3030	0.0241395
3042	0.0219313
3054	0.0199238
3066	0.0200744
3078	0.0200242
3090	0.015909
3102	0.0106896
3114	0.00888292
3126	0.00707623
3138	0.00481786
3150	0.00396469
3162	0.0028606
3174	0.00245911
3186	0.00235874
3198	0.00185688
3210	0.00185688
3222	0.0018067
3234	0.00145539
3246	0.00150558
3258	0.000903348
3270	0.00155577
3282	0.00110409
3294	0.00125465
3306	0.00160595
3318	0.00110409
3330	0.00075279
3342	0.0018067
3354	0.00145539
3366	0.00120446
3378	0.00155577
3390	0.00195725
3402	0.00100372
3414	0.0018067
3426	0.00160595
3438	0.00185688
3450	0.00105391
3462	0.00165614
3474	0.00170632
3486	0.00135502
3498	0.00165614
3510	0.00110409
3522	0.00110409
3534	0.00150558
3546	0.000652418
3558	0.0018067
3570	0.00195725
3582	0.00110409
3594	0.00150558
3606	0.00110409
3618	0.00140521
3630	0.00120446
3642	0.000953534
3654	0.00150558
3666	0.00170632
3678	0.00120446
3690	0.00170632
3702	0.00125465
3714	0.00205763
3726	0.00115428
3738	0.00175651
3750	0.00120446
3762	0.00100372
3774	0.00265986
3786	0.00210781
3798	0.00100372
3810	0.00150558
3822	0.00125465
3834	0.0018067
3846	0.00135502
3858	0.00175651
3870	0.00220818
3882	0.00205763
3894	0.0018067
3906	0.002158
3918	0.00155577
3930	0.000652418
3942	0.00105391
3954	0.00296097
3966	0.00260967
