Infrared Spectrum: 6-tert-Butyl-2,4-dimethylphenol
Formula: C 12 H 18 O
CAS: 1879-09-0
Origin: Sadtler Research Labs Under US-EPA Contract
1/CM	ABSORBANCE
450	0.0229707
462	0.0233049
474	0.00718358
486	0.0016706
498	0.00643181
510	0.0163719
522	0.00968948
534	0.00676593
546	0.0107754
558	0.0189613
570	0.00242237
582	0.0106918
594	0.0324096
606	0.0206319
618	0.00292355
630	0.00317414
642	0.00175413
654	0.00200472
666	0.00075177
678	0.00200472
690	0.00225531
702	0
714	0.00091883
726	0.00442709
738	0.0262284
750	0.0783511
762	0.0936371
774	0.0343308
786	0.0381732
798	0.033412
810	0.00684946
822	0.00910477
834	0.0129471
846	0.0864535
858	0.130724
870	0.0248084
882	0.0191284
894	0.051538
906	0.046025
918	0.0213002
930	0.0258108
942	0.0187942
954	0.0215507
966	0.025059
978	0.019546
990	0.0253931
1002	0.0383403
1014	0.0448556
1026	0.0382567
1038	0.0253096
1050	0.0233049
1062	0.0191284
1074	0.0162884
1086	0.0183766
1098	0.0228037
1110	0.0347485
1122	0.0707499
1134	0.139412
1146	0.137407
1158	0.139579
1170	0.430597
1182	0.549377
1194	0.258191
1206	0.229707
1218	0.324848
1230	0.342055
1242	0.22102
1254	0.149769
1266	0.159459
1278	0.0992336
1290	0.0963101
1302	0.123624
1314	0.144173
1326	0.0923842
1338	0.0400944
1350	0.044605
1362	0.126799
1374	0.151356
1386	0.104329
1398	0.132729
1410	0.0933865
1422	0.140497
1434	0.32276
1446	0.339132
1458	0.243991
1470	0.270888
1482	0.369286
1494	0.215758
1506	0.0775158
1518	0.0488651
1530	0.0373379
1542	0.0297367
1554	0.0280661
1566	0.0251425
1578	0.0220519
1590	0.0251425
1602	0.0320755
1614	0.0278155
1626	0.0183766
1638	0.0218013
1650	0.0219684
1662	0.016706
1674	0.0142001
1686	0.00994007
1698	0.0130307
1710	0.0162884
1722	0.0228037
1734	0.034832
1746	0.019546
1758	0.0142001
1770	0.0155366
1782	0.0102742
1794	0.00852006
1806	0.00634828
1818	0.00459415
1830	0.00309061
1842	0.00284002
1854	0.00258943
1866	0.00275649
1878	0.00309061
1890	0.00476121
1902	0.00492827
1914	0.00476121
1926	0.00459415
1938	0.00442709
1950	0.00375885
1962	0.00317414
1974	0.00317414
1986	0.00284002
1998	0.00267296
2010	0.00267296
2022	0.00233884
2034	0.00175413
2046	0.00225531
2058	0.00142001
2070	0.00133648
2082	0.00100236
2094	0.00033412
2106	0.00075177
2118	0.00100236
2130	0.00200472
2142	0.00225531
2154	0.00208825
2166	0.00200472
2178	0.0008353
2190	0.00066824
2202	0.00041765
2214	0.00041765
2226	0.0008353
2238	0.00108589
2250	0.00108589
2262	0.0008353
2274	0.00142001
2286	0.00225531
2298	0.00309061
2310	0.00300708
2322	0.00208825
2334	0.0041765
2346	0.00601416
2358	0.00434356
2370	0.0106918
2382	0.00676593
2394	0.00476121
2406	0.00484474
2418	0.00484474
2430	0.00509533
2442	0.0050118
2454	0.0050118
2466	0.00492827
2478	0.00492827
2490	0.00434356
2502	0.00367532
2514	0.00309061
2526	0.00233884
2538	0.00200472
2550	0.0025059
2562	0.00375885
2574	0.00409297
2586	0.00325767
2598	0.00375885
2610	0.00426003
2622	0.00434356
2634	0.00542945
2646	0.00476121
2658	0.00492827
2670	0.0058471
2682	0.00593063
2694	0.00710005
2706	0.00893771
2718	0.0131142
2730	0.0173742
2742	0.0265625
2754	0.0228037
2766	0.0144507
2778	0.0149519
2790	0.0174578
2802	0.0206319
2814	0.0271472
2826	0.0354167
2838	0.0473615
2850	0.0823606
2862	0.188444
2874	0.36252
2886	0.37931
2898	0.320922
2910	0.39209
2922	0.552217
2934	0.573851
2946	0.498173
2958	0.686867
2970	0.8353
2982	0.507612
2994	0.239063
3006	0.242571
3018	0.214839
3030	0.129471
3042	0.0952242
3054	0.0856182
3066	0.0756782
3078	0.0542945
3090	0.0378391
3102	0.0263955
3114	0.0187107
3126	0.0131977
3138	0.0115271
3150	0.0116107
3162	0.0109424
3174	0.0103577
3186	0.00985654
3198	0.00826947
3210	0.00960595
3222	0.00760123
3234	0.00710005
3246	0.00593063
3258	0.00693299
3270	0.00618122
3282	0.00517886
3294	0.0050118
3306	0.00568004
3318	0.00643181
3330	0.00476121
3342	0.00492827
3354	0.00534592
3366	0.0058471
3378	0.00676593
3390	0.00601416
3402	0.00626475
3414	0.00701652
3426	0.00526239
3438	0.00426003
3450	0.00559651
3462	0.00275649
3474	0.00367532
3486	0.00317414
3498	0.00292355
3510	0.00258943
3522	0.00158707
3534	0.00225531
3546	0.00192119
3558	0.00142001
3570	0.00267296
3582	0.0050118
3594	0.00634828
3606	0.00860359
3618	0.0182095
3630	0.0592228
3642	0.181427
3654	0.233466
3666	0.144173
3678	0.144841
3690	0.0766805
3702	0.0314908
3714	0.0137824
3726	0.00634828
3738	0.00451062
3750	0.00200472
3762	0.0041765
3774	0.00426003
3786	0.00367532
3798	0.00484474
3810	0.00467768
3822	0.00309061
3834	0.00258943
3846	0.00492827
3858	0.00626475
3870	0.00292355
3882	0.00309061
3894	0.00568004
3906	0.00476121
3918	0.00559651
3930	0.00467768
3942	0.00476121
3954	0.00442709
3966	0.00451062
