Infrared Spectrum: Malonic acid, dimethylamino-methyl-, diethyl ester
Formula: C 10 H 17 N O 4
CAS: 18856-68-3
Origin: Sadtler Research Labs Under US-EPA Contract
1/CM	ABSORBANCE
450	0.00650078
462	0.00517761
474	0.0021861
486	0.00207104
498	0.00442973
510	0.00241622
522	0.00230116
534	0.00345174
546	0.0021861
558	0.00419962
570	0.00103552
582	0.00304904
594	0.00339421
606	0.00247375
618	0.00368186
630	0.00299151
642	0.0039695
654	0.00678842
666	0.00563784
678	0.00592549
690	0.00627066
702	0.00920464
714	0.0156479
726	0.0175463
738	0.0119085
750	0.0125413
762	0.0304328
774	0.0232992
786	0.0230691
798	0.0260606
810	0.0225514
822	0.0175463
834	0.0185819
846	0.0253128
858	0.0357255
870	0.0197324
882	0.0156479
894	0.0159931
906	0.0174888
918	0.0161081
930	0.0190421
942	0.024795
954	0.0371637
966	0.0301452
978	0.0284193
990	0.0325614
1002	0.0407881
1014	0.0520062
1026	0.0763985
1038	0.0974541
1050	0.134848
1062	0.268085
1074	0.368646
1086	0.291154
1098	0.384581
1110	0.432503
1122	0.194908
1134	0.106831
1146	0.0970514
1158	0.102747
1170	0.122019
1182	0.166029
1194	0.283388
1206	0.392118
1218	0.448439
1230	0.548309
1242	0.311289
1254	0.149748
1266	0.146814
1278	0.279131
1290	0.348511
1302	0.197209
1314	0.0826116
1326	0.0548251
1338	0.0452753
1350	0.0459081
1362	0.102689
1374	0.11408
1386	0.153487
1398	0.160563
1410	0.1043
1422	0.0965912
1434	0.127082
1446	0.12875
1458	0.073407
1470	0.0684595
1482	0.0549977
1494	0.0334243
1506	0.0228965
1518	0.0219185
1530	0.0216309
1542	0.0242197
1554	0.0283618
1566	0.0362433
1578	0.0575865
1590	0.110283
1602	0.235811
1614	0.447518
1626	0.544915
1638	0.225974
1650	0.120638
1662	0.109363
1674	0.140141
1686	0.200834
1698	0.252667
1710	0.366115
1722	0.44188
1734	0.254336
1746	0.128347
1758	0.0975117
1770	0.0684595
1782	0.0375089
1794	0.0172012
1806	0.00897452
1818	0.00460232
1830	0.00322162
1842	0.0013807
1854	0.000345174
1866	0.00115058
1878	0.00120811
1890	0.00161081
1902	0.00235869
1914	0.00264633
1926	0.00287645
1938	0.00327915
1950	0.00310657
1962	0.00247375
1974	0.00166834
1986	0.000517761
1998	0.000345174
2010	0.000345174
2022	0.000345174
2034	0.000690348
2046	0.0013807
2058	0.0017834
2070	0.00189846
2082	0.00212857
2094	0.00201352
2106	0.00155328
2118	0.00120811
2130	0.00103552
2142	0.00057529
2154	0.000230116
2166	0.000230116
2178	0.000230116
2190	0.000345174
2202	0.000690348
2214	0.000747877
2226	0.000747877
2238	0.00115058
2250	0.00126564
2262	0.00166834
2274	0.00155328
2286	0.00109305
2298	0.00120811
2310	0.00132317
2322	0.000977993
2334	0.00166834
2346	0.0043722
2358	0.00132317
2370	0.00247375
2382	0.00189846
2394	0.00161081
2406	0.00184093
2418	0.00184093
2430	0.0017834
2442	0.00172587
2454	0.00189846
2466	0.00253128
2478	0.00253128
2490	0.00276139
2502	0.00299151
2514	0.00264633
2526	0.00201352
2538	0.0017834
2550	0.0017834
2562	0.00230116
2574	0.00253128
2586	0.00247375
2598	0.00253128
2610	0.00264633
2622	0.00264633
2634	0.00264633
2646	0.00276139
2658	0.00310657
2670	0.00327915
2682	0.00373939
2694	0.00425715
2706	0.00460232
2718	0.00552278
2730	0.00621313
2742	0.00667336
2754	0.00736371
2766	0.00874441
2778	0.0105278
2790	0.0134043
2802	0.0207104
2814	0.0328491
2826	0.031641
2838	0.0285344
2850	0.0286494
2862	0.0353228
2874	0.0460232
2886	0.0556881
2898	0.0671363
2910	0.0854306
2922	0.101021
2934	0.113447
2946	0.127772
2958	0.107119
2970	0.0995827
2982	0.137552
2994	0.116324
3006	0.0656406
3018	0.0360132
3030	0.022839
3042	0.0154753
3054	0.0116209
3066	0.00995252
3078	0.00805406
3090	0.00707607
3102	0.00650078
3114	0.00552278
3126	0.00558031
3138	0.00460232
3150	0.00402703
3162	0.00333668
3174	0.00310657
3186	0.00304904
3198	0.00195599
3210	0.00195599
3222	0.00126564
3234	0.00143823
3246	0.00057529
3258	0.00057529
3270	0.00149575
3282	0.00149575
3294	0.0017834
3306	0.00276139
3318	0.00189846
3330	0.00201352
3342	0.00207104
3354	0.00253128
3366	0.00264633
3378	0.00304904
3390	0.00230116
3402	0.00299151
3414	0.00350927
3426	0.00276139
3438	0.00304904
3450	0.00207104
3462	0.00310657
3474	0.00241622
3486	0.00310657
3498	0.00310657
3510	0.00350927
3522	0.00304904
3534	0.00299151
3546	0.00258881
3558	0.00276139
3570	0.00448726
3582	0.00362433
3594	0.00379691
3606	0.0035668
3618	0.00431467
3630	0.0039695
3642	0.00310657
3654	0.0035668
3666	0.00391197
3678	0.00454479
3690	0.00373939
3702	0.0039695
3714	0.00373939
3726	0.00523514
3738	0.00488996
3750	0.00402703
3762	0.00506255
3774	0.00362433
3786	0.00431467
3798	0.00425715
3810	0.0031641
3822	0.00483244
3834	0.00448726
3846	0.00494749
3858	0.00402703
3870	0.0057529
3882	0.00512008
3894	0.00529267
3906	0.00419962
3918	0.00414209
3930	0.0053502
3942	0.00304904
3954	0.0043722
3966	0.00448726
