Infrared Spectrum: Benzonitrile, 3,4,5-trimethoxy-
Formula: C 10 H 11 N O 3
CAS: 1885-35-4
Origin: Sadtler Research Labs Under US-EPA Contract
1/CM	ABSORBANCE
450	0.00777535
462	0.00481853
474	0.00832291
486	0.0100751
498	0.0204787
510	0.0185075
522	0.0188361
534	0.0244212
546	0.0122653
558	0.00843242
570	0.00240926
582	0.00240926
594	0.00175219
606	0.00372341
618	0.0311014
630	0.0906759
642	0.0214644
654	0.00646121
666	0.00897998
678	0.00646121
690	0.00470902
702	0.00448999
714	0.00416146
726	0.0130319
738	0.0382197
750	0.027378
762	0.0187266
774	0.063517
786	0.0715113
798	0.013689
810	0.00514706
822	0.0211358
834	0.110388
846	0.123968
858	0.081915
870	0.077425
882	0.031868
894	0.0157697
906	0.022888
918	0.0443524
930	0.0696496
942	0.0861859
954	0.102503
966	0.0602316
978	0.0571653
990	0.104912
1002	0.291192
1014	0.485029
1026	0.208949
1038	0.220667
1050	0.156712
1062	0.117068
1074	0.1727
1086	0.313095
1098	0.535623
1110	0.859341
1122	1.0581
1134	1.09512
1146	0.755852
1158	0.246402
1170	0.14576
1182	0.184747
1194	0.179052
1206	0.179819
1218	0.408699
1230	0.848061
1242	0.859669
1254	0.528505
1266	0.230085
1278	0.143351
1290	0.117835
1302	0.110607
1314	0.176095
1326	0.459403
1338	0.858684
1350	0.340801
1362	0.10557
1374	0.0750157
1386	0.0938518
1398	0.279584
1410	0.757385
1422	0.535733
1434	0.416255
1446	0.263705
1458	0.386139
1470	0.479772
1482	0.535514
1494	0.878396
1506	0.696496
1518	0.210701
1530	0.113345
1542	0.121558
1554	0.214205
1566	0.543618
1578	0.848828
1590	0.416036
1602	0.14576
1614	0.0787391
1626	0.0566177
1638	0.045995
1650	0.0428192
1662	0.0396433
1674	0.0326346
1686	0.0235451
1698	0.018179
1710	0.01347
1722	0.0128129
1734	0.0156602
1746	0.0116083
1758	0.00744682
1770	0.00722779
1782	0.00744682
1794	0.00777535
1806	0.00536609
1818	0.00350438
1830	0.00229975
1842	0.00219024
1854	0.00197122
1866	0.00295682
1878	0.00208073
1890	0.00109512
1902	0.00054756
1914	0.000766584
1926	0.00219024
1938	0.00448999
1950	0.0112797
1962	0.0221214
1974	0.0236546
1986	0.0173029
1998	0.0176314
2010	0.0212453
2022	0.0197122
2034	0.0122653
2046	0.00919901
2058	0.0106227
2070	0.0121558
2082	0.0090895
2094	0.00580414
2106	0.0045995
2118	0.00416146
2130	0.00416146
2142	0.00536609
2154	0.00722779
2166	0.00876096
2178	0.0101846
2190	0.00843242
2202	0.00711828
2214	0.0157697
2226	0.101846
2238	0.135685
2250	0.0215739
2262	0.0164268
2274	0.0121558
2286	0.0063517
2298	0.00339487
2310	0.00208073
2322	0.00229975
2334	0.0018617
2346	0.00339487
2358	0.00372341
2370	0.00470902
2382	0.00416146
2394	0.000657072
2406	0.000766584
2418	0.00229975
2430	0.00295682
2442	0.0027378
2454	0.00350438
2466	0.0054756
2478	0.00744682
2490	0.0073373
2502	0.00689926
2514	0.00668023
2526	0.00766584
2538	0.00941803
2550	0.0110607
2562	0.0129224
2574	0.0128129
2586	0.0108417
2598	0.0107322
2610	0.00996559
2622	0.00777535
2634	0.00722779
2646	0.00865145
2658	0.00799438
2670	0.00711828
2682	0.00646121
2694	0.0073373
2706	0.00876096
2718	0.0107322
2730	0.0122653
2742	0.0125939
2754	0.0117178
2766	0.0102941
2778	0.0114988
2790	0.0146746
2802	0.0205883
2814	0.0338392
2826	0.0706352
2838	0.193508
2850	0.234684
2862	0.150141
2874	0.15266
2886	0.144994
2898	0.147513
2910	0.159449
2922	0.201612
2934	0.266333
2946	0.517444
2958	0.461155
2970	0.315723
2982	0.227128
2994	0.205992
3006	0.292397
3018	0.279803
3030	0.111702
3042	0.0669118
3054	0.0510326
3066	0.0429287
3078	0.0388768
3090	0.0374531
3102	0.0307729
3114	0.0198217
3126	0.013908
3138	0.0108417
3150	0.00854194
3162	0.00810389
3174	0.00897998
3186	0.00766584
3198	0.00514706
3210	0.00328536
3222	0.00240926
3234	0.00120463
3246	0.000876096
3258	0.000985608
3270	0.000657072
3282	0.000657072
3294	0.000219024
3306	0.000438048
3318	0.000328536
3330	0.000109512
3342	0.000876096
3354	0.000985608
3366	0.00197122
3378	0.00219024
3390	0.000766584
3402	0.000985608
3414	0.000876096
3426	0.000657072
3438	0.00109512
3450	0.000876096
3462	0.000985608
3474	0.00131414
3486	0.00120463
3498	0.00153317
3510	0.000985608
3522	0.00208073
3534	0.00197122
3546	0.00208073
3558	0.0036139
3570	0.00580414
3582	0.00295682
3594	0.00142366
3606	0.00120463
3618	0.00175219
3630	0.00175219
3642	0.00109512
3654	0.00142366
3666	0.00109512
3678	0.000657072
3690	0.00164268
3702	0.00109512
3714	0.000876096
3726	0.000657072
3738	0.000876096
3750	0.00164268
3762	0.000985608
3774	0.000985608
3786	0.00131414
3798	0.00142366
3810	0.0018617
3822	0.0027378
3834	0.00262829
3846	0.00240926
3858	0.00197122
3870	0.00175219
3882	0.00164268
3894	0.0018617
3906	0.00219024
3918	0.00153317
3930	0.00109512
3942	0.00197122
3954	0.00208073
3966	0.00350438
