Infrared Spectrum: Benzonitrile, 2-amino-
Formula: C 7 H 6 N 2
CAS: 1885-29-6
Origin: Sadtler Research Labs Under US-EPA Contract
1/CM	ABSORBANCE
450	0.0302543
462	0.0652018
474	0.0988923
486	0.151607
498	0.0894221
510	0.0522956
522	0.0170966
534	0.00544746
546	0.0137443
558	0.0220412
570	0.0112301
582	0.0217898
594	0.0304219
606	0.0226279
618	0.0144986
630	0.0140796
642	0.0180185
654	0.0251421
666	0.0336904
678	0.0576592
690	0.0798681
702	0.0947019
714	0.11205
726	0.194013
738	0.387859
750	0.666349
762	0.34562
774	0.12747
786	0.0659561
798	0.0468481
810	0.0464291
822	0.0440825
834	0.0388864
846	0.030841
858	0.0213708
870	0.0155043
882	0.0114816
894	0.00385512
906	0.00259802
918	0.0071236
930	0.0166776
942	0.0320143
954	0.0240526
966	0.0113139
978	0.00536365
990	0.00142472
1002	0
1014	0.00628553
1026	0.0208679
1038	0.0288296
1050	0.0163424
1062	0.0071236
1074	0.00259802
1086	0.0024304
1098	0.0036037
1110	0.00896735
1122	0.0213708
1134	0.0339418
1146	0.0713198
1158	0.13979
1170	0.119509
1182	0.0225441
1194	0.0101406
1206	0.0114816
1218	0.0175995
1230	0.0263992
1242	0.0504518
1254	0.150853
1266	0.172642
1278	0.0831365
1290	0.0608439
1302	0.17214
1314	0.281005
1326	0.23114
1338	0.0753425
1350	0.0171804
1362	0.00628553
1374	0.00167614
1386	0.000670456
1398	0.00511223
1410	0.0103083
1422	0.0162586
1434	0.0389703
1446	0.135013
1458	0.24413
1470	0.222089
1482	0.267009
1494	0.41761
1506	0.320227
1518	0.0619334
1530	0.0327685
1542	0.0305057
1554	0.0404788
1566	0.0936962
1578	0.140125
1590	0.152026
1602	0.242789
1614	0.47946
1626	0.83807
1638	0.725936
1650	0.244465
1662	0.0721578
1674	0.0418197
1686	0.0391379
1698	0.0284106
1710	0.0164262
1722	0.0137443
1734	0.0128225
1746	0.00963781
1758	0.0107273
1770	0.0162586
1782	0.0180185
1794	0.0150015
1806	0.0102245
1818	0.00938638
1830	0.00653695
1842	0.00402274
1854	0.00444177
1866	0.00905116
1878	0.0108949
1890	0.0122358
1902	0.0182699
1914	0.016929
1926	0.0142472
1938	0.0181023
1950	0.0103921
1962	0.00259802
1974	0.00276563
1986	0.0036037
1998	0.00519603
2010	0.00494461
2022	0.00419035
2034	0.00393893
2046	0.00385512
2058	0.00393893
2070	0.00377132
2082	0.00377132
2094	0.00310086
2106	0.00251421
2118	0.00175995
2130	0.00150853
2142	0.00192756
2154	0.00368751
2166	0.00670456
2178	0.00703979
2190	0.00796166
2202	0.0318467
2214	0.130068
2226	0.185465
2238	0.0836394
2250	0.0072074
2262	0.00268182
2274	0.00301705
2286	0.00377132
2298	0.00511223
2310	0.00645314
2322	0.00854831
2334	0.009554
2346	0.00913496
2358	0.00578268
2370	0.00812928
2382	0.00452558
2394	0.00276563
2406	0.00259802
2418	0.00167614
2430	0.00150853
2442	0.00142472
2454	0.00251421
2466	0.0036037
2478	0.00326847
2490	0.00159233
2502	0
2514	8.3807e-05
2526	0.000586649
2538	0.000167614
2550	0.00134091
2562	0.0036037
2574	0.00435796
2586	0.0036037
2598	0.00351989
2610	0.00586649
2622	0.00687217
2634	0.00745882
2646	0.00578268
2658	0.00460939
2670	0.0036037
2682	0.00410654
2694	0.00343609
2706	0.00284944
2718	0.00310086
2730	0.00310086
2742	0.00268182
2754	0.00402274
2766	0.00662075
2778	0.0072074
2790	0.00636933
2802	0.00494461
2814	0.00301705
2826	0.00192756
2838	0.00184375
2850	0.00142472
2862	0.00293325
2874	0.004777
2886	0.00561507
2898	0.00578268
2910	0.0059503
2922	0.00502842
2934	0.00511223
2946	0.00586649
2958	0.00502842
2970	0.00251421
2982	0.0023466
2994	0.00318467
3006	0.00628553
3018	0.0177671
3030	0.052128
3042	0.0858184
3054	0.0873269
3066	0.0771862
3078	0.0974675
3090	0.0958752
3102	0.0641962
3114	0.018689
3126	0.00863212
3138	0.00486081
3150	0.00460939
3162	0.00561507
3174	0.00762644
3186	0.00930258
3198	0.0105597
3210	0.0107273
3222	0.00963781
3234	0.00787786
3246	0.0059503
3258	0.00393893
3270	0.00293325
3282	0.00217898
3294	0.00318467
3306	0.00251421
3318	0.00201137
3330	0.00192756
3342	0.00293325
3354	0.00326847
3366	0.00636933
3378	0.0129063
3390	0.0329362
3402	0.0900087
3414	0.186973
3426	0.210272
3438	0.112301
3450	0.0321819
3462	0.0177671
3474	0.0243878
3486	0.0439987
3498	0.0787786
3510	0.123112
3522	0.134175
3534	0.0888354
3546	0.0417359
3558	0.0114816
3570	0.0060341
3582	0.004777
3594	0.00351989
3606	0.00251421
3618	0.00217898
3630	0.00335228
3642	0.00217898
3654	0.0011733
3666	0.00209518
3678	0.00318467
3690	0.00310086
3702	0.00284944
3714	0.00351989
3726	0.00310086
3738	0.00192756
3750	0.00293325
3762	0.00318467
3774	0.00393893
3786	0.00460939
3798	0.00486081
3810	0.00435796
3822	0.00586649
3834	0.00628553
3846	0.00628553
3858	0.00762644
3870	0.00779405
3882	0.00762644
3894	0.00745882
3906	0.00871593
3918	0.0083807
3930	0.00796166
3942	0.00636933
3954	0.00578268
3966	0.00393893
