Infrared Spectrum: Carbonochloridic acid, phenyl ester
Formula: C 7 H 5 Cl O 2
CAS: 1885-14-9
Origin: Sadtler Research Labs Under US-EPA Contract
1/CM	ABSORBANCE
450	0.00145948
462	0.00145948
474	0.00362354
486	0.00780068
498	0.0111223
510	0.00342224
522	0.00120785
534	0.00125818
546	0.00156014
558	0.00629088
570	0.0139909
582	0.0253145
594	0.000956213
606	0.00156014
618	0.00352289
630	0.00191243
642	0.00110719
654	0.00347256
666	0.00986409
678	0.0234021
690	0.0221439
702	0.00910919
714	0.00583793
726	0.0166582
738	0.0456969
750	0.0339204
762	0.0124811
774	0.00533466
786	0.00332158
798	0.00523401
810	0.00629088
822	0.00734774
834	0.0150981
846	0.0558126
858	0.0614996
870	0.0143432
882	0.0101157
894	0.00920984
906	0.0174635
918	0.0174635
930	0.00442878
942	0.00171112
954	0.00125818
966	0.00120785
978	0.00332158
990	0.00437845
1002	0.0157524
1014	0.0128837
1026	0.00714643
1038	0.00332158
1050	0.00810265
1062	0.015702
1074	0.0185203
1086	0.0300955
1098	0.0827376
1110	0.334423
1122	0.386058
1134	0.0381479
1146	0.0247106
1158	0.138047
1170	0.147357
1182	0.148565
1194	0.222194
1206	0.0514342
1218	0.026774
1230	0.0201308
1242	0.0113739
1254	0.00759938
1266	0.00719676
1278	0.00548564
1290	0.00407649
1302	0.00397583
1314	0.00528434
1326	0.00613989
1338	0.00493205
1350	0.00498237
1362	0.0050327
1374	0.00296929
1386	0.00382485
1398	0.00352289
1410	0.00231504
1422	0.00135883
1434	0.00216406
1446	0.00271766
1458	0.00553597
1470	0.0105183
1482	0.0193256
1494	0.0712127
1506	0.0245092
1518	0.00291897
1530	0.00196275
1542	0.00226472
1554	0.00150981
1566	0.00266733
1578	0.0095118
1590	0.0252642
1602	0.0227981
1614	0.0055863
1626	0.00216406
1638	0.00156014
1650	0.00161046
1662	0.00120785
1674	0.00216406
1686	0.00362354
1698	0.00291897
1710	0.00281831
1722	0.00352289
1734	0.00422747
1746	0.00437845
1758	0.00790134
1770	0.018319
1782	0.042476
1794	0.105284
1806	0.178057
1818	0.125918
1830	0.0465525
1842	0.00880723
1854	0.00412681
1866	0.00387518
1878	0.00246602
1890	0.00221439
1902	0.00206341
1914	0.00327126
1926	0.00367387
1938	0.0037242
1950	0.00367387
1962	0.00473074
1974	0.00362354
1986	0.0024157
1998	0.0018621
2010	0.00156014
2022	0.00156014
2034	0.00150981
2046	0.00110719
2058	0.000956213
2070	0.00100654
2082	0.000553597
2094	0.00050327
2106	0.000201308
2118	0.000553597
2130	0.000553597
2142	0.000603924
2154	0.000553597
2166	0.00050327
2178	0.00115752
2190	0.00115752
2202	0.00156014
2214	0.00236537
2226	0.0037242
2238	0.0031706
2250	0.000905886
2262	0.000603924
2274	0.000905886
2286	0.0013085
2298	0.0018621
2310	0.00291897
2322	0.00216406
2334	0.00115752
2346	0.0024157
2358	0.00161046
2370	0.000805232
2382	0.00206341
2394	0.000603924
2406	0.000553597
2418	0.000603924
2430	0.000553597
2442	0.000553597
2454	0.000654251
2466	0.000654251
2478	0.000553597
2490	0.000603924
2502	0.000654251
2514	0.000603924
2526	0.000603924
2538	0.000603924
2550	0.000603924
2562	0.000603924
2574	0.000654251
2586	0.000654251
2598	0.000603924
2610	0.000603924
2622	0.000603924
2634	0.000654251
2646	0.000603924
2658	0.000654251
2670	0.000150981
2682	0.000150981
2694	0.000704578
2706	0.000704578
2718	0.000704578
2730	0.000754905
2742	0.000754905
2754	0.000805232
2766	0.000805232
2778	0.000805232
2790	0.000855559
2802	0.000754905
2814	0.000855559
2826	0.000805232
2838	0.000905886
2850	0.000855559
2862	0.000553597
2874	0.000855559
2886	0.000855559
2898	0.000905886
2910	0.000956213
2922	0.00120785
2934	0.000956213
2946	0.00100654
2958	0.000956213
2970	0.000956213
2982	0.00110719
2994	0.00110719
3006	0.00100654
3018	0.00110719
3030	0.00266733
3042	0.00573728
3054	0.00946148
3066	0.00790134
3078	0.00976344
3090	0.0123804
3102	0.00649218
3114	0.00377452
3126	0.00125818
3138	0.000905886
3150	0.00125818
3162	0.00125818
3174	0.000754905
3186	0.000754905
3198	0.000754905
3210	0.000805232
3222	0.000754905
3234	0.000452943
3246	0.000805232
3258	0.000855559
3270	0.000905886
3282	0.000905886
3294	0.000855559
3306	0.000855559
3318	0.000855559
3330	0.00145948
3342	0.00050327
3354	0.000704578
3366	0.000905886
3378	0.000956213
3390	0.000905886
3402	0.00100654
3414	0.00100654
3426	0.00110719
3438	0.00110719
3450	0.00110719
3462	0.000754905
3474	0.000654251
3486	0.000654251
3498	0.00115752
3510	0.000704578
3522	0.00115752
3534	0.00120785
3546	0.00100654
3558	0.000704578
3570	0.0013085
3582	0.00176144
3594	0.00176144
3606	0.00166079
3618	0.000603924
3630	0.00100654
3642	0.0018621
3654	0.00166079
3666	0.00176144
3678	0.0018621
3690	0.00161046
3702	0.00176144
3714	0.00171112
3726	0.00171112
3738	0.00115752
3750	0.00050327
3762	0.0018621
3774	0.00191243
3786	0.0018621
3798	0.000704578
3810	0.0013085
3822	0.00176144
3834	0.00171112
3846	0.00125818
3858	0.0018621
3870	0.00166079
3882	0.00161046
3894	0.00176144
3906	0.00161046
3918	0.00171112
3930	0.00221439
3942	0.00226472
3954	0.00171112
3966	0.00281831
