Infrared Spectrum: N-Acetylcaprolactam
Formula: C 8 H 13 N O 2
CAS: 1888-91-1
Origin: Sadtler Research Labs Under US-EPA Contract
1/CM	ABSORBANCE
450	0.00465993
462	0.0084726
474	0.00220288
486	0.00601555
498	0.00804897
510	0.00754061
522	0.0119464
534	0.0117769
546	0.0147423
558	0.0340599
570	0.0412616
582	0.0382962
594	0.0322806
606	0.0177925
618	0.011438
630	0.00855733
642	0.00830315
654	0.013302
666	0.0140645
678	0.00999767
690	0.00982822
702	0.0105907
714	0.0106755
726	0.00660863
738	0.00737116
750	0.00601555
762	0.00533774
774	0.00745589
786	0.00838787
798	0.00482938
810	0.00559192
822	0.00669335
834	0.0125394
846	0.0249942
858	0.0122005
870	0.0153354
882	0.0248247
894	0.0104213
906	0.00635445
918	0.00898096
930	0.0122005
942	0.0171147
954	0.0576984
966	0.141577
978	0.0888776
990	0.0192328
1002	0.0109297
1014	0.0088115
1026	0.00830315
1038	0.0106755
1050	0.0116922
1062	0.0138951
1074	0.0377878
1086	0.0482938
1098	0.0244011
1110	0.0122853
1122	0.0232149
1134	0.0319417
1146	0.0285527
1158	0.0578679
1170	0.068035
1182	0.18089
1194	0.28146
1206	0.218508
1218	0.20419
1230	0.0708309
1242	0.122599
1254	0.258499
1266	0.227066
1278	0.0702379
1290	0.0424477
1302	0.0382962
1314	0.0713393
1326	0.100061
1338	0.113956
1350	0.102434
1362	0.120565
1374	0.198852
1386	0.182161
1398	0.0914194
1410	0.0469382
1422	0.0490564
1434	0.0693906
1446	0.0721866
1458	0.0687128
1470	0.0571053
1482	0.0223677
1494	0.0113533
1506	0.0109297
1518	0.00974349
1530	0.0081337
1542	0.00999767
1554	0.00745589
1566	0.00525301
1578	0.00601555
1590	0.00533774
1602	0.00516829
1614	0.00762534
1626	0.0127089
1638	0.0154201
1650	0.0199106
1662	0.0235538
1674	0.0369405
1686	0.0535468
1698	0.0988752
1710	0.464214
1722	0.84726
1734	0.240113
1746	0.0474466
1758	0.0329584
1770	0.0328737
1782	0.0310944
1794	0.0227913
1806	0.0188092
1818	0.0102518
1830	0.00745589
1842	0.00635445
1854	0.00491411
1866	0.00474466
1878	0.00313486
1890	0.00338904
1902	0.00271123
1914	0.00347377
1926	0.00355849
1938	0.00288068
1950	0.00245705
1962	0.0022876
1974	0.00211815
1986	0.0022876
1998	0.00271123
2010	0.00262651
2022	0.00245705
2034	0.00305014
2046	0.00381267
2058	0.00372794
2070	0.00364322
2082	0.00271123
2094	0.0022876
2106	0.00160979
2118	0.00127089
2130	0.00110144
2142	0.00152507
2154	0.00177925
2166	0.0019487
2178	0.00160979
2190	0.00135562
2202	0.00135562
2214	0.00152507
2226	0.00144034
2238	0.00127089
2250	0.00144034
2262	0.00101671
2274	0.00084726
2286	0.00152507
2298	0.00211815
2310	0.00271123
2322	0.00262651
2334	0.00220288
2346	0.00237233
2358	0.00186397
2370	0.00110144
2382	0.00177925
2394	0.00101671
2406	0.00084726
2418	0.000508356
2430	0.000677808
2442	0.000593082
2454	0.00042363
2466	0.000593082
2478	0.000254178
2490	0
2502	8.4726e-05
2514	8.4726e-05
2526	0.000508356
2538	0.000508356
2550	0.00084726
2562	0.000677808
2574	0.00084726
2586	0.000508356
2598	0.000762534
2610	0.000931986
2622	0.000931986
2634	0.00110144
2646	0.00118616
2658	0.00135562
2670	0.00186397
2682	0.00245705
2694	0.00271123
2706	0.00245705
2718	0.00220288
2730	0.000931986
2742	0.00084726
2754	0.00127089
2766	0.00118616
2778	0.00144034
2790	0.00220288
2802	0.00321959
2814	0.00381267
2826	0.00465993
2838	0.00610027
2850	0.014234
2862	0.0489716
2874	0.0570206
2886	0.0272818
2898	0.0225371
2910	0.0338904
2922	0.0634598
2934	0.154625
2946	0.264515
2958	0.119209
2970	0.0415157
2982	0.0378725
2994	0.0205884
3006	0.0198259
3018	0.0226218
3030	0.011438
3042	0.00593082
3054	0.00406685
3066	0.00338904
3078	0.00296541
3090	0.00144034
3102	0.00160979
3114	0.0019487
3126	0.00203342
3138	0.00110144
3150	0.00135562
3162	0.00084726
3174	0.00118616
3186	0.000762534
3198	0.00101671
3210	0.00084726
3222	0.00144034
3234	0.000762534
3246	0.00101671
3258	0.000677808
3270	0.000677808
3282	0.000677808
3294	0.000677808
3306	0.00118616
3318	0.000931986
3330	0.00101671
3342	0.00118616
3354	0.000931986
3366	0.00211815
3378	0.00127089
3390	0.00186397
3402	0.00364322
3414	0.00728644
3426	0.0084726
3438	0.00381267
3450	0.0019487
3462	0.00211815
3474	0.00177925
3486	0.00135562
3498	0.000338904
3510	0.000931986
3522	0.000931986
3534	0.00186397
3546	0.00084726
3558	0.0019487
3570	0.00245705
3582	0.00432103
3594	0.00347377
3606	0.0019487
3618	0.00203342
3630	0.00177925
3642	0.000931986
3654	0.00084726
3666	0.00084726
3678	0.00127089
3690	0.000762534
3702	0
3714	0.0019487
3726	0.000338904
3738	0.00186397
3750	0.00118616
3762	0.00118616
3774	0.00186397
3786	0.000762534
3798	0.00152507
3810	0.00101671
3822	0.00144034
3834	0.00288068
3846	0.00127089
3858	0.00135562
3870	0.00245705
3882	0.00110144
3894	0.00237233
3906	0.00288068
3918	0.00220288
3930	0.00245705
3942	0.00186397
3954	0.00262651
3966	0.00101671
