Infrared Spectrum: Ethanol, 2-(4-chlorophenoxy)-
Formula: C 8 H 9 Cl O 2
CAS: 1892-43-9
Origin: Sadtler Research Labs Under US-EPA Contract
1/CM	ABSORBANCE
450	0.0303268
462	0.0221133
474	0.0183224
486	0.0194281
498	0.0345125
510	0.0368818
522	0.0321432
534	0.0241667
546	0.0042647
558	0.0122413
570	0.00410675
582	0.0120833
594	0.0128731
606	0.00347494
618	0.0200599
630	0.0258252
642	0.0528349
654	0.0555201
666	0.0900326
678	0.0553622
690	0.0172168
702	0.00687091
714	0.00995098
726	0.00552832
738	0.0059232
750	0.00631808
762	0.00584422
774	0.00655501
786	0.0142157
798	0.0285893
810	0.0617592
822	0.13268
834	0.119965
846	0.052756
858	0.0293791
870	0.032854
882	0.0431999
894	0.0586002
906	0.0737636
918	0.0544145
930	0.0260621
942	0.0202179
954	0.0149265
966	0.0135839
978	0.019665
990	0.0241667
1002	0.0735267
1014	0.122176
1026	0.15274
1038	0.282023
1050	0.247432
1062	0.145948
1074	0.142315
1086	0.186146
1098	0.271441
1110	0.0939814
1122	0.0433578
1134	0.0273257
1146	0.0223502
1158	0.0398829
1170	0.133075
1182	0.0455692
1194	0.0616803
1206	0.113015
1218	0.194518
1230	0.370318
1242	0.635915
1254	0.304531
1266	0.194913
1278	0.234243
1290	0.171773
1302	0.0894008
1314	0.0462799
1326	0.0349864
1338	0.036092
1350	0.0367238
1362	0.0523611
1374	0.0762908
1386	0.0435948
1398	0.0403567
1410	0.0401988
1422	0.0326961
1434	0.0315904
1446	0.0390141
1458	0.119728
1470	0.112225
1482	0.255882
1494	0.78976
1506	0.180855
1518	0.0573366
1530	0.0265359
1542	0.0201389
1554	0.0202968
1566	0.0214025
1578	0.042726
1590	0.0799237
1602	0.0942184
1614	0.0304847
1626	0.0135049
1638	0.0103459
1650	0.00931917
1662	0.00442266
1674	0.00584422
1686	0.00647603
1698	0.00639706
1710	0.00450163
1722	0.00458061
1734	0.00734477
1746	0.00995098
1758	0.00663398
1770	0.00584422
1782	0.00355392
1794	0.00418573
1806	0.00315904
1818	0.00244826
1830	0.00458061
1842	0.00576525
1854	0.00710784
1866	0.0106618
1878	0.0102669
1890	0.00647603
1902	0.0039488
1914	0.00347494
1926	0.00386982
1938	0.0039488
1950	0.0036329
1962	0.00300109
1974	0.00236928
1986	0.00221133
1998	0.00276416
2010	0.00284314
2022	0.00323802
2034	0.00481754
2046	0.00529139
2058	0.00458061
2070	0.00544934
2082	0.00489651
2094	0.00402778
2106	0.00276416
2118	0.0019744
2130	0.00142157
2142	0.000947712
2154	0.00078976
2166	0.000473856
2178	0.00039488
2190	7.8976e-05
2202	0.000236928
2214	0.000236928
2226	0.000473856
2238	0.000236928
2250	0.00118464
2262	0.0016585
2274	0.00244826
2286	0.00300109
2298	0.00221133
2310	0.00244826
2322	0.00276416
2334	0.00300109
2346	0.00481754
2358	0.0039488
2370	0.0036329
2382	0.00260621
2394	0.00292211
2406	0.00300109
2418	0.00260621
2430	0.00276416
2442	0.00276416
2454	0.00300109
2466	0.00379085
2478	0.00410675
2490	0.00418573
2502	0.00386982
2514	0.00505446
2526	0.00481754
2538	0.00442266
2550	0.00331699
2562	0.00244826
2574	0.0019744
2586	0.00181645
2598	0.0016585
2610	0.00150054
2622	0.00134259
2634	0.00118464
2646	0.00110566
2658	0.00205338
2670	0.00244826
2682	0.00315904
2694	0.00386982
2706	0.00410675
2718	0.00608115
2730	0.00734477
2742	0.00663398
2754	0.00608115
2766	0.00616013
2778	0.00663398
2790	0.00726579
2802	0.00845043
2814	0.0105038
2826	0.01311
2838	0.0153213
2850	0.0195071
2862	0.032933
2874	0.0577315
2886	0.082293
2898	0.0697358
2910	0.0617592
2922	0.0771596
2934	0.11104
2946	0.118859
2958	0.106776
2970	0.0911383
2982	0.056073
2994	0.0238508
3006	0.0116884
3018	0.00773965
3030	0.00916122
3042	0.0173747
3054	0.019902
3066	0.0123203
3078	0.0137418
3090	0.016585
3102	0.0199809
3114	0.0123203
3126	0.0039488
3138	0.00244826
3150	0.00181645
3162	0.00252723
3174	0.0019744
3186	0.0019744
3198	0.00205338
3210	0.0019744
3222	0.00150054
3234	0.00173747
3246	0.0016585
3258	0.00150054
3270	0.000710784
3282	0.00126362
3294	0.00118464
3306	0.000947712
3318	0.00150054
3330	0.00142157
3342	0.00110566
3354	0.000473856
3366	0.00039488
3378	0
3390	0.00157952
3402	0.000868736
3414	0.000552832
3426	0.000473856
3438	0.00118464
3450	0.00157952
3462	0.000315904
3474	0.00102669
3486	0.00102669
3498	0.00157952
3510	0.000315904
3522	0.00126362
3534	0.00189542
3546	0.0019744
3558	0.00142157
3570	0.00284314
3582	0.00315904
3594	0.00323802
3606	0.0059232
3618	0.00892429
3630	0.016506
3642	0.0415414
3654	0.0346705
3666	0.0288262
3678	0.0259041
3690	0.0136628
3702	0.00600218
3714	0.00544934
3726	0.00458061
3738	0.0059232
3750	0.00458061
3762	0.00292211
3774	0.00221133
3786	0.00252723
3798	0.0036329
3810	0.00236928
3822	0.00513344
3834	0.00371187
3846	0.00450163
3858	0.00386982
3870	0.00450163
3882	0.00458061
3894	0.00371187
3906	0.00442266
3918	0.00552832
3930	0.00552832
3942	0.00268518
3954	0.00473856
3966	0.00726579
