Infrared Spectrum: 8-Aminoquinaldine
Formula: C 10 H 10 N 2
CAS: 18978-78-4
Origin: Sadtler Research Labs Under US-EPA Contract
1/CM	ABSORBANCE
450	0.0309214
462	0.0280468
474	0.0164707
486	0.00854612
498	0.011343
510	0.0289014
522	0.0187238
534	0.0068369
546	0.0110323
558	0.0187238
570	0.0235407
582	0.030533
594	0.0379914
606	0.0477806
618	0.0599005
630	0.065572
642	0.0629305
654	0.050966
666	0.0386906
678	0.0360491
690	0.033796
702	0.0403998
714	0.0629305
726	0.10535
738	0.263454
750	0.173642
762	0.0597451
774	0.0478583
786	0.0916766
798	0.109546
810	0.0646397
822	0.167815
834	0.166261
846	0.0521313
858	0.0288237
870	0.0182576
882	0.00994458
894	0.00706997
906	0.00908996
918	0.0101777
930	0.00644844
942	0.00590459
954	0.0067592
966	0.00932304
978	0.00512767
990	0.0108769
1002	0.0155384
1014	0.00901227
1026	0.0116538
1038	0.0156161
1050	0.0144507
1062	0.0187238
1074	0.0300668
1086	0.0443621
1098	0.0342622
1110	0.0298337
1122	0.0717097
1134	0.087792
1146	0.0413321
1158	0.00466152
1170	0.00225307
1182	0.00442844
1194	7.7692e-05
1206	0.00854612
1218	0.0131299
1230	0.0294453
1242	0.0768374
1254	0.0679028
1266	0.0774589
1278	0.104263
1290	0.0414875
1302	0.0252499
1314	0.0599782
1326	0.145439
1338	0.152043
1350	0.120966
1362	0.132387
1374	0.242011
1386	0.214197
1398	0.0891127
1410	0.0601336
1422	0.121277
1434	0.22554
1446	0.146838
1458	0.126327
1470	0.250324
1482	0.246439
1494	0.179779
1506	0.30331
1518	0.211011
1530	0.0953281
1542	0.075672
1554	0.126716
1566	0.180401
1578	0.244108
1590	0.64935
1602	0.757963
1614	0.510514
1626	0.295463
1638	0.107914
1650	0.0556275
1662	0.0351168
1674	0.0274253
1686	0.033796
1698	0.0273476
1710	0.0228414
1722	0.0209768
1734	0.0147615
1746	0.0114207
1758	0.0116538
1770	0.00901227
1782	0.00815766
1794	0.0125861
1806	0.0170145
1818	0.0137515
1830	0.00885689
1842	0.00551613
1854	0.00442844
1866	0.00497229
1878	0.00605998
1890	0.0179469
1902	0.0217538
1914	0.0097115
1926	0.0156938
1938	0.0110323
1950	0.00365152
1962	0.00248614
1974	0.00186461
1986	0.00186461
1998	0.00178692
2010	0.00163153
2022	0.0019423
2034	0.00225307
2046	0.00155384
2058	0.00147615
2070	0.00178692
2082	0.00132076
2094	0.00139846
2106	0.00124307
2118	0.00132076
2130	0.00163153
2142	0.00186461
2154	0.00217538
2166	0.00178692
2178	0.000621536
2190	0.000699228
2202	0.00132076
2214	0.00124307
2226	0.000854612
2238	0.000543844
2250	0.000155384
2262	0.000699228
2274	0.00124307
2286	0.000854612
2298	0.00108769
2310	0.00170922
2322	0.000854612
2334	0.00077692
2346	0.0019423
2358	0.000310768
2370	0.00178692
2382	0.00178692
2394	0.00163153
2406	0.00233076
2418	0.00240845
2430	0.00139846
2442	0.00170922
2454	0.00225307
2466	0.00264153
2478	0.00201999
2490	0.00178692
2502	0.0029523
2514	0.00380691
2526	0.00233076
2538	0.00139846
2550	0.00124307
2562	0.000932304
2574	0.00163153
2586	0.0028746
2598	0.00396229
2610	0.00396229
2622	0.00334076
2634	0.00271922
2646	0.00365152
2658	0.00302999
2670	0.00225307
2682	0.0019423
2694	0.00225307
2706	0.00279691
2718	0.00419537
2730	0.00536075
2742	0.00427306
2754	0.00279691
2766	0.00209768
2778	0.00209768
2790	0.00240845
2802	0.00349614
2814	0.00520536
2826	0.00714766
2838	0.0115761
2850	0.0196561
2862	0.0313099
2874	0.0322422
2886	0.0288237
2898	0.0289014
2910	0.0366706
2922	0.0728751
2934	0.125861
2946	0.0801781
2958	0.0503444
2970	0.0352722
2982	0.0246284
2994	0.0264153
3006	0.0417206
3018	0.0695343
3030	0.111643
3042	0.201455
3054	0.29624
3066	0.225074
3078	0.106671
3090	0.0477029
3102	0.0292899
3114	0.0207438
3126	0.0140623
3138	0.00901227
3150	0.00807997
3162	0.00714766
3174	0.00699228
3186	0.00520536
3198	0.0038846
3210	0.00341845
3222	0.00225307
3234	0.00178692
3246	0.00101
3258	0.00101
3270	0.0019423
3282	0.00139846
3294	0.00108769
3306	0.00147615
3318	0.000854612
3330	0.00124307
3342	0.00209768
3354	0.0038846
3366	0.0087015
3378	0.0274253
3390	0.108846
3402	0.133863
3414	0.0455275
3426	0.0114207
3438	0.00590459
3450	0.00722536
3462	0.011343
3474	0.0190345
3486	0.0405552
3498	0.105894
3510	0.139224
3522	0.0720205
3534	0.0257161
3546	0.0077692
3558	0.00450614
3570	0.00357383
3582	0.00357383
3594	0.00147615
3606	0.0028746
3618	0.00217538
3630	0.00186461
3642	0.00116538
3654	0.000932304
3666	0.000233076
3678	0.000155384
3690	0.000466152
3702	0.00124307
3714	0.00170922
3726	0.00178692
3738	0.00271922
3750	0.00396229
3762	0.00326306
3774	0.00326306
3786	0.00108769
3798	0.00178692
3810	0.000310768
3822	7.7692e-05
3834	0.00077692
3846	0.000466152
3858	0.000155384
3870	0.00170922
3882	0.00209768
3894	0.00178692
3906	0.00155384
3918	0.00209768
3930	0.00256384
3942	0.00124307
3954	0.00101
3966	0.00170922
