Infrared Spectrum: Phenol, 4-(pentyloxy)-
Formula: C 11 H 16 O 2
CAS: 18979-53-8
Origin: Sadtler Research Labs Under US-EPA Contract
1/CM	ABSORBANCE
450	0
462	0.044138
474	0.0397462
486	0.044138
498	0.0649992
510	0.0727947
522	0.0451262
534	0.0335976
546	0.048969
558	0.0361229
570	0.0343661
582	0.0396364
594	0.0185555
606	0.0251433
618	0.03228
630	0.03228
642	0.0304135
654	0.0326094
666	0.0306331
678	0.0318408
690	0.037111
702	0.039307
714	0.0598388
726	0.0767474
738	0.0677441
750	0.0741123
762	0.0786139
774	0.0641209
786	0.0731241
798	0.0698303
810	0.0956323
822	0.163376
834	0.128791
846	0.0725752
858	0.0497376
870	0.0428204
882	0.0418323
894	0.043589
906	0.0508355
918	0.0427106
930	0.044687
942	0.0329388
954	0.0351347
966	0.0434792
978	0.0552274
990	0.0807001
1002	0.108698
1014	0.114956
1026	0.132414
1038	0.15624
1050	0.14537
1062	0.0934364
1074	0.0915699
1086	0.0906915
1098	0.0967303
1110	0.0751005
1122	0.0612662
1134	0.0566547
1146	0.070489
1158	0.159753
1170	0.470476
1182	0.402073
1194	0.228705
1206	0.262742
1218	0.384725
1230	0.679857
1242	0.57566
1254	0.221568
1266	0.115725
1278	0.0992556
1290	0.102549
1302	0.0944246
1314	0.0939854
1326	0.111553
1338	0.0756494
1350	0.0519335
1362	0.044138
1374	0.0501768
1386	0.0875074
1398	0.0596192
1410	0.0442478
1422	0.0639013
1434	0.106063
1446	0.0789433
1458	0.06456
1470	0.11814
1482	0.132963
1494	0.167768
1506	0.822592
1518	0.521641
1530	0.0973891
1542	0.0303037
1554	0.0292057
1566	0.0318408
1578	0.0300841
1590	0.0337074
1602	0.0419421
1614	0.0379894
1626	0.0264608
1638	0.0240453
1650	0.0182261
1662	0.0232768
1674	0.0189947
1686	0.0157008
1698	0.0142735
1710	0.0256923
1722	0.0264608
1734	0.0167988
1746	0.020971
1758	0.022069
1770	0.0199829
1782	0.0218494
1794	0.0208612
1806	0.0242649
1818	0.0258021
1830	0.0259119
1842	0.028547
1854	0.0309625
1866	0.0254727
1878	0.0260217
1890	0.0232768
1902	0.0232768
1914	0.0219592
1926	0.0230572
1938	0.0234963
1950	0.0237159
1962	0.0241551
1974	0.0250335
1986	0.0259119
1998	0.0255825
2010	0.0260217
2022	0.0252531
2034	0.0260217
2046	0.0259119
2058	0.0260217
2070	0.0253629
2082	0.0243747
2094	0.022618
2106	0.0210808
2118	0.0205319
2130	0.0199829
2142	0.0193241
2154	0.0193241
2166	0.0191045
2178	0.0191045
2190	0.0189947
2202	0.0193241
2214	0.0194339
2226	0.0195437
2238	0.0198731
2250	0.0202025
2262	0.0207514
2274	0.020971
2286	0.0221788
2298	0.0233865
2310	0.0242649
2322	0.0250335
2334	0.0230572
2346	0.0271196
2358	0.0264608
2370	0.0233865
2382	0.0240453
2394	0.0217396
2406	0.0222886
2418	0.0241551
2430	0.0250335
2442	0.023167
2454	0.0222886
2466	0.0232768
2478	0.0238257
2490	0.0243747
2502	0.0230572
2514	0.0222886
2526	0.0217396
2538	0.0217396
2550	0.0206416
2562	0.0205319
2574	0.0206416
2586	0.0216298
2598	0.022069
2610	0.022069
2622	0.0211906
2634	0.0211906
2646	0.02152
2658	0.022069
2670	0.0227278
2682	0.0238257
2694	0.023167
2706	0.0232768
2718	0.0239355
2730	0.0249237
2742	0.0283274
2754	0.0289861
2766	0.0287666
2778	0.0278882
2790	0.0282176
2802	0.0290959
2814	0.0323898
2826	0.0379894
2838	0.0477613
2850	0.0687323
2862	0.117262
2874	0.164474
2886	0.170184
2898	0.146797
2910	0.165243
2922	0.205538
2934	0.278003
2946	0.315554
2958	0.278333
2970	0.281846
2982	0.146248
2994	0.0733437
3006	0.0604976
3018	0.0669756
3030	0.0690617
3042	0.0723556
3054	0.0550078
3066	0.0476515
3078	0.0438086
3090	0.0388678
3102	0.0332682
3114	0.0314017
3126	0.0288763
3138	0.0258021
3150	0.0234963
3162	0.0232768
3174	0.0228376
3186	0.022618
3198	0.0214102
3210	0.0219592
3222	0.0228376
3234	0.0216298
3246	0.0214102
3258	0.0210808
3270	0.0207514
3282	0.0205319
3294	0.0217396
3306	0.0223984
3318	0.0213004
3330	0.0207514
3342	0.0203123
3354	0.0206416
3366	0.020971
3378	0.0229474
3390	0.0228376
3402	0.022618
3414	0.0225082
3426	0.022069
3438	0.0230572
3450	0.0221788
3462	0.022069
3474	0.0217396
3486	0.0211906
3498	0.0208612
3510	0.0202025
3522	0.0199829
3534	0.0205319
3546	0.020971
3558	0.0200927
3570	0.0227278
3582	0.0193241
3594	0.0206416
3606	0.022618
3618	0.0261314
3630	0.0350249
3642	0.0634621
3654	0.18292
3666	0.124618
3678	0.0343661
3690	0.0225082
3702	0.0223984
3714	0.0228376
3726	0.0217396
3738	0.0240453
3750	0.0247041
3762	0.0191045
3774	0.0197633
3786	0.02152
3798	0.0221788
3810	0.0198731
3822	0.0210808
3834	0.0213004
3846	0.022069
3858	0.0241551
3870	0.0223984
3882	0.0234963
3894	0.0197633
3906	0.0232768
3918	0.0225082
3930	0.0234963
3942	0.0247041
3954	0.0213004
3966	0.0210808
