Infrared Spectrum: Benzonitrile, 2,6-difluoro-
Formula: C 7 H 3 F 2 N
CAS: 1897-52-5
Origin: Sadtler Research Labs Under US-EPA Contract
1/CM	ABSORBANCE
450	0.00791363
462	0.00495689
474	0.00495689
486	0.00730489
498	0.0339156
510	0.0355679
522	0.0134793
534	0.0151316
546	0.0174796
558	0.0106964
570	0.0124357
582	0.0119139
594	0.0166099
606	0.0204363
618	0.0171317
630	0.0167839
642	0.0545258
654	0.0929634
666	0.0351331
678	0.0155664
690	0.016349
702	0.042264
714	0.096355
726	0.0890501
738	0.0359157
750	0.0249584
762	0.0296544
774	0.142358
786	0.310893
798	0.2348
810	0.0413074
822	0.0267846
834	0.0252193
846	0.0203493
858	0.0183492
870	0.018697
882	0.0203493
894	0.0243496
906	0.0346982
918	0.0327851
930	0.0206972
942	0.021045
954	0.0293935
966	0.0433076
978	0.0344373
990	0.0488732
1002	0.16349
1014	0.521517
1026	0.678485
1038	0.170795
1050	0.0396551
1062	0.0458295
1074	0.0254802
1086	0.0173926
1098	0.0189579
1110	0.0245236
1122	0.0251323
1134	0.0221756
1146	0.0354809
1158	0.0492211
1170	0.0420031
1182	0.0229582
1194	0.0193927
1206	0.018697
1218	0.0160882
1230	0.0334808
1242	0.297413
1254	0.413422
1266	0.0850498
1278	0.0378289
1290	0.112617
1302	0.242279
1314	0.107921
1326	0.0338286
1338	0.0513951
1350	0.0668745
1362	0.0444381
1374	0.0299153
1386	0.023567
1398	0.0159142
1410	0.0167839
1422	0.0167839
1434	0.0198276
1446	0.0398291
1458	0.170882
1470	0.573347
1482	0.86963
1494	0.432989
1506	0.0533083
1518	0.0280021
1530	0.0288717
1542	0.0437424
1554	0.163143
1566	0.211146
1578	0.161577
1590	0.210103
1602	0.301327
1614	0.405595
1626	0.440815
1638	0.196884
1650	0.0274803
1662	0.028089
1674	0.0236539
1686	0.014175
1698	0.011653
1710	0.014001
1722	0.014088
1734	0.01174
1746	0.0189579
1758	0.0220016
1770	0.0134793
1782	0.0108704
1794	0.0101747
1806	0.0138271
1818	0.0133053
1830	0.0120879
1842	0.0170447
1854	0.0143489
1866	0.009392
1878	0.00895719
1890	0.00904415
1902	0.0107834
1914	0.0106964
1926	0.0239148
1938	0.0231322
1950	0.00930504
1962	0.00747882
1974	0.00739186
1986	0.00678311
1998	0.00643526
2010	0.00573956
2022	0.00660919
2034	0.007044
2046	0.00773971
2058	0.0063483
2070	0.00608741
2082	0.00713097
2094	0.00713097
2106	0.00765274
2118	0.00791363
2130	0.00834845
2142	0.00669615
2154	0.00521778
2166	0.00478297
2178	0.00513082
2190	0.00504385
2202	0.00547867
2214	0.00573956
2226	0.00687008
2238	0.0158273
2250	0.0227843
2262	0.016523
2274	0.0129575
2286	0.00973986
2298	0.00817452
2310	0.0130445
2322	0.0139141
2334	0.00573956
2346	0.00295674
2358	0.00295674
2370	0.00391334
2382	0.00582652
2394	0.00608741
2406	0.00652223
2418	0.00626134
2430	0.00556563
2442	0.00591348
2454	0.00565259
2466	0.00556563
2478	0.00600045
2490	0.00852237
2502	0.011653
2514	0.00921808
2526	0.00834845
2538	0.0106964
2550	0.0120009
2562	0.00756578
2574	0.00443511
2586	0.00460904
2598	0.00556563
2610	0.004696
2622	0.00356548
2634	0.00391334
2646	0.00478297
2658	0.00478297
2670	0.00373941
2682	0.00339156
2694	0.00260889
2706	0.00252193
2718	0.00356548
2730	0.00486993
2742	0.00521778
2754	0.00582652
2766	0.00504385
2778	0.00460904
2790	0.00295674
2802	0.00139141
2814	0.000956593
2826	0.00104356
2838	0.00173926
2850	0.00200015
2862	0.00191319
2874	0.00243496
2886	0.00495689
2898	0.00556563
2910	0.00339156
2922	0.00226104
2934	0.002348
2946	0.00339156
2958	0.00643526
2970	0.0101747
2982	0.0100007
2994	0.00530474
3006	0.00339156
3018	0.00356548
3030	0.00530474
3042	0.00695704
3054	0.00713097
3066	0.00782667
3078	0.00687008
3090	0.00834845
3102	0.00834845
3114	0.0040003
3126	0.00321763
3138	0.00365245
3150	0.00417422
3162	0.00391334
3174	0.0040003
3186	0.0040003
3198	0.00434815
3210	0.00434815
3222	0.00426119
3234	0.00460904
3246	0.00460904
3258	0.00443511
3270	0.00452208
3282	0.00478297
3294	0.0063483
3306	0.00582652
3318	0.0063483
3330	0.00591348
3342	0.00573956
3354	0.00478297
3366	0.00521778
3378	0.00591348
3390	0.00495689
3402	0.00539171
3414	0.00582652
3426	0.00608741
3438	0.00626134
3450	0.00730489
3462	0.00626134
3474	0.00600045
3486	0.00547867
3498	0.00591348
3510	0.00521778
3522	0.00486993
3534	0.00539171
3546	0.00504385
3558	0.00504385
3570	0.00391334
3582	0.00504385
3594	0.00478297
3606	0.00539171
3618	0.00452208
3630	0.002348
3642	0.00417422
3654	0.00321763
3666	0.00408726
3678	0.00182622
3690	0.00173926
3702	0.00252193
3714	0.00286978
3726	0.0030437
3738	0.00173926
3750	0.00104356
3762	0.0040003
3774	0.00373941
3786	0.00269585
3798	0.0016523
3810	0.00130444
3822	0.00130444
3834	0.00121748
3846	0.00156533
3858	0.00130444
3870	0.00121748
3882	0.00191319
3894	0.00252193
3906	0.00156533
3918	0.00200015
3930	0.00260889
3942	0.00217408
3954	8.6963e-05
3966	0.000173926
