Infrared Spectrum: Phenol, 3-butoxy-
Formula: C 10 H 14 O 2
CAS: 18979-72-1
Origin: Sadtler Research Labs Under US-EPA Contract
1/CM	ABSORBANCE
450	0
462	0.0694521
474	0.0566738
486	0.0631813
498	0.0538342
510	0.0518228
522	0.0602234
534	0.0585669
546	0.053006
558	0.0472085
570	0.050403
582	0.0548991
594	0.0636545
606	0.0696887
618	0.0584486
630	0.0519412
642	0.0487466
654	0.0478001
666	0.0681506
678	0.147423
690	0.140206
702	0.0657843
714	0.0575021
726	0.0706352
738	0.0881462
750	0.161621
762	0.205517
774	0.117725
786	0.0674407
798	0.0615248
810	0.072765
822	0.0995046
834	0.140916
846	0.139496
858	0.119737
870	0.0789174
882	0.0614065
894	0.0592768
906	0.0638912
918	0.077616
930	0.102581
942	0.12021
954	0.138076
966	0.142099
978	0.157007
990	0.173689
1002	0.131569
1014	0.165525
1026	0.253317
1038	0.231073
1050	0.175701
1062	0.163632
1074	0.205517
1086	0.14198
1098	0.102226
1110	0.124233
1122	0.200902
1134	0.534083
1146	1.18317
1158	0.627553
1170	0.572891
1182	0.630038
1194	0.481905
1206	0.272839
1218	0.194868
1230	0.122576
1242	0.111928
1254	0.137484
1266	0.222791
1278	0.426296
1290	0.551357
1302	0.463211
1314	0.308807
1326	0.260652
1338	0.139141
1350	0.0844783
1362	0.0758412
1374	0.0883828
1386	0.165644
1398	0.139496
1410	0.0793907
1422	0.0784442
1434	0.109916
1446	0.173453
1458	0.266332
1470	0.404999
1482	0.419789
1494	0.575967
1506	0.368321
1518	0.13642
1530	0.108615
1542	0.0961917
1554	0.102344
1566	0.135828
1578	0.231901
1590	0.549464
1602	0.913407
1614	0.677483
1626	0.46191
1638	0.155942
1650	0.0969016
1662	0.072765
1674	0.0735932
1686	0.0634179
1698	0.0621164
1710	0.0545441
1722	0.0524144
1734	0.0524144
1746	0.0487466
1758	0.0457887
1770	0.0454337
1782	0.0448421
1794	0.0472085
1806	0.0437773
1818	0.0422392
1830	0.0443689
1842	0.0418842
1854	0.0412926
1866	0.0457887
1878	0.0463803
1890	0.0511129
1902	0.0541892
1914	0.050758
1926	0.0462619
1938	0.0437773
1950	0.0420025
1962	0.041411
1974	0.0417659
1986	0.0412926
1998	0.041411
2010	0.0420025
2022	0.0429491
2034	0.0429491
2046	0.0435407
2058	0.0430674
2070	0.0422392
2082	0.0420025
2094	0.0415293
2106	0.0415293
2118	0.040701
2130	0.0405827
2142	0.0404644
2154	0.0402278
2166	0.0401095
2178	0.0399911
2190	0.0402278
2202	0.041411
2214	0.0424758
2226	0.043304
2238	0.0428308
2250	0.0418842
2262	0.0411743
2274	0.0404644
2286	0.0404644
2298	0.040701
2310	0.0411743
2322	0.0403461
2334	0.0401095
2346	0.0463803
2358	0.0431857
2370	0.0428308
2382	0.0429491
2394	0.0434223
2406	0.045552
2418	0.0480367
2430	0.0496931
2442	0.0494565
2454	0.0483917
2466	0.0457887
2478	0.0448421
2490	0.0441322
2502	0.0442506
2514	0.0418842
2526	0.0404644
2538	0.0398728
2550	0.0402278
2562	0.0409377
2574	0.0421209
2586	0.0441322
2598	0.0450788
2610	0.045552
2622	0.0447238
2634	0.0430674
2646	0.0416476
2658	0.0417659
2670	0.0416476
2682	0.0423575
2694	0.0421209
2706	0.0421209
2718	0.043659
2730	0.0456704
2742	0.0498115
2754	0.0532427
2766	0.0518228
2778	0.0509946
2790	0.0500481
2802	0.0515862
2814	0.0540709
2826	0.058212
2838	0.0683872
2850	0.0946536
2862	0.132515
2874	0.211787
2886	0.277453
2898	0.222081
2910	0.240657
2922	0.284079
2934	0.332116
2946	0.426178
2958	0.400385
2970	0.49563
2982	0.278637
2994	0.118317
3006	0.0790358
3018	0.0733565
3030	0.0909858
3042	0.0978482
3054	0.111928
3066	0.0954818
3078	0.0854249
3090	0.0773793
3102	0.0674407
3114	0.0580936
3126	0.0492199
3138	0.0434223
3150	0.0423575
3162	0.0420025
3174	0.0422392
3186	0.0430674
3198	0.043304
3210	0.0437773
3222	0.0430674
3234	0.0443689
3246	0.043659
3258	0.0448421
3270	0.0446055
3282	0.0461436
3294	0.0469718
3306	0.0480367
3318	0.0487466
3330	0.0506397
3342	0.053006
3354	0.0544258
3366	0.0553724
3378	0.0558456
3390	0.0560823
3402	0.0573837
3414	0.0575021
3426	0.0593951
3438	0.0597501
3450	0.0595135
3462	0.0586852
3474	0.060105
3486	0.057857
3498	0.0591585
3510	0.0585669
3522	0.0577387
3534	0.0579753
3546	0.0566738
3558	0.0551357
3570	0.0550174
3582	0.0520595
3594	0.0512313
3606	0.0488649
3618	0.0491016
3630	0.060105
3642	0.124469
3654	0.353058
3666	0.134053
3678	0.0428308
3690	0.0416476
3702	0.0399911
3714	0.0398728
3726	0.0398728
3738	0.0398728
3750	0.0420025
3762	0.0398728
3774	0.0398728
3786	0.0398728
3798	0.0399911
3810	0.0398728
3822	0.0398728
3834	0.0398728
3846	0.0398728
3858	0.0398728
3870	0.0398728
3882	0.0398728
3894	0.0398728
3906	0.0397545
3918	0.0398728
3930	0.0398728
3942	0.0398728
3954	0.0398728
3966	0.0405827
