Infrared Spectrum: Propanoic acid, 2,2-dimethyl-, chloromethyl ester
Formula: C 6 H 11 Cl O 2
CAS: 18997-19-8
Origin: Sadtler Research Labs Under US-EPA Contract
1/CM	ABSORBANCE
450	0.00602743
462	0.00177277
474	0.0062638
486	0.00366373
498	0.00531832
510	0.0135913
522	0.00531832
534	0.00330918
546	0.00141822
558	0.00295462
570	0.00248189
582	0.00827295
594	0.00839113
606	0.00248189
618	0.00283644
630	0.00271825
642	0.00189096
654	0.00330918
666	0.00484558
678	0.00756384
690	0.0146549
702	0.0322645
714	0.0821386
726	0.15825
738	0.115349
750	0.0524741
762	0.0594471
774	0.075993
786	0.036401
798	0.0209187
810	0.017255
822	0.0187914
834	0.0202096
846	0.0224552
858	0.0199733
870	0.0104003
882	0.00803658
894	0.00720928
906	0.00768202
918	0.00756384
930	0.00980935
942	0.0165459
954	0.0128822
966	0.0094548
978	0.0114639
990	0.0232824
1002	0.0594471
1014	0.0855659
1026	0.0951389
1038	0.190278
1050	0.166404
1062	0.0621653
1074	0.0556651
1086	0.117712
1098	0.41932
1110	1.18185
1122	0.684764
1134	0.178696
1146	0.0845023
1158	0.0551924
1170	0.0424284
1182	0.0308463
1194	0.0244643
1206	0.0262371
1218	0.0293099
1230	0.0295462
1242	0.0302554
1254	0.0547197
1266	0.0946662
1278	0.10613
1290	0.0481013
1302	0.0166641
1314	0.0128822
1326	0.0208006
1338	0.0392374
1350	0.0355737
1362	0.0320281
1374	0.0471558
1386	0.030019
1398	0.0393556
1410	0.0333282
1422	0.014064
1434	0.0211551
1446	0.0507014
1458	0.0515287
1470	0.047274
1482	0.0943116
1494	0.06772
1506	0.0112276
1518	0.00732747
1530	0.00720928
1542	0.00685473
1554	0.00366373
1566	0.00260007
1578	0.00248189
1590	0.0023637
1602	0.00248189
1614	0.00319099
1626	0.00295462
1638	0.00271825
1650	0.0023637
1662	0.00189096
1674	0.00283644
1686	0.00449103
1698	0.00650017
1710	0.00969117
1722	0.0161913
1734	0.028128
1746	0.0661836
1758	0.193823
1770	0.370746
1782	0.286599
1794	0.081784
1806	0.0252916
1818	0.0118185
1830	0.00803658
1842	0.00685473
1854	0.00650017
1866	0.00697291
1878	0.00531832
1890	0.00295462
1902	0.00141822
1914	0.000827295
1926	0.000827295
1938	0.00153641
1950	0.00330918
1962	0.00425466
1974	0.0023637
1986	0.00224552
1998	0.00319099
2010	0.00449103
2022	0.00614562
2034	0.0055547
2046	0.0055547
2058	0.00295462
2070	0.00189096
2082	0.00224552
2094	0.00189096
2106	0.00319099
2118	0.00425466
2130	0.00283644
2142	0.00200914
2154	0.00130003
2166	0.000354555
2178	0.000118185
2190	0.000354555
2202	0.000827295
2214	0.00106366
2226	0.00106366
2238	0.00047274
2250	0
2262	0.000354555
2274	0.000590925
2286	0.000827295
2298	0.00141822
2310	0.0023637
2322	0.00354555
2334	0.00449103
2346	0.00413647
2358	0.00484558
2370	0.0047274
2382	0.00165459
2394	0.000590925
2406	0.000590925
2418	0.000118185
2430	0.000118185
2442	0.000590925
2454	0.000827295
2466	0.000590925
2478	0.000590925
2490	0.00023637
2502	0.00047274
2514	0.000590925
2526	0.00070911
2538	0.000590925
2550	0.000827295
2562	0.00070911
2574	0.00106366
2586	0.00094548
2598	0.00106366
2610	0.00094548
2622	0.00130003
2634	0.00118185
2646	0.000827295
2658	0.00106366
2670	0.00165459
2682	0.00118185
2694	0.00106366
2706	0.00118185
2718	0.00153641
2730	0.0023637
2742	0.0023637
2754	0.00224552
2766	0.00260007
2778	0.00330918
2790	0.00401829
2802	0.00437285
2814	0.0039001
2826	0.00484558
2838	0.0055547
2850	0.00697291
2862	0.0125276
2874	0.0333282
2886	0.0508195
2898	0.0430193
2910	0.0482195
2922	0.0614562
2934	0.06642
2946	0.0748111
2958	0.0847386
2970	0.159432
2982	0.235543
2994	0.208242
3006	0.0683109
3018	0.0186732
3030	0.00898206
3042	0.0070911
3054	0.00590925
3066	0.0039001
3078	0.00319099
3090	0.00271825
3102	0.00248189
3114	0.00319099
3126	0.00260007
3138	0.00260007
3150	0.00295462
3162	0.00354555
3174	0.00330918
3186	0.00354555
3198	0.00330918
3210	0.00319099
3222	0.00295462
3234	0.0023637
3246	0.00271825
3258	0.00189096
3270	0.00141822
3282	0.00141822
3294	0.00177277
3306	0.00130003
3318	0.00130003
3330	0.00130003
3342	0.00153641
3354	0.00153641
3366	0.00177277
3378	0.00106366
3390	0.00130003
3402	0.00094548
3414	0.000827295
3426	0.000590925
3438	0.000827295
3450	0.00070911
3462	0.00094548
3474	0.00130003
3486	0.00106366
3498	0.00130003
3510	0.00177277
3522	0.00295462
3534	0.00271825
3546	0.000354555
3558	0.00023637
3570	0.00106366
3582	0.00118185
3594	0.00141822
3606	0.00153641
3618	0.000354555
3630	0.00130003
3642	0.00070911
3654	0.00047274
3666	0.00094548
3678	0.00118185
3690	0.00070911
3702	0.00141822
3714	0.00153641
3726	0.00177277
3738	0.00094548
3750	0.00260007
3762	0.00165459
3774	0.00177277
3786	0.00094548
3798	0.00141822
3810	0.00141822
3822	0.00271825
3834	0.00165459
3846	0.00189096
3858	0.00153641
3870	0.00224552
3882	0.00177277
3894	0.00248189
3906	0.00177277
3918	0.00260007
3930	0.00106366
3942	0.00189096
3954	0.00212733
3966	0.00153641
