Infrared Spectrum: 1-Oxa-6-thiacycloheptadecan-17-one
Formula: C 15 H 28 O 2 S
CAS: 1899-05-4
Origin: Sadtler Research Labs Under US-EPA Contract
1/CM	ABSORBANCE
450	0.022687
462	0.0106105
474	0.015846
486	0.0171723
498	0.0101219
510	0.0106105
522	0.0164742
534	0.0145895
546	0.0132631
558	0.0164044
570	0.0101917
582	0.0129839
594	0.0121462
606	0.0136122
618	0.0226171
630	0.00265263
642	0.0120764
654	0.0143102
666	0.0102615
678	0.0115878
690	0.0124953
702	0.0161252
714	0.0188476
726	0.0215701
738	0.0194759
750	0.0193363
762	0.011169
774	0.00167534
786	0.00844653
798	0.0151479
810	0.0152177
822	0.00767866
834	0.00209418
846	0.0126349
858	0.0155667
870	0.0167534
882	0.0177307
894	0.0173817
906	0.0154271
918	0.0153573
930	0.0164742
942	0.0196155
954	0.0224775
966	0.0229662
978	0.0233152
990	0.0247811
1002	0.0342747
1014	0.0508886
1026	0.0496321
1038	0.0642215
1050	0.0700154
1062	0.0589163
1074	0.055775
1086	0.0714813
1098	0.0705739
1110	0.0601728
1122	0.0834182
1134	0.110712
1146	0.139821
1158	0.181565
1170	0.177028
1182	0.137169
1194	0.126139
1206	0.117414
1218	0.138006
1230	0.161671
1242	0.165929
1254	0.143521
1266	0.131096
1278	0.103452
1290	0.0815334
1302	0.0691777
1314	0.0547279
1326	0.0448853
1338	0.0613595
1350	0.0777639
1362	0.0598237
1374	0.0373462
1386	0.0379745
1398	0.0225473
1410	0.0141706
1422	0.0305052
1434	0.0598237
1446	0.0768564
1458	0.0963323
1470	0.0665251
1482	0.0254094
1494	0.015846
1506	0.0131933
1518	0.00949362
1530	0.00774847
1542	0.00753905
1554	0.00656176
1566	0.00404875
1578	0.0046072
1590	0.00439778
1602	0.00523545
1614	0.00907478
1626	0.00872575
1638	0.0103313
1650	0.00642215
1662	0.00530526
1674	0.0057939
1686	0.0110992
1698	0.0152875
1710	0.0325994
1722	0.0594049
1734	0.112318
1746	0.280411
1758	0.40299
1770	0.101707
1782	0.0462116
1794	0.0206626
1806	0.009354
1818	0.00502603
1830	0.00216399
1842	0.00167534
1854	0.0011169
1866	0.000977284
1878	0.000488642
1890	0.00104709
1902	0.0011169
1914	0.00139612
1926	0.00195457
1938	0.0023036
1950	0.00293185
1962	0.00356011
1974	0.00356011
1986	0.00356011
1998	0.00474681
2010	0.00432797
2022	0.00474681
2034	0.00537506
2046	0.00537506
2058	0.00544487
2070	0.00544487
2082	0.00502603
2094	0.00411855
2106	0.00411855
2118	0.00390914
2130	0.00314127
2142	0.00272243
2154	0.00293185
2166	0.00300166
2178	0.00307146
2190	0.00272243
2202	0.00244321
2214	0.0023036
2226	0.00251302
2238	0.0023036
2250	0.00223379
2262	0.0023036
2274	0.00251302
2286	0.00404875
2298	0.00642215
2310	0.00872575
2322	0.00795788
2334	0.00649196
2346	0.00886536
2358	0.00677118
2370	0.00670138
2382	0.00488642
2394	0.000628254
2406	0.00069806
2418	0.000558448
2430	0.000628254
2442	0.000628254
2454	0.000558448
2466	0.00069806
2478	0.00069806
2490	0.000767866
2502	0.00139612
2514	0.00132631
2526	0.00160554
2538	0.00174515
2550	0.00174515
2562	0.00160554
2574	0.00174515
2586	0.00209418
2598	0.00293185
2610	0.00314127
2622	0.00376952
2634	0.00425817
2646	0.00565429
2658	0.00607312
2670	0.0069806
2682	0.0080975
2694	0.00858614
2706	0.00753905
2718	0.00725982
2730	0.00732963
2742	0.00767866
2754	0.0080975
2766	0.00907478
2778	0.0103313
2790	0.0128443
2802	0.0162648
2814	0.021221
2826	0.0321108
2838	0.0468398
2850	0.0938193
2862	0.250743
2874	0.199994
2886	0.115878
2898	0.137797
2910	0.258771
2922	0.445851
2934	0.689404
2946	0.551747
2958	0.336046
2970	0.185335
2982	0.0971001
2994	0.0470492
3006	0.0249905
3018	0.0170327
3030	0.0130537
3042	0.0110293
3054	0.00998226
3066	0.00802769
3078	0.0069806
3090	0.00656176
3102	0.00509584
3114	0.004677
3126	0.004677
3138	0.00369972
3150	0.00335069
3162	0.00376952
3174	0.00383933
3186	0.00328088
3198	0.00307146
3210	0.00321108
3222	0.00293185
3234	0.00265263
3246	0.00244321
3258	0.0023734
3270	0.00174515
3282	0.00202437
3294	0.00223379
3306	0.00146593
3318	0.00104709
3330	0.00132631
3342	0.00125651
3354	0.000837672
3366	0.0011867
3378	0.000279224
3390	0.000767866
3402	0.000558448
3414	0.000767866
3426	0.0011169
3438	0.00139612
3450	0.00139612
3462	0.00251302
3474	0.0023734
3486	0.00404875
3498	0.00251302
3510	0.000977284
3522	0.0011867
3534	0.00146593
3546	0.00160554
3558	0.00216399
3570	0.00209418
3582	0.000977284
3594	0.00286205
3606	0.00153573
3618	0.00279224
3630	0.00411855
3642	0.00244321
3654	0.00223379
3666	0.000628254
3678	0.00572409
3690	0.00167534
3702	0.00251302
3714	0.00244321
3726	0.00258282
3738	0.00321108
3750	0.00146593
3762	0.00251302
3774	0.00167534
3786	0.000558448
3798	0.000907478
3810	0.00146593
3822	0.00390914
3834	0.00362991
3846	0.00307146
3858	0.00321108
3870	0.00265263
3882	0.00356011
3894	0.00223379
3906	0.00314127
3918	0.00202437
3930	0.00272243
3942	0.00223379
3954	0.00272243
3966	0.00383933
