Infrared Spectrum: 2-Heptenoic acid
Formula: C 7 H 12 O 2
CAS: 18999-28-5
Origin: Sadtler Research Labs Under US-EPA Contract
1/CM	ABSORBANCE
450	0
462	0.00925733
474	0.00952696
486	0.00835856
498	0.0194134
510	0.0282214
522	0.037299
534	0.0622848
546	0.0910454
558	0.135984
570	0.138411
582	0.107133
594	0.049702
606	0.0340634
618	0.0626443
630	0.0688458
642	0.0804399
654	0.0820577
666	0.0369394
678	0.0301088
690	0.0340634
702	0.0501514
714	0.040894
726	0.0258846
738	0.0197729
750	0.0128524
762	0.0054825
774	0.00413434
786	0.00593188
798	0.010246
810	0.0104257
822	0.00754967
834	0.011684
846	0.0214806
858	0.0300189
870	0.0281315
882	0.0241769
894	0.0238174
906	0.02193
918	0.0185147
930	0.0211211
942	0.0271429
954	0.0300189
966	0.0468259
978	0.0848439
990	0.0905061
1002	0.0488931
1014	0.0403548
1026	0.0558136
1038	0.0503311
1050	0.0300189
1062	0.0408042
1074	0.0603973
1086	0.104437
1098	0.302526
1110	0.474281
1122	0.267744
1134	0.276552
1146	0.344049
1158	0.316906
1170	0.22676
1182	0.108122
1194	0.078912
1206	0.0663292
1218	0.0529376
1230	0.054106
1242	0.0639025
1254	0.0754967
1266	0.0697446
1278	0.077474
1290	0.07307
1302	0.0638127
1314	0.0552744
1326	0.0585099
1338	0.0962583
1350	0.148567
1362	0.184787
1374	0.156026
1386	0.0715421
1398	0.0388269
1410	0.0298392
1422	0.0287606
1434	0.0327152
1446	0.040175
1458	0.0469158
1470	0.044579
1482	0.0214806
1494	0.00817881
1506	0.00566225
1518	0.00314569
1530	0.00278619
1542	0.00413434
1554	0.00287606
1566	0.00242668
1578	0.00377483
1590	0.0035052
1602	0.00386471
1614	0.00638127
1626	0.0133917
1638	0.0351419
1650	0.119447
1662	0.235028
1674	0.0544655
1686	0.0259745
1698	0.0344229
1710	0.0683065
1722	0.102729
1734	0.162408
1746	0.413075
1758	0.835047
1770	0.76728
1782	0.299021
1794	0.116391
1806	0.0576112
1818	0.0294797
1830	0.0183349
1842	0.013122
1854	0.00907758
1866	0.00710028
1878	0.00521287
1890	0.00530274
1902	0.0043141
1914	0.00377483
1926	0.00305582
1938	0.00341533
1950	0.00377483
1962	0.00413434
1974	0.00377483
1986	0.0035052
1998	0.00413434
2010	0.0043141
2022	0.00440397
2034	0.00458373
2046	0.00503311
2058	0.0043141
2070	0.00359508
2082	0.0035052
2094	0.00341533
2106	0.00278619
2118	0.00251656
2130	0.00269631
2142	0.00242668
2154	0.00251656
2166	0.00251656
2178	0.00269631
2190	0.00287606
2202	0.00332545
2214	0.00359508
2226	0.00368496
2238	0.0035052
2250	0.00341533
2262	0.00287606
2274	0.00242668
2286	0.00242668
2298	0.00215705
2310	0.00215705
2322	0.00260643
2334	0.00359508
2346	0.00404446
2358	0.00368496
2370	0.00377483
2382	0.00305582
2394	0.00314569
2406	0.00341533
2418	0.00305582
2430	0.00314569
2442	0.00323557
2454	0.00341533
2466	0.00386471
2478	0.00368496
2490	0.00377483
2502	0.00386471
2514	0.00449385
2526	0.00458373
2538	0.00476348
2550	0.00503311
2562	0.00503311
2574	0.00530274
2586	0.00512299
2598	0.00512299
2610	0.00557237
2622	0.0054825
2634	0.005842
2646	0.00647114
2658	0.00754967
2670	0.00736991
2682	0.00835856
2694	0.00790918
2706	0.00844844
2718	0.00728004
2730	0.00772942
2742	0.0089877
2754	0.00970672
2766	0.00943708
2778	0.00943708
2790	0.0112346
2802	0.0137512
2814	0.016088
2826	0.0192337
2838	0.0279517
2850	0.0492526
2862	0.0932923
2874	0.136433
2886	0.143534
2898	0.105965
2910	0.111178
2922	0.177237
2934	0.312502
2946	0.323288
2958	0.225142
2970	0.304953
2982	0.183888
2994	0.060667
3006	0.0381977
3018	0.0335241
3030	0.0310974
3042	0.0297493
3054	0.0281315
3066	0.0276821
3078	0.0229186
3090	0.0180653
3102	0.0154588
3114	0.0139309
3126	0.0136613
3138	0.0123131
3150	0.0118638
3162	0.0117739
3174	0.0113245
3186	0.011684
3198	0.0106055
3210	0.00952696
3222	0.00871807
3234	0.00862819
3246	0.00808893
3258	0.00692053
3270	0.00674077
3282	0.00611164
3294	0.00521287
3306	0.00530274
3318	0.00458373
3330	0.00449385
3342	0.00629139
3354	0.00530274
3366	0.00521287
3378	0.00530274
3390	0.0054825
3402	0.00620151
3414	0.005842
3426	0.00485336
3438	0.00449385
3450	0.00404446
3462	0.00404446
3474	0.00413434
3486	0.00485336
3498	0.00754967
3510	0.00710028
3522	0.00458373
3534	0.0046736
3546	0.00368496
3558	0.00826868
3570	0.0333444
3582	0.338027
3594	0.221367
3606	0.0205818
3618	0.00719016
3630	0.00566225
3642	0.00754967
3654	0.00449385
3666	0.0046736
3678	0.00521287
3690	0.00413434
3702	0.00458373
3714	0.00494323
3726	0.0035052
3738	0.0043141
3750	0.00305582
3762	0.00512299
3774	0.00620151
3786	0.00476348
3798	0.0054825
3810	0.00494323
3822	0.00512299
3834	0.0054825
3846	0.00530274
3858	0.00449385
3870	0.00494323
3882	0.00386471
3894	0.005842
3906	0.00341533
3918	0.00512299
3930	0.00512299
3942	0.00440397
3954	0.00728004
3966	0.00575213
