Infrared Spectrum: 3-Buten-2-one, 3-methyl-4-phenyl-
Formula: C 11 H 12 O
CAS: 1901-26-4
Origin: Sadtler Research Labs Under US-EPA Contract
1/CM	ABSORBANCE
450	0.00214589
462	0.00325135
474	0.00838848
486	0.0140458
498	0.0260758
510	0.0278966
522	0.0115098
534	0.0213939
546	0.0126152
558	0.00383659
570	0.0107295
582	0.0490304
594	0.0127453
606	0.00910378
618	0.0113797
630	0.00695789
642	0
654	0.00435681
666	0.0104043
678	0.0374556
690	0.0951345
702	0.105669
714	0.0737406
726	0.0880466
738	0.0608653
750	0.0273764
762	0.0348545
774	0.0576139
786	0.0207436
798	0.0113797
810	0.0140458
822	0.0126803
834	0.0106644
846	0.0132655
858	0.0256857
870	0.023995
882	0.0131355
894	0.00871362
906	0.0159966
918	0.0310179
930	0.0290671
942	0.0181425
954	0.0230196
966	0.0377807
978	0.0270512
990	0.0423326
1002	0.0805685
1014	0.0823242
1026	0.0573538
1038	0.0354397
1050	0.0276365
1062	0.0335539
1074	0.0461041
1086	0.0719199
1098	0.115748
1110	0.0753663
1122	0.0323834
1134	0.0187928
1146	0.0130054
1158	0.0134606
1170	0.0156715
1182	0.0256206
1194	0.0543626
1206	0.0931187
1218	0.107164
1230	0.206786
1242	0.341522
1254	0.138182
1266	0.0613855
1278	0.0394714
1290	0.0455189
1302	0.0468845
1314	0.0528019
1326	0.0501358
1338	0.055468
1350	0.0766668
1362	0.148066
1374	0.146441
1386	0.0978656
1398	0.0724401
1410	0.0339441
1422	0.0401217
1434	0.0558582
1446	0.06015
1458	0.0446735
1470	0.0290671
1482	0.0308878
1494	0.0584593
1506	0.031408
1518	0.0116398
1530	0.0113147
1542	0.0124852
1554	0.0132655
1566	0.0172972
1578	0.0230196
1590	0.0306927
1602	0.0454539
1614	0.0475998
1626	0.081804
1638	0.0667827
1650	0.0489653
1662	0.057809
1674	0.134541
1686	0.543626
1698	0.518005
1710	0.149497
1722	0.0693188
1734	0.0468194
1746	0.0319283
1758	0.0179475
1770	0.00916881
1782	0.00728302
1794	0.0103393
1806	0.00871362
1818	0.00403167
1830	0.0033814
1842	0.0033814
1854	0.0040967
1866	0.00526719
1878	0.00526719
1890	0.0065027
1902	0.00500708
1914	0.00195081
1926	0.00351146
1938	0.00630762
1950	0.00864859
1962	0.00877864
1974	0.00227595
1986	0.00130054
1998	0.00110546
2010	0.00117049
2022	0.000975405
2034	0.000325135
2046	0.000260108
2058	0.000520216
2070	0.000715297
2082	0.000325135
2094	0.000585243
2106	0.000520216
2118	6.5027e-05
2130	0.000455189
2142	0.000390162
2154	0.000325135
2166	0.000845351
2178	0.000520216
2190	0.000195081
2202	6.5027e-05
2214	0.000325135
2226	0.000130054
2238	0.000520216
2250	0.00065027
2262	0.00104043
2274	0.000845351
2286	0.00182076
2298	0.0033814
2310	0.00552729
2322	0.00520216
2334	0.00403167
2346	0.00442184
2358	0.00253605
2370	0.002406
2382	0.00351146
2394	0.000585243
2406	0.000195081
2418	0.000325135
2430	0.000455189
2442	0.000455189
2454	0.00065027
2466	0.000455189
2478	0.000975405
2490	0.00065027
2502	0.000715297
2514	0.00065027
2526	0.000585243
2538	0.00104043
2550	0.00117049
2562	0.00130054
2574	0.00136557
2586	0.00201584
2598	0.00162568
2610	0.00143059
2622	0.00136557
2634	0.000975405
2646	0.000845351
2658	0.000715297
2670	0.000780324
2682	0.00104043
2694	0.00110546
2706	0.00143059
2718	0.00149562
2730	0.00123551
2742	0.00188578
2754	0.00208086
2766	0.00214589
2778	0.00260108
2790	0.00286119
2802	0.00396665
2814	0.00468194
2826	0.00552729
2838	0.00663275
2850	0.00851854
2862	0.0129404
2874	0.016972
2886	0.0174272
2898	0.0158016
2910	0.0181425
2922	0.0287419
2934	0.048055
2946	0.0498757
2958	0.0431129
2970	0.0469495
2982	0.0431779
2994	0.0441533
3006	0.0528019
3018	0.0636614
3030	0.0782275
3042	0.0756264
3054	0.0671079
3066	0.111781
3078	0.102613
3090	0.0676281
3102	0.0472746
3114	0.026401
3126	0.01203
3138	0.00786827
3150	0.00702292
3162	0.00474697
3174	0.00253605
3186	0.00227595
3198	0.00221092
3210	0.00201584
3222	0.00156065
3234	0.00156065
3246	0.000975405
3258	0.00110546
3270	0.000845351
3282	0.00136557
3294	0.00162568
3306	0.00156065
3318	0.00214589
3330	0.00247103
3342	0.00396665
3354	0.00799832
3366	0.00942891
3378	0.00435681
3390	0.00331638
3402	0.00253605
3414	0.00149562
3426	0.00130054
3438	0.00136557
3450	0.000910378
3462	0.000780324
3474	0.000715297
3486	0.000715297
3498	0.000390162
3510	0.000390162
3522	0.00065027
3534	0.00065027
3546	0.00104043
3558	0.00110546
3570	0.000780324
3582	0.00156065
3594	0.00065027
3606	0.000520216
3618	0.000845351
3630	0.00143059
3642	0.00130054
3654	0.00149562
3666	0.00143059
3678	0.00130054
3690	0.00136557
3702	0.00117049
3714	0.000780324
3726	0.00136557
3738	0.000845351
3750	0.00123551
3762	0.000260108
3774	0.000910378
3786	0.000195081
3798	0
3810	0.00149562
3822	0.00123551
3834	0.00182076
3846	0.00143059
3858	0.00123551
3870	0.00188578
3882	0.0016907
3894	0.00188578
3906	0.00117049
3918	0.00188578
3930	0.00175573
3942	0.00123551
3954	0.00130054
3966	0.000845351
