Infrared Spectrum: Benzenesulfonamide, N-butyl-4-methyl-
Formula: C 11 H 17 N O 2 S
CAS: 1907-65-9
Origin: Sadtler Research Labs Under US-EPA Contract
1/CM	ABSORBANCE
450	0.0293542
462	0.0298831
474	0.0443618
486	0.0280319
498	0.0529565
510	0.0776167
522	0.0491881
534	0.097715
546	0.213016
558	0.14168
570	0.0592372
582	0.149746
594	0.179893
606	0.0454196
618	0.022809
630	0.034511
642	0.0858808
654	0.270402
666	0.36296
678	0.156688
690	0.0606256
702	0.071402
714	0.055601
726	0.0306764
738	0.0274369
750	0.0399984
762	0.0168588
774	0.010512
786	0.0136854
798	0.0556671
810	0.147763
822	0.0843602
834	0.0845585
846	0.133747
858	0.158803
870	0.0883931
882	0.0531549
894	0.0343788
906	0.0366266
918	0.0446263
930	0.0595678
942	0.0621462
954	0.0903104
966	0.164886
978	0.301145
990	0.274567
1002	0.0920954
1014	0.0526259
1026	0.0429073
1038	0.027503
1050	0.0201645
1062	0.0121648
1074	0.0265113
1086	0.108425
1098	0.236618
1110	0.0610884
1122	0.0390067
1134	0.0472708
1146	0.136061
1158	0.559448
1170	0.460279
1182	0.169977
1194	0.129912
1206	0.161779
1218	0.161183
1230	0.151663
1242	0.061419
1254	0.0279658
1266	0.0292881
1278	0.0366266
1290	0.0401967
1302	0.056196
1314	0.0615512
1326	0.108624
1338	0.317871
1350	0.372943
1362	0.17996
1374	0.202504
1386	0.297905
1398	0.304781
1410	0.18472
1422	0.150143
1434	0.0780795
1446	0.0632701
1458	0.0627412
1470	0.0759638
1482	0.075501
1494	0.0770878
1506	0.0446263
1518	0.0194372
1530	0.0185116
1542	0.00852858
1554	0.0107103
1566	0.015801
1578	0.0199661
1590	0.0278336
1602	0.0571216
1614	0.0320648
1626	0.0241312
1638	0.0246601
1650	0.0256518
1662	0.0206273
1674	0.0179827
1686	0.00945416
1698	0.00852858
1710	0.00766911
1722	0.00595017
1734	0.00634685
1746	0.0110409
1758	0.00780133
1770	0.00945416
1782	0.0126276
1794	0.0175861
1806	0.0121648
1818	0.00852858
1830	0.00634685
1842	0.00707409
1854	0.00707409
1866	0.00932193
1878	0.00786745
1890	0.0103136
1902	0.0169249
1914	0.0183794
1926	0.0104459
1938	0.0101814
1950	0.00918971
1962	0.0115698
1974	0.00753688
1986	0.0071402
1998	0.0100492
2010	0.00839635
2022	0.0056196
2034	0.00892525
2046	0.0066113
2058	0.0071402
2070	0.0109748
2082	0.0101814
2094	0.00799967
2106	0.0106442
2118	0.0102475
2130	0.0102475
2142	0.00753688
2154	0.00667741
2166	0.00938805
2178	0.00938805
2190	0.00654519
2202	0.0081319
2214	0.00674353
2226	0.00621462
2238	0.00780133
2250	0.00892525
2262	0.00859469
2274	0.00945416
2286	0.0109748
2298	0.0114375
2310	0.0060824
2322	0.00284286
2334	0.00833024
2346	0.00680964
2358	0.00158671
2370	0.00998306
2382	0.0110409
2394	0.0104459
2406	0.0102475
2418	0.0096525
2430	0.0101814
2442	0.0081319
2454	0.00899137
2466	0.0116359
2478	0.0066113
2490	0.00839635
2502	0.0127598
2514	0.00753688
2526	0.0066113
2538	0.00991695
2550	0.00998306
2562	0.0124954
2574	0.012892
2586	0.012892
2598	0.0141482
2610	0.0114375
2622	0.011702
2634	0.0122309
2646	0.00786745
2658	0.00952027
2670	0.0139498
2682	0.011702
2694	0.0108425
2706	0.0110409
2718	0.0129581
2730	0.016991
2742	0.0171233
2754	0.0169249
2766	0.0175861
2778	0.0156027
2790	0.0175199
2802	0.0184455
2814	0.0178505
2826	0.0212223
2838	0.0306764
2850	0.0390728
2862	0.0559977
2874	0.0870708
2886	0.112194
2898	0.109086
2910	0.122243
2922	0.160588
2934	0.19067
2946	0.200984
2958	0.171695
2970	0.263791
2982	0.321904
2994	0.162836
3006	0.116888
3018	0.066113
3030	0.0700137
3042	0.0737821
3054	0.070212
3066	0.0672369
3078	0.0532871
3090	0.0464774
3102	0.0454857
3114	0.0240651
3126	0.0197017
3138	0.0149415
3150	0.0149415
3162	0.0159993
3174	0.0156027
3186	0.0115037
3198	0.0146771
3210	0.0105781
3222	0.0181811
3234	0.0193711
3246	0.0149415
3258	0.0162638
3270	0.0232057
3282	0.0169249
3294	0.0150077
3306	0.0142804
3318	0.0177183
3330	0.0173877
3342	0.0200984
3354	0.0202967
3366	0.0250568
3378	0.0250568
3390	0.049717
3402	0.0812529
3414	0.0463452
3426	0.0210239
3438	0.018115
3450	0.0161977
3462	0.0141482
3474	0.00952027
3486	0.0175861
3498	0.0145449
3510	0.0130904
3522	0.0167927
3534	0.0179827
3546	0.0132887
3558	0.0227429
3570	0.0166605
3582	0.0120326
3594	0.0131565
3606	0.0134209
3618	0.0115698
3630	0.0143465
3642	0.00998306
3654	0.0159993
3666	0.0134209
3678	0.0116359
3690	0.0124954
3702	0.0138837
3714	0.0140821
3726	0.0165944
3738	0.015206
3750	0.0104459
3762	0.0132887
3774	0.0162638
3786	0.0135532
3798	0.0108425
3810	0.0120326
3822	0.0183794
3834	0.0150738
3846	0.0150738
3858	0.0125615
3870	0.0130904
3882	0.0154043
3894	0.0187761
3906	0.0138176
3918	0.014611
3930	0.0158671
3942	0.0203628
3954	0
3966	0.00158671
