Infrared Spectrum: Hexadecanedioic acid, dimethyl ester
Formula: C 18 H 34 O 4
CAS: 19102-90-0
Origin: Sadtler Research Labs Under US-EPA Contract
1/CM	ABSORBANCE
450	0.0179313
462	0.0093881
474	0.00844929
486	0.00713496
498	0.00431853
510	0.00253479
522	0.00478793
534	0.00319195
546	0.00356748
558	0.00460017
570	0.00647779
582	0.00713496
594	0.0103269
606	0.00995139
618	0.0101391
630	0.00779212
642	0.00948198
654	0.00732272
666	0.00525734
678	0.00694719
690	0.011078
702	0.0158659
714	0.0258173
726	0.0288215
738	0.0235641
750	0.0205599
762	0.0201844
774	0.0200905
786	0.0192456
798	0.0191517
810	0.0255356
822	0.0325767
834	0.0368014
846	0.0391484
858	0.0385851
870	0.0356748
882	0.0308868
894	0.0217804
906	0.0155842
918	0.0128617
930	0.0111718
942	0.011829
954	0.0138944
966	0.0199028
978	0.0305113
990	0.0467527
1002	0.0690025
1014	0.0878726
1026	0.0864644
1038	0.0730394
1050	0.0687209
1062	0.0738843
1074	0.0764191
1086	0.0809254
1098	0.104959
1110	0.131246
1122	0.144389
1134	0.181941
1146	0.257328
1158	0.370548
1170	0.441053
1182	0.394206
1194	0.360315
1206	0.341633
1218	0.310464
1230	0.302954
1242	0.307366
1254	0.283615
1266	0.218179
1278	0.168047
1290	0.142417
1302	0.132748
1314	0.127678
1326	0.117915
1338	0.122421
1350	0.15021
1362	0.152557
1374	0.103832
1386	0.0550143
1398	0.0392423
1410	0.0447812
1422	0.0730394
1434	0.172178
1446	0.166733
1458	0.152651
1470	0.10862
1482	0.0455323
1494	0.02685
1506	0.0199967
1518	0.0170863
1530	0.0148332
1542	0.0137066
1554	0.013425
1566	0.0124862
1578	0.0128617
1590	0.0106086
1602	0.010233
1614	0.00957586
1626	0.00976362
1638	0.00948198
1650	0.0112657
1662	0.0123923
1674	0.0167108
1686	0.0261928
1698	0.0424342
1710	0.0717251
1722	0.138005
1734	0.295068
1746	0.534089
1758	0.670123
1770	0.417677
1782	0.198089
1794	0.074917
1806	0.0321073
1818	0.0169925
1830	0.011078
1842	0.00835541
1854	0.00694719
1866	0.00638391
1878	0.0059145
1890	0.0054451
1902	0.00506957
1914	0.00469405
1926	0.00478793
1938	0.00535122
1950	0.00610226
1962	0.00638391
1974	0.00694719
1986	0.00751048
1998	0.00835541
2010	0.00882481
2022	0.00966974
2034	0.0100453
2046	0.0100453
2058	0.00901258
2070	0.00816765
2082	0.00713496
2094	0.00600838
2106	0.00450629
2118	0.00337972
2130	0.00300419
2142	0.00300419
2154	0.00262867
2166	0.00281643
2178	0.00244091
2190	0.00206538
2202	0.00168986
2214	0.00178374
2226	0.00178374
2238	0.00112657
2250	0.00159598
2262	0.00131433
2274	0.00187762
2286	0.0019715
2298	0.00262867
2310	0.00291031
2322	0.00225314
2334	0.00225314
2346	0.0034736
2358	0.00159598
2370	0.00291031
2382	0.00319195
2394	0.00131433
2406	0.00093881
2418	0.000563286
2430	0.000469405
2442	0.000469405
2454	0.000657167
2466	0.000281643
2478	0.000563286
2490	0.00093881
2502	0.000657167
2514	0.00140821
2526	0.0015021
2538	0.00206538
2550	0.00234702
2562	0.00291031
2574	0.00281643
2586	0.00366136
2598	0.00441241
2610	0.00506957
2622	0.00572674
2634	0.00675943
2646	0.0074166
2658	0.00835541
2670	0.00966974
2682	0.0109841
2694	0.0106086
2706	0.00957586
2718	0.00948198
2730	0.00929422
2742	0.00957586
2754	0.0109841
2766	0.0129556
2778	0.0153965
2790	0.0196211
2802	0.0264744
2814	0.0355809
2826	0.0515407
2838	0.0860889
2850	0.199967
2862	0.399745
2874	0.26634
2886	0.174806
2898	0.20851
2910	0.339286
2922	0.590605
2934	0.93881
2946	0.639142
2958	0.41533
2970	0.229164
2982	0.131152
2994	0.0965097
3006	0.0777335
3018	0.0618676
3030	0.0509774
3042	0.0357687
3054	0.025254
3066	0.0190578
3078	0.0158659
3090	0.0138005
3102	0.011829
3114	0.00948198
3126	0.00854317
3138	0.0059145
3150	0.00506957
3162	0.00478793
3174	0.0034736
3186	0.00300419
3198	0.00272255
3210	0.0019715
3222	0.00187762
3234	0.000751048
3246	0.00131433
3258	0.00093881
3270	0.00131433
3282	0.0015021
3294	0.00122045
3306	0.00112657
3318	0.00122045
3330	0.00140821
3342	0.0019715
3354	0.0019715
3366	0.00187762
3378	0.00122045
3390	0.00187762
3402	0.00244091
3414	0.00140821
3426	0.00187762
3438	0.00206538
3450	0.00272255
3462	0.00497569
3474	0.00497569
3486	0.00563286
3498	0.00600838
3510	0.00450629
3522	0.00215926
3534	0.000844929
3546	0.000751048
3558	0.00122045
3570	0.00272255
3582	0.00234702
3594	0.00300419
3606	0.00168986
3618	0.0034736
3630	0.00422464
3642	0.00328583
3654	0.00291031
3666	0.00225314
3678	0.0034736
3690	0.00225314
3702	0.00225314
3714	0.00225314
3726	0.00309807
3738	0.00403688
3750	0.00215926
3762	0.0019715
3774	0.00234702
3786	0.00187762
3798	0.00413076
3810	0.00272255
3822	0.00403688
3834	0.00403688
3846	0.00234702
3858	0.00441241
3870	0.00319195
3882	0.00291031
3894	0.00375524
3906	0.00431853
3918	0.00234702
3930	0.0034736
3942	0.00478793
3954	0.00441241
3966	0.00600838
