Infrared Spectrum: Atrazine
Formula: C 8 H 14 Cl N 5
CAS: 1912-24-9
Origin: Sadtler Research Labs Under US-EPA Contract
1/CM	ABSORBANCE
450	0.00667735
462	0.00738556
474	0.00986427
486	0.0149229
498	0.0162381
510	0.0141641
522	0.0106736
534	0.00951017
546	0.00885255
558	0.00632325
570	0.00475508
582	0.00394571
594	0.00283282
606	0.00177051
618	0.00192227
630	0.00126465
642	0.00111289
654	0.00025293
666	0.000859962
678	0.00171992
690	0.00146699
702	0.00146699
714	0.00197285
726	0.00187168
738	0.000859962
750	0.00121406
762	0.000404688
774	0.000910548
786	0.00298457
798	0.00682911
810	0.0197791
822	0.0097631
834	0.00642442
846	0.00546329
858	0.00465391
870	0.00713263
882	0.012343
894	0.0113819
906	0.011483
918	0.0148723
930	0.015024
942	0.00945958
954	0.00956075
966	0.0139617
978	0.0222073
990	0.0238766
1002	0.011736
1014	0.0075879
1026	0.00591856
1038	0.00935841
1050	0.0139617
1062	0.00900431
1074	0.00612091
1086	0.0057668
1098	0.00561505
1110	0.00763849
1122	0.0140629
1134	0.0225108
1146	0.0342973
1158	0.0253942
1170	0.0402665
1182	0.0434028
1194	0.0193239
1206	0.0204367
1218	0.0238766
1230	0.0186662
1242	0.0160358
1254	0.0265576
1266	0.0363207
1278	0.0220049
1290	0.0192733
1302	0.0346514
1314	0.0603491
1326	0.0640925
1338	0.0772954
1350	0.0735015
1362	0.0416829
1374	0.0537729
1386	0.0607032
1398	0.0443133
1410	0.044971
1422	0.0416323
1434	0.0260012
1446	0.0320715
1458	0.0461344
1470	0.0611585
1482	0.0809882
1494	0.137999
1506	0.166327
1518	0.137189
1530	0.122469
1542	0.144878
1554	0.232038
1566	0.373122
1578	0.50586
1590	0.259101
1602	0.0902454
1614	0.0435545
1626	0.0259
1638	0.0155299
1650	0.0103701
1662	0.00743614
1674	0.00647501
1686	0.00607032
1698	0.00546329
1710	0.00404688
1722	0.00384454
1734	0.00404688
1746	0.00359161
1758	0.0025293
1770	0.00207403
1782	0.00161875
1794	0.0021752
1806	0.00161875
1818	0.00166934
1830	0.00166934
1842	0.00166934
1854	0.00166934
1866	0.00161875
1878	0.00116348
1890	0.00116348
1902	0.00116348
1914	0.00121406
1926	0.00116348
1938	0.00106231
1950	0.00075879
1962	0.00075879
1974	0.000708204
1986	0.00075879
1998	0.00075879
2010	0.00075879
2022	0.00075879
2034	0.000809376
2046	0.000809376
2058	0.000809376
2070	0.000809376
2082	0.000859962
2094	0.000859962
2106	0.000859962
2118	0.000859962
2130	0.000859962
2142	0.000859962
2154	0.000910548
2166	0.000910548
2178	0.000859962
2190	0.000859962
2202	0.000859962
2214	0.000859962
2226	0.000859962
2238	0.000859962
2250	0.00131524
2262	0.00131524
2274	0.00131524
2286	0.00171992
2298	0.00227637
2310	0.0021752
2322	0.00161875
2334	0.00171992
2346	0.00166934
2358	0.00121406
2370	0.00171992
2382	0.00166934
2394	0.00111289
2406	0.00116348
2418	0.00106231
2430	0.00116348
2442	0.00106231
2454	0.00156817
2466	0.00151758
2478	0.00171992
2490	0.00202344
2502	0.00202344
2514	0.00156817
2526	0.00187168
2538	0.00151758
2550	0.00156817
2562	0.00101172
2574	0.00101172
2586	0.000910548
2598	0.000910548
2610	0.000961134
2622	0.000910548
2634	0.000910548
2646	0.000910548
2658	0.000455274
2670	0.000859962
2682	0.000910548
2694	0.000910548
2706	0.000961134
2718	0.00146699
2730	0.00141641
2742	0.00141641
2754	0.00146699
2766	0.00197285
2778	0.00192227
2790	0.00202344
2802	0.00207403
2814	0.00192227
2826	0.0025293
2838	0.00247871
2850	0.00349043
2862	0.00480567
2874	0.00915607
2886	0.015884
2898	0.0124442
2910	0.0131524
2922	0.0161875
2934	0.0215496
2946	0.0259
2958	0.0187674
2970	0.0297446
2982	0.0494225
2994	0.0291375
3006	0.00849845
3018	0.00460333
3030	0.00298457
3042	0.00222578
3054	0.00171992
3066	0.00171992
3078	0.0018211
3090	0.00166934
3102	0.00177051
3114	0.00177051
3126	0.0018211
3138	0.00187168
3150	0.00136582
3162	0.000859962
3174	0.00141641
3186	0.000859962
3198	0.000910548
3210	0.000961134
3222	0.000910548
3234	0.00050586
3246	0.00050586
3258	0.00050586
3270	0.00050586
3282	0.000455274
3294	0.000556446
3306	0.000556446
3318	0.000455274
3330	5.0586e-05
3342	0.000607032
3354	0.000607032
3366	0.000556446
3378	0.000556446
3390	0.000657618
3402	0.00111289
3414	0.00156817
3426	0.00394571
3438	0.0121406
3450	0.026153
3462	0.0277717
3474	0.0148217
3486	0.00374336
3498	0.00171992
3510	0.00121406
3522	0.00131524
3534	0.000708204
3546	0.000809376
3558	0.000809376
3570	0.00141641
3582	0.00126465
3594	0.000809376
3606	0.000809376
3618	0.00131524
3630	0.00136582
3642	0.000859962
3654	0.000859962
3666	0.000961134
3678	0.00136582
3690	0.00131524
3702	0.00141641
3714	0.00141641
3726	0.00151758
3738	0.00146699
3750	0.00187168
3762	0.00141641
3774	0.00131524
3786	0.00156817
3798	0.00156817
3810	0.00197285
3822	0.00151758
3834	0.00151758
3846	0.00177051
3858	0.00212461
3870	0.00207403
3882	0.00257989
3894	0.00207403
3906	0.00212461
3918	0.00212461
3930	0.00207403
3942	0.00263047
3954	0
3966	0.000202344
