Infrared Spectrum: Benzoic acid, 3,4,5-trimethoxy-, methyl ester
Formula: C 11 H 14 O 5
CAS: 1916-07-0
Origin: Sadtler Research Labs Under US-EPA Contract
1/CM	ABSORBANCE
450	0.0100007
462	0.016155
474	0.00953913
486	0.00584657
498	0.00307714
510	0.00261557
522	0.00769285
534	0.0127701
546	0.00876985
558	0.00276943
570	0.000615428
582	0.000153857
594	0.000615428
606	0.001077
618	0.000769285
630	0.00276943
642	0.003231
654	0.00907756
666	0.0127701
678	0.011847
690	0.0141548
702	0.0243094
714	0.0563117
726	0.101546
738	0.048465
750	0.0395412
762	0.166319
774	0.146472
786	0.042003
798	0.0123086
810	0.004308
822	0.004308
834	0.00569271
846	0.0135394
858	0.0261557
870	0.0407721
882	0.0561578
894	0.104623
906	0.0510805
918	0.0286174
930	0.0375411
942	0.0286174
954	0.0230785
966	0.0263095
978	0.0421568
990	0.0984685
1002	0.263865
1014	0.496189
1026	0.268942
1038	0.356641
1050	0.231401
1062	0.108931
1074	0.144164
1086	0.268634
1098	0.48865
1110	0.719743
1122	0.810211
1134	0.673124
1146	0.383412
1158	0.216477
1170	0.311714
1182	0.479726
1194	0.39972
1206	0.554962
1218	1.25624
1230	1.39871
1242	0.696972
1254	0.361872
1266	0.182321
1278	0.143549
1290	0.17832
1302	0.216323
1314	0.315253
1326	0.771747
1338	1.43272
1350	0.594811
1362	0.175859
1374	0.0993916
1386	0.0987762
1398	0.202168
1410	0.566194
1422	0.489881
1434	0.464648
1446	0.308176
1458	0.35264
1470	0.327562
1482	0.229247
1494	0.400028
1506	0.314484
1518	0.0960068
1530	0.0667739
1542	0.0684664
1554	0.0864676
1566	0.154934
1578	0.349255
1590	0.419106
1602	0.18709
1614	0.0812365
1626	0.0456955
1638	0.0320023
1650	0.0253864
1662	0.0243094
1674	0.0212323
1686	0.0246171
1698	0.0589272
1710	0.0583118
1722	0.0938528
1734	0.665278
1746	1.03115
1758	0.137087
1770	0.0604658
1782	0.0763131
1794	0.0340024
1806	0.0132317
1818	0.00569271
1830	0.000923142
1842	0.00246171
1854	0.00400028
1866	0.00153857
1878	0.00169243
1890	0.00169243
1902	0.00138471
1914	0.000307714
1926	0.000615428
1938	0.00138471
1950	0.004308
1962	0.00953913
1974	0.0106161
1986	0.00830828
1998	0.0106161
2010	0.0144626
2022	0.0167704
2034	0.0136933
2046	0.00907756
2058	0.00476957
2070	0.00353871
2082	0.00400028
2094	0.00676971
2106	0.0115393
2118	0.0149241
2130	0.0121547
2142	0.00907756
2154	0.00707742
2166	0.00369257
2178	0.002154
2190	0.000769285
2202	0
2214	0.000153857
2226	0.000769285
2238	0.000461571
2250	0.00169243
2262	0.00384643
2274	0.00307714
2286	0.00184628
2298	0.00138471
2310	0.00169243
2322	0.00276943
2334	0.00261557
2346	0.00384643
2358	0.00307714
2370	0.00276943
2382	0.00276943
2394	0.000461571
2406	0.000307714
2418	0.00138471
2430	0.00261557
2442	0.00353871
2454	0.00353871
2466	0.00307714
2478	0.00307714
2490	0.00353871
2502	0.00338485
2514	0.00353871
2526	0.003231
2538	0.00338485
2550	0.00523114
2562	0.00646199
2574	0.00676971
2586	0.00661585
2598	0.00738514
2610	0.00800056
2622	0.00784671
2634	0.00876985
2646	0.00784671
2658	0.00707742
2670	0.00646199
2682	0.00584657
2694	0.00446185
2706	0.00400028
2718	0.00476957
2730	0.00569271
2742	0.00692357
2754	0.00784671
2766	0.00815442
2778	0.0101546
2790	0.0138471
2802	0.0195398
2814	0.0324638
2826	0.0644661
2838	0.170627
2850	0.192629
2862	0.1077
2874	0.107392
2886	0.119085
2898	0.132625
2910	0.142779
2922	0.17432
2934	0.221246
2946	0.416799
2958	0.470033
2970	0.298021
2982	0.173551
2994	0.197245
3006	0.282174
3018	0.171243
3030	0.0936989
3042	0.0610812
3054	0.0470802
3066	0.0421568
3078	0.0416952
3090	0.0370795
3102	0.0320023
3114	0.0232324
3126	0.0149241
3138	0.0106161
3150	0.00815442
3162	0.00692357
3174	0.00630814
3186	0.00507728
3198	0.00446185
3210	0.003231
3222	0.00261557
3234	0.00184628
3246	0.00169243
3258	0.00138471
3270	0.001077
3282	0.00138471
3294	0.000615428
3306	0.00184628
3318	0.00200014
3330	0.00230786
3342	0.00261557
3354	0.00138471
3366	0.00123086
3378	0.00184628
3390	0.001077
3402	0.000769285
3414	0.000923142
3426	0.00169243
3438	0.002154
3450	0.00307714
3462	0.00815442
3474	0.00353871
3486	0.000461571
3498	0.001077
3510	0.00153857
3522	0.000461571
3534	0.00123086
3546	0.000461571
3558	0.000307714
3570	0.00184628
3582	0.00630814
3594	0.00369257
3606	0.00123086
3618	0.000307714
3630	0.00123086
3642	0.000615428
3654	0.000615428
3666	0.000923142
3678	0
3690	0.001077
3702	0.000153857
3714	0.000461571
3726	0.000153857
3738	0.000307714
3750	0.000923142
3762	0.000307714
3774	0.000461571
3786	0.000615428
3798	0.000615428
3810	0.000923142
3822	0
3834	0.000923142
3846	0.001077
3858	0.00123086
3870	0.000307714
3882	0.00169243
3894	0.000153857
3906	0.002154
3918	0.000769285
3930	0
3942	0.001077
3954	0.00246171
3966	0.00246171
