Infrared Spectrum: Pentanedioic acid, 3,3-dimethyl-, dimethyl ester
Formula: C 9 H 16 O 4
CAS: 19184-67-9
Origin: Sadtler Research Labs Under US-EPA Contract
1/CM	ABSORBANCE
450	0.0128274
462	0.00682484
474	0.00575589
486	0.00583812
498	0.00526253
510	0.00435803
522	0.00723598
534	0.00361799
546	0.00328908
558	0.00402912
570	0.00402912
582	0.00419358
594	0.00830493
606	0.00896274
618	0.00904497
630	0.00929165
642	0.0101139
654	0.00682484
666	0.00411135
678	0.0030424
690	0.0042758
702	0.00411135
714	0.010854
726	0.0155409
738	0.0142253
750	0.0110184
762	0.0100317
774	0.0113473
786	0.0111006
798	0.011594
810	0.0127452
822	0.0152942
834	0.0201456
846	0.0248326
858	0.0266415
870	0.0256548
882	0.0272171
894	0.0298484
906	0.0240925
918	0.0219546
930	0.0162809
942	0.00896274
954	0.00550921
966	0.00649593
978	0.0094561
990	0.0166921
1002	0.0389756
1014	0.120545
1026	0.17465
1038	0.107142
1050	0.0488428
1062	0.0264771
1074	0.024257
1086	0.0337131
1098	0.0703041
1110	0.154587
1122	0.213626
1134	0.307611
1146	0.441888
1158	0.504709
1170	0.38474
1182	0.277105
1194	0.28171
1206	0.341735
1218	0.414013
1230	0.408504
1242	0.296428
1254	0.18756
1266	0.138881
1278	0.124574
1290	0.119065
1302	0.0895452
1314	0.0872428
1326	0.136661
1338	0.209843
1350	0.233525
1362	0.21009
1374	0.133126
1386	0.0595323
1398	0.0410313
1410	0.0333842
1422	0.0449782
1434	0.136415
1446	0.17095
1458	0.082967
1470	0.0856805
1482	0.0655349
1494	0.0241747
1506	0.0145542
1518	0.0110184
1530	0.00929165
1542	0.0101139
1554	0.00953833
1566	0.00929165
1578	0.0101139
1590	0.00978501
1602	0.00953833
1614	0.00863383
1626	0.00846938
1638	0.00764711
1650	0.00855161
1662	0.00748266
1674	0.0102784
1686	0.0154587
1698	0.0256548
1710	0.0439092
1722	0.0805002
1734	0.185751
1746	0.483413
1758	0.82227
1770	0.440243
1782	0.142993
1794	0.044567
1806	0.01957
1818	0.0107717
1830	0.00715375
1842	0.00509807
1854	0.00402912
1866	0.0042758
1878	0.00411135
1890	0.00386467
1902	0.00328908
1914	0.00345353
1926	0.00328908
1938	0.00370021
1950	0.00402912
1962	0.00452248
1974	0.00452248
1986	0.00444026
1998	0.00542698
2010	0.00690707
2022	0.00888052
2034	0.0101961
2046	0.00937388
2058	0.00772934
2070	0.00707152
2082	0.00616702
2094	0.00509807
2106	0.00378244
2118	0.00328908
2130	0.00254904
2142	0.0021379
2154	0.00189122
2166	0.00164454
2178	0.00156231
2190	0.00082227
2202	0.00082227
2214	0.000493362
2226	0.00082227
2238	0.00082227
2250	0.00115118
2262	0.000411135
2274	0.000904497
2286	0.00131563
2298	0.00189122
2310	0.00263126
2322	0.00271349
2334	0.00197345
2346	0.00238458
2358	0.00164454
2370	0.00238458
2382	0.0021379
2394	0.000740043
2406	0.000493362
2418	0.000575589
2430	0.000411135
2442	0.000493362
2454	0.000411135
2466	0.000493362
2478	0.000328908
2490	0.000493362
2502	0.000411135
2514	0.000246681
2526	0.000246681
2538	0.000411135
2550	0.000575589
2562	0.00082227
2574	0.000904497
2586	0.00106895
2598	0.00172677
2610	0.00205567
2622	0.00205567
2634	0.00189122
2646	0.00197345
2658	0.00205567
2670	0.00189122
2682	0.00164454
2694	0.0012334
2706	0.00148009
2718	0.00197345
2730	0.00271349
2742	0.00320685
2754	0.00378244
2766	0.00345353
2778	0.0039469
2790	0.0042758
2802	0.00435803
2814	0.00624925
2826	0.0100317
2838	0.01883
2850	0.0440737
2862	0.0309174
2874	0.0415246
2886	0.068084
2898	0.0726887
2910	0.0820625
2922	0.101468
2934	0.116433
2946	0.151709
2958	0.304898
2970	0.287301
2982	0.144226
2994	0.11002
3006	0.0754022
3018	0.0521319
3030	0.047445
3042	0.030424
3054	0.0185011
3066	0.013403
3078	0.012663
3090	0.0112651
3102	0.00994947
3114	0.00830493
3126	0.00666039
3138	0.00567366
3150	0.00468694
3162	0.00378244
3174	0.0039469
3186	0.0039469
3198	0.00402912
3210	0.00320685
3222	0.00328908
3234	0.00279572
3246	0.00238458
3258	0.0021379
3270	0.00180899
3282	0.00205567
3294	0.00164454
3306	0.00222013
3318	0.00189122
3330	0.00156231
3342	0.00238458
3354	0.00189122
3366	0.00246681
3378	0.00115118
3390	0.00189122
3402	0.00189122
3414	0.00164454
3426	0.00189122
3438	0.00180899
3450	0.00222013
3462	0.00238458
3474	0.00386467
3486	0.00674261
3498	0.00575589
3510	0.00263126
3522	0.000411135
3534	0.000575589
3546	0.00082227
3558	0.000904497
3570	0.00164454
3582	0.00148009
3594	0.00106895
3606	0.000575589
3618	0.00131563
3630	0.00164454
3642	0.000904497
3654	0.00131563
3666	0.000986724
3678	0.0021379
3690	0.000986724
3702	8.2227e-05
3714	0.00172677
3726	0.000575589
3738	0.00246681
3750	0.00156231
3762	0.00222013
3774	0.00164454
3786	0.00115118
3798	0.00254904
3810	0.00156231
3822	0.0030424
3834	0.00263126
3846	0.00148009
3858	0.00263126
3870	0.00287794
3882	0.00238458
3894	0.00205567
3906	0.00337131
3918	0.00180899
3930	0.00328908
3942	0.00337131
3954	0.00402912
3966	0.00238458
