Infrared Spectrum: 2H-Pyran-2-carboxaldehyde, 3,4-dihydro-2,5-dimethyl-
Formula: C 8 H 12 O 2
CAS: 1920-21-4
Origin: Sadtler Research Labs Under US-EPA Contract
1/CM	ABSORBANCE
450	0
462	0.0643667
474	0.0618333
486	0.0194226
498	0.022519
510	0.047196
522	0.0561097
534	0.0380946
546	0.0349044
558	0.0226128
570	0.0295561
582	0.0414724
594	0.039502
606	0.0431613
618	0.0376254
630	0.0365933
642	0.0326525
654	0.0331216
666	0.0445688
678	0.0735619
690	0.0927969
702	0.0627716
714	0.0486973
726	0.0677445
738	0.087261
750	0.0924216
762	0.0598629
774	0.0606135
786	0.0619271
798	0.0486973
810	0.0364995
822	0.0377193
834	0.0629593
846	0.110531
858	0.0947673
870	0.0978636
882	0.12376
894	0.0882931
906	0.0730928
918	0.0858535
930	0.0787225
942	0.0753447
954	0.0623025
966	0.0518874
978	0.0559221
990	0.0896067
1002	0.130704
1014	0.112126
1026	0.0852906
1038	0.0621148
1050	0.0480404
1062	0.0710286
1074	0.115973
1086	0.113064
1098	0.120383
1110	0.159509
1122	0.219185
1134	0.461076
1146	0.620397
1158	0.932191
1170	0.719762
1182	0.278109
1194	0.216839
1206	0.180339
1218	0.101241
1230	0.0925154
1242	0.124699
1254	0.147875
1266	0.117849
1278	0.0635222
1290	0.0412848
1302	0.0395958
1314	0.0418477
1326	0.0512306
1338	0.0484158
1350	0.0488849
1362	0.0741249
1374	0.136897
1386	0.142526
1398	0.0611765
1410	0.0379069
1422	0.0487911
1434	0.0927031
1446	0.160166
1458	0.166359
1470	0.104807
1482	0.0451317
1494	0.0305883
1506	0.0262721
1518	0.0256153
1530	0.024677
1542	0.0230819
1554	0.0253338
1566	0.0273981
1578	0.0283364
1590	0.0276796
1602	0.0288993
1614	0.0315265
1626	0.0381884
1638	0.0585493
1650	0.0885746
1662	0.172082
1674	0.348293
1686	0.246583
1698	0.123479
1710	0.0820065
1722	0.0887622
1734	0.272292
1746	0.765082
1758	0.636911
1770	0.133425
1782	0.0664309
1794	0.0635222
1806	0.0582678
1818	0.0397835
1830	0.0342476
1842	0.0332155
1854	0.0312451
1866	0.0264598
1878	0.0262721
1890	0.0245832
1902	0.0236449
1914	0.0233634
1926	0.0220498
1938	0.022519
1950	0.0222375
1962	0.0217683
1974	0.0217683
1986	0.021956
1998	0.0215807
2010	0.0221436
2022	0.0235511
2034	0.0244894
2046	0.0235511
2058	0.0212054
2070	0.0204547
2082	0.0197979
2094	0.0198917
2106	0.0194226
2118	0.0194226
2130	0.0189535
2142	0.0191411
2154	0.0194226
2166	0.018672
2178	0.0188596
2190	0.0191411
2202	0.0191411
2214	0.0187658
2226	0.0191411
2238	0.0192349
2250	0.0193288
2262	0.0197979
2274	0.02083
2286	0.0209239
2298	0.0198917
2310	0.0192349
2322	0.0162324
2334	0.0170769
2346	0.0172645
2358	0.0183905
2370	0.0210177
2382	0.0184843
2394	0.017546
2406	0.0167954
2418	0.0162324
2430	0.0154818
2442	0.0156694
2454	0.0166077
2466	0.016983
2478	0.0167954
2490	0.017546
2502	0.0172645
2514	0.0167016
2526	0.0172645
2538	0.0167016
2550	0.0173584
2562	0.0183905
2574	0.0190473
2586	0.0196103
2598	0.0198917
2610	0.0207362
2622	0.0218622
2634	0.0237387
2646	0.0266474
2658	0.0313389
2670	0.0451317
2682	0.0695273
2694	0.076283
2706	0.0727175
2718	0.0607074
2730	0.0534825
2742	0.0621148
2754	0.0701841
2766	0.0623963
2778	0.0827572
2790	0.193382
2802	0.308979
2814	0.206518
2826	0.100866
2838	0.0897005
2850	0.157727
2862	0.226128
2874	0.225846
2886	0.195164
2898	0.220873
2910	0.248272
2922	0.374565
2934	0.529477
2946	0.364057
2958	0.221249
2970	0.284208
2982	0.249022
2994	0.217965
3006	0.0939228
3018	0.0396897
3030	0.0441935
3042	0.0448503
3054	0.0440058
3066	0.0849152
3078	0.1186
3090	0.0592999
3102	0.0340599
3114	0.0288055
3126	0.0266474
3138	0.0239264
3150	0.021393
3162	0.0215807
3174	0.0200794
3186	0.0199856
3198	0.0201732
3210	0.0209239
3222	0.0204547
3234	0.0191411
3246	0.0190473
3258	0.018109
3270	0.0176399
3282	0.0188596
3294	0.0184843
3306	0.0180152
3318	0.018672
3330	0.0177337
3342	0.0187658
3354	0.0170769
3366	0.0177337
3378	0.0180152
3390	0.0179213
3402	0.0183905
3414	0.0184843
3426	0.0185781
3438	0.0173584
3450	0.0197041
3462	0.0250523
3474	0.0306821
3486	0.0293685
3498	0.0220498
3510	0.0182967
3522	0.0177337
3534	0.017546
3546	0.0172645
3558	0.0180152
3570	0.0182028
3582	0.0193288
3594	0.0183905
3606	0.0162324
3618	0.0168892
3630	0.0168892
3642	0.0171707
3654	0.0171707
3666	0.0180152
3678	0.0163262
3690	0.0174522
3702	0.0171707
3714	0.016983
3726	0.0158571
3738	0.0165139
3750	0.0176399
3762	0.0195164
3774	0.0171707
3786	0.0167016
3798	0.0165139
3810	0.018109
3822	0.0176399
3834	0.0195164
3846	0.0194226
3858	0.0198917
3870	0.0212992
3882	0.0191411
3894	0.0199856
3906	0.0190473
3918	0.0199856
3930	0.0206424
3942	0.016983
3954	0.0197041
3966	0.0203609
