Infrared Spectrum: Pentadecane, 2,6,10,14-tetramethyl-
Formula: C 19 H 40
CAS: 1921-70-6
Origin: Sadtler Research Labs Under US-EPA Contract
1/CM	ABSORBANCE
450	0.191323
462	0.0468289
474	0.00664077
486	0.0617133
498	0.0783153
510	0.0644612
522	0.0582785
534	0.0612554
546	0.0540421
558	0.0751094
570	0.0612554
582	0.0491188
594	0.058164
606	0.0542711
618	0.0533551
630	0.055874
642	0.0536986
654	0.0555306
666	0.0539276
678	0.0507217
690	0.0536986
702	0.0535841
714	0.0551871
726	0.0619423
738	0.0627438
750	0.056561
762	0.0551871
774	0.0477448
786	0.0533551
798	0.0527827
810	0.0500348
822	0.0557596
834	0.0531261
846	0.0519812
858	0.0511797
870	0.0485463
882	0.0492333
894	0.0499203
906	0.0516377
918	0.0573625
930	0.0573625
942	0.0545001
954	0.0534696
966	0.0514087
978	0.0511797
990	0.0479738
1002	0.0448824
1014	0.0444244
1026	0.0447679
1038	0.0460274
1050	0.0477448
1062	0.0457984
1074	0.043852
1086	0.0453404
1098	0.0430505
1110	0.04431
1122	0.0461419
1134	0.0495768
1146	0.0594234
1158	0.0653772
1170	0.070873
1182	0.0533551
1194	0.0474013
1206	0.0483173
1218	0.0471724
1230	0.0452259
1242	0.0471724
1254	0.0459129
1266	0.0456839
1278	0.0491188
1290	0.0494623
1302	0.0508362
1314	0.0543856
1326	0.0591944
1338	0.0678961
1350	0.0728195
1362	0.0930852
1374	0.134991
1386	0.150791
1398	0.0709875
1410	0.0487753
1422	0.0460274
1434	0.0545001
1446	0.0905663
1458	0.151478
1470	0.177698
1482	0.0871315
1494	0.0494623
1506	0.0375547
1518	0.0311429
1530	0.027937
1542	0.0273645
1554	0.0259906
1566	0.0251891
1578	0.0250746
1590	0.0241587
1602	0.0238152
1614	0.0235862
1626	0.0230137
1638	0.0233572
1650	0.0223267
1662	0.0217542
1674	0.0216397
1686	0.0206093
1698	0.0206093
1710	0.0208383
1722	0.0206093
1734	0.0203803
1746	0.0196933
1758	0.0178614
1770	0.0177469
1782	0.0163729
1794	0.015686
1806	0.0153425
1818	0.014312
1830	0.013625
1842	0.013167
1854	0.0125946
1866	0.0125946
1878	0.0128236
1890	0.0115641
1902	0.0119076
1914	0.0111061
1926	0.0104191
1938	0.0103046
1950	0.00881619
1962	0.0084727
1974	0.00801472
1986	0.00744224
1998	0.00801472
2010	0.00709875
2022	0.00732774
2034	0.00709875
2046	0.0058393
2058	0.00515232
2070	0.0058393
2082	0.00480883
2094	0.00446534
2106	0.00480883
2118	0.00377837
2130	0.00343488
2142	0.00366387
2154	0.00263341
2166	0.0029769
2178	0.00251891
2190	0.00240442
2202	0.00194643
2214	0.00103046
2226	0.00057248
2238	0.000457984
2250	0.000457984
2262	0.000686976
2274	0.00148845
2286	0.00171744
2298	0.0028624
2310	0.00240442
2322	0.00332038
2334	0.00400736
2346	0.00366387
2358	0.00240442
2370	0.00354938
2382	0.00400736
2394	0.00263341
2406	0.00194643
2418	0.00240442
2430	0.00228992
2442	0.00228992
2454	0.00240442
2466	0.00251891
2478	0.00263341
2490	0.00320589
2502	0.00400736
2514	0.00446534
2526	0.00515232
2538	0.00526682
2550	0.0057248
2562	0.00698426
2574	0.00755674
2586	0.00904518
2598	0.0106481
2610	0.0114496
2622	0.0124801
2634	0.0130525
2646	0.0122511
2658	0.0128236
2670	0.0130525
2682	0.0135105
2694	0.01477
2706	0.015686
2718	0.0184339
2730	0.0233572
2742	0.0217542
2754	0.0199223
2766	0.0198078
2778	0.0220977
2790	0.0278225
2802	0.0361807
2814	0.0472868
2826	0.0644612
2838	0.0993825
2850	0.241472
2862	0.357342
2874	0.443558
2886	0.467831
2898	0.476761
2910	0.693731
2922	0.813838
2934	1.0402
2946	0.797007
2958	0.909442
2970	0.963942
2982	0.259677
2994	0.100642
3006	0.0539276
3018	0.0372112
3030	0.0287385
3042	0.0249601
3054	0.0233572
3066	0.0216397
3078	0.0200368
3090	0.0183194
3102	0.0162584
3114	0.0151135
3126	0.0151135
3138	0.0125946
3150	0.012938
3162	0.014312
3174	0.0144265
3186	0.0135105
3198	0.0119076
3210	0.00961766
3222	0.00721325
3234	0.00526682
3246	0.00515232
3258	0.00492333
3270	0.00354938
3282	0.00457984
3294	0.00412186
3306	0.00595379
3318	0.00503782
3330	0.00538131
3342	0.0057248
3354	0.00389286
3366	0.00435085
3378	0.00251891
3390	0.00538131
3402	0.00515232
3414	0.0056103
3426	0.00354938
3438	0.00217542
3450	0.00309139
3462	0.00125946
3474	0.0028624
3486	0.0029769
3498	0.00332038
3510	0.00148845
3522	0.00435085
3534	0.00309139
3546	0.00389286
3558	0.00171744
3570	0.00641178
3582	0.0084727
3594	0.0058393
3606	0.00400736
3618	0.00778573
3630	0.00641178
3642	0.00721325
3654	0.0057248
3666	0.00549581
3678	0.00664077
3690	0.00709875
3702	0.00618278
3714	0.00709875
3726	0.00446534
3738	0.00515232
3750	0.00744224
3762	0.00549581
3774	0.00400736
3786	0.00492333
3798	0.00538131
3810	0.00435085
3822	0.00721325
3834	0.00755674
3846	0.00686976
3858	0.00526682
3870	0.00721325
3882	0.00732774
3894	0.00790022
3906	0.00893069
3918	0.00526682
3930	0.00354938
3942	0.00538131
3954	0.013854
3966	0.00515232
