Infrared Spectrum: Isothiocyanic acid, 3-chloro-o-tolyl ester
Formula: C 8 H 6 Cl N S
CAS: 19241-35-1
Origin: Sadtler Research Labs Under US-EPA Contract
1/CM	ABSORBANCE
450	0.0183505
462	0.0100379
474	0.0078421
486	0.0100379
498	0.0189779
510	0.0447
522	0.0613252
534	0.0443863
546	0.0414063
558	0.0299568
570	0.0235263
582	0.0272905
594	0.0180368
606	0.0250947
618	0.0421905
630	0.02086
642	0.015841
654	0.0149
666	0.0133316
678	0.0139589
690	0.0363873
702	0.0522284
714	0.0243105
726	0.021801
738	0.100693
750	0.270709
762	0.0726178
774	0.150882
786	0.103202
798	0.0164684
810	0.021801
822	0.0213305
834	0.00752842
846	0.00235263
858	0.00345052
870	0.00596
882	0.00360737
894	0.00470526
906	0.00705789
918	0.0103516
930	0.0249379
942	0.0955168
954	0.101634
966	0.0334073
978	0.0181937
990	0.0244674
1002	0.0323095
1014	0.0490915
1026	0.082342
1038	0.0541105
1050	0.0379558
1062	0.03278
1074	0.0304273
1086	0.0112926
1098	0.00721473
1110	0.00392105
1122	0.000941052
1134	0.00203895
1146	0.0123905
1158	0.0097242
1170	0.00454842
1182	0.00893999
1194	0.00643052
1206	0.0130179
1218	0.00705789
1230	0.00454842
1242	0.00909684
1254	0.0191347
1266	0.018821
1278	0.0319958
1290	0.00831263
1302	0.00360737
1314	0.00282316
1326	0.00564631
1338	0.00392105
1350	0.00172526
1362	0.00203895
1374	0.00376421
1386	0.0152137
1398	0.0120768
1410	0.00407789
1422	0.0139589
1434	0.0723042
1446	0.196994
1458	0.180839
1470	0.07152
1482	0.0420337
1494	0.0461115
1506	0.0243105
1518	0.0241537
1530	0.0169389
1542	0.0235263
1554	0.0443863
1566	0.147745
1578	0.323879
1590	0.153862
1602	0.0624231
1614	0.0203895
1626	0.00768526
1638	0.00250947
1650	0.00125474
1662	0.00392105
1674	0.00501894
1686	0.00078421
1698	0.000470526
1710	0.000627368
1722	0.00125474
1734	0.00345052
1746	0.00329368
1758	0.00298
1770	0.00627368
1782	0.0109789
1794	0.00643052
1806	0.00501894
1818	0.00298
1830	0.00172526
1842	0.00392105
1854	0.0103516
1866	0.00831263
1878	0.0112926
1890	0.0181937
1902	0.0221147
1914	0.0287021
1926	0.0415631
1938	0.0514442
1950	0.0798326
1962	0.126885
1974	0.185387
1986	0.253143
1998	0.367951
2010	0.524009
2022	0.666735
2034	0.922545
2046	1.4991
2058	1.33127
2070	1.0946
2082	1.23027
2094	1.18714
2106	0.970381
2118	0.621879
2130	0.471153
2142	0.425356
2154	0.345366
2166	0.200444
2178	0.110417
2190	0.0840673
2202	0.0879884
2214	0.0779505
2226	0.0436021
2238	0.0228989
2250	0.0155274
2262	0.0134884
2274	0.0142726
2286	0.0111358
2298	0.00627368
2310	0.00266631
2322	0.00266631
2334	0.00439158
2346	0.00423473
2358	0.00454842
2370	0.00376421
2382	0.00156842
2394	0.00439158
2406	0.00705789
2418	0.00893999
2430	0.0101947
2442	0.0112926
2454	0.00799894
2466	0.00611684
2478	0.00627368
2490	0.00674421
2502	0.00799894
2514	0.00925368
2526	0.0108221
2538	0.0116063
2550	0.0100379
2562	0.0111358
2574	0.0105084
2586	0.00627368
2598	0.00627368
2610	0.00705789
2622	0.00611684
2634	0.00423473
2646	0.00298
2658	0.00376421
2670	0.00548947
2682	0.00266631
2694	0.00109789
2706	0.00156842
2718	0.00266631
2730	0.00282316
2742	0.00250947
2754	0.00329368
2766	0.00313684
2778	0.00423473
2790	0.00768526
2802	0.00941052
2814	0.0078421
2826	0.00768526
2838	0.00893999
2850	0.00846947
2862	0.00815578
2874	0.00925368
2886	0.00752842
2898	0.00643052
2910	0.00831263
2922	0.0120768
2934	0.0227421
2946	0.0265063
2958	0.0186642
2970	0.0161547
2982	0.0131747
2994	0.0131747
3006	0.0141158
3018	0.0141158
3030	0.0141158
3042	0.0133316
3054	0.0133316
3066	0.0183505
3078	0.0279179
3090	0.0224284
3102	0.00721473
3114	0.00376421
3126	0.00219579
3138	0.00203895
3150	0.00235263
3162	0.00141158
3174	0.00141158
3186	0.00109789
3198	0.00109789
3210	0.00156842
3222	0.00156842
3234	0.00109789
3246	0.00125474
3258	0.0018821
3270	0.00172526
3282	0.00125474
3294	0.00172526
3306	0.00172526
3318	0.00141158
3330	0.0018821
3342	0.00156842
3354	0.00141158
3366	0.00156842
3378	0.00125474
3390	0.00156842
3402	0.00156842
3414	0.00156842
3426	0.0018821
3438	0.00156842
3450	0.00156842
3462	0.00125474
3474	0.00141158
3486	0.00172526
3498	0.0018821
3510	0.00219579
3522	0.00172526
3534	0.00156842
3546	0.00203895
3558	0.0018821
3570	0.00219579
3582	0.00266631
3594	0.00219579
3606	0.00219579
3618	0.00219579
3630	0.00282316
3642	0.00219579
3654	0.0018821
3666	0.00156842
3678	0.00266631
3690	0.00250947
3702	0.00266631
3714	0.00219579
3726	0.00250947
3738	0.00298
3750	0.00203895
3762	0.00250947
3774	0.00235263
3786	0.00250947
3798	0.00235263
3810	0.00172526
3822	0.00329368
3834	0.00313684
3846	0.00266631
3858	0.00250947
3870	0.00329368
3882	0.00439158
3894	0.00298
3906	0.00250947
3918	0.00250947
3930	0.0018821
3942	0.00282316
3954	0.00266631
3966	0.00172526
