Infrared Spectrum: Benzophenone, 4,4'-dimethoxy-, O-methyloxime
Formula: C 16 H 17 N O 3
CAS: 19293-72-2
Origin: Sadtler Research Labs Under US-EPA Contract
1/CM	ABSORBANCE
450	0
462	0.00976207
474	0.00958929
486	0.00833664
498	0.0122242
510	0.0190922
522	0.0200857
534	0.0193946
546	0.0269969
558	0.0394802
570	0.031014
582	0.0220295
594	0.0401282
606	0.0278176
618	0.0189194
630	0.0136496
642	0.0116195
654	0.00971888
666	0.0127425
678	0.0138224
690	0.0144703
702	0.0133904
714	0.0100644
726	0.0118354
738	0.0144703
750	0.011965
762	0.00941651
774	0.0122674
786	0.0166301
798	0.0211224
810	0.0374069
822	0.0521364
834	0.118484
846	0.0562831
858	0.0271697
870	0.0481192
882	0.072222
894	0.0171052
906	0.0116195
918	0.0113171
930	0.0140816
942	0.0134336
954	0.0171484
966	0.0284655
978	0.0987438
990	0.0545553
1002	0.0331738
1014	0.0663475
1026	0.102329
1038	0.16142
1050	0.156841
1062	0.232
1074	0.0771895
1086	0.0344264
1098	0.0282063
1110	0.0301501
1122	0.0210792
1134	0.0199129
1146	0.0270833
1158	0.0688096
1170	0.194982
1182	0.0890249
1194	0.0362838
1206	0.0314892
1218	0.0405169
1230	0.0815522
1242	0.303186
1254	0.343789
1266	0.120471
1278	0.112825
1290	0.121162
1302	0.091703
1314	0.0814226
1326	0.0873835
1338	0.0414672
1350	0.026133
1362	0.0207768
1374	0.0180123
1386	0.0171052
1398	0.0167597
1410	0.0224182
1422	0.0250099
1434	0.0287247
1446	0.0471689
1458	0.043411
1470	0.069328
1482	0.0441885
1494	0.0586588
1506	0.217141
1518	0.173169
1530	0.0349016
1542	0.020388
1554	0.0228933
1566	0.0356359
1578	0.0407761
1590	0.0555056
1602	0.117058
1614	0.14885
1626	0.0463914
1638	0.0203017
1650	0.0136496
1662	0.0124402
1674	0.00989166
1686	0.00803427
1698	0.00755913
1710	0.00881178
1722	0.00876859
1734	0.00803427
1746	0.0095461
1758	0.0114899
1770	0.00945971
1782	0.0085958
1794	0.00825024
1806	0.00889817
1818	0.00881178
1830	0.00820705
1842	0.00958929
1854	0.0105396
1866	0.010626
1878	0.0115331
1890	0.0120514
1902	0.0109715
1914	0.0101076
1926	0.0103236
1938	0.0111875
1950	0.0105828
1962	0.00980527
1974	0.00945971
1986	0.00941651
1998	0.00889817
2010	0.00937332
2022	0.0111443
2034	0.0132177
2046	0.0128289
2058	0.0136496
2070	0.0142112
2082	0.01352
2094	0.0107988
2106	0.00993485
2118	0.00958929
2130	0.00825024
2142	0.00820705
2154	0.0077751
2166	0.00816386
2178	0.00812066
2190	0.00829344
2202	0.00816386
2214	0.00799108
2226	0.00825024
2238	0.00816386
2250	0.00842303
2262	0.0085958
2274	0.00924373
2286	0.0104964
2298	0.0114467
2310	0.0120082
2322	0.012181
2334	0.0115331
2346	0.0124402
2358	0.0126129
2370	0.0126129
2382	0.0109283
2394	0.00902776
2406	0.00898456
2418	0.00958929
2430	0.00924373
2442	0.00907095
2454	0.00924373
2466	0.00945971
2478	0.00945971
2490	0.00976207
2502	0.00971888
2514	0.0104964
2526	0.011965
2538	0.0126993
2550	0.011965
2562	0.0101508
2574	0.00984846
2586	0.00993485
2598	0.00971888
2610	0.00971888
2622	0.00915734
2634	0.00881178
2646	0.00937332
2658	0.00915734
2670	0.00915734
2682	0.00928692
2694	0.00907095
2706	0.00911415
2718	0.00937332
2730	0.00933012
2742	0.010194
2754	0.0107556
2766	0.0110579
2778	0.011965
2790	0.0130881
2802	0.0158526
2814	0.0240596
2826	0.0408625
2838	0.0379252
2850	0.0560671
2862	0.0283359
2874	0.0273424
2886	0.0338217
2898	0.0447068
2910	0.0656996
2922	0.0614665
2934	0.069328
2946	0.1133
2958	0.083064
2970	0.0618552
2982	0.0399554
2994	0.0419855
3006	0.0743386
3018	0.0422015
3030	0.026349
3042	0.0345128
3054	0.0291134
3066	0.0249667
3078	0.0303661
3090	0.0250963
3102	0.0225046
3114	0.0169756
3126	0.0148591
3138	0.0123106
3150	0.0112739
3162	0.010626
3174	0.0100212
3186	0.00941651
3198	0.00915734
3210	0.00945971
3222	0.00885498
3234	0.00894136
3246	0.008639
3258	0.00894136
3270	0.00876859
3282	0.00876859
3294	0.00885498
3306	0.0086822
3318	0.00902776
3330	0.00876859
3342	0.00885498
3354	0.00902776
3366	0.00842303
3378	0.00850942
3390	0.00872539
3402	0.00924373
3414	0.0086822
3426	0.00889817
3438	0.00907095
3450	0.00829344
3462	0.0086822
3474	0.00894136
3486	0.00876859
3498	0.00842303
3510	0.0085958
3522	0.00829344
3534	0.00907095
3546	0.00837983
3558	0.00807747
3570	0.0086822
3582	0.00915734
3594	0.0086822
3606	0.00842303
3618	0.00850942
3630	0.00915734
3642	0.0086822
3654	0.00842303
3666	0.00898456
3678	0.00928692
3690	0.00876859
3702	0.00902776
3714	0.00876859
3726	0.00928692
3738	0.008639
3750	0.008639
3762	0.0086822
3774	0.00898456
3786	0.00829344
3798	0.00855261
3810	0.00885498
3822	0.00881178
3834	0.00820705
3846	0.0086822
3858	0.00790468
3870	0.00924373
3882	0.0101076
3894	0.0085958
3906	0.00842303
3918	0.00825024
3930	0.00876859
3942	0.00825024
3954	0.00846622
3966	0.00907095
