Infrared Spectrum: 3-Hexanol, 3,4-diethyl-,
Formula: C 10 H 22 O
CAS: 19398-78-8
Origin: Sadtler Research Labs Under US-EPA Contract
1/CM	ABSORBANCE
450	0.0125774
462	0.00811956
474	0.00509462
486	0.00413938
498	0.0068459
510	0.0108261
522	0.00525383
534	0.0108261
546	0.00254731
558	0.000477621
570	0.004617
582	0.00541304
594	0.0113037
606	0.00604987
618	0.00573145
630	0.00764194
642	0.00748273
654	0.00286573
666	0.00557224
678	0.00700511
690	0.0103485
702	0.00843797
714	0.00652749
726	0.00780114
738	0.00827876
750	0.0122589
762	0.0206969
774	0.0270652
786	0.0292941
798	0.0350255
810	0.0312046
822	0.0200601
834	0.0214929
846	0.031523
858	0.0429859
870	0.049195
882	0.0294533
894	0.0358216
906	0.0695735
918	0.10046
930	0.126251
942	0.169078
954	0.246134
966	0.206969
978	0.0952058
990	0.0418714
1002	0.0404386
1014	0.063046
1026	0.0657525
1038	0.0576329
1050	0.0493542
1062	0.0469661
1074	0.0512647
1086	0.0577921
1098	0.0780114
1110	0.0931361
1122	0.101574
1134	0.11033
1146	0.128321
1158	0.149336
1170	0.132142
1182	0.0794443
1194	0.0525383
1206	0.044578
1218	0.0488765
1230	0.0641604
1242	0.091544
1254	0.103644
1266	0.0934545
1278	0.0902704
1290	0.0929769
1302	0.0901112
1314	0.0859718
1326	0.0732352
1338	0.0694143
1350	0.0802403
1362	0.0904296
1374	0.126888
1386	0.187864
1398	0.100619
1410	0.0464884
1422	0.039961
1434	0.0476029
1446	0.0936137
1458	0.198372
1470	0.281796
1482	0.156341
1494	0.0531751
1506	0.0288165
1518	0.0211745
1530	0.0159207
1542	0.0151247
1554	0.013055
1566	0.0109853
1578	0.0109853
1590	0.00987083
1602	0.00955242
1614	0.00987083
1626	0.00891559
1638	0.00939321
1650	0.00780114
1662	0.00716432
1674	0.00620907
1686	0.00700511
1698	0.00652749
1710	0.00716432
1722	0.01003
1734	0.00891559
1746	0.00700511
1758	0.00859718
1770	0.0113037
1782	0.0105077
1794	0.00987083
1806	0.00859718
1818	0.00413938
1830	0.000955242
1842	0.000477621
1854	0.000477621
1866	0.000159207
1878	0.000318414
1890	0.000318414
1902	0.000477621
1914	0.000796035
1926	0.000318414
1938	0.000318414
1950	0.000477621
1962	0.000318414
1974	0.000636828
1986	0
1998	0.000636828
2010	0.000477621
2022	0.000477621
2034	0.000796035
2046	0.00159207
2058	0.00191048
2070	0.00143286
2082	0.000955242
2094	0.00159207
2106	0.000796035
2118	0.000636828
2130	0.000796035
2142	0.000955242
2154	0.000955242
2166	0.000796035
2178	0.00111445
2190	0.000636828
2202	0.000477621
2214	0.000159207
2226	0.00127366
2238	0.000796035
2250	0.00111445
2262	0.000955242
2274	0.000796035
2286	0.000955242
2298	0.00127366
2310	0.00127366
2322	0.0022289
2334	0.00206969
2346	0
2358	0.00525383
2370	0.000159207
2382	0.0022289
2394	0.00350255
2406	0.004617
2418	0.00429859
2430	0.00254731
2442	0.00143286
2454	0.00111445
2466	0.00175128
2478	0.00127366
2490	0.00159207
2502	0.00111445
2514	0.00143286
2526	0.00159207
2538	0.00127366
2550	0.00270652
2562	0.00398017
2574	0.00620907
2586	0.00732352
2598	0.0090748
2610	0.0106669
2622	0.01003
2634	0.00971163
2646	0.00875639
2658	0.0108261
2670	0.0106669
2682	0.0114629
2694	0.0114629
2706	0.0136918
2718	0.0159207
2730	0.0211745
2742	0.0299309
2754	0.0273836
2766	0.0241995
2778	0.0259507
2790	0.0291349
2802	0.0348663
2814	0.0413938
2826	0.0509462
2838	0.0687774
2850	0.0956834
2862	0.161117
2874	0.337678
2886	0.680769
2898	0.617405
2910	0.435909
2922	0.5179
2934	0.800811
2946	1.04137
2958	1.01176
2970	1.53078
2982	1.24468
2994	0.479372
3006	0.180382
3018	0.0982307
3030	0.0678222
3042	0.0531751
3054	0.0433043
3066	0.0378913
3078	0.0324782
3090	0.0281796
3102	0.0256323
3114	0.0227666
3126	0.0210153
3138	0.0187864
3150	0.0171944
3162	0.0157615
3174	0.0133734
3186	0.0103485
3198	0.00796035
3210	0.00557224
3222	0.00589066
3234	0.00127366
3246	0.00175128
3258	0.00143286
3270	0.00286573
3282	0.00413938
3294	0.0023881
3306	0.00270652
3318	0.0023881
3330	0.00159207
3342	0.00286573
3354	0.00206969
3366	0.00254731
3378	0.00254731
3390	0.00318414
3402	0.0044578
3414	0.00429859
3426	0.00509462
3438	0.00350255
3450	0.00382097
3462	0.00477621
3474	0.00413938
3486	0.00398017
3498	0.00429859
3510	0.00302493
3522	0.00382097
3534	0.00541304
3546	0.00382097
3558	0.00493542
3570	0.00732352
3582	0.00716432
3594	0.00780114
3606	0.00748273
3618	0.01003
3630	0.0296125
3642	0.067663
3654	0.0519015
3666	0.0194233
3678	0.00987083
3690	0.00700511
3702	0.00668669
3714	0.00636828
3726	0.00573145
3738	0.00827876
3750	0.00382097
3762	0.00413938
3774	0.0044578
3786	0.00477621
3798	0.00398017
3810	0.00557224
3822	0.00732352
3834	0.00318414
3846	0.00652749
3858	0.00748273
3870	0.00796035
3882	0.0068459
3894	0.00636828
3906	0.00525383
3918	0.00191048
3930	0.0022289
3942	0.00286573
3954	0.004617
3966	0
