Infrared Spectrum: Benzene, 1,4-dichloro-2-methyl-
Formula: C 7 H 6 Cl 2
CAS: 19398-61-9
Origin: Sadtler Research Labs Under US-EPA Contract
1/CM	ABSORBANCE
450	0.0168524
462	0.00866925
474	0.0135305
486	0.00202552
498	0.00218757
510	0.0166903
522	0.0738101
534	0.0713795
546	0.0473973
558	0.0201742
570	0.223051
582	0.164068
594	0.0164473
606	0.0173385
618	0.00299778
630	0.00283573
642	0.00421309
654	0.00291676
666	0.00129634
678	0.00631964
690	0.00988456
702	0.0158801
714	0.00704883
726	0.00753495
738	0.00923639
750	0.00567147
762	0.00688678
774	0.0132874
786	0.0286814
798	0.118939
810	0.334698
822	0.152806
834	0.0277092
846	0.034839
858	0.0697591
870	0.240389
882	0.246223
894	0.0197691
906	0.0065627
918	0.00696781
930	0.00704883
942	0.00785904
954	0.00972252
966	0.0122342
978	0.0170954
990	0.0304639
1002	0.0434273
1014	0.0178246
1026	0.0460199
1038	0.102816
1050	0.558235
1062	0.495119
1074	0.105732
1086	0.354224
1098	0.437513
1110	0.302532
1122	0.129553
1134	0.0858823
1146	0.0710554
1158	0.0247114
1170	0.0262508
1182	0.0146648
1194	0.0339478
1206	0.0587402
1218	0.0222808
1230	0.0152319
1242	0.0143407
1254	0.0207414
1266	0.0521775
1278	0.0219567
1290	0.00591453
1302	0.00664372
1314	0.00729189
1326	0.00826414
1338	0.00785904
1350	0.0135305
1362	0.0203363
1374	0.0483695
1386	0.116022
1398	0.113916
1410	0.0802918
1422	0.0645737
1434	0.0700021
1446	0.0983595
1458	0.247438
1470	0.81021
1482	0.422687
1494	0.168281
1506	0.042455
1518	0.0299778
1530	0.0291676
1542	0.0298157
1554	0.0375937
1566	0.046425
1578	0.0523396
1590	0.112943
1602	0.0716226
1614	0.0295727
1626	0.0240632
1638	0.0102897
1650	0.00526636
1662	0.00591453
1674	0.0065627
1686	0.00542841
1698	0.0030788
1710	0.00494228
1722	0.00899333
1734	0.0197691
1746	0.0243873
1758	0.00664372
1770	0.00372697
1782	0.00429411
1794	0.00437513
1806	0.00664372
1818	0.00494228
1830	0.00259267
1842	0.00243063
1854	0.0050233
1866	0.011586
1878	0.023091
1890	0.015475
1902	0.0065627
1914	0.00518534
1926	0.00364594
1938	0.00291676
1950	0.00283573
1962	0.00315982
1974	0.00299778
1986	0.00251165
1998	0.00226859
2010	0.00267369
2022	0.00226859
2034	0.00210655
2046	0.00202552
2058	0.00186348
2070	0.00210655
2082	0.00243063
2094	0.00210655
2106	0.00186348
2118	0.00234961
2130	0.00283573
2142	0.00283573
2154	0.00299778
2166	0.0030788
2178	0.00299778
2190	0.00283573
2202	0.00226859
2214	0.00218757
2226	0.00202552
2238	0.00243063
2250	0.00332186
2262	0.00486126
2274	0.00486126
2286	0.00364594
2298	0.00162042
2310	0.000162042
2322	0.000729189
2334	0.00105327
2346	0.00218757
2358	0.00251165
2370	0.00437513
2382	0.00380799
2394	0.00380799
2406	0.00332186
2418	0.00332186
2430	0.0030788
2442	0.00332186
2454	0.00388901
2466	0.00510432
2478	0.00421309
2490	0.00299778
2502	0.00283573
2514	0.00315982
2526	0.00356492
2538	0.00324084
2550	0.00210655
2562	0.00210655
2574	0.00315982
2586	0.00405105
2598	0.00388901
2610	0.0034839
2622	0.00340288
2634	0.00356492
2646	0.00413207
2658	0.00486126
2670	0.00356492
2682	0.00324084
2694	0.00332186
2706	0.00267369
2718	0.00315982
2730	0.00413207
2742	0.00494228
2754	0.00648168
2766	0.0046182
2778	0.00437513
2790	0.00421309
2802	0.00453718
2814	0.00623862
2826	0.00923639
2838	0.0109378
2850	0.0151509
2862	0.0251975
2874	0.0326515
2886	0.0286814
2898	0.0281143
2910	0.0311931
2922	0.0429411
2934	0.0907435
2946	0.0980354
2958	0.0589023
2970	0.0684627
2982	0.0675715
2994	0.0721897
3006	0.0419689
3018	0.0240632
3030	0.0241443
3042	0.0243873
3054	0.0220377
3066	0.0211465
3078	0.0265749
3090	0.0318413
3102	0.0239012
3114	0.00907435
3126	0.00550943
3138	0.00405105
3150	0.00259267
3162	0.00210655
3174	0.0015394
3186	0.00121532
3198	0.000891231
3210	0.00105327
3222	0.000891231
3234	0.000972252
3246	0.00137736
3258	0.00081021
3270	0.00145838
3282	0.00113429
3294	0.00129634
3306	0.00137736
3318	0.00137736
3330	0.00145838
3342	0.00121532
3354	0.00105327
3366	0.00121532
3378	0.00129634
3390	0.00113429
3402	0.00129634
3414	0.00162042
3426	0.00113429
3438	0.000729189
3450	0.000486126
3462	0.000729189
3474	0.000729189
3486	0.000567147
3498	0.000972252
3510	0.00121532
3522	0.00178246
3534	0.00129634
3546	0.000891231
3558	0.00105327
3570	0.00129634
3582	0.00113429
3594	0.0019445
3606	0.000972252
3618	0.00178246
3630	0.00315982
3642	0.00113429
3654	0.00259267
3666	0.00186348
3678	0.00251165
3690	0.00145838
3702	0.000891231
3714	0.00170144
3726	0.00129634
3738	0.00145838
3750	0.00202552
3762	0.000891231
3774	0.00081021
3786	0.00178246
3798	0.0019445
3810	0.00202552
3822	0.00259267
3834	0.00121532
3846	0.000891231
3858	0.00243063
3870	0.00137736
3882	0.000729189
3894	0.00121532
3906	0.00137736
3918	0.00113429
3930	0.0015394
3942	0.00315982
3954	0.00340288
3966	0.00218757
