Infrared Spectrum: Cyclohexanol, 1-ethyl-
Formula: C 8 H 16 O
CAS: 1940-18-7
Origin: Sadtler Research Labs Under US-EPA Contract
1/CM	ABSORBANCE
450	0.0124211
462	0.0175965
474	0.0288346
486	0.0365239
498	0.0238071
510	0.0128647
522	0.0156742
534	0.0230677
546	0.0146391
558	0.0220326
570	0.0226241
582	0.0212933
594	0.0158221
606	0.0164136
618	0.0121253
630	0.0174487
642	0.0198146
654	0.0186316
666	0.0141955
678	0.0218848
690	0.0224762
702	0.0248422
714	0.0252858
726	0.0245464
738	0.0133083
750	0.0128647
762	0.01597
774	0.0171529
786	0.0212933
798	0.0177444
810	0.0165614
822	0.0229199
834	0.0402206
846	0.0536768
858	0.0388898
870	0.0214411
882	0.0246943
894	0.0411079
906	0.0567821
918	0.0618097
930	0.0792583
942	0.150975
954	0.267201
966	0.174487
978	0.0650628
990	0.0493886
1002	0.0597395
1014	0.0609224
1026	0.0584086
1038	0.0575214
1050	0.0483535
1062	0.0492407
1074	0.0588523
1086	0.0635841
1098	0.0702383
1110	0.092123
1122	0.0978899
1134	0.0897571
1146	0.098925
1158	0.115486
1170	0.119627
1182	0.0862082
1194	0.0529375
1206	0.0508673
1218	0.0575214
1230	0.0696468
1242	0.0833987
1254	0.088722
1266	0.0836944
1278	0.0706819
1290	0.0587044
1302	0.0529375
1314	0.0510152
1326	0.0504237
1338	0.0558949
1350	0.0644713
1362	0.0700904
1374	0.0763009
1386	0.0743786
1398	0.0504237
1410	0.0319399
1422	0.0331229
1434	0.0553034
1446	0.116669
1458	0.166058
1470	0.120514
1482	0.0495365
1494	0.0204061
1506	0.0141955
1518	0.012569
1530	0.011386
1542	0.0106466
1554	0.0103509
1566	0.0107945
1578	0.0100552
1590	0.00872433
1602	0.0088722
1614	0.00842859
1626	0.00724563
1638	0.00724563
1650	0.00724563
1662	0.00650628
1674	0.00635841
1686	0.00621054
1698	0.00606267
1710	0.00650628
1722	0.00768924
1734	0.0073935
1746	0.00694989
1758	0.00621054
1770	0.00547119
1782	0.00502758
1794	0.00517545
1806	0.00473184
1818	0.00384462
1830	0.00354888
1842	0.00310527
1854	0.00325314
1866	0.00354888
1878	0.00354888
1890	0.00399249
1902	0.00458397
1914	0.00428823
1926	0.00399249
1938	0.00399249
1950	0.00354888
1962	0.00340101
1974	0.0029574
1986	0.0029574
1998	0.00280953
2010	0.00280953
2022	0.00280953
2034	0.0029574
2046	0.00325314
2058	0.0029574
2070	0.0029574
2082	0.00310527
2094	0.00325314
2106	0.00354888
2118	0.00340101
2130	0.00384462
2142	0.00384462
2154	0.00369675
2166	0.00354888
2178	0.00384462
2190	0.00384462
2202	0.0044361
2214	0.0044361
2226	0.00414036
2238	0.00384462
2250	0.00354888
2262	0.00354888
2274	0.00354888
2286	0.00354888
2298	0.00266166
2310	0.00221805
2322	0.00251379
2334	0.00325314
2346	0.00502758
2358	0.00414036
2370	0.00665415
2382	0.00502758
2394	0.00428823
2406	0.0044361
2418	0.00473184
2430	0.0044361
2442	0.00399249
2454	0.00369675
2466	0.00384462
2478	0.0044361
2490	0.0044361
2502	0.00414036
2514	0.00428823
2526	0.00428823
2538	0.00414036
2550	0.00354888
2562	0.00354888
2574	0.00428823
2586	0.00502758
2598	0.00680202
2610	0.00813285
2622	0.00872433
2634	0.00931581
2646	0.0116817
2658	0.01597
2670	0.0189274
2682	0.0165614
2694	0.0134562
2706	0.0119775
2718	0.0121253
2730	0.0119775
2742	0.0121253
2754	0.0130126
2766	0.0138998
2778	0.0168572
2790	0.0214411
2802	0.0248422
2814	0.0267645
2826	0.0337144
2838	0.0663936
2850	0.192527
2862	0.370119
2874	0.360063
2886	0.269419
2898	0.268236
2910	0.34158
2922	0.616322
2934	1.24743
2946	1.35966
2958	0.636285
2970	0.336996
2982	0.282727
2994	0.102178
3006	0.0343058
3018	0.0204061
3030	0.0161178
3042	0.0138998
3054	0.0134562
3066	0.0140477
3078	0.0134562
3090	0.010203
3102	0.00916794
3114	0.00902007
3126	0.00842859
3138	0.00798498
3150	0.0073935
3162	0.00709776
3174	0.00694989
3186	0.00606267
3198	0.00561906
3210	0.00502758
3222	0.00428823
3234	0.00414036
3246	0.00487971
3258	0.0044361
3270	0.00325314
3282	0.00310527
3294	0.00325314
3306	0.00310527
3318	0.0029574
3330	0.00325314
3342	0.00310527
3354	0.00340101
3366	0.00354888
3378	0.00384462
3390	0.00266166
3402	0.00399249
3414	0.00458397
3426	0.00517545
3438	0.00473184
3450	0.00354888
3462	0.00369675
3474	0.00399249
3486	0.00384462
3498	0.00458397
3510	0.0044361
3522	0.0029574
3534	0.0044361
3546	0.0029574
3558	0.00399249
3570	0.00354888
3582	0.00369675
3594	0.00399249
3606	0.00547119
3618	0.0118296
3630	0.032975
3642	0.0504237
3654	0.0320878
3666	0.0121253
3678	0.00635841
3690	0.0029574
3702	0.00310527
3714	0.00221805
3726	0.00221805
3738	0.00251379
3750	0.00221805
3762	0.00221805
3774	0.00251379
3786	0.00221805
3798	0.00221805
3810	0.0029574
3822	0.00340101
3834	0.00236592
3846	0.00221805
3858	0.00428823
3870	0.00354888
3882	0.00221805
3894	0.00384462
3906	0.00340101
3918	0.00221805
3930	0.0029574
3942	0.00369675
3954	0.00458397
3966	0.00221805
