Infrared Spectrum: di-2-Pyridyl ketone
Formula: C 11 H 8 N 2 O
CAS: 19437-26-4
Origin: Sadtler Research Labs Under US-EPA Contract
1/CM	ABSORBANCE
450	0.00107659
462	0.00902282
474	0.00164051
486	0.00425508
498	0.00420381
510	0.00107659
522	0.00630572
534	0.00281963
546	0.00379368
558	0.00625445
570	0.00892028
582	0.0205577
594	0.0186608
606	0.0629034
618	0.139392
630	0.0251203
642	0.021583
654	0.110324
666	0.379061
678	0.0665433
690	0.0740281
702	0.104583
714	0.0519837
726	0.0586483
738	0.253254
750	0.210498
762	0.0561363
774	0.0617243
786	0.0550597
798	0.0272735
810	0.0405001
822	0.0518299
834	0.0261457
846	0.0130216
858	0.0112785
870	0.0145595
882	0.0173792
894	0.0206089
906	0.0156874
918	0.029683
930	0.0927402
942	0.46934
954	0.254484
966	0.0884851
978	0.02794
990	0.169024
1002	0.0853066
1014	0.013483
1026	0.0148671
1038	0.0274273
1050	0.0372704
1062	0.0151747
1074	0.0153798
1086	0.0626471
1098	0.0493179
1110	0.00871522
1122	0.00892028
1134	0.0151747
1146	0.0408077
1158	0.0183532
1170	0.0119962
1182	0.013688
1194	0.0103557
1206	0.0273248
1218	0.0504457
1230	0.0837174
1242	0.0875623
1254	0.0317337
1266	0.047216
1278	0.130011
1290	0.127704
1302	0.196964
1314	0.490564
1326	0.205884
1338	0.0260944
1350	0.0114836
1362	0.00892028
1374	0.00999687
1386	0.0099456
1398	0.0101507
1410	0.0156874
1422	0.0549059
1434	0.0941244
1446	0.0434736
1458	0.0307083
1470	0.0450115
1482	0.0140982
1494	0.00820256
1506	0.00640825
1518	0.00861269
1530	0.0133292
1542	0.0193785
1554	0.0462932
1566	0.117912
1578	0.174253
1590	0.126371
1602	0.0397311
1614	0.0293242
1626	0.0230184
1638	0.0214292
1650	0.0232748
1662	0.03199
1674	0.0584945
1686	0.150363
1698	0.378753
1710	0.410436
1722	0.126012
1734	0.0452679
1746	0.0310159
1758	0.0199425
1770	0.0150722
1782	0.0129703
1794	0.0079975
1806	0.00502407
1818	0.00338356
1830	0.00584432
1842	0.00943294
1854	0.0102019
1866	0.00727977
1878	0.010407
1890	0.00707471
1902	0.00569053
1914	0.00743357
1926	0.0075361
1938	0.00892028
1950	0.0109197
1962	0.00789496
1974	0.0113298
1986	0.00702344
1998	0.00184558
2010	0.000615192
2022	0.00025633
2034	0.000615192
2046	0.000820256
2058	0.000871522
2070	0.000358862
2082	0.000102532
2094	0
2106	0
2118	0.000563926
2130	0.00102532
2142	0.000717724
2154	5.1266e-05
2166	0.00107659
2178	0.0024095
2190	0.00184558
2202	0.00133292
2214	0.000666458
2226	0.00158925
2238	0.00179431
2250	0.00133292
2262	0.00194811
2274	0.00322976
2286	0.00553673
2298	0.0075361
2310	0.00574179
2322	0.00615192
2334	0.00502407
2346	0.00692091
2358	0.00358862
2370	0.00456267
2382	0.00338356
2394	0.000922788
2406	0.00102532
2418	0.00117912
2430	0.00199937
2442	0.00164051
2454	0.00215317
2466	0.00302469
2478	0.00369115
2490	0.00312723
2502	0.00246077
2514	0.00179431
2526	0.00184558
2538	0.00169178
2550	0.00164051
2562	0.00194811
2574	0.00210191
2586	0.00189684
2598	0.00199937
2610	0.00297343
2622	0.0028709
2634	0.0027171
2646	0.00451141
2658	0.00369115
2670	0.00281963
2682	0.00235824
2694	0.00210191
2706	0.00251203
2718	0.00312723
2730	0.00328102
2742	0.00440888
2754	0.00538293
2766	0.00538293
2778	0.0051266
2790	0.00348609
2802	0.00338356
2814	0.00338356
2826	0.00312723
2838	0.00297343
2850	0.00338356
2862	0.00579306
2874	0.00645952
2886	0.00707471
2898	0.00748484
2910	0.00681838
2922	0.00763863
2934	0.00681838
2946	0.00553673
2958	0.00553673
2970	0.00810003
2982	0.0123551
2994	0.0196861
3006	0.0428071
3018	0.0610065
3030	0.0397824
3042	0.0467546
3054	0.118681
3066	0.20045
3078	0.182866
3090	0.0727465
3102	0.0343995
3114	0.015226
3126	0.0160975
3138	0.0203526
3150	0.0142007
3162	0.00779243
3174	0.00656205
3186	0.00471647
3198	0.0051266
3210	0.00435761
3222	0.00425508
3234	0.00374242
3246	0.00415255
3258	0.00302469
3270	0.00399875
3282	0.00369115
3294	0.00322976
3306	0.00348609
3318	0.00281963
3330	0.00353735
3342	0.00353735
3354	0.00348609
3366	0.00425508
3378	0.00640825
3390	0.00917661
3402	0.00574179
3414	0.00328102
3426	0.00353735
3438	0.0024095
3450	0.00133292
3462	0.00307596
3474	0.00276836
3486	0.00138418
3498	0.00107659
3510	0.0025633
3522	0.00194811
3534	0.00143545
3546	0.00205064
3558	0.00128165
3570	0.00343482
3582	0.00194811
3594	0.00374242
3606	0.0025633
3618	0.00333229
3630	0.00502407
3642	0.00317849
3654	0.00189684
3666	0.0027171
3678	0.00686964
3690	0.00456267
3702	0.00297343
3714	0.00522913
3726	0.00379368
3738	0.00425508
3750	0.004819
3762	0.00322976
3774	0.00440888
3786	0.00133292
3798	0.00369115
3810	0.00251203
3822	0.0049728
3834	0.00507533
3846	0.00302469
3858	0.00502407
3870	0.00517787
3882	0.00333229
3894	0.00358862
3906	0.00338356
3918	0.00446014
3930	0.00220444
3942	0.00353735
3954	0.004819
3966	0.00415255
