Infrared Spectrum: Butanoic acid, 3-chloro-
Formula: C 4 H 7 Cl O 2
CAS: 1951-12-8
Origin: Sadtler Research Labs Under US-EPA Contract
1/CM	ABSORBANCE
450	0.075961
462	0.069498
474	0.0667851
486	0.0697373
498	0.0784346
510	0.0940736
522	0.103489
534	0.116974
546	0.117213
558	0.111149
570	0.101095
582	0.12224
594	0.183838
606	0.284774
618	0.296743
630	0.212803
642	0.149768
654	0.0985419
666	0.0654286
678	0.0484331
690	0.0434861
702	0.0314377
714	0.0296823
726	0.0280864
738	0.0185913
750	0.00861743
762	0.00375018
774	0.00231394
786	0.00135645
798	0.000478746
810	0.00159582
822	0.00279269
834	0.0130059
846	0.0207457
858	0.0228202
870	0.0189903
882	0.0204265
894	0.0210648
906	0.0225011
918	0.0272885
930	0.0277673
942	0.0217032
954	0.0183519
966	0.019868
978	0.0167561
990	0.0136443
1002	0.0212244
1014	0.0780356
1026	0.124953
1038	0.0789931
1050	0.0672638
1062	0.104127
1074	0.147135
1086	0.152321
1098	0.181126
1110	0.292673
1122	0.386907
1134	0.492789
1146	0.483773
1158	0.299057
1170	0.177216
1182	0.108516
1194	0.0948715
1206	0.105962
1218	0.103808
1230	0.0843391
1242	0.0712534
1254	0.0679819
1266	0.0753227
1278	0.0837008
1290	0.0872116
1302	0.086653
1314	0.0806687
1326	0.0696575
1338	0.0770781
1350	0.0880095
1362	0.104367
1374	0.173466
1386	0.22541
1398	0.134607
1410	0.0657478
1422	0.0623966
1434	0.0557739
1446	0.0520237
1458	0.0477948
1470	0.0334324
1482	0.0170753
1494	0.00813868
1506	0.00502683
1518	0.00295227
1530	0.00151603
1542	0.00119686
1554	0.00119686
1566	0.00103728
1578	0.0017554
1590	0.00207457
1602	0.00359059
1614	0.00422892
1626	0.00462788
1638	0.00694182
1650	0.0106122
1662	0.017554
1674	0.0161178
1686	0.0119686
1698	0.0159582
1710	0.0272087
1722	0.0514652
1734	0.09926
1746	0.166205
1758	0.30935
1770	0.570825
1782	0.79791
1794	0.608726
1806	0.258842
1818	0.0983025
1830	0.0533802
1842	0.0483533
1854	0.0621572
1866	0.0666255
1878	0.0429276
1890	0.0233788
1902	0.0109314
1914	0.00765994
1926	0.00558537
1938	0.00582474
1950	0.00630349
1962	0.00550558
1974	0.00502683
1986	0.00414913
1998	0.00414913
2010	0.00422892
2022	0.00462788
2034	0.00375018
2046	0.00406934
2058	0.00359059
2070	0.00343101
2082	0.000398955
2094	0.000877701
2106	0.0017554
2118	0.00199477
2130	0.00199477
2142	0.00247352
2154	0.00207457
2166	0.00151603
2178	0.0026331
2190	0.00303206
2202	0.00199477
2214	0.00359059
2226	0.00406934
2238	0.00454809
2250	0.0044683
2262	0.00438851
2274	0.00398955
2286	0.0044683
2298	0.0079791
2310	0.0121282
2322	0.0131655
2334	0.0079791
2346	0.0107718
2358	0.0088568
2370	0.00718119
2382	0.00893659
2394	0.00319164
2406	0.00327143
2418	0.00271289
2430	0.00255331
2442	0.00303206
2454	0.00375018
2466	0.00375018
2478	0.0035108
2490	0.00319164
2502	0.00335122
2514	0.00327143
2526	0.00327143
2538	0.00295227
2550	0.00215436
2562	0.00279269
2574	0.00367039
2586	0.00247352
2598	0.00239373
2610	0.00327143
2622	0.00223415
2634	0.00231394
2646	0.00247352
2658	0.00135645
2670	0.000398955
2682	0.00231394
2694	0.00191498
2706	0.00215436
2718	0.00271289
2730	0.00311185
2742	0.00414913
2754	0.00462788
2766	0.00406934
2778	0.00359059
2790	0.0035108
2802	0.00430871
2814	0.0044683
2826	0.00598432
2838	0.00694182
2850	0.00837805
2862	0.0109314
2874	0.0195488
2886	0.0253735
2898	0.0239373
2910	0.0270491
2922	0.0382199
2934	0.0594443
2946	0.063753
2958	0.0485129
2970	0.051545
2982	0.0834614
2994	0.117692
3006	0.0802697
3018	0.0315174
3030	0.0138836
3042	0.00981429
3054	0.00893659
3066	0.00917596
3078	0.00909617
3090	0.0079791
3102	0.00765994
3114	0.00670244
3126	0.0071014
3138	0.00606412
3150	0.00574495
3162	0.00614391
3174	0.00510662
3186	0.00510662
3198	0.00510662
3210	0.00590453
3222	0.005346
3234	0.005346
3246	0.00438851
3258	0.00414913
3270	0.00478746
3282	0.00303206
3294	0.00335122
3306	0.00319164
3318	0.00398955
3330	0.00311185
3342	0.00422892
3354	0.00215436
3366	0.000718119
3378	0.00295227
3390	0.00103728
3402	0.00167561
3414	0.0026331
3426	0.00231394
3438	0.0017554
3450	0.000319164
3462	0.00103728
3474	0.000478746
3486	0.00295227
3498	0.00335122
3510	0.00726098
3522	0.00789931
3534	0.0106122
3546	0.0146815
3558	0.0434861
3570	0.271529
3582	0.298099
3594	0.0777164
3606	0.0166763
3618	0.00478746
3630	0.0044683
3642	0.00367039
3654	0.00574495
3666	0.00390976
3678	0.00390976
3690	0.00390976
3702	0.00542579
3714	0.00582474
3726	0.00542579
3738	0.00598432
3750	0.00390976
3762	0.00143624
3774	0.00183519
3786	0.00319164
3798	0.00319164
3810	0.00183519
3822	0.00135645
3834	0.00311185
3846	0.00550558
3858	0.00750035
3870	0.00550558
3882	0.00398955
3894	0.00375018
3906	0.00430871
3918	0.00223415
3930	0.00143624
3942	0.00215436
3954	0.00614391
3966	0.00454809
