Infrared Spectrum: N-Isopropylethylenediamine
Formula: C 5 H 14 N 2
CAS: 19522-67-9
Origin: Sadtler Research Labs Under US-EPA Contract
1/CM	ABSORBANCE
450	0.0139122
462	0.0172364
474	0.0317642
486	0.0275782
498	0.000369351
510	0.0288094
522	0.0296712
534	0.0245003
546	0.00467845
558	0.0103418
570	0.0220379
582	0.0130504
594	0.0152665
606	0.0228998
618	0.0391512
630	0.0526941
642	0.0624203
654	0.0972624
666	0.127795
678	0.162145
690	0.194894
702	0.228013
714	0.260023
726	0.278737
738	0.293388
750	0.31087
762	0.406902
774	0.397422
786	0.30336
798	0.270857
810	0.255222
822	0.19748
834	0.127672
846	0.0859357
858	0.0818728
870	0.0871668
882	0.0817497
894	0.0650058
906	0.0471538
918	0.0342265
930	0.0222842
942	0.0180982
954	0.019945
966	0.0254852
978	0.0230229
990	0.0216686
1002	0.0293018
1014	0.0448146
1026	0.051586
1038	0.0586037
1050	0.107358
1062	0.179258
1074	0.181105
1086	0.126934
1098	0.125456
1110	0.139615
1122	0.149464
1134	0.125949
1146	0.110067
1158	0.172979
1170	0.342388
1182	0.341403
1194	0.151188
1206	0.0573725
1218	0.032626
1230	0.0279476
1242	0.0304099
1254	0.0369351
1266	0.0366889
1278	0.0310255
1290	0.0412442
1302	0.0624203
1314	0.117084
1326	0.198465
1338	0.227643
1350	0.192063
1362	0.209791
1374	0.295973
1386	0.301021
1398	0.132105
1410	0.0498624
1422	0.0546639
1434	0.121393
1446	0.196002
1458	0.251036
1470	0.303114
1482	0.238601
1494	0.093692
1506	0.0348421
1518	0.0196987
1530	0.0131735
1542	0.0113268
1554	0.00812572
1566	0.0140353
1578	0.0217917
1590	0.0337341
1602	0.0604504
1614	0.0982474
1626	0.114376
1638	0.0773175
1650	0.0398899
1662	0.0237616
1674	0.0190831
1686	0.00898754
1698	0.00738702
1710	0.00935689
1722	0.0187138
1734	0.016867
1746	0.00627897
1758	0.00246234
1770	0.00332416
1782	0.00393974
1794	0.0043091
1806	0.00467845
1818	0.00554026
1830	0.00677144
1842	0.00738702
1854	0.00664832
1866	0.00763325
1878	0.00603273
1890	0.0072639
1902	0.0065252
1914	0.00492468
1926	0.00455533
1938	0.0043091
1950	0.00258546
1962	0.0014774
1974	0.0014774
1986	0.00209299
1998	0.000738702
2010	0.000246234
2022	0.000738702
2034	0.000984936
2046	0.000984936
2058	0.000123117
2070	0.000492468
2082	0.000738702
2094	0.00123117
2106	0.000615585
2118	0.000738702
2130	0.00110805
2142	0.0014774
2154	0.000738702
2166	0.000738702
2178	0.00110805
2190	0.00135429
2202	0.000861819
2214	0.000246234
2226	0.000369351
2238	0.00135429
2250	0.000984936
2262	0.000492468
2274	0.000861819
2286	0.00123117
2298	0.00184676
2310	0.00160052
2322	0.00172364
2334	0.00344728
2346	0.00332416
2358	0.00283169
2370	0.00184676
2382	0.00110805
2394	0.00110805
2406	0.000492468
2418	0
2430	0.00135429
2442	0.00172364
2454	0.00184676
2466	0.00160052
2478	0.00196987
2490	0.00307793
2502	0.00381663
2514	0.00381663
2526	0.00467845
2538	0.00615585
2550	0.00751014
2562	0.00898754
2574	0.0121886
2586	0.0188369
2598	0.0291787
2610	0.0408748
2622	0.0456764
2634	0.0422291
2646	0.0386587
2658	0.0395206
2670	0.0422291
2682	0.0476463
2694	0.0546639
2706	0.0638977
2718	0.0707923
2730	0.0767019
2742	0.0835964
2754	0.09677
2766	0.12521
2778	0.178643
2790	0.251036
2802	0.320474
2814	0.387203
2826	0.450978
2838	0.484096
2850	0.468583
2862	0.482988
2874	0.531742
2886	0.540484
2898	0.552795
2910	0.619894
2922	0.707061
2934	0.803708
2946	0.835718
2958	0.929903
2970	1.23117
2982	0.930888
2994	0.323182
3006	0.0987398
3018	0.0470307
3030	0.0307793
3042	0.0222842
3054	0.019945
3066	0.0174826
3078	0.014774
3090	0.0131735
3102	0.0141585
3114	0.0129273
3126	0.0110805
3138	0.0104649
3150	0.0118192
3162	0.0130504
3174	0.0135429
3186	0.0131735
3198	0.0125579
3210	0.0120655
3222	0.00898754
3234	0.00455533
3246	0.00357039
3258	0.00357039
3270	0.00172364
3282	0.00184676
3294	0.00270857
3306	0.00529403
3318	0.00911066
3330	0.0190831
3342	0.0301637
3354	0.025239
3366	0.0121886
3378	0.00627897
3390	0.00923378
3402	0.0135429
3414	0.015759
3426	0.013666
3438	0.00701767
3450	0.00615585
3462	0.00517091
3474	0.00393974
3486	0.00320104
3498	0.00307793
3510	0.00307793
3522	0.00393974
3534	0.00135429
3546	0.00369351
3558	0.00295481
3570	0.00640208
3582	0.000492468
3594	0.00332416
3606	0.00258546
3618	0.00467845
3630	0.00295481
3642	0.00184676
3654	0.00307793
3666	0.00295481
3678	0.00393974
3690	0
3702	0.00258546
3714	0.00381663
3726	0.00627897
3738	0.00418598
3750	0.000984936
3762	0.00344728
3774	0.00554026
3786	0.00307793
3798	0.00258546
3810	0.00406286
3822	0.00480156
3834	0.00406286
3846	0.00172364
3858	0.00393974
3870	0.00640208
3882	0.00738702
3894	0.0043091
3906	0.00529403
3918	0.00861819
3930	0.00627897
3942	0.00369351
3954	0.00455533
3966	0.0057865
