Infrared Spectrum: 3-Heptanol, 2,2-dimethyl-
Formula: C 9 H 20 O
CAS: 19549-70-3
Origin: Sadtler Research Labs Under US-EPA Contract
1/CM	ABSORBANCE
450	0
462	0.0143437
474	0.0139023
486	0.0208535
498	0.0200812
510	0.0167711
522	0.0205225
534	0.0186468
546	0.0142333
558	0.0221775
570	0.0196398
582	0.0129093
594	0.0120266
606	0.0103716
618	0.0098199
630	0.00893722
642	0.00904755
654	0.00937856
666	0.0113646
678	0.00893722
690	0.00959923
702	0.0113646
714	0.0110336
726	0.0139023
738	0.0164401
750	0.0185364
762	0.0212948
774	0.014785
786	0.0163297
798	0.0176538
810	0.014454
822	0.0115853
834	0.0119163
846	0.0150057
858	0.0206328
870	0.0239429
882	0.0239429
894	0.0337628
906	0.0435827
918	0.0532923
930	0.0424794
942	0.0317768
954	0.0314458
966	0.0415967
978	0.0596918
990	0.10824
1002	0.166056
1014	0.110336
1026	0.0573747
1038	0.0658706
1050	0.0893722
1062	0.102392
1074	0.10173
1086	0.0868344
1098	0.0734838
1110	0.0885998
1122	0.0775662
1134	0.0456791
1146	0.0377349
1158	0.0455688
1170	0.0569334
1182	0.0613468
1194	0.0694013
1206	0.066974
1218	0.0628915
1230	0.0694013
1242	0.0742561
1254	0.067967
1266	0.0642156
1278	0.0589194
1290	0.0543956
1302	0.0514166
1314	0.0449068
1326	0.0387279
1338	0.0404933
1350	0.0575954
1362	0.119825
1374	0.16738
1386	0.110226
1398	0.117066
1410	0.0680773
1422	0.0368522
1434	0.0401623
1446	0.0543956
1458	0.0932339
1470	0.133507
1482	0.142885
1494	0.0688497
1506	0.027253
1518	0.0182054
1530	0.0153367
1542	0.0143437
1554	0.0123576
1566	0.011806
1578	0.0115853
1590	0.0109233
1602	0.0109233
1614	0.0100406
1626	0.0112543
1638	0.00959923
1650	0.0114749
1662	0.00993024
1674	0.0101509
1686	0.00849587
1698	0.00915789
1710	0.0108129
1722	0.0114749
1734	0.0103716
1746	0.00871654
1758	0.00871654
1770	0.00882688
1782	0.00838554
1794	0.00926822
1806	0.00904755
1818	0.00893722
1830	0.00871654
1842	0.00739251
1854	0.00849587
1866	0.00816486
1878	0.00838554
1890	0.00838554
1902	0.0082752
1914	0.00783386
1926	0.00805453
1938	0.00816486
1950	0.00805453
1962	0.00838554
1974	0.00783386
1986	0.00838554
1998	0.00838554
2010	0.00838554
2022	0.0082752
2034	0.00849587
2046	0.00849587
2058	0.00805453
2070	0.00772352
2082	0.00761318
2094	0.00783386
2106	0.00794419
2118	0.00794419
2130	0.00772352
2142	0.00772352
2154	0.00783386
2166	0.00783386
2178	0.00739251
2190	0.00761318
2202	0.00783386
2214	0.00728218
2226	0.00739251
2238	0.00739251
2250	0.00717184
2262	0.00717184
2274	0.00728218
2286	0.00794419
2298	0.00849587
2310	0.0082752
2322	0.00783386
2334	0.00838554
2346	0.00783386
2358	0.00838554
2370	0.00926822
2382	0.00926822
2394	0.00904755
2406	0.00904755
2418	0.00871654
2430	0.00871654
2442	0.00849587
2454	0.00805453
2466	0.00849587
2478	0.00794419
2490	0.00783386
2502	0.00816486
2514	0.00849587
2526	0.00860621
2538	0.00926822
2550	0.0098199
2562	0.0104819
2574	0.0107026
2586	0.0110336
2598	0.0113646
2610	0.0116956
2622	0.0129093
2634	0.014123
2646	0.0153367
2658	0.0169917
2670	0.0189778
2682	0.0197501
2694	0.0189778
2706	0.0184261
2718	0.0203018
2730	0.0225085
2742	0.0241636
2754	0.0240532
2766	0.0229499
2778	0.0227292
2790	0.0263703
2802	0.0319974
2814	0.039721
2826	0.0510856
2838	0.0775662
2850	0.142113
2862	0.265579
2874	0.397982
2886	0.394451
2898	0.284005
2910	0.317106
2922	0.434062
2934	0.542522
2946	0.692248
2958	0.877392
2970	1.10336
2982	0.529613
2994	0.165394
3006	0.0711667
3018	0.0458998
3030	0.0353075
3042	0.0276943
3054	0.0227292
3066	0.0193088
3078	0.0185364
3090	0.0177641
3102	0.0165504
3114	0.0152264
3126	0.014123
3138	0.0143437
3150	0.014785
3162	0.0146747
3174	0.0153367
3186	0.0162194
3198	0.015778
3210	0.0148954
3222	0.0129093
3234	0.0115853
3246	0.0098199
3258	0.00849587
3270	0.00849587
3282	0.00783386
3294	0.00750285
3306	0.00794419
3318	0.0082752
3330	0.00794419
3342	0.00805453
3354	0.00871654
3366	0.00794419
3378	0.00783386
3390	0.00838554
3402	0.00805453
3414	0.0082752
3426	0.00838554
3438	0.00915789
3450	0.0094889
3462	0.0094889
3474	0.00882688
3486	0.00893722
3498	0.00849587
3510	0.00849587
3522	0.00849587
3534	0.00794419
3546	0.0094889
3558	0.00794419
3570	0.00882688
3582	0.00805453
3594	0.0098199
3606	0.00926822
3618	0.012468
3630	0.0186468
3642	0.0253773
3654	0.041707
3666	0.0602435
3678	0.0399416
3690	0.0146747
3702	0.0116956
3714	0.0112543
3726	0.0107026
3738	0.0101509
3750	0.0103716
3762	0.00915789
3774	0.0082752
3786	0.00816486
3798	0.00893722
3810	0.00937856
3822	0.0132403
3834	0.0111439
3846	0.0111439
3858	0.011806
3870	0.0112543
3882	0.012468
3894	0.0107026
3906	0.0107026
3918	0.00849587
3930	0.00838554
3942	0.00871654
3954	0.00761318
3966	0.00849587
