Infrared Spectrum: 4-Heptanol, 3,5-dimethyl-,
Formula: C 9 H 20 O
CAS: 19549-79-2
Origin: Sadtler Research Labs Under US-EPA Contract
1/CM	ABSORBANCE
450	0
462	0.0334258
474	0.0282833
486	0.0431596
498	0.0352623
510	0.0350787
522	0.0372826
534	0.0383845
546	0.035997
558	0.0323238
570	0.0330584
582	0.029018
594	0.0314055
606	0.0297526
618	0.0372826
630	0.0332421
642	0.035997
654	0.0402211
666	0.0350787
678	0.0286506
690	0.0249775
702	0.0253448
714	0.0255285
726	0.0271814
738	0.0382009
750	0.0492203
762	0.055832
774	0.0618927
786	0.0622601
798	0.0571176
810	0.0495877
822	0.0420577
834	0.0449962
846	0.0415067
858	0.0394865
870	0.0431596
882	0.0416904
894	0.0415067
906	0.0383845
918	0.048853
930	0.0729122
942	0.107991
954	0.184576
966	0.237102
978	0.267957
990	0.321952
1002	0.275487
1014	0.192657
1026	0.152436
1038	0.122133
1050	0.0944002
1062	0.085401
1074	0.0995426
1086	0.134438
1098	0.163088
1110	0.146743
1122	0.11497
1134	0.123418
1146	0.15666
1158	0.150049
1170	0.105787
1182	0.0808095
1194	0.0850337
1206	0.108175
1218	0.129112
1230	0.126173
1242	0.110746
1254	0.10946
1266	0.116439
1278	0.113501
1290	0.105236
1302	0.0955022
1314	0.0868702
1326	0.0830134
1338	0.0846663
1350	0.0916453
1362	0.119929
1374	0.211207
1386	0.319932
1398	0.189351
1410	0.091278
1422	0.0681371
1434	0.0719939
1446	0.117908
1458	0.258958
1470	0.324524
1482	0.17172
1494	0.0690554
1506	0.0466491
1518	0.0389355
1530	0.0363643
1542	0.0301199
1554	0.0306709
1566	0.0303036
1578	0.029018
1590	0.0317728
1602	0.0282833
1614	0.0271814
1626	0.0295689
1638	0.0260794
1650	0.0229573
1662	0.029018
1674	0.0249775
1686	0.0238755
1698	0.0247938
1710	0.035446
1722	0.0440779
1734	0.0339767
1746	0.0275487
1758	0.0255285
1770	0.0253448
1782	0.0240592
1794	0.0218553
1806	0.020937
1818	0.0198351
1830	0.0178148
1842	0.0200187
1854	0.0185495
1866	0.0179985
1878	0.0185495
1890	0.0183658
1902	0.0191004
1914	0.0192841
1926	0.0183658
1938	0.0185495
1950	0.0187331
1962	0.0183658
1974	0.0176312
1986	0.0174475
1998	0.0174475
2010	0.0174475
2022	0.0168965
2034	0.0163456
2046	0.0168965
2058	0.0165292
2070	0.0165292
2082	0.0168965
2094	0.0165292
2106	0.0167129
2118	0.0161619
2130	0.0163456
2142	0.0163456
2154	0.0163456
2166	0.0157946
2178	0.0156109
2190	0.0154273
2202	0.0157946
2214	0.0157946
2226	0.0159782
2238	0.0161619
2250	0.0161619
2262	0.0168965
2274	0.0163456
2286	0.0167129
2298	0.0168965
2310	0.0168965
2322	0.0183658
2334	0.0181821
2346	0.0183658
2358	0.0187331
2370	0.0189168
2382	0.0185495
2394	0.0192841
2406	0.0198351
2418	0.0202024
2430	0.0200187
2442	0.0196514
2454	0.0191004
2466	0.0185495
2478	0.0179985
2490	0.0178148
2502	0.0176312
2514	0.0179985
2526	0.0183658
2538	0.0189168
2550	0.0200187
2562	0.0222226
2574	0.0244265
2586	0.0266304
2598	0.0288343
2610	0.0301199
2622	0.0303036
2634	0.0301199
2646	0.0301199
2658	0.0306709
2670	0.0325075
2682	0.034895
2694	0.0365479
2706	0.0369153
2718	0.0404048
2730	0.0466491
2742	0.0528935
2754	0.0512406
2766	0.0477511
2778	0.0495877
2790	0.0543628
2802	0.062811
2814	0.0741978
2826	0.0942166
2838	0.136458
2850	0.20184
2862	0.323238
2874	0.55428
2886	0.805157
2898	0.692023
2910	0.702492
2922	0.842072
2934	0.972653
2946	0.988264
2958	1.0261
2970	1.83658
2982	1.27
2994	0.411394
3006	0.165843
3018	0.102665
3030	0.0780547
3042	0.0664842
3054	0.0585869
3066	0.0517916
3078	0.0470164
3090	0.042425
3102	0.0391192
3114	0.0382009
3126	0.0369153
3138	0.0369153
3150	0.0365479
3162	0.0358133
3174	0.0334258
3186	0.0306709
3198	0.0266304
3210	0.0227736
3222	0.0211207
3234	0.0183658
3246	0.0174475
3258	0.0178148
3270	0.0163456
3282	0.0157946
3294	0.0161619
3306	0.0159782
3318	0.0156109
3330	0.0157946
3342	0.0161619
3354	0.0159782
3366	0.0161619
3378	0.0165292
3390	0.0167129
3402	0.0172639
3414	0.0167129
3426	0.0172639
3438	0.0181821
3450	0.0183658
3462	0.0183658
3474	0.0179985
3486	0.0174475
3498	0.0176312
3510	0.0178148
3522	0.0172639
3534	0.0167129
3546	0.0174475
3558	0.0181821
3570	0.0181821
3582	0.0191004
3594	0.0161619
3606	0.0165292
3618	0.0216716
3630	0.0303036
3642	0.0521589
3654	0.0732795
3666	0.0945839
3678	0.0624437
3690	0.0277324
3702	0.020937
3714	0.0181821
3726	0.0205697
3738	0.0161619
3750	0.0154273
3762	0.0163456
3774	0.0156109
3786	0.0174475
3798	0.0154273
3810	0.0170802
3822	0.0154273
3834	0.0174475
3846	0.0168965
3858	0.0185495
3870	0.0198351
3882	0.0196514
3894	0.0156109
3906	0.0178148
3918	0.0170802
3930	0.0178148
3942	0.0154273
3954	0.0154273
3966	0.0154273
