Infrared Spectrum: 3,4-Dimethyl-3-hexanol
Formula: C 8 H 18 O
CAS: 19550-08-4
Origin: Sadtler Research Labs Under US-EPA Contract
1/CM	ABSORBANCE
450	0.0792248
462	0.0152673
474	0.0101782
486	0.0182932
498	0.00701469
510	0.0184308
522	0.0225571
534	0.0182932
546	0.0116912
558	0.0305345
570	0.0188434
582	0.0199437
594	0.0181557
606	0.0173304
618	0.0167802
630	0.017468
642	0.0180181
654	0.0170553
666	0.0193936
678	0.0176055
690	0.0209065
702	0.0229697
714	0.0277837
726	0.0239325
738	0.0198062
750	0.0152673
762	0.0134792
774	0.0257205
786	0.038512
798	0.0258581
810	0.0220069
822	0.0204939
834	0.0286089
846	0.0328728
858	0.0265458
870	0.0224195
882	0.0361738
894	0.0931166
906	0.199162
918	0.175092
930	0.0667084
942	0.0418131
954	0.0709722
966	0.115261
978	0.142632
990	0.148546
1002	0.118287
1014	0.103432
1026	0.0986183
1038	0.089678
1050	0.0761988
1062	0.0766115
1074	0.0834886
1086	0.0949047
1098	0.118837
1110	0.132316
1122	0.148409
1134	0.165464
1146	0.171654
1158	0.180181
1170	0.191322
1182	0.150747
1194	0.101919
1206	0.0807377
1218	0.0679462
1230	0.0657456
1242	0.0778493
1254	0.099031
1266	0.108797
1278	0.100269
1290	0.0961426
1302	0.0951798
1314	0.0887152
1326	0.0785371
1338	0.0753736
1350	0.084864
1362	0.115949
1374	0.225433
1386	0.275911
1398	0.138231
1410	0.0583182
1422	0.0456643
1434	0.054467
1446	0.105633
1458	0.203564
1470	0.224745
1482	0.123514
1494	0.0471772
1506	0.0276461
1518	0.0213192
1530	0.0182932
1542	0.017743
1554	0.0149922
1566	0.0132041
1578	0.0123789
1590	0.0108659
1602	0.0108659
1614	0.0116912
1626	0.011141
1638	0.0112785
1650	0.0104533
1662	0.00976555
1674	0.00976555
1686	0.0089403
1698	0.00770241
1710	0.00742732
1722	0.00701469
1734	0.00687715
1746	0.00536418
1758	0.00453892
1770	0.00426383
1782	0.00412629
1794	0.00398875
1806	0.00522663
1818	0.00481401
1830	0.00426383
1842	0.0038512
1854	0.00330103
1866	0.00357612
1878	0.00343858
1890	0.00316349
1902	0.00330103
1914	0.0028884
1926	0.00275086
1938	0.0028884
1950	0.00247577
1962	0.00247577
1974	0.00206315
1986	0.00165052
1998	0.00137543
2010	0.000962801
2022	0.00110034
2034	0.00178806
2046	0.00206315
2058	0.0019256
2070	0.0019256
2082	0.00165052
2094	0.00110034
2106	0.000962801
2118	0.000687715
2130	0.000550172
2142	0.00151297
2154	0.00137543
2166	0.00165052
2178	0.00123789
2190	0.000687715
2202	0.000275086
2214	0.000137543
2226	0.000962801
2238	0.00165052
2250	0.00123789
2262	0.00151297
2274	0.00151297
2286	0.0019256
2298	0.00261332
2310	0.00275086
2322	0.00247577
2334	0.00275086
2346	0.00261332
2358	0.00247577
2370	0.00206315
2382	0.00371366
2394	0.00330103
2406	0.00371366
2418	0.00371366
2430	0.00412629
2442	0.00330103
2454	0.00357612
2466	0.00302595
2478	0.0028884
2490	0.00275086
2502	0.00247577
2514	0.00206315
2526	0.00261332
2538	0.0028884
2550	0.00316349
2562	0.00522663
2574	0.00660206
2586	0.00797749
2598	0.00935292
2610	0.00935292
2622	0.00962801
2634	0.00949047
2646	0.00949047
2658	0.00921538
2670	0.00921538
2682	0.00976555
2694	0.00976555
2706	0.0108659
2718	0.012654
2730	0.017743
2742	0.0217318
2754	0.0210441
2766	0.0189809
2778	0.0203564
2790	0.0232448
2802	0.0283339
2814	0.0358987
2826	0.0455267
2838	0.060794
2850	0.0917412
2862	0.155699
2874	0.296405
2886	0.532429
2898	0.500932
2910	0.372191
2922	0.444126
2934	0.629122
2946	0.753873
2958	0.767765
2970	1.22963
2982	1.25921
2994	0.59845
3006	0.197787
3018	0.0837637
3030	0.0569428
3042	0.046352
3054	0.0391998
3066	0.0321851
3078	0.0268209
3090	0.0250328
3102	0.0215943
3114	0.0200813
3126	0.0182932
3138	0.0185683
3150	0.0176055
3162	0.0180181
3174	0.0170553
3186	0.0151297
3198	0.0118287
3210	0.00921538
3222	0.00715224
3234	0.00453892
3246	0.00440138
3258	0.00302595
3270	0.00247577
3282	0.00371366
3294	0.00412629
3306	0.00206315
3318	0.00343858
3330	0.00178806
3342	0.00316349
3354	0.00233823
3366	0.00123789
3378	0.0019256
3390	0.00302595
3402	0.00247577
3414	0.00343858
3426	0.00426383
3438	0.00495155
3450	0.00412629
3462	0.0038512
3474	0.00453892
3486	0.0019256
3498	0.00302595
3510	0.0028884
3522	0.00440138
3534	0.00261332
3546	0.00440138
3558	0.0028884
3570	0.00302595
3582	0.00165052
3594	0.0028884
3606	0.00550172
3618	0.0115536
3630	0.0323226
3642	0.0672585
3654	0.0558425
3666	0.0248953
3678	0.00728978
3690	0.00797749
3702	0.00797749
3714	0.00522663
3726	0.00673961
3738	0.00247577
3750	0.00536418
3762	0.00481401
3774	0.00660206
3786	0.00467646
3798	0.00591435
3810	0.00618944
3822	0.00536418
3834	0.0101782
3846	0.00673961
3858	0.00783995
3870	0.00646452
3882	0.012929
3894	0.00137543
3906	0.00949047
3918	0.0103157
3930	0.0101782
3942	0.0145796
3954	0.00770241
3966	0.0103157
