Infrared Spectrum: 1,4-Benzenedicarboxylic acid, dibutyl ester
Formula: C 16 H 22 O 4
CAS: 1962-75-0
Origin: Sadtler Research Labs Under US-EPA Contract
1/CM	ABSORBANCE
450	0.00982149
462	0.00575742
474	0.00135469
486	0.00863614
498	0.0103295
510	0.0063501
522	0.00575742
534	0.00795879
546	0.00643477
558	0.00778946
570	0.00364072
582	0.00228604
594	0.00143936
606	0.00245537
618	0.00084668
630	0.0106682
642	0.00863614
654	0.0082128
666	0.00965215
678	0.0105835
690	0.0147322
702	0.0144782
714	0.019389
726	0.0628237
738	0.0714598
750	0.0209977
762	0.0176109
774	0.0139702
786	0.0163409
798	0.0168489
810	0.0180343
822	0.0202357
834	0.021929
846	0.021675
858	0.019643
870	0.0272631
882	0.0190503
894	0.0172723
906	0.0133775
918	0.0143936
930	0.0176956
942	0.0313272
954	0.0324278
966	0.0331052
978	0.0199816
990	0.021421
1002	0.0220137
1014	0.0511395
1026	0.066295
1038	0.0178649
1050	0.023961
1062	0.0366612
1074	0.0566429
1086	0.107782
1098	0.390489
1110	0.359331
1122	0.176194
1134	0.0780639
1146	0.0546955
1158	0.0387779
1170	0.0313272
1182	0.0276018
1194	0.0246384
1206	0.0338672
1218	0.0517321
1230	0.146391
1242	0.312171
1254	0.327919
1266	0.84668
1278	0.351288
1290	0.130304
1302	0.0824666
1314	0.0573202
1326	0.043604
1338	0.0342059
1350	0.0283638
1362	0.0309038
1374	0.0303111
1386	0.0442814
1398	0.0386086
1410	0.0541029
1422	0.0235377
1434	0.019897
1446	0.0253157
1458	0.0430113
1470	0.0406406
1482	0.0255697
1494	0.018119
1506	0.0292951
1518	0.019135
1530	0.0128695
1542	0.0187963
1554	0.0125309
1566	0.0114302
1578	0.0187963
1590	0.0087208
1602	0.00711211
1614	0.00728145
1626	0.00838213
1638	0.00999082
1650	0.00999082
1662	0.0106682
1674	0.0123615
1686	0.018373
1698	0.0281944
1710	0.0305651
1722	0.0638397
1734	0.295745
1746	0.395738
1758	0.0770479
1770	0.0342059
1782	0.021421
1794	0.0175263
1806	0.0128695
1818	0.0106682
1830	0.00922881
1842	0.00508008
1854	0.00431807
1866	0.00389473
1878	0.00389473
1890	0.00381006
1902	0.00381006
1914	0.00372539
1926	0.00431807
1938	0.00541875
1950	0.00533408
1962	0.00372539
1974	0.00262471
1986	0.00177803
1998	0.00194736
2010	0.0021167
2022	0.0021167
2034	0.00321738
2046	0.00313272
2058	0.00313272
2070	0.00355606
2082	0.00296338
2094	0.00347139
2106	0.00245537
2118	0.00254004
2130	0.00143936
2142	0.00194736
2154	0.00152402
2166	0.00135469
2178	0.00135469
2190	0.00135469
2202	0.00177803
2214	0.00228604
2226	0.00177803
2238	0.00177803
2250	0.00160869
2262	0.00127002
2274	0.00160869
2286	0.00169336
2298	0.00313272
2310	0.00575742
2322	0.00939815
2334	0.0120229
2346	0.0121075
2358	0.019389
2370	0.0166796
2382	0.00508008
2394	0.00194736
2406	0.00152402
2418	0.00118535
2430	0.000931348
2442	0.000677344
2454	0.00042334
2466	0.000508008
2478	0
2490	0.00084668
2502	0.000592676
2514	0.00118535
2526	0.00143936
2538	0.00220137
2550	0.00203203
2562	0.00203203
2574	0.00169336
2586	0.00228604
2598	0.0023707
2610	0.00254004
2622	0.00313272
2634	0.00270938
2646	0.00228604
2658	0.00279404
2670	0.00304805
2682	0.00355606
2694	0.00330205
2706	0.00347139
2718	0.00347139
2730	0.00355606
2742	0.0044874
2754	0.00516475
2766	0.00533408
2778	0.00541875
2790	0.00558809
2802	0.00584209
2814	0.00651944
2826	0.00736612
2838	0.0104142
2850	0.0166796
2862	0.0246384
2874	0.0389473
2886	0.0560502
2898	0.0447894
2910	0.0499541
2922	0.0641783
2934	0.0798419
2946	0.112693
2958	0.112185
2970	0.169251
2982	0.0984689
2994	0.043858
3006	0.023961
3018	0.0152402
3030	0.0112608
3042	0.00880547
3054	0.00787412
3066	0.00787412
3078	0.00651944
3090	0.00651944
3102	0.00838213
3114	0.00592676
3126	0.00575742
3138	0.00516475
3150	0.00381006
3162	0.00440274
3174	0.0044874
3186	0.00330205
3198	0.00372539
3210	0.00381006
3222	0.00296338
3234	0.00254004
3246	0.00338672
3258	0.00304805
3270	0.00330205
3282	0.00347139
3294	0.00228604
3306	0.00279404
3318	0.00279404
3330	0.00287871
3342	0.00203203
3354	0.00254004
3366	0.00321738
3378	0.00220137
3390	0.00279404
3402	0.00127002
3414	0.00203203
3426	0.00262471
3438	0.0018627
3450	0.00364072
3462	0.00541875
3474	0.0023707
3486	0.00118535
3498	0.000931348
3510	0.0023707
3522	0.00118535
3534	0.000338672
3546	0.00084668
3558	0.000169336
3570	0.00313272
3582	0.0018627
3594	0.00270938
3606	0.00220137
3618	0.00372539
3630	0.00711211
3642	0.00304805
3654	0.00558809
3666	0.00541875
3678	0.0106682
3690	0.0115995
3702	0.0109222
3714	0.0135469
3726	0.0149016
3738	0.0177803
3750	0.0190503
3762	0.0168489
3774	0.0179496
3786	0.019135
3798	0.020405
3810	0.021421
3822	0.0223524
3834	0.0237917
3846	0.023199
3858	0.0232837
3870	0.0242997
3882	0.0237917
3894	0.0223524
3906	0.0217597
3918	0.0207437
3930	0.0207437
3942	0.0187963
3954	0.0018627
3966	0.00347139
