Infrared Spectrum: Isoquinoline, 1-benzyl-1,2,3,4-tetrahydro-,
Formula: C 16 H 17 N
CAS: 19716-56-4
Origin: Sadtler Research Labs Under US-EPA Contract
1/CM	ABSORBANCE
450	0.0209249
462	0.0124553
474	0.017629
486	0.0215764
498	0.0256771
510	0.00229944
522	0.00160961
534	0.00620849
546	0.042463
558	0.0549183
570	0.0306209
582	0.0220363
594	0.0438427
606	0.030161
618	0.0212315
630	0.0390522
642	0.0277849
654	0.0256388
666	0.0330353
678	0.0540752
690	0.146858
702	0.296513
714	0.197905
726	0.190585
738	0.29452
750	0.38324
762	0.145593
774	0.0649592
786	0.0338401
798	0.0281298
810	0.0229561
822	0.0188554
834	0.0119571
846	0.00540368
858	0.00536536
870	0.00892949
882	0.0038324
894	0.00333419
906	0.00731988
918	0.00548033
930	0.0076648
942	0.0144481
954	0.0200051
966	0.0210782
978	0.020695
990	0.0173224
1002	0.0145248
1014	0.0160194
1026	0.0485565
1038	0.0447241
1050	0.016326
1062	0.0161727
1074	0.0349515
1086	0.0169775
1098	0.0128002
1110	0.0352581
1122	0.102018
1134	0.0859607
1146	0.024719
1158	0.0198518
1170	0.0170925
1182	0.0265969
1194	0.0258304
1206	0.0244124
1218	0.0223429
1230	0.0170542
1242	0.015023
1254	0.0187404
1266	0.0210782
1278	0.024604
1290	0.0338784
1302	0.0385923
1314	0.0698647
1326	0.0594022
1338	0.0443792
1350	0.0375192
1362	0.0353347
1374	0.0421564
1386	0.0321538
1398	0.0128385
1410	0.0141032
1422	0.0372126
1434	0.0938555
1446	0.136012
1458	0.152874
1470	0.0624681
1482	0.0699413
1494	0.214844
1506	0.0531171
1518	0.00808636
1530	0.00502044
1542	0.00567195
1554	0.00674502
1566	0.0146398
1578	0.0280532
1590	0.0394737
1602	0.0819367
1614	0.0350665
1626	0.030276
1638	0.010769
1650	0.00425396
1662	0.00306592
1674	0.00505877
1686	0.00578692
1698	0.00505877
1710	0.00379408
1722	0.00647676
1734	0.00735821
1746	0.00594022
1758	0.00800972
1770	0.0086229
1782	0.00869955
1794	0.0170925
1806	0.0142565
1818	0.00889117
1830	0.00716659
1842	0.00525039
1854	0.00555698
1866	0.00912111
1878	0.0110373
1890	0.00831631
1902	0.0117271
1914	0.0117655
1926	0.00923608
1938	0.0200818
1950	0.015253
1962	0.00624681
1974	0.00145631
1986	0.00130302
1998	0.000459888
2010	0.000536536
2022	0.000306592
2034	0.000344916
2046	0.000229944
2058	0.000268268
2070	0.00038324
2082	0.000459888
2094	0.000459888
2106	0.000344916
2118	0.00019162
2130	3.8324e-05
2142	0.000306592
2154	3.8324e-05
2166	0.000114972
2178	0.000306592
2190	0.00019162
2202	0.000498212
2214	0.00057486
2226	0.000498212
2238	0.000881452
2250	0.00103475
2262	0.00145631
2274	0.00180123
2286	0.00199285
2298	0.00295095
2310	0.00505877
2322	0.0057486
2334	0.00548033
2346	0.00433061
2358	0.00517374
2370	0.00643843
2382	0.00425396
2394	0.00291262
2406	0.00314257
2418	0.00364078
2430	0.00329586
2442	0.00375575
2454	0.00379408
2466	0.00318089
2478	0.00375575
2490	0.00456056
2502	0.00490547
2514	0.00509709
2526	0.00528871
2538	0.00548033
2550	0.00605519
2562	0.00682167
2574	0.0076648
2586	0.0086229
2598	0.00984927
2610	0.0105391
2622	0.0108074
2634	0.0110756
2646	0.010769
2658	0.0114589
2670	0.0139499
2682	0.0162111
2694	0.0173991
2706	0.0175907
2718	0.0210782
2730	0.0279765
2742	0.029931
2754	0.0272484
2766	0.0308891
2778	0.0427313
2790	0.0618933
2802	0.0921692
2814	0.106617
2826	0.097343
2838	0.109607
2850	0.110986
2862	0.100064
2874	0.0926291
2886	0.0999873
2898	0.13034
2910	0.179165
2922	0.251827
2934	0.293447
2946	0.238567
2958	0.238069
2970	0.0924375
2982	0.0368294
2994	0.0359862
3006	0.0638861
3018	0.143562
3030	0.241863
3042	0.153986
3054	0.128577
3066	0.223582
3078	0.202504
3090	0.102287
3102	0.0541518
3114	0.0308891
3126	0.0118421
3138	0.00728156
3150	0.00724324
3162	0.00659173
3174	0.00375575
3186	0.00226112
3198	0.00183955
3210	0.00137966
3222	0.00153296
3234	0.0019162
3246	0.00195452
3258	0.00187788
3270	0.00195452
3282	0.00218447
3294	0.00283598
3306	0.0036791
3318	0.00410067
3330	0.00601687
3342	0.00762648
3354	0.00674502
3366	0.00946603
3378	0.00551866
3390	0.00352581
3402	0.00314257
3414	0.00252938
3426	0.0020695
3438	0.00241441
3450	0.00233776
3462	0.00160961
3474	0.000996424
3486	0.000919776
3498	0.00210782
3510	0.00118804
3522	0.00149464
3534	0.0019162
3546	0.00134134
3558	0.00122637
3570	0.00134134
3582	0.00245274
3594	0.00145631
3606	0.0020695
3618	0.000459888
3630	0.00141799
3642	0.00145631
3654	0.00210782
3666	0.00256771
3678	0.000613184
3690	0.00187788
3702	0.00195452
3714	0.00164793
3726	0.0020695
3738	0.00233776
3750	0.00195452
3762	0.00180123
3774	0.00237609
3786	0.00226112
3798	0.00164793
3810	0.00321922
3822	0.00183955
3834	0.00245274
3846	0.00237609
3858	0.00245274
3870	0.00356413
3882	0.00275933
3894	0.00222279
3906	0.00275933
3918	0.0028743
3930	0.0019162
3942	0.00306592
3954	0.00279765
3966	0.00329586
