Infrared Spectrum: Benzene, 1-bromo-2-ethyl-
Formula: C 8 H 9 Br
CAS: 1973-22-4
Origin: Sadtler Research Labs Under US-EPA Contract
1/CM	ABSORBANCE
450	0.0572735
462	0.0155943
474	0.0179334
486	0.00262267
498	0.00914391
510	0.0135387
522	0.0297
534	0.0126881
546	0.0102072
558	0.0285658
570	0.0354415
582	0.0228952
594	0.00907302
606	0.00956921
618	0.00914391
630	0.00808066
642	0.0180043
654	0.133827
666	0.127093
678	0.0197764
690	0.0186422
702	0.0138931
714	0.02729
726	0.0966844
738	0.393259
750	0.656022
762	0.202017
774	0.0670553
786	0.0807357
798	0.0556432
810	0.0275026
822	0.018784
834	0.0160196
846	0.0114122
858	0.0141057
870	0.0119792
882	0.0129716
894	0.0143184
906	0.0100654
918	0.0112704
930	0.0147437
942	0.0280697
954	0.020627
966	0.0268647
978	0.0249508
990	0.0238167
1002	0.0438766
1014	0.206199
1026	0.361929
1038	0.232567
1050	0.268363
1062	0.141979
1074	0.0728677
1086	0.02729
1098	0.0150981
1110	0.0148854
1122	0.0213358
1134	0.0260141
1146	0.0124045
1158	0.0103489
1170	0.0111995
1182	0.0103489
1194	0.0134678
1206	0.0150272
1218	0.0148145
1230	0.0270773
1242	0.0294873
1254	0.0144601
1266	0.0158778
1278	0.016374
1290	0.0185713
1302	0.023604
1314	0.0228952
1326	0.0332441
1338	0.030267
1350	0.0204143
1362	0.0198472
1374	0.036363
1386	0.044231
1398	0.0265811
1410	0.0345909
1422	0.0537293
1434	0.15892
1446	0.233843
1458	0.194999
1470	0.389715
1482	0.277294
1494	0.0674806
1506	0.0245964
1518	0.0144601
1530	0.0136095
1542	0.0158069
1554	0.023037
1566	0.0853431
1578	0.0880367
1590	0.059967
1602	0.0570608
1614	0.018784
1626	0.0109869
1638	0.00914391
1650	0.00864773
1662	0.00687565
1674	0.0140348
1686	0.0204852
1698	0.0138931
1710	0.0115539
1722	0.0099945
1734	0.0079389
1746	0.00630859
1758	0.00517446
1770	0.00559976
1782	0.0126881
1794	0.0234623
1806	0.00985274
1818	0.00878949
1830	0.013964
1842	0.00538711
1854	0.00205561
1866	0.00567064
1878	0.00886038
1890	0.00524534
1902	0.0198472
1914	0.0236749
1926	0.00730095
1938	0.016374
1950	0.015736
1962	0.00212649
1974	0.00106324
1986	0.00106324
1998	0.00134678
2010	0.00106324
2022	0.00191384
2034	0.00163031
2046	0.00120501
2058	0.000425298
2070	0.000567064
2082	0.000637947
2094	0.000850596
2106	0.00106324
2118	0.00070883
2130	0.000637947
2142	0
2154	0.000425298
2166	0.000425298
2178	0.000637947
2190	0.000283532
2202	0
2214	0.000637947
2226	0.000779713
2238	0.00163031
2250	0.00170119
2262	0.00155943
2274	0.00170119
2286	0.00389857
2298	0.00510358
2310	0.00517446
2322	0.00496181
2334	0.00318974
2346	0.00446563
2358	0.00283532
2370	0.00248091
2382	0.00248091
2394	0.00134678
2406	0.00170119
2418	0.00212649
2430	0.00326062
2442	0.00283532
2454	0.00134678
2466	0.00106324
2478	0.000921479
2490	0.00141766
2502	0.00233914
2514	0.00297709
2526	0.00304797
2538	0.00276444
2550	0.00248091
2562	0.0029062
2574	0.00382768
2586	0.00368592
2598	0.00411121
2610	0.00474916
2622	0.0041821
2634	0.00446563
2646	0.00503269
2658	0.00219737
2670	0.00134678
2682	0.00134678
2694	0.00155943
2706	0.00113413
2718	0.00155943
2730	0.00382768
2742	0.00701742
2754	0.00538711
2766	0.00496181
2778	0.00673389
2790	0.00878949
2802	0.00914391
2814	0.00949832
2826	0.0125463
2838	0.0173663
2850	0.0239585
2862	0.0370718
2874	0.0985274
2886	0.199819
2898	0.157077
2910	0.116532
2922	0.116177
2934	0.181957
2946	0.287147
2958	0.216406
2970	0.367457
2982	0.568978
2994	0.164519
3006	0.0679768
3018	0.0973224
3030	0.0865481
3042	0.0517446
3054	0.0866899
3066	0.212365
3078	0.254541
3090	0.100441
3102	0.042388
3114	0.0130425
3126	0.0136095
3138	0.0189966
3150	0.0161613
3162	0.0110577
3174	0.00836419
3186	0.00446563
3198	0.0037568
3210	0.00347327
3222	0.00233914
3234	0.00120501
3246	0.00120501
3258	0.00113413
3270	0.000779713
3282	0.000921479
3294	0.00127589
3306	0.00134678
3318	0.000921479
3330	0.00070883
3342	0.00120501
3354	0.000921479
3366	0.00120501
3378	0.000637947
3390	0.00170119
3402	0.00141766
3414	0.000637947
3426	0.00113413
3438	0.00184296
3450	0.00155943
3462	0.00155943
3474	0.00120501
3486	0.00177208
3498	0.00127589
3510	0.00269355
3522	0.00212649
3534	0.00241002
3546	0.00248091
3558	0.0029062
3570	0.00184296
3582	0.00241002
3594	0.00170119
3606	0.00184296
3618	0.00177208
3630	0.000850596
3642	0.00311885
3654	0.00177208
3666	0.00205561
3678	0.00233914
3690	0.00141766
3702	0.00106324
3714	0.00134678
3726	0.00141766
3738	0.00269355
3750	0.000850596
3762	0.00262267
3774	0.000425298
3786	0.000283532
3798	0.000283532
3810	0.00141766
3822	0.00070883
3834	0.000921479
3846	0.0033315
3858	0.00170119
3870	0.00155943
3882	0.000921479
3894	0.00177208
3906	0.00382768
3918	0.000992362
3930	0.00503269
3942	0.00340238
3954	0.00531623
3966	0.00233914
