Infrared Spectrum: Heptane, 2-bromo-
Formula: C 7 H 15 Br
CAS: 1974-04-5
Origin: Sadtler Research Labs Under US-EPA Contract
1/CM	ABSORBANCE
450	0
462	0.0300978
474	0.01845
486	0.0254387
498	0.0328932
510	0.0381114
522	0.0473365
534	0.0628979
546	0.0812547
558	0.0521819
570	0.0287001
582	0.0328932
594	0.0338251
606	0.0306569
618	0.0607547
630	0.0669979
642	0.026091
654	0.021525
666	0.0217114
678	0.0180773
690	0.0214319
702	0.023575
714	0.0294455
726	0.049666
738	0.0520887
750	0.0318682
762	0.034291
774	0.0327069
786	0.0265569
798	0.0272091
810	0.0261841
822	0.0290728
834	0.0335455
846	0.0351296
858	0.0376455
870	0.0336387
882	0.0338251
894	0.0388569
906	0.0423046
918	0.0305637
930	0.028141
942	0.030191
954	0.0341046
966	0.0313092
978	0.0282341
990	0.0381114
1002	0.0560024
1014	0.0450069
1026	0.036341
1038	0.0337319
1050	0.0347569
1062	0.0388569
1074	0.0362478
1086	0.0402546
1098	0.0392296
1110	0.0343842
1122	0.0484546
1134	0.0789252
1146	0.101382
1158	0.0673706
1170	0.0687683
1182	0.115918
1194	0.107718
1206	0.0836774
1218	0.112657
1230	0.127007
1242	0.118993
1254	0.0898274
1266	0.0688615
1278	0.0723092
1290	0.0715638
1302	0.0601956
1314	0.0539524
1326	0.0426774
1338	0.0468705
1350	0.0490137
1362	0.0484546
1374	0.0775274
1386	0.139028
1398	0.0607547
1410	0.0356887
1422	0.0410001
1434	0.0694206
1446	0.123187
1458	0.170803
1470	0.152446
1482	0.0731479
1494	0.0328932
1506	0.0272091
1518	0.0232955
1530	0.0202205
1542	0.0187296
1554	0.0169591
1566	0.0161205
1578	0.0152818
1590	0.0161205
1602	0.0179841
1614	0.0173319
1626	0.0161205
1638	0.0150023
1650	0.0157478
1662	0.0152818
1674	0.0151887
1686	0.0146296
1698	0.0150023
1710	0.0146296
1722	0.0150023
1734	0.0148159
1746	0.0149091
1758	0.0147228
1770	0.0141637
1782	0.0136978
1794	0.0144432
1806	0.0136046
1818	0.0135114
1830	0.0132318
1842	0.0132318
1854	0.0138841
1866	0.0136978
1878	0.0136046
1890	0.0138841
1902	0.0134182
1914	0.0135114
1926	0.0135114
1938	0.0132318
1950	0.0132318
1962	0.0130455
1974	0.0128591
1986	0.0128591
1998	0.0136046
2010	0.0140705
2022	0.0136046
2034	0.0140705
2046	0.0139773
2058	0.013325
2070	0.0116478
2082	0.0111818
2094	0.0123932
2106	0.0130455
2118	0.0132318
2130	0.0131387
2142	0.0134182
2154	0.0136046
2166	0.0136978
2178	0.0132318
2190	0.0136046
2202	0.0138841
2214	0.0137909
2226	0.0141637
2238	0.0146296
2250	0.0146296
2262	0.0148159
2274	0.0148159
2286	0.0157478
2298	0.0160273
2310	0.0157478
2322	0.0146296
2334	0.0147228
2346	0.0191955
2358	0.0123932
2370	0.019475
2382	0.0177046
2394	0.015375
2406	0.0158409
2418	0.0158409
2430	0.0149091
2442	0.015375
2454	0.0151887
2466	0.0151887
2478	0.0155614
2490	0.0158409
2502	0.0159341
2514	0.0169591
2526	0.0167728
2538	0.0171455
2550	0.0176114
2562	0.0170523
2574	0.0172387
2586	0.0185432
2598	0.0191955
2610	0.0212455
2622	0.0217114
2634	0.0213387
2646	0.0213387
2658	0.0229228
2670	0.0211523
2682	0.0199409
2694	0.0218978
2706	0.0233887
2718	0.0237614
2730	0.0266501
2742	0.0306569
2754	0.0293523
2766	0.025625
2778	0.0259978
2790	0.0307501
2802	0.037366
2814	0.0449137
2826	0.0587978
2838	0.0969093
2850	0.15785
2862	0.293337
2874	0.403012
2886	0.409069
2898	0.319707
2910	0.346823
2922	0.568131
2934	0.892497
2946	0.838824
2958	0.626649
2970	0.86212
2982	0.549028
2994	0.306662
3006	0.140146
3018	0.0634569
3030	0.0505978
3042	0.0407205
3054	0.0336387
3066	0.0309364
3078	0.0300046
3090	0.029166
3102	0.0263705
3114	0.0253455
3126	0.0245069
3138	0.0227364
3150	0.0246
3162	0.0248796
3174	0.0218046
3186	0.0238546
3198	0.021525
3210	0.021991
3222	0.0207796
3234	0.0203137
3246	0.0188228
3258	0.0166796
3270	0.017425
3282	0.0178909
3294	0.0161205
3306	0.0177046
3318	0.0164932
3330	0.0182637
3342	0.0170523
3354	0.0172387
3366	0.017425
3378	0.0186364
3390	0.0152818
3402	0.0173319
3414	0.0160273
3426	0.0165864
3438	0.0168659
3450	0.0170523
3462	0.0173319
3474	0.0175182
3486	0.0189159
3498	0.0165864
3510	0.0196614
3522	0.0186364
3534	0.0168659
3546	0.0181705
3558	0.0176114
3570	0.0189159
3582	0.0180773
3594	0.0183569
3606	0.0180773
3618	0.0199409
3630	0.0187296
3642	0.0211523
3654	0.0214319
3666	0.0213387
3678	0.0198478
3690	0.0195682
3702	0.0182637
3714	0.0196614
3726	0.0181705
3738	0.0201273
3750	0.0182637
3762	0.0182637
3774	0.0210591
3786	0.019475
3798	0.0214319
3810	0.0206864
3822	0.0172387
3834	0.0181705
3846	0.021525
3858	0.0187296
3870	0.0183569
3882	0.02255
3894	0.0172387
3906	0.0196614
3918	0.0180773
3930	0.023016
3942	0.02255
3954	0.0191955
3966	0.0278614
