Infrared Spectrum: 3-Hexanol, 4-ethyl-
Formula: C 8 H 18 O
CAS: 19780-44-0
Origin: Sadtler Research Labs Under US-EPA Contract
1/CM	ABSORBANCE
450	0
462	0.0277196
474	0.0228016
486	0.035022
498	0.0157972
510	0.0254841
522	0.0295079
534	0.0187778
546	0.0292099
558	0.0266764
570	0.0217584
582	0.0235467
594	0.0281667
606	0.0295079
618	0.0259312
630	0.0263783
642	0.0257822
654	0.0232487
666	0.0202681
678	0.0205661
690	0.0217584
702	0.0208642
714	0.0210132
726	0.0245899
738	0.0257822
750	0.0335317
762	0.0362143
774	0.0435168
786	0.0502231
798	0.0478386
810	0.0441129
822	0.0436658
834	0.049627
846	0.049627
858	0.0481367
870	0.0600591
882	0.0676596
894	0.0523095
906	0.0558862
918	0.0657222
930	0.0611023
942	0.0742169
954	0.134127
966	0.203575
978	0.237852
990	0.218776
1002	0.168553
1014	0.117734
1026	0.109686
1038	0.115051
1050	0.0962734
1062	0.0935908
1074	0.108047
1086	0.131892
1098	0.140833
1110	0.125185
1122	0.113859
1134	0.115051
1146	0.12757
1158	0.10909
1170	0.0755582
1182	0.0634868
1194	0.0731737
1206	0.0968695
1218	0.118777
1230	0.124887
1242	0.111176
1254	0.0988069
1266	0.0932928
1278	0.0937399
1290	0.0979127
1302	0.0959753
1314	0.0819665
1326	0.0709383
1338	0.0703422
1350	0.0755582
1362	0.0870335
1374	0.132786
1386	0.198955
1398	0.141429
1410	0.0760053
1422	0.0561843
1434	0.0599101
1446	0.0970185
1458	0.202085
1470	0.255288
1482	0.141728
1494	0.0573765
1506	0.0384497
1518	0.0329356
1530	0.029955
1542	0.0275705
1554	0.0268254
1566	0.0254841
1578	0.0238448
1590	0.0232487
1602	0.0225035
1614	0.0222055
1626	0.0220564
1638	0.0219074
1650	0.0213113
1662	0.0207152
1674	0.020119
1686	0.0184797
1698	0.0172875
1710	0.0184797
1722	0.0186287
1734	0.0186287
1746	0.0177346
1758	0.0169894
1770	0.0166914
1782	0.0165423
1794	0.0159462
1806	0.0166914
1818	0.0166914
1830	0.0153501
1842	0.0162443
1854	0.0157972
1866	0.0156481
1878	0.0154991
1890	0.0156481
1902	0.0153501
1914	0.0159462
1926	0.0157972
1938	0.0162443
1950	0.0162443
1962	0.0156481
1974	0.0157972
1986	0.0160952
1998	0.0168404
2010	0.0175855
2022	0.0172875
2034	0.0163933
2046	0.0177346
2058	0.0178836
2070	0.014903
2082	0.0163933
2094	0.0162443
2106	0.0152011
2118	0.0153501
2130	0.0153501
2142	0.0152011
2154	0.0153501
2166	0.0156481
2178	0.0152011
2190	0.0163933
2202	0.0156481
2214	0.0156481
2226	0.0165423
2238	0.0160952
2250	0.0162443
2262	0.0160952
2274	0.0157972
2286	0.0172875
2298	0.0192249
2310	0.0189268
2322	0.0186287
2334	0.0166914
2346	0.0166914
2358	0.0180326
2370	0.0180326
2382	0.0202681
2394	0.019821
2406	0.020119
2418	0.0202681
2430	0.0193739
2442	0.0178836
2454	0.0175855
2466	0.0180326
2478	0.0180326
2490	0.0186287
2502	0.0183307
2514	0.0187778
2526	0.0190758
2538	0.019672
2550	0.0207152
2562	0.0225035
2574	0.0235467
2586	0.0256332
2598	0.0275705
2610	0.0308492
2622	0.029806
2634	0.029657
2646	0.0280176
2658	0.0309982
2670	0.0317434
2682	0.0302531
2694	0.0333827
2706	0.0363633
2718	0.0375556
2730	0.0427716
2742	0.049478
2754	0.0493289
2766	0.0476896
2778	0.049925
2790	0.0518624
2802	0.0581217
2814	0.0654242
2826	0.0785388
2838	0.110133
2850	0.171384
2862	0.295377
2874	0.541128
2886	0.807146
2898	0.613109
2910	0.462738
2922	0.609533
2934	0.86497
2946	0.939932
2958	0.927116
2970	1.48687
2982	0.996713
2994	0.31341
3006	0.138449
3018	0.0897161
3030	0.0718325
3042	0.0619965
3054	0.054694
3066	0.049627
3078	0.044858
3090	0.0415794
3102	0.0388968
3114	0.0360653
3126	0.0341279
3138	0.0336808
3150	0.0339788
3162	0.0318924
3174	0.0301041
3186	0.0253351
3198	0.0226526
3210	0.0202681
3222	0.0192249
3234	0.0180326
3246	0.0183307
3258	0.0166914
3270	0.0186287
3282	0.0180326
3294	0.0160952
3306	0.0172875
3318	0.0169894
3330	0.0175855
3342	0.0183307
3354	0.0177346
3366	0.0169894
3378	0.0192249
3390	0.0202681
3402	0.0202681
3414	0.019821
3426	0.01997
3438	0.0204171
3450	0.0210132
3462	0.0184797
3474	0.0172875
3486	0.0180326
3498	0.0187778
3510	0.0157972
3522	0.0190758
3534	0.0178836
3546	0.0177346
3558	0.0187778
3570	0.0169894
3582	0.0172875
3594	0.0171384
3606	0.0183307
3618	0.0216093
3630	0.0318924
3642	0.049627
3654	0.0906102
3666	0.0907593
3678	0.0441129
3690	0.0235467
3702	0.0175855
3714	0.0172875
3726	0.0157972
3738	0.0178836
3750	0.014903
3762	0.0159462
3774	0.014903
3786	0.0169894
3798	0.0159462
3810	0.0169894
3822	0.0157972
3834	0.0171384
3846	0.0166914
3858	0.0184797
3870	0.0177346
3882	0.0163933
3894	0.0187778
3906	0.0187778
3918	0.0175855
3930	0.0165423
3942	0.0153501
3954	0.0160952
3966	0.014903
