Infrared Spectrum: 3-Decanol, 6-ethyl-,
Formula: C 12 H 26 O
CAS: 19780-31-5
Origin: Sadtler Research Labs Under US-EPA Contract
1/CM	ABSORBANCE
450	0.0122788
462	0.0178309
474	0.0053386
486	0.01356
498	0.0117449
510	0.0072605
522	0.00747404
534	0.0116381
546	0.00854176
558	0.0101433
570	0.0019219
582	0.0102501
594	0.00779436
606	0.00918239
618	0.00907562
630	0.00619278
642	0.00565892
654	0.0099298
666	0.00640632
678	0.00704695
690	0.00896885
702	0.00843499
714	0.0104637
726	0.0174038
738	0.0183648
750	0.0150549
762	0.019219
774	0.0282946
786	0.022956
798	0.0155887
810	0.013133
822	0.0127059
834	0.0133465
846	0.0200731
858	0.018258
870	0.0227424
882	0.0256253
894	0.0308571
906	0.0353415
918	0.0443104
930	0.057123
942	0.0577637
954	0.0648106
966	0.0866989
978	0.0880869
990	0.0806129
1002	0.076342
1014	0.0740998
1026	0.0713237
1038	0.0678002
1050	0.0713237
1062	0.0671596
1074	0.069295
1086	0.0805061
1098	0.0938526
1110	0.0905427
1122	0.0766623
1134	0.0752743
1146	0.0656648
1158	0.0508235
1170	0.043563
1182	0.0431359
1194	0.0456984
1206	0.0530657
1218	0.0621413
1230	0.066946
1242	0.0649174
1254	0.06086
1266	0.0541334
1278	0.0529589
1290	0.0524251
1302	0.0512506
1314	0.0487948
1326	0.0474068
1338	0.051037
1350	0.0635293
1362	0.0823212
1374	0.101327
1386	0.143288
1398	0.0823212
1410	0.0506099
1422	0.036516
1434	0.0406801
1446	0.0761284
1458	0.154499
1470	0.174465
1482	0.0645971
1494	0.0272269
1506	0.018258
1518	0.0150549
1530	0.0122788
1542	0.00971625
1554	0.00832822
1566	0.00896885
1578	0.00790113
1590	0.00694018
1602	0.00832822
1614	0.00768758
1626	0.00597923
1638	0.00704695
1650	0.00640632
1662	0.00544537
1674	0.00597923
1686	0.00758081
1698	0.00619278
1710	0.00619278
1722	0.00832822
1734	0.0099298
1746	0.00843499
1758	0.0115314
1770	0.020607
1782	0.0120652
1794	0.00587246
1806	0.00565892
1818	0.00352348
1830	0.00277607
1842	0.00352348
1854	0.00320316
1866	0.00234898
1878	0.0034167
1890	0.00309639
1902	0.00213544
1914	0.0026693
1926	0.00352348
1938	0.00320316
1950	0.00277607
1962	0.00320316
1974	0.00202867
1986	0.00170835
1998	0.0026693
2010	0.00256253
2022	0.00170835
2034	0.0019219
2046	0.00277607
2058	0.00149481
2070	0.00138804
2082	0.00234898
2094	0.00234898
2106	0.0019219
2118	0.00298962
2130	0.00288284
2142	0.00224221
2154	0.00298962
2166	0.0034167
2178	0.00234898
2190	0.00202867
2202	0.00288284
2214	0.00234898
2226	0.00138804
2238	0.00245576
2250	0.00298962
2262	0.00181512
2274	0.00256253
2286	0.00234898
2298	0.000747404
2310	0.000960948
2322	0.00320316
2334	0.00288284
2346	0.000427088
2358	0.00597923
2370	0.00128126
2382	0.000427088
2394	0.00469797
2406	0.00501828
2418	0.00427088
2430	0.00384379
2442	0.00437765
2454	0.00330993
2466	0.0026693
2478	0.00363025
2490	0.00363025
2502	0.00288284
2514	0.00320316
2526	0.00384379
2538	0.00363025
2550	0.00437765
2562	0.00597923
2574	0.00619278
2586	0.00555214
2598	0.00832822
2610	0.00939594
2622	0.00854176
2634	0.00907562
2646	0.0109975
2658	0.010784
2670	0.0117449
2682	0.0136668
2694	0.0134533
2706	0.0147345
2718	0.0167632
2730	0.019219
2742	0.0214612
2754	0.0214612
2766	0.0217815
2778	0.022956
2790	0.0278675
2802	0.0364093
2814	0.0445239
2826	0.0586178
2838	0.0876598
2850	0.169554
2862	0.389611
2874	0.516883
2886	0.505138
2898	0.353415
2910	0.457198
2922	0.757654
2934	1.04455
2946	0.910552
2958	0.610416
2970	1.05256
2982	0.481221
2994	0.15877
3006	0.0797587
3018	0.0498625
3030	0.0370499
3042	0.0312842
3054	0.0241305
3066	0.0195393
3078	0.0203935
3090	0.0170835
3102	0.0139871
3114	0.0142007
3126	0.0137736
3138	0.0100366
3150	0.0116381
3162	0.01356
3174	0.0114246
3186	0.0099298
3198	0.0111043
3210	0.0100366
3222	0.00661986
3234	0.00651309
3246	0.00854176
3258	0.00640632
3270	0.00384379
3282	0.00501828
3294	0.00234898
3306	0.00213544
3318	0.0045912
3330	0.00363025
3342	0.00149481
3354	0.00501828
3366	0.00384379
3378	0.00117449
3390	0.00288284
3402	0.00629955
3414	0.00427088
3426	0.00405734
3438	0.00597923
3450	0.00661986
3462	0.00555214
3474	0.0053386
3486	0.00576569
3498	0.00224221
3510	0.00181512
3522	0.00501828
3534	0.0034167
3546	0.000747404
3558	0.0072605
3570	0.0113178
3582	0.0087553
3594	0.0109975
3606	0.0087553
3618	0.00918239
3630	0.0161226
3642	0.0275472
3654	0.0461255
3666	0.0340603
3678	0.013133
3690	0.0099298
3702	0.00373702
3714	0.00469797
3726	0.00565892
3738	0.00576569
3750	0.000213544
3762	0.00405734
3774	0.00694018
3786	0.000960948
3798	0.00629955
3810	0.00747404
3822	0.00234898
3834	0.00939594
3846	0.0125991
3858	0.00651309
3870	0.006086
3882	0.0112111
3894	0.00704695
3906	0
3918	0.0113178
3930	0.0115314
3942	0.00822144
3954	0.00053386
3966	0.00854176
