Infrared Spectrum: 2-Heptanol, 5-ethyl-
Formula: C 9 H 20 O
CAS: 19780-40-6
Origin: Sadtler Research Labs Under US-EPA Contract
1/CM	ABSORBANCE
450	0.00442672
462	0.002817
474	0.00362186
486	0.003756
498	0.00737786
510	0.00415843
522	0.00348772
534	0.00442672
546	0.00509743
558	0.00335358
570	0.00563401
582	0.000536572
594	0.00107314
606	0.00268286
618	0.00214629
630	0.00147557
642	0.00348772
654	0.00348772
666	0.00563401
678	0.00590229
690	0.002817
702	0.00482915
714	0.00496329
726	0.00858515
738	0.011268
750	0.0155606
762	0.0205239
774	0.0257555
786	0.022536
798	0.015024
810	0.0158289
822	0.0167679
834	0.0230726
846	0.0323285
858	0.0334016
870	0.022536
882	0.0249506
894	0.0389015
906	0.0482915
918	0.0465476
930	0.0700226
942	0.107583
954	0.136423
966	0.102619
978	0.0521816
990	0.0389015
1002	0.0473525
1014	0.0696202
1026	0.0886685
1038	0.114022
1050	0.128777
1062	0.134948
1074	0.130789
1086	0.151447
1098	0.175593
1110	0.13924
1122	0.122204
1134	0.134277
1146	0.130789
1158	0.0929611
1170	0.0571449
1182	0.0497671
1194	0.0587546
1206	0.0717665
1218	0.0779371
1230	0.0960464
1242	0.126899
1254	0.118985
1266	0.088132
1278	0.0725714
1290	0.0635838
1302	0.0594253
1314	0.0588888
1326	0.0590229
1338	0.0732421
1350	0.0971195
1362	0.12368
1374	0.189544
1386	0.263725
1398	0.152252
1410	0.0761932
1422	0.0503036
1434	0.0516451
1446	0.0929611
1458	0.19719
1470	0.205507
1482	0.0827662
1494	0.0303163
1506	0.0191824
1518	0.0139509
1530	0.00912172
1542	0.00992658
1554	0.00764615
1566	0.00657301
1578	0.00710958
1590	0.00603644
1602	0.00509743
1614	0.00563401
1626	0.00415843
1638	0.00509743
1650	0.00362186
1662	0.00348772
1674	0.003756
1686	0.00590229
1698	0.003756
1710	0.00241457
1722	0.00442672
1734	0.00590229
1746	0.00362186
1758	0.00214629
1770	0.00389015
1782	0.00295115
1794	0.00254872
1806	0.00228043
1818	0.00134143
1830	0.00134143
1842	0.000939001
1854	0.00120729
1866	0.00147557
1878	0.000939001
1890	0.001878
1902	0.000670715
1914	0.00120729
1926	0.000268286
1938	0.000536572
1950	0.000670715
1962	0.000939001
1974	0.000939001
1986	0.00107314
1998	0.00147557
2010	0.001878
2022	0.00147557
2034	0.00214629
2046	0.00241457
2058	0.00295115
2070	0.00241457
2082	0.00201214
2094	0.00228043
2106	0.00241457
2118	0.00228043
2130	0.002817
2142	0.00308529
2154	0.00335358
2166	0.00335358
2178	0.00321943
2190	0.00389015
2202	0.003756
2214	0.00415843
2226	0.00429258
2238	0.00469501
2250	0.00389015
2262	0.00429258
2274	0.00415843
2286	0.00389015
2298	0.00201214
2310	0.000268286
2322	0.00107314
2334	0.00201214
2346	0.00107314
2358	0.00134143
2370	0.00308529
2382	0.00389015
2394	0.00737786
2406	0.00818272
2418	0.00751201
2430	0.00630472
2442	0.00563401
2454	0.00590229
2466	0.00643886
2478	0.00563401
2490	0.00617058
2502	0.00617058
2514	0.00549986
2526	0.00643886
2538	0.00643886
2550	0.00778029
2562	0.0087193
2574	0.010329
2586	0.0123412
2598	0.0142192
2610	0.0158289
2622	0.0156947
2634	0.0156947
2646	0.0170362
2658	0.01878
2670	0.0201215
2682	0.0205239
2694	0.0210605
2706	0.0221336
2718	0.0228043
2730	0.0254872
2742	0.030048
2754	0.0301822
2766	0.0284383
2778	0.0305846
2790	0.0360845
2802	0.0434623
2814	0.0537913
2826	0.0685471
2838	0.0963147
2850	0.170362
2862	0.386466
2874	0.631143
2886	0.651801
2898	0.467488
2910	0.538584
2922	0.868308
2934	1.08535
2946	0.94155
2958	0.78259
2970	1.34143
2982	0.85382
2994	0.239177
3006	0.0940342
3018	0.0602302
3030	0.0439989
3042	0.0364869
3054	0.0308529
3066	0.0273652
3078	0.0248165
3090	0.0222677
3102	0.020658
3114	0.0175727
3126	0.0144874
3138	0.0139509
3150	0.0143533
3162	0.0132802
3174	0.0132802
3186	0.0114022
3198	0.0108656
3210	0.00952415
3222	0.00643886
3234	0.00509743
3246	0.00415843
3258	0.00415843
3270	0.00295115
3282	0.002817
3294	0.00321943
3306	0.00268286
3318	0.00321943
3330	0.00308529
3342	0.00415843
3354	0.00201214
3366	0.00268286
3378	0.00389015
3390	0.00308529
3402	0.003756
3414	0.00496329
3426	0.00523158
3438	0.00389015
3450	0.00549986
3462	0.00442672
3474	0.00321943
3486	0.00362186
3498	0.00321943
3510	0.00241457
3522	0.002817
3534	0.00228043
3546	0.001878
3558	0.00174386
3570	0.00295115
3582	0.00120729
3594	0.000939001
3606	0.00442672
3618	0.00657301
3630	0.0210605
3642	0.0367552
3654	0.0772664
3666	0.0523158
3678	0.015024
3690	0.00603644
3702	0.00442672
3714	0.00389015
3726	0.002817
3738	0.00214629
3750	0.00657301
3762	0.000268286
3774	0.00308529
3786	0.000268286
3798	0.001878
3810	0.00496329
3822	0.00456086
3834	0.00241457
3846	0.00308529
3858	0.00228043
3870	0.00657301
3882	0.00456086
3894	0.00549986
3906	0.00482915
3918	0.00563401
3930	0.00321943
3942	0.000670715
3954	0.00120729
3966	0.002817
