Infrared Spectrum: 2,3-Dimethyl-4-penten-2-ol
Formula: C 7 H 14 O
CAS: 19781-52-3
Origin: Sadtler Research Labs Under US-EPA Contract
1/CM	ABSORBANCE
450	0.0198951
462	0.0116663
474	0.0131245
486	0.0101038
498	0.00656227
510	0.00885386
522	0.000624978
534	0.00677059
546	0.014687
558	0.0138537
570	0.0105205
582	0.014687
594	0.00739557
606	0.0056248
618	0.00510399
630	0.0126037
642	0.0308322
654	0.0551022
666	0.0592687
678	0.0320822
690	0.0123954
702	0.00322905
714	0.00510399
726	0.00656227
738	0.02302
750	0.0329155
762	0.0205201
774	0.0076039
786	0.00458317
798	0.00385403
810	0.00583313
822	0.0154161
834	0.0340613
846	0.0538523
858	0.0494774
870	0.034478
882	0.061352
894	0.125412
906	0.235825
918	0.340301
930	0.288636
942	0.247491
954	0.187285
966	0.0834346
978	0.0678101
990	0.118121
1002	0.147391
1014	0.107288
1026	0.0920801
1038	0.121454
1050	0.119892
1062	0.101246
1074	0.0937467
1086	0.10635
1098	0.154786
1110	0.211347
1122	0.236762
1134	0.223013
1146	0.205305
1158	0.214472
1170	0.252491
1182	0.285719
1194	0.234054
1206	0.165411
1218	0.133745
1230	0.108225
1242	0.0899968
1254	0.0883302
1266	0.098434
1278	0.112184
1290	0.115204
1302	0.1101
1314	0.11135
1326	0.124683
1338	0.130204
1350	0.119371
1362	0.196764
1374	0.369258
1386	0.33353
1398	0.15437
1410	0.0839554
1422	0.0908301
1434	0.0740599
1446	0.0822888
1458	0.134683
1470	0.139474
1482	0.076664
1494	0.0299989
1506	0.0167702
1518	0.013437
1530	0.00854137
1542	0.00979132
1554	0.00968716
1566	0.00812471
1578	0.012812
1590	0.010833
1602	0.0112496
1614	0.0209368
1626	0.0482275
1638	0.084372
1650	0.0611437
1662	0.0216659
1674	0.0136454
1686	0.0220826
1698	0.038332
1710	0.028749
1722	0.0253116
1734	0.0289573
1746	0.0349988
1758	0.0337488
1770	0.0267699
1782	0.0267699
1794	0.0327072
1806	0.0290615
1818	0.0205201
1830	0.0267699
1842	0.0305198
1854	0.0181244
1866	0.00937467
1878	0.00510399
1890	0.0036457
1902	0.00333322
1914	0.00291656
1926	0.00270824
1938	0.00218742
1950	0.0019791
1962	0.00218742
1974	0.00249991
1986	0.00385403
1998	0.00395819
2010	0.00333322
2022	0.00249991
2034	0.00156244
2046	0.00187493
2058	0.00124996
2070	0.000104163
2082	0.00104163
2094	0.00260407
2106	0.00312489
2118	0.00333322
2130	0.00302073
2142	0.00270824
2154	0.00291656
2166	0.00270824
2178	0.00249991
2190	0.00249991
2202	0.00260407
2214	0.00312489
2226	0.00322905
2238	0.00229159
2250	0.00187493
2262	0.00322905
2274	0.0028124
2286	0.0036457
2298	0.00343738
2310	0.00437485
2322	0.00374987
2334	0.00552064
2346	0.00260407
2358	0.00531231
2370	0.00218742
2382	0.00104163
2394	0.00291656
2406	0.00343738
2418	0.00395819
2430	0.00416652
2442	0.00374987
2454	0.00333322
2466	0.00260407
2478	0.00302073
2490	0.00218742
2502	0.00249991
2514	0.000937467
2526	0.00249991
2538	0.00302073
2550	0.00270824
2562	0.00354154
2574	0.0028124
2586	0.00333322
2598	0.00354154
2610	0.00458317
2622	0.00572896
2634	0.00593729
2646	0.00541648
2658	0.00541648
2670	0.00270824
2682	0.000729141
2694	0.00249991
2706	0.00510399
2718	0.00947883
2730	0.0136454
2742	0.0141662
2754	0.0120829
2766	0.0109371
2778	0.00999965
2790	0.00989548
2802	0.0144787
2814	0.018541
2826	0.0259366
2838	0.0353113
2850	0.0467692
2862	0.075414
2874	0.157599
2886	0.258012
2898	0.270511
2910	0.222492
2922	0.2227
2934	0.289573
2946	0.331551
2958	0.367904
2970	0.704142
2982	1.04163
2994	0.707579
3006	0.260095
3018	0.103226
3030	0.0564563
3042	0.0363529
3054	0.0371862
3066	0.0629145
3078	0.131975
3090	0.146557
3102	0.0627061
3114	0.0168744
3126	0.0119787
3138	0.0112496
3150	0.0117704
3162	0.0117704
3174	0.0136454
3186	0.0141662
3198	0.0130204
3210	0.0111454
3222	0.0084372
3234	0.00749974
3246	0.00541648
3258	0.00520815
3270	0.00635394
3282	0.00552064
3294	0.0056248
3306	0.00302073
3318	0.00395819
3330	0.00499982
3342	0.00385403
3354	0.0028124
3366	0.00270824
3378	0.00343738
3390	0.00531231
3402	0.00354154
3414	0.0036457
3426	0.00302073
3438	0.00302073
3450	0.00333322
3462	0.00322905
3474	0.00239575
3486	0.00249991
3498	0.00177077
3510	0.00249991
3522	0.00322905
3534	0.00229159
3546	0.00395819
3558	0.00697892
3570	0.010833
3582	0.0139578
3594	0.028749
3606	0.0510399
3618	0.0492691
3630	0.0477067
3642	0.0693726
3654	0.0542689
3666	0.0171869
3678	0.00374987
3690	0.000416652
3702	0.000104163
3714	0.00166661
3726	0.000104163
3738	0.000104163
3750	0.000104163
3762	0.000104163
3774	0.000104163
3786	0.000104163
3798	0.000104163
3810	0.000104163
3822	0.000104163
3834	0.000104163
3846	0.000104163
3858	0.00437485
3870	0.00156244
3882	0
3894	0.00177077
3906	0.00239575
3918	0.000208326
3930	0.00374987
3942	0.000833304
3954	0.0019791
3966	0.000104163
