Infrared Spectrum: o-Xylene, decafluoro-,
Formula: C 8 F 10
CAS: 1978-04-7
Origin: Sadtler Research Labs Under US-EPA Contract
1/CM	ABSORBANCE
450	0.0015686
462	0.0101088
474	0.0122002
486	0.00331149
498	0.0111545
510	0.00610011
522	0.00836587
534	0.0162089
546	0.0139431
558	0.0104573
570	0.0120259
582	0.00836587
594	0.0111545
606	0.00174289
618	0.00540296
630	0.00366007
642	0.0109802
654	0.00976018
666	0.023529
678	0.00993447
690	0.0113288
702	0.0205661
714	0.229016
726	0.20113
738	0.0261433
750	0.0062744
762	0.0102831
774	0.00505438
786	0.0122002
798	0.00749443
810	0.00801729
822	0.0137688
834	0.0163832
846	0.0409579
858	0.173243
870	0.0496724
882	0.0291063
894	0.140477
906	0.216641
918	0.0266662
930	0.0282348
942	0.0245747
954	0.0137688
966	0.0125488
978	0.0108059
990	0.0125488
1002	0.0174289
1014	0.0148146
1026	0.0176032
1038	0.0275377
1050	0.211238
1062	0.0822644
1074	0.0250976
1086	0.0254462
1098	0.0339864
1110	0.0399122
1122	0.0474066
1134	0.0599554
1146	0.0955104
1158	0.145706
1170	0.377859
1182	1.23205
1194	1.46037
1206	0.665784
1218	0.554065
1230	0.529839
1242	0.948655
1254	0.866565
1266	0.287925
1278	0.120782
1290	0.0554239
1302	0.044618
1314	0.047058
1326	0.0697156
1338	0.453674
1350	0.230759
1362	0.102831
1374	0.21089
1386	0.777329
1398	0.339864
1410	0.0522867
1422	0.0350321
1434	0.0425265
1446	0.0859245
1458	0.183178
1470	0.21089
1482	0.825433
1494	0.330103
1506	0.120782
1518	0.168189
1530	0.258122
1542	0.0921989
1554	0.0479295
1566	0.0259691
1578	0.027712
1590	0.0310234
1602	0.0388664
1614	0.0733757
1626	0.164703
1638	0.128974
1650	0.0575154
1662	0.0271891
1674	0.0130717
1686	0.0101088
1698	0.0102831
1710	0.00801729
1722	0.00906303
1734	0.00941161
1746	0.00732014
1758	0.00766872
1770	0.00836587
1782	0.00662298
1794	0.00679727
1806	0.00540296
1818	0.00522867
1830	0.00557725
1842	0.00610011
1854	0.00488009
1866	0.0062744
1878	0.00557725
1890	0.00505438
1902	0.00488009
1914	0.00418294
1926	0.00418294
1938	0.00366007
1950	0.00400865
1962	0.0047058
1974	0.00488009
1986	0.00400865
1998	0.00366007
2010	0.00366007
2022	0.00331149
2034	0.00400865
2046	0.00505438
2058	0.00435723
2070	0.00488009
2082	0.0047058
2094	0.00575154
2106	0.00679727
2118	0.00522867
2130	0.00400865
2142	0.00366007
2154	0.00331149
2166	0.0031372
2178	0.00261433
2190	0.0031372
2202	0.00366007
2214	0.00331149
2226	0.00383436
2238	0.00418294
2250	0.00366007
2262	0.00400865
2274	0.00453151
2286	0.00505438
2298	0.00592583
2310	0.00644869
2322	0.00714585
2334	0.00766872
2346	0.00819158
2358	0.00749443
2370	0.00732014
2382	0.00714585
2394	0.00557725
2406	0.00383436
2418	0.00400865
2430	0.00488009
2442	0.00505438
2454	0.00488009
2466	0.00366007
2478	0.0031372
2490	0.00278862
2502	0.00296291
2514	0.0031372
2526	0.00418294
2538	0.00522867
2550	0.00453151
2562	0.00400865
2574	0.00522867
2586	0.00418294
2598	0.0031372
2610	0.00296291
2622	0.00244005
2634	0.0031372
2646	0.00383436
2658	0.00331149
2670	0.00278862
2682	0.0031372
2694	0.00191718
2706	0.00122002
2718	0.00174289
2730	0.00244005
2742	0.00244005
2754	0.000697156
2766	0.000522867
2778	0
2790	0.000174289
2802	0.000871445
2814	0.00104573
2826	0.00226576
2838	0.00226576
2850	0.00244005
2862	0.00226576
2874	0.00174289
2886	0.00139431
2898	0.00104573
2910	0.000871445
2922	0.00104573
2934	0.000871445
2946	0.00104573
2958	0.000697156
2970	0.000871445
2982	0.000697156
2994	0.00104573
3006	0.00139431
3018	0.00191718
3030	0.0015686
3042	0.00122002
3054	0.000871445
3066	0.00139431
3078	0.00139431
3090	0.00122002
3102	0.00174289
3114	0.00191718
3126	0.0015686
3138	0.00139431
3150	0.00191718
3162	0.00191718
3174	0.00139431
3186	0.00191718
3198	0.00122002
3210	0.00191718
3222	0.00174289
3234	0.00139431
3246	0.00244005
3258	0.00191718
3270	0.00226576
3282	0.00296291
3294	0.00244005
3306	0.00278862
3318	0.00296291
3330	0.00261433
3342	0.00209147
3354	0.00244005
3366	0.00261433
3378	0.0031372
3390	0.00261433
3402	0.00261433
3414	0.00226576
3426	0.00209147
3438	0.00331149
3450	0.00261433
3462	0.00261433
3474	0.00244005
3486	0.00244005
3498	0.00209147
3510	0.00191718
3522	0.00278862
3534	0.00244005
3546	0.0015686
3558	0.00104573
3570	0.00278862
3582	0.00122002
3594	0.0015686
3606	0.0015686
3618	0.0015686
3630	0.00122002
3642	0.00122002
3654	0.00122002
3666	0.00122002
3678	0.0015686
3690	0.00104573
3702	0.000871445
3714	0.000871445
3726	0.000522867
3738	0.000871445
3750	0.000871445
3762	0.00244005
3774	0.0015686
3786	0.00191718
3798	0.00209147
3810	0.00348578
3822	0.00400865
3834	0.000697156
3846	0.00261433
3858	0.00331149
3870	0.0015686
3882	0.00278862
3894	0.000871445
3906	0.00296291
3918	0.000348578
3930	0.00348578
3942	0
3954	0.00453151
3966	0.00139431
