Infrared Spectrum: 3-Octanol, 6-ethyl-
Formula: C 10 H 22 O
CAS: 19781-27-2
Origin: Sadtler Research Labs Under US-EPA Contract
1/CM	ABSORBANCE
450	0.0977546
462	0.063572
474	0.045787
486	0.0688697
498	0.0204339
510	0.0134964
522	0.0307769
534	0.0351917
546	0.0563823
558	0.0295156
570	0.0302724
582	0.0303985
594	0.0316599
606	0.0295156
618	0.0239657
630	0.028002
642	0.0210645
654	0.0209384
666	0.0230827
678	0.0189203
690	0.0180373
702	0.0209384
714	0.0182896
726	0.0267406
738	0.0292633
750	0.0278758
762	0.0375882
774	0.0469222
786	0.0425075
798	0.0267406
810	0.0228304
822	0.0324167
834	0.0244702
846	0.0278758
858	0.0310292
870	0.0358223
882	0.0375882
894	0.0452825
906	0.0556255
918	0.0696265
930	0.107215
942	0.113269
954	0.0997728
966	0.114278
978	0.127901
990	0.122982
1002	0.108224
1014	0.110747
1026	0.108981
1038	0.099016
1050	0.0996467
1062	0.0930876
1074	0.0932138
1086	0.10608
1098	0.121973
1110	0.121468
1122	0.107467
1134	0.10608
1146	0.0944751
1158	0.071014
1170	0.0584005
1182	0.0602925
1194	0.0671038
1206	0.0734106
1218	0.0865286
1230	0.0956103
1242	0.0946013
1254	0.08779
1266	0.077573
1278	0.0765639
1290	0.0721492
1302	0.0688697
1314	0.0664731
1326	0.0618062
1338	0.0620584
1350	0.0776992
1362	0.104692
1374	0.132946
1386	0.19223
1398	0.12109
1410	0.0669777
1422	0.0483097
1434	0.0534812
1446	0.0942228
1458	0.195509
1470	0.223511
1482	0.0932138
1494	0.037336
1506	0.0251009
1518	0.0203077
1530	0.0171544
1542	0.0169021
1554	0.0162714
1566	0.0148839
1578	0.0136226
1590	0.0126135
1602	0.0122351
1614	0.0117306
1626	0.0109737
1638	0.0105953
1650	0.0100908
1662	0.00983853
1674	0.00933399
1686	0.00908172
1698	0.00857718
1710	0.00946013
1722	0.0119828
1734	0.0138749
1746	0.0117306
1758	0.0153885
1770	0.0243441
1782	0.0175328
1794	0.00933399
1806	0.00782037
1818	0.00643289
1830	0.00529767
1842	0.00479313
1854	0.00416246
1866	0.00479313
1878	0.00491927
1890	0.00416246
1902	0.00441473
1914	0.00428859
1926	0.00428859
1938	0.00441473
1950	0.00327951
1962	0.00327951
1974	0.00315338
1986	0.00227043
1998	0.00239657
2010	0.00227043
2022	0.00239657
2034	0.00290111
2046	0.00353178
2058	0.00441473
2070	0.00353178
2082	0.00302724
2094	0.00189203
2106	0.0021443
2118	0.00201816
2130	0.00138749
2142	0.00151362
2154	0.00189203
2166	0.00189203
2178	0.00138749
2190	0.00151362
2202	0.00138749
2214	0.0021443
2226	0.0021443
2238	0.00201816
2250	0.00227043
2262	0.00201816
2274	0.00163976
2286	0.00264884
2298	0.00327951
2310	0.00378405
2322	0.00441473
2334	0.00428859
2346	0.00277497
2358	0.00327951
2370	0.00227043
2382	0.00315338
2394	0.00428859
2406	0.00491927
2418	0.00416246
2430	0.00391019
2442	0.00302724
2454	0.00290111
2466	0.00315338
2478	0.00327951
2490	0.00277497
2502	0.00340565
2514	0.00302724
2526	0.00340565
2538	0.00365792
2550	0.00479313
2562	0.00706356
2574	0.00908172
2586	0.0104692
2598	0.0118567
2610	0.0122351
2622	0.0117306
2634	0.0124874
2646	0.0132442
2658	0.0151362
2670	0.0172805
2682	0.0187941
2694	0.0206861
2706	0.0209384
2718	0.0206861
2730	0.022452
2742	0.0281281
2754	0.028002
2766	0.0254793
2778	0.028002
2790	0.0331735
2802	0.0397325
2814	0.0493188
2826	0.0643289
2838	0.0968717
2850	0.183274
2862	0.406407
2874	0.589681
2886	0.618944
2898	0.43958
2910	0.503909
2922	0.835014
2934	1.05096
2946	0.97578
2958	0.751638
2970	1.26135
2982	0.701311
2994	0.19614
3006	0.0891774
3018	0.058905
3030	0.0437688
3042	0.0365792
3054	0.0330474
3066	0.0285065
3078	0.0267406
3090	0.0237134
3102	0.0203077
3114	0.016776
3126	0.0156407
3138	0.0123612
3150	0.0134964
3162	0.0126135
3174	0.011226
3186	0.00946013
3198	0.00782037
3210	0.00554994
3222	0.00340565
3234	0.00302724
3246	0.00264884
3258	0.00189203
3270	0.00138749
3282	0.00189203
3294	0.00327951
3306	0.00201816
3318	0.00327951
3330	0.0025227
3342	0.0021443
3354	0.00163976
3366	0.00378405
3378	0.0021443
3390	0.00365792
3402	0.00353178
3414	0.00542381
3426	0.00416246
3438	0.00618062
3450	0.00391019
3462	0.00378405
3474	0.00353178
3486	0.00239657
3498	0.00239657
3510	0.00277497
3522	0.00126135
3534	0.00264884
3546	0.00302724
3558	0.00365792
3570	0.00996467
3582	0.00580221
3594	0.00353178
3606	0.004667
3618	0.00895559
3630	0.0201816
3642	0.0312815
3654	0.0639504
3666	0.0525983
3678	0.0166498
3690	0.00958626
3702	0.00491927
3714	0.00580221
3726	0.00403632
3738	0.00416246
3750	0.004667
3762	0.00277497
3774	0.00151362
3786	0.00365792
3798	0.00542381
3810	0.00529767
3822	0.00794651
3834	0.00290111
3846	0.00580221
3858	0.00731583
3870	0.00315338
3882	0.00517154
3894	0.00643289
3906	0.00327951
3918	0.00189203
3930	0.00655902
3942	0.00630675
3954	0.0103431
3966	0.00138749
