Infrared Spectrum: Benzeneethanol, 2-methyl-
Formula: C 9 H 12 O
CAS: 19819-98-8
Origin: Sadtler Research Labs Under US-EPA Contract
1/CM	ABSORBANCE
450	0.0619357
462	0.0678423
474	0.0382246
486	0.024808
498	0.0200827
510	0.0231204
522	0.021264
534	0.01772
546	0.0247236
558	0.0264956
570	0.0156105
582	0.0145979
594	0.0220234
606	0.0243861
618	0.0178044
630	0.00691924
642	0.00624419
654	0.0031221
666	0.000675048
678	0.00573791
690	0.00675048
702	0.0126572
714	0.059573
726	0.20589
738	0.412539
750	0.472534
762	0.19627
774	0.0402497
786	0.0194076
798	0.0145135
810	0.0129103
822	0.0126572
834	0.0178888
846	0.0297021
858	0.0352713
870	0.0340899
882	0.0225297
894	0.0181419
906	0.0194076
918	0.027677
930	0.0444688
942	0.0473377
954	0.037212
966	0.0380558
978	0.0540038
990	0.0977976
1002	0.149776
1014	0.193823
1026	0.352544
1038	0.720783
1050	0.796557
1062	0.484347
1074	0.168762
1086	0.0783056
1098	0.0763648
1110	0.0986414
1122	0.0877562
1134	0.064889
1146	0.0603324
1158	0.0578854
1170	0.0663235
1182	0.0762804
1194	0.0750991
1206	0.0773774
1218	0.0715551
1230	0.0590667
1242	0.0544257
1254	0.0572947
1266	0.0622732
1278	0.0593198
1290	0.057801
1302	0.0607543
1314	0.0626107
1326	0.0682642
1338	0.079065
1350	0.0818496
1362	0.0824402
1374	0.136107
1386	0.198717
1398	0.131634
1410	0.0699518
1422	0.0608387
1434	0.0756898
1446	0.123618
1458	0.164796
1470	0.159311
1482	0.173572
1494	0.21745
1506	0.123196
1518	0.031896
1530	0.0211796
1542	0.0163699
1554	0.013501
1566	0.0133322
1578	0.0221922
1590	0.0325711
1602	0.0459033
1614	0.0348494
1626	0.0116446
1638	0.00430343
1650	0.00447219
1662	0.00455657
1674	0.0102101
1686	0.00987258
1698	0.00936629
1710	0.005316
1722	0.00632858
1734	0.00565353
1746	0.001772
1758	0.00421905
1770	0.00565353
1782	0.0105476
1794	0.0153573
1806	0.0105476
1818	0.00987258
1830	0.0113914
1842	0.007088
1854	0.00464096
1866	0.00818496
1878	0.00936629
1890	0.0123196
1902	0.0252299
1914	0.0220234
1926	0.0109695
1938	0.0178888
1950	0.0150198
1962	0.00371276
1974	0.00244705
1986	0.00236267
1998	0.00210953
2010	0.00227829
2022	0.00270019
2034	0.00396591
2046	0.00556915
2058	0.00658172
2070	0.00632858
2082	0.00438781
2094	0.00371276
2106	0.00286895
2118	0.00185638
2130	0.000759429
2142	0.000675048
2154	0.000928191
2166	0.000168762
2178	0.000253143
2190	0.000421905
2202	0.000759429
2214	0.000928191
2226	0.000759429
2238	0.000928191
2250	0.0013501
2262	0.00101257
2274	0.00151886
2286	0.00168762
2298	0.00101257
2310	0.00202514
2322	0.00405029
2334	0.00405029
2346	0.00345962
2358	0.00185638
2370	0.00118133
2382	0.00194076
2394	0.00270019
2406	0.00329086
2418	0.00396591
2430	0.00421905
2442	0.00430343
2454	0.00405029
2466	0.00236267
2478	0.00253143
2490	0.00261581
2502	0.00244705
2514	0.00261581
2526	0.00244705
2538	0.00227829
2550	0.00210953
2562	0.00278457
2574	0.00329086
2586	0.00413467
2598	0.00447219
2610	0.00421905
2622	0.00413467
2634	0.00455657
2646	0.00590667
2658	0.00683486
2670	0.00759429
2682	0.00894439
2694	0.00928191
2706	0.0105476
2718	0.013501
2730	0.0183951
2742	0.0242173
2754	0.0263269
2766	0.0232048
2778	0.0236267
2790	0.0253143
2802	0.0274238
2814	0.0320648
2826	0.0409248
2838	0.0557758
2850	0.0870812
2862	0.156611
2874	0.307147
2886	0.424015
2898	0.331786
2910	0.282929
2922	0.355497
2934	0.464771
2946	0.510252
2958	0.515399
2970	0.441228
2982	0.263944
2994	0.143532
3006	0.129947
3018	0.257953
3030	0.310016
3042	0.191292
3054	0.184288
3066	0.270947
3078	0.278035
3090	0.1356
3102	0.063792
3114	0.0450595
3126	0.0218547
3138	0.0130791
3150	0.0114758
3162	0.00953505
3174	0.00582229
3186	0.00371276
3198	0.00185638
3210	0.00160324
3222	0.00126572
3234	0.00101257
3246	0.000675048
3258	0.00101257
3270	0.000675048
3282	0.000928191
3294	0.00101257
3306	0.00151886
3318	0.00210953
3330	0.00244705
3342	0.00185638
3354	0.00151886
3366	0.00261581
3378	0.00337524
3390	0.00236267
3402	0.00253143
3414	0.00253143
3426	0.00236267
3438	0.00236267
3450	0.00185638
3462	0.00303772
3474	0.0031221
3486	0.0031221
3498	0.00227829
3510	0.00270019
3522	0.00227829
3534	0.00261581
3546	0.00464096
3558	0.00540038
3570	0.00599105
3582	0.00565353
3594	0.00675048
3606	0.00987258
3618	0.0346806
3630	0.0780524
3642	0.0570416
3654	0.0775461
3666	0.119905
3678	0.0842966
3690	0.0270863
3702	0.012404
3714	0.00835372
3726	0.0048941
3738	0.00396591
3750	0.00118133
3762	0.0013501
3774	0.00244705
3786	0.00118133
3798	0.00126572
3810	0.00160324
3822	0.00143448
3834	0.00160324
3846	0.00337524
3858	0.0031221
3870	0.00430343
3882	0.00480972
3894	0.00413467
3906	0.00430343
3918	0.00210953
3930	0.00210953
3942	0.00286895
3954	0.000253143
3966	0.000928191
