Infrared Spectrum: Benzeneacetic acid, .alpha.-cyclopentyl-.alpha.-hydroxy-, methyl ester
Formula: C 14 H 18 O 3
CAS: 19833-96-6
Origin: Sadtler Research Labs Under US-EPA Contract
1/CM	ABSORBANCE
450	0
462	0.00570226
474	0.0136628
486	0.0142274
498	0.0238253
510	0.0215105
522	0.00942849
534	0.00756537
546	0.00434727
558	0.00626684
570	0.00361331
582	0.00502476
594	0.00886391
606	0.0269869
618	0.0333667
630	0.0157518
642	0.0103883
654	0.0103883
666	0.0168809
678	0.0236559
690	0.0791541
702	0.186707
714	0.0655477
726	0.098745
738	0.117037
750	0.0639669
762	0.0361331
774	0.0197038
786	0.0277209
798	0.0238253
810	0.00965432
822	0.00637975
834	0.00547643
846	0.00694433
858	0.0142839
870	0.0216234
882	0.0153001
894	0.0196474
906	0.0238253
918	0.0280032
930	0.0204378
942	0.0281725
954	0.0360767
966	0.0261401
978	0.0530141
990	0.057813
1002	0.0401981
1014	0.054482
1026	0.0972771
1038	0.114271
1050	0.0809043
1062	0.0832191
1074	0.100834
1086	0.0794929
1098	0.104673
1110	0.0955834
1122	0.0932686
1134	0.0663946
1146	0.0647009
1158	0.0958657
1170	0.212847
1182	0.29409
1194	0.313681
1206	0.221541
1218	0.292904
1230	0.382955
1242	0.470521
1254	0.466908
1266	0.21471
1278	0.112013
1290	0.0815254
1302	0.0703467
1314	0.0677496
1326	0.0575872
1338	0.0567403
1350	0.049683
1362	0.0510945
1374	0.0509816
1386	0.0357944
1398	0.0250109
1410	0.0245592
1422	0.0292452
1434	0.0810737
1446	0.121215
1458	0.080001
1470	0.0508122
1482	0.0459568
1494	0.0654348
1506	0.0377704
1518	0.0114045
1530	0.00875099
1542	0.00988015
1554	0.00835578
1566	0.00965432
1578	0.0129853
1590	0.0206636
1602	0.0300921
1614	0.0132676
1626	0.0103318
1638	0.0133805
1650	0.00965432
1662	0.00999307
1674	0.0160905
1686	0.0229219
1698	0.0318988
1710	0.0440372
1722	0.0903893
1734	0.349983
1746	0.477014
1758	0.2002
1770	0.111617
1782	0.0388996
1794	0.0337619
1806	0.0301486
1818	0.0142839
1830	0.00948494
1842	0.00711371
1854	0.00592809
1866	0.00683142
1878	0.00841224
1890	0.0103318
1902	0.0091462
1914	0.00660559
1926	0.00637975
1938	0.00920265
1950	0.014058
1962	0.0117997
1974	0.00773475
1986	0.007396
1998	0.00728308
2010	0.00705725
2022	0.00784766
2034	0.00773475
2046	0.00767829
2058	0.00733954
2070	0.00711371
2082	0.00683142
2094	0.00660559
2106	0.00660559
2118	0.00654913
2130	0.00660559
2142	0.00694433
2154	0.00677496
2166	0.00700079
2178	0.00700079
2190	0.00683142
2202	0.00705725
2214	0.00654913
2226	0.00626684
2238	0.00621038
2250	0.00575872
2262	0.00558934
2274	0.00513768
2286	0.00485539
2298	0.00429081
2310	0.00395206
2322	0.00361331
2334	0.00361331
2346	0.00621038
2358	0.00446018
2370	0.00818641
2382	0.00750891
2394	0.00609746
2406	0.00654913
2418	0.00621038
2430	0.00575872
2442	0.00581517
2454	0.00581517
2466	0.00575872
2478	0.00592809
2490	0.00581517
2502	0.00575872
2514	0.00592809
2526	0.00615392
2538	0.00609746
2550	0.00604101
2562	0.00621038
2574	0.00649267
2586	0.00688788
2598	0.00750891
2610	0.00717017
2622	0.00711371
2634	0.007396
2646	0.00745246
2658	0.00700079
2670	0.00705725
2682	0.00677496
2694	0.00722662
2706	0.00688788
2718	0.00705725
2730	0.0077912
2742	0.00801704
2754	0.00807349
2766	0.00903328
2778	0.00942849
2790	0.0103318
2802	0.0112916
2814	0.0127595
2826	0.0160905
2838	0.0244463
2850	0.0472553
2862	0.064475
2874	0.15955
2886	0.168188
2898	0.0866066
2910	0.0993661
2922	0.142895
2934	0.167567
2946	0.244011
2958	0.463633
2970	0.489999
2982	0.172536
2994	0.0785331
3006	0.0748633
3018	0.0595632
3030	0.0723792
3042	0.078646
3054	0.0601278
3066	0.0976723
3078	0.100778
3090	0.0527882
3102	0.0481022
3114	0.0241076
3126	0.0158647
3138	0.012082
3150	0.0110658
3162	0.0111222
3174	0.0110093
3186	0.00925911
3198	0.00812995
3210	0.0077912
3222	0.00756537
3234	0.00756537
3246	0.00722662
3258	0.00733954
3270	0.00722662
3282	0.00700079
3294	0.00677496
3306	0.00722662
3318	0.00705725
3330	0.00660559
3342	0.00733954
3354	0.00756537
3366	0.00654913
3378	0.00762183
3390	0.00790412
3402	0.00807349
3414	0.00801704
3426	0.00824287
3438	0.00892036
3450	0.0102754
3462	0.012082
3474	0.0105012
3486	0.0129853
3498	0.0158647
3510	0.0208895
3522	0.0340442
3534	0.0883003
3546	0.151307
3558	0.0995919
3570	0.046352
3582	0.023543
3594	0.0159212
3606	0.0123643
3618	0.0195909
3630	0.0601278
3642	0.0185182
3654	0.0084687
3666	0.00643621
3678	0.00474247
3690	0.00372623
3702	0.00412143
3714	0.00412143
3726	0.00378269
3738	0.00479893
3750	0.00361331
3762	0.00361331
3774	0.00417789
3786	0.00366977
3798	0.00423435
3810	0.00361331
3822	0.00383914
3834	0.00366977
3846	0.00378269
3858	0.00474247
3870	0.00395206
3882	0.00434727
3894	0.00423435
3906	0.00479893
3918	0.0045731
3930	0.00479893
3942	0.00485539
3954	0.00462956
3966	0.00434727
