Infrared Spectrum: Benzene, 1,3-dichloro-2-methoxy-
Formula: C 7 H 6 Cl 2 O
CAS: 1984-65-2
Origin: Sadtler Research Labs Under US-EPA Contract
1/CM	ABSORBANCE
450	0.0173489
462	0.0171071
474	0.00936959
486	0.00677029
498	0.00537996
510	0.00713298
522	0.0131174
534	0.0357858
546	0.0363903
558	0.011304
570	0.00483592
582	0.0252677
594	0.0420121
606	0.0299827
618	0.0146891
630	0.00386874
642	0.00235751
654	0.00610535
666	0.00513817
678	0.00405008
690	0.00356649
702	0.00822106
714	0.0129361
726	0.0502331
738	0.129482
750	0.0953885
762	0.154205
774	0.498342
786	0.484499
798	0.371882
810	0.127185
822	0.0281692
834	0.0116667
846	0.0092487
858	0.0125734
870	0.00943004
882	0.00586355
894	0.00398963
906	0.00701208
918	0.00537996
930	0.0100345
942	0.0119085
954	0.0105181
966	0.015354
978	0.0301036
990	0.115699
1002	0.395095
1014	0.364205
1026	0.0837823
1038	0.0442487
1050	0.0261744
1062	0.098955
1074	0.171131
1086	0.0745336
1098	0.0479965
1110	0.0396545
1122	0.0111831
1134	0.00864421
1146	0.0329447
1158	0.0400172
1170	0.0247236
1182	0.0199482
1194	0.0618393
1206	0.0998013
1218	0.0380224
1230	0.0602677
1242	0.180198
1254	0.527236
1266	0.514905
1278	0.140483
1290	0.0440069
1302	0.0247236
1314	0.0194041
1326	0.0208549
1338	0.0162608
1350	0.0140242
1362	0.0161399
1374	0.0154749
1386	0.0171071
1398	0.0557944
1410	0.21272
1422	0.488912
1434	0.3824
1446	0.325518
1458	0.266943
1470	0.596148
1482	0.314214
1494	0.0733851
1506	0.0502936
1518	0.0294387
1530	0.0186787
1542	0.0372366
1554	0.0670379
1566	0.168774
1578	0.0741709
1590	0.0235147
1602	0.0149309
1614	0.0115458
1626	0.0125129
1638	0.0141451
1650	0.0141451
1662	0.0168653
1674	0.00967184
1686	0.0117876
1698	0.00997408
1710	0.00126943
1722	0.00290155
1734	0.00858376
1746	0.00145078
1758	0.00145078
1770	0.0090069
1782	0.0103368
1794	0.00773747
1806	0.00501727
1818	0.00568221
1830	0.00858376
1842	0.0174093
1854	0.0152331
1866	0.00562176
1878	0.00483592
1890	0.00525906
1902	0.00725388
1914	0.0155958
1926	0.00870466
1938	0.000362694
1950	0.00132988
1962	0.00102763
1974	0.00265976
1986	0.00683074
1998	0.0105786
2010	0.0132383
2022	0.00761657
2034	0.00374784
2046	0.0060449
2058	0.0101554
2070	0.0111831
2082	0.00513817
2094	0.00145078
2106	0.00139033
2118	0.000906735
2130	0.00060449
2142	0.00120898
2154	0.000362694
2166	0.000423143
2178	0.00151122
2190	0.000664939
2202	0.00120898
2214	0.00253886
2226	0.00368739
2238	0.00326425
2250	0.00229706
2262	0.00525906
2274	0.00864421
2286	0.00507772
2298	0.00392918
2310	0.00459412
2322	0.00477547
2334	0.00634714
2346	0.00459412
2358	0.00731433
2370	0.0090069
2382	0.00374784
2394	0.00169257
2406	0.00211571
2418	0.00120898
2430	0.00102763
2442	0.00108808
2454	0.00120898
2466	0.00217616
2478	0.00332469
2490	0.00465457
2502	0.00810017
2514	0.0108204
2526	0.00816061
2538	0.00386874
2550	0.00163212
2562	0.00229706
2574	0.00139033
2586	0.00169257
2598	0.00229706
2610	0.00132988
2622	0.00145078
2634	0.00205527
2646	0.00175302
2658	0.00217616
2670	0.0030829
2682	0.00205527
2694	0.00151122
2706	0.00199482
2718	0.00302245
2730	0.00374784
2742	0.00199482
2754	0.00139033
2766	0.00151122
2778	0.00181347
2790	0.00290155
2802	0.00471502
2814	0.0119689
2826	0.0351813
2838	0.0423143
2850	0.0302245
2862	0.0514421
2874	0.0450345
2886	0.0324611
2898	0.046848
2910	0.0507772
2922	0.0504145
2934	0.0776165
2946	0.13057
2958	0.145561
2970	0.0910362
2982	0.0627461
2994	0.0458203
3006	0.0608117
3018	0.0760448
3030	0.0472107
3042	0.0311917
3054	0.0305267
3066	0.0478756
3078	0.0670984
3090	0.0375993
3102	0.0132383
3114	0.0100345
3126	0.0100345
3138	0.00894645
3150	0.00447323
3162	0.00229706
3174	0.00126943
3186	0.000725388
3198	0.00114853
3210	0.00145078
3222	0.000544041
3234	0.000241796
3246	0.00181347
3258	6.0449e-05
3270	0.00126943
3282	0.00193437
3294	0.000483592
3306	0.000906735
3318	0.00132988
3330	0.000967184
3342	0.00193437
3354	0.00169257
3366	0.00102763
3378	0.000664939
3390	0.00060449
3402	0.00132988
3414	0.00108808
3426	0.00151122
3438	0.00241796
3450	0.00102763
3462	0.00151122
3474	0.00259931
3486	0.000544041
3498	0.00199482
3510	0.00259931
3522	0.00120898
3534	0.00187392
3546	0.00435233
3558	0.00205527
3570	0.00749568
3582	0.00417098
3594	0.00344559
3606	0.00368739
3618	0.00537996
3630	0.008886
3642	0.00314335
3654	0.00574265
3666	0.00356649
3678	0.00773747
3690	0.00719343
3702	0.00495682
3714	0.00483592
3726	0.00598445
3738	0.0092487
3750	0.00955094
3762	0.00465457
3774	0.00374784
3786	0.00223661
3798	0.00531951
3810	0.00447323
3822	0.00689119
3834	0.00634714
3846	0.0060449
3858	0.00779792
3870	0.00906735
3882	0.00797927
3894	0.00725388
3906	0.00447323
3918	0.00380829
3930	0.00386874
3942	0.00235751
3954	0.00114853
3966	0.00145078
