Infrared Spectrum: 3-Octanol, 2,2-dimethyl-
Formula: C 10 H 22 O
CAS: 19841-72-6
Origin: Sadtler Research Labs Under US-EPA Contract
1/CM	ABSORBANCE
450	0.014997
462	0.00519127
474	0.00331665
486	0.00259564
498	0.0070659
510	0.00519127
522	0.0072101
534	0.00807531
546	0.0074985
558	0.0106709
570	0.0116804
582	0.00605648
594	0.00245143
606	0.00317244
618	0.00432606
630	0.00331665
642	0.00302824
654	0.00418186
666	0.00331665
678	0.00447026
690	0.00490287
702	0.00648909
714	0.0112478
726	0.014997
738	0.0139876
750	0.0124014
762	0.0118246
774	0.0112478
786	0.0115362
798	0.00807531
810	0.00677749
822	0.00865212
834	0.00980574
846	0.0124014
858	0.0112478
870	0.0148528
882	0.0200441
894	0.0216303
906	0.0197557
918	0.029994
930	0.0534989
942	0.0624395
954	0.0426838
966	0.031436
978	0.031436
990	0.0455678
1002	0.0785901
1014	0.0787343
1026	0.0470099
1038	0.044991
1050	0.0566714
1062	0.0738314
1074	0.0759945
1086	0.0641699
1098	0.0503265
1110	0.0594112
1122	0.057104
1134	0.0320128
1146	0.0246585
1158	0.0308592
1170	0.0395113
1182	0.0425396
1194	0.0471541
1206	0.0447026
1218	0.0458562
1230	0.0514801
1242	0.0513359
1254	0.0485961
1266	0.0487403
1278	0.046433
1290	0.0444142
1302	0.0397998
1314	0.0324455
1326	0.0291288
1338	0.0359063
1350	0.0533547
1362	0.0931545
1374	0.132522
1386	0.084214
1398	0.0896936
1410	0.0468657
1422	0.0279752
1434	0.0351853
1446	0.0785901
1458	0.137857
1470	0.142904
1482	0.118822
1494	0.0478751
1506	0.0184579
1518	0.0109594
1530	0.0069217
1542	0.00605648
1554	0.00389345
1566	0.00346085
1578	0.00317244
1590	0.00230723
1602	0.00201883
1614	0.00201883
1626	0.00173042
1638	0.00216303
1650	0.00144202
1662	0.00144202
1674	0.00173042
1686	0.00173042
1698	0.00100941
1710	0.00100941
1722	0.00144202
1734	0.000576808
1746	0.00115362
1758	0.00100941
1770	0.000576808
1782	0.000576808
1794	0.000432606
1806	0.000432606
1818	0.000432606
1830	0
1842	0
1854	0
1866	0
1878	0
1890	0.000288404
1902	0
1914	0
1926	0.000144202
1938	0.000576808
1950	0.000432606
1962	0.000288404
1974	0.000144202
1986	0.000288404
1998	0.000144202
2010	0.000432606
2022	0.00072101
2034	0.00072101
2046	0.000432606
2058	0.000576808
2070	0
2082	0.000144202
2094	0.000144202
2106	0.000432606
2118	0.000865212
2130	0.00100941
2142	0.000432606
2154	0.00115362
2166	0.00072101
2178	0.000865212
2190	0.000865212
2202	0.000432606
2214	0.000432606
2226	0.000576808
2238	0.00072101
2250	0.000576808
2262	0.00072101
2274	0.000576808
2286	0.00115362
2298	0.00129782
2310	0.00115362
2322	0.000432606
2334	0.000432606
2346	0.00173042
2358	0.000576808
2370	0.00259564
2382	0.00331665
2394	0.00230723
2406	0.00187463
2418	0.00187463
2430	0.00187463
2442	0.00144202
2454	0.00129782
2466	0.00173042
2478	0.00173042
2490	0.00158622
2502	0.00187463
2514	0.00187463
2526	0.00216303
2538	0.00302824
2550	0.00331665
2562	0.00374925
2574	0.00475867
2586	0.00591228
2598	0.0072101
2610	0.00836372
2622	0.00879632
2634	0.0103825
2646	0.0122572
2658	0.015718
2670	0.0196115
2682	0.0175926
2694	0.0151412
2706	0.0152854
2718	0.015718
2730	0.0174484
2742	0.0187463
2754	0.0181695
2766	0.017881
2778	0.0194673
2790	0.0269658
2802	0.0356179
2814	0.0444142
2826	0.0594112
2838	0.100797
2850	0.266485
2862	0.589354
2874	0.539027
2886	0.444575
2898	0.383001
2910	0.548544
2922	0.937601
2934	1.44202
2946	1.10632
2958	0.847764
2970	1.02254
2982	0.447603
2994	0.146653
3006	0.0683517
3018	0.0444142
3030	0.0320128
3042	0.0237933
3054	0.0184579
3066	0.0154296
3078	0.0141318
3090	0.0126898
3102	0.0116804
3114	0.0103825
3126	0.0102383
3138	0.0102383
3150	0.0109594
3162	0.0106709
3174	0.00980574
3186	0.00966153
3198	0.00850792
3210	0.00778691
3222	0.00648909
3234	0.00576808
3246	0.00418186
3258	0.00317244
3270	0.00245143
3282	0.00201883
3294	0.00201883
3306	0.00216303
3318	0.00230723
3330	0.00230723
3342	0.00245143
3354	0.00230723
3366	0.00259564
3378	0.00245143
3390	0.00259564
3402	0.00201883
3414	0.00259564
3426	0.00259564
3438	0.00273984
3450	0.00302824
3462	0.00173042
3474	0.00230723
3486	0.00259564
3498	0.00129782
3510	0.00158622
3522	0.00115362
3534	0.00072101
3546	0.00100941
3558	0.000576808
3570	0.00100941
3582	0.000288404
3594	0.00158622
3606	0.00273984
3618	0.00288404
3630	0.00894052
3642	0.0145644
3654	0.0266774
3666	0.0416744
3678	0.0224955
3690	0.0074985
3702	0.00389345
3714	0.00374925
3726	0.00360505
3738	0.00302824
3750	0.00346085
3762	0.00187463
3774	0.00317244
3786	0.00230723
3798	0.00273984
3810	0.00273984
3822	0.00432606
3834	0.00317244
3846	0.00418186
3858	0.00475867
3870	0.00259564
3882	0.00418186
3894	0.00403766
3906	0.00374925
3918	0.00245143
3930	0.00273984
3942	0.00129782
3954	0.00302824
3966	0.00201883
