Infrared Spectrum: Benzene, 1,2-dichloro-3-methoxy-
Formula: C 7 H 6 Cl 2 O
CAS: 1984-59-4
Origin: Sadtler Research Labs Under US-EPA Contract
1/CM	ABSORBANCE
450	0
462	0.078522
474	0.0567733
486	0.0594177
498	0.0633573
510	0.0584463
522	0.0689159
534	0.0577447
546	0.0617922
558	0.065462
570	0.067081
582	0.0680524
594	0.0635192
606	0.0746903
618	0.0942264
630	0.0848901
642	0.0685381
654	0.0569892
666	0.0574209
678	0.0634652
690	0.0775506
702	0.109445
714	0.15019
726	0.100864
738	0.0956835
750	0.0998929
762	0.166164
774	0.207287
786	0.132273
798	0.0771188
810	0.0661096
822	0.0657318
834	0.0728555
846	0.105182
858	0.200002
870	0.165841
882	0.0794394
894	0.0674048
906	0.0627636
918	0.0592558
930	0.058824
942	0.0592558
954	0.0600653
966	0.0598494
978	0.0633033
990	0.0750681
1002	0.107071
1014	0.162764
1026	0.282787
1038	0.416086
1050	0.468326
1062	0.381817
1074	0.257099
1086	0.118619
1098	0.10135
1110	0.11727
1122	0.0885059
1134	0.0669191
1146	0.0692936
1158	0.0810045
1170	0.0754459
1182	0.0916899
1194	0.0939565
1206	0.0679984
1218	0.0685921
1230	0.0802489
1242	0.120562
1254	0.283111
1266	0.539184
1278	0.397683
1290	0.308637
1302	0.214249
1314	0.0951978
1326	0.0823536
1338	0.0792775
1350	0.0660556
1362	0.067081
1374	0.067027
1386	0.066973
1398	0.0772807
1410	0.128711
1422	0.28392
1434	0.494608
1446	0.38187
1458	0.377013
1470	0.523264
1482	0.15726
1494	0.0956835
1506	0.0863472
1518	0.0765792
1530	0.0747443
1542	0.0804108
1554	0.113439
1566	0.247978
1578	0.460123
1590	0.226607
1602	0.0988675
1614	0.0745824
1626	0.0674587
1638	0.0620621
1650	0.060443
1662	0.0613065
1674	0.0579066
1686	0.0554241
1698	0.0565574
1710	0.057259
1722	0.0568273
1734	0.0567733
1746	0.0564495
1758	0.0548844
1770	0.0549384
1782	0.0553162
1794	0.055532
1806	0.0574749
1818	0.0576907
1830	0.0559098
1842	0.0554781
1854	0.053913
1866	0.0535353
1878	0.0563955
1890	0.060551
1902	0.0661635
1914	0.0631954
1926	0.0566654
1938	0.0534813
1950	0.0521861
1962	0.0519163
1974	0.0514306
1986	0.0515925
1998	0.0520782
2010	0.0527797
2022	0.0538051
2034	0.0546146
2046	0.0551543
2058	0.0548305
2070	0.0538051
2082	0.0547225
2094	0.0563415
2106	0.0579606
2118	0.0608748
2130	0.0613605
2142	0.0579606
2154	0.0558558
2166	0.0543448
2178	0.0529956
2190	0.0518083
2202	0.0515925
2214	0.0508909
2226	0.0510528
2238	0.050675
2250	0.0510528
2262	0.0513766
2274	0.0517004
2286	0.0531575
2298	0.0554781
2310	0.0566114
2322	0.0567733
2334	0.0575288
2346	0.0520242
2358	0.0527258
2370	0.0550463
2382	0.0520782
2394	0.0495417
2406	0.0498655
2418	0.050621
2430	0.0521861
2442	0.0535353
2454	0.052348
2466	0.0515385
2478	0.0517004
2490	0.0521861
2502	0.0524559
2514	0.053913
2526	0.0563415
2538	0.057313
2550	0.0574749
2562	0.0569352
2574	0.0536432
2586	0.0529416
2598	0.0526718
2610	0.0526718
2622	0.0526178
2634	0.052348
2646	0.0520242
2658	0.0519702
2670	0.0516464
2682	0.0519163
2694	0.0518623
2706	0.052402
2718	0.0528877
2730	0.0545067
2742	0.054021
2754	0.0536432
2766	0.0533194
2778	0.0528877
2790	0.0546146
2802	0.0561257
2814	0.0601192
2826	0.0689698
2838	0.0954676
2850	0.117108
2862	0.0887217
2874	0.0806267
2886	0.0830552
2898	0.0828933
2910	0.0975184
2922	0.105937
2934	0.107448
2946	0.170266
2958	0.160714
2970	0.128873
2982	0.100702
2994	0.0911503
3006	0.114194
3018	0.12774
3030	0.086617
3042	0.0699952
3054	0.0676746
3066	0.0808965
3078	0.101242
3090	0.0906646
3102	0.0648144
3114	0.0580145
3126	0.0566114
3138	0.0567733
3150	0.0571511
3162	0.0557479
3174	0.0545067
3186	0.0540749
3198	0.0528337
3210	0.0529416
3222	0.0533734
3234	0.0528337
3246	0.0534813
3258	0.0526718
3270	0.0535353
3282	0.0528337
3294	0.0519702
3306	0.0514306
3318	0.0511067
3330	0.0515385
3342	0.0520782
3354	0.0520782
3366	0.052348
3378	0.052294
3390	0.0526178
3402	0.0518083
3414	0.0510528
3426	0.0520782
3438	0.0509448
3450	0.0514306
3462	0.052402
3474	0.0514306
3486	0.0515385
3498	0.052294
3510	0.0527258
3522	0.0513766
3534	0.0511607
3546	0.0522401
3558	0.052348
3570	0.052348
3582	0.0531575
3594	0.0510528
3606	0.0533734
3618	0.0519702
3630	0.0514306
3642	0.0531035
3654	0.0500814
3666	0.0531575
3678	0.0518623
3690	0.050675
3702	0.0526178
3714	0.0515925
3726	0.0540749
3738	0.0527797
3750	0.0494338
3762	0.0531575
3774	0.0525639
3786	0.0515385
3798	0.0509448
3810	0.0561796
3822	0.0511607
3834	0.0533734
3846	0.054021
3858	0.0511607
3870	0.0522401
3882	0.0531035
3894	0.0508369
3906	0.0502433
3918	0.0505671
3930	0.0541289
3942	0.0534813
3954	0.0511067
3966	0.0546686
