Infrared Spectrum: Malonic acid, phenylpropyl-, diethyl ester
Formula: C 16 H 22 O 4
CAS: 19846-06-1
Origin: Sadtler Research Labs Under US-EPA Contract
1/CM	ABSORBANCE
450	0.0132973
462	0.00577381
474	0.000962302
486	0.0019246
498	0.00638619
510	0.0034118
522	0.00376173
534	0.00953554
546	0.0131223
558	0.0176714
570	0.0353427
582	0.0348178
594	0.0201209
606	0.0131223
618	0.0132973
630	0.0127724
642	0.0110227
654	0.0111977
666	0.0144345
678	0.0181963
690	0.0540639
702	0.20707
714	0.0235327
726	0.0124224
738	0.0250199
750	0.0627246
762	0.075497
774	0.0267695
786	0.0181088
798	0.0198584
810	0.0200334
822	0.0154843
834	0.014347
846	0.0187211
858	0.0309686
870	0.0464529
882	0.0234452
894	0.011985
906	0.0158342
918	0.0103229
930	0.012335
942	0.0144345
954	0.0122475
966	0.0189836
978	0.0196835
990	0.0231827
1002	0.0478527
1014	0.080046
1026	0.150207
1038	0.290703
1050	0.21993
1062	0.134985
1074	0.112852
1086	0.126499
1098	0.197447
1110	0.250986
1122	0.273119
1134	0.368387
1146	0.440209
1158	0.524717
1170	0.478264
1182	0.429449
1194	0.292977
1206	0.325083
1218	0.371624
1230	0.360863
1242	0.416677
1254	0.447558
1266	0.339255
1278	0.244425
1290	0.247662
1302	0.27828
1314	0.272856
1326	0.207682
1338	0.1209
1350	0.0745347
1362	0.082758
1374	0.16849
1386	0.0944806
1398	0.0576506
1410	0.0372673
1422	0.0279942
1434	0.0303563
1446	0.0571257
1458	0.0950055
1470	0.0961427
1482	0.0604501
1494	0.0591378
1506	0.0237951
1518	0.00551137
1530	0.00524892
1542	0.00297439
1554	0.00297439
1566	0.00428662
1578	0.00822331
1590	0.0161842
1602	0.0272944
1614	0.0131223
1626	0.00376173
1638	0.00349928
1650	0.00463655
1662	0.00944806
1674	0.0104978
1686	0.0161842
1698	0.0250199
1710	0.0515269
1722	0.0837203
1734	0.212669
1746	0.776928
1758	0.645705
1770	0.508445
1782	0.164116
1794	0.0628996
1806	0.0378797
1818	0.021958
1830	0.0124224
1842	0.00901065
1854	0.00857324
1866	0.00892316
1878	0.00988547
1890	0.00813583
1902	0.00699856
1914	0.00481151
1926	0.00507396
1938	0.0104978
1950	0.0077859
1962	0.00647367
1974	0.00349928
1986	0.00376173
1998	0.00323683
2010	0.00349928
2022	0.00323683
2034	0.00349928
2046	0.00279942
2058	0.00288691
2070	0.00279942
2082	0.00262446
2094	0.0024495
2106	0.00209957
2118	0.00174964
2130	0.00148719
2142	0.00104978
2154	0.000787338
2166	0.000524892
2178	0.00043741
2190	8.7482e-05
2202	0.000174964
2214	0.000262446
2226	0.000524892
2238	0.00113727
2250	0.00113727
2262	0.00122475
2274	0.00104978
2286	0.000699856
2298	0.000962302
2310	0.00148719
2322	0.00157468
2334	0.00139971
2346	0.00236201
2358	0.000962302
2370	0.00183712
2382	0.00139971
2394	0.00174964
2406	0.00174964
2418	0.00183712
2430	0.00183712
2442	0.00166216
2454	0.00148719
2466	0.00131223
2478	0.00122475
2490	0.000787338
2502	0.000787338
2514	0.00104978
2526	0.00104978
2538	0.00131223
2550	0.00131223
2562	0.00113727
2574	0.00122475
2586	0.00139971
2598	0.00148719
2610	0.00201209
2622	0.00166216
2634	0.00174964
2646	0.00183712
2658	0.00139971
2670	0.00201209
2682	0.0024495
2694	0.00262446
2706	0.00262446
2718	0.00332432
2730	0.00428662
2742	0.00524892
2754	0.00594878
2766	0.00612374
2778	0.00752345
2790	0.00769842
2802	0.00883568
2814	0.0108478
2826	0.0124224
2838	0.0146095
2850	0.0190711
2862	0.0277318
2874	0.0601876
2886	0.118276
2898	0.0764593
2910	0.090019
2922	0.0964052
2934	0.149157
2946	0.239438
2958	0.15633
2970	0.283179
2982	0.348266
2994	0.233402
3006	0.125887
3018	0.0722601
3030	0.0927309
3042	0.101042
3054	0.0431286
3066	0.0752345
3078	0.0787338
3090	0.0551137
3102	0.0288691
3114	0.0222204
3126	0.0118101
3138	0.00892316
3150	0.00857324
3162	0.00743597
3174	0.00691108
3186	0.0053364
3198	0.00419914
3210	0.00411165
3222	0.00384921
3234	0.00306187
3246	0.00288691
3258	0.00218705
3270	0.00174964
3282	0.00166216
3294	0.00201209
3306	0.00227453
3318	0.00183712
3330	0.00166216
3342	0.0019246
3354	0.0019246
3366	0.0019246
3378	0.00227453
3390	0.00183712
3402	0.0019246
3414	0.00148719
3426	0.00262446
3438	0.00166216
3450	0.00236201
3462	0.00262446
3474	0.00489899
3486	0.00568633
3498	0.00516144
3510	0.00253698
3522	0.00148719
3534	0.000699856
3546	8.7482e-05
3558	0.000962302
3570	0.00131223
3582	0.00174964
3594	0.00104978
3606	0.00166216
3618	0.00209957
3630	0.00209957
3642	0.00218705
3654	0.00323683
3666	0.00236201
3678	0.00253698
3690	0.0034118
3702	0.00332432
3714	0.00262446
3726	0.00314935
3738	0.00323683
3750	0.00279942
3762	0.00288691
3774	0.00122475
3786	0.00288691
3798	0.00323683
3810	0.00236201
3822	0.00288691
3834	0.0024495
3846	0.00166216
3858	0.00236201
3870	0.00306187
3882	0.00209957
3894	0.00209957
3906	0.00271194
3918	0.00209957
3930	0.0034118
3942	0.00288691
3954	0.00236201
3966	0.00174964
