Infrared Spectrum: 2,6-Pyridinedicarboxylic acid, 4-methoxy-, dimethyl ester
Formula: C 10 H 11 N O 5
CAS: 19872-93-6
Origin: Sadtler Research Labs Under US-EPA Contract
1/CM	ABSORBANCE
450	0
462	0.00844646
474	0.0083041
486	0.00379616
498	0.00303693
510	0.00621621
522	0.00242005
534	0.00294202
546	0.00374871
558	0.00322674
570	0.00536208
582	0.00659583
594	0.00768722
606	0.00664328
618	0.00540953
630	0.00308438
642	0.00256241
654	0.00147101
666	0.00403342
678	0.00166082
690	0.00441304
702	0.00384361
714	0.00517227
726	0.011863
738	0.0541902
750	0.0103445
762	0.0100598
774	0.0120054
786	0.0754961
798	0.0384836
810	0.0112461
822	0.0106767
834	0.00678564
846	0.0071178
858	0.0116732
870	0.022777
882	0.0487807
894	0.0551867
906	0.0263833
918	0.00972766
930	0.00502991
942	0.00498246
954	0.00502991
966	0.00877862
978	0.0222075
990	0.0380565
1002	0.0598844
1014	0.0623994
1026	0.0339756
1038	0.0562306
1050	0.189808
1062	0.116779
1074	0.0373922
1086	0.0526243
1098	0.129781
1110	0.256098
1122	0.138702
1134	0.0713678
1146	0.128168
1158	0.130018
1170	0.047974
1182	0.0615452
1194	0.0802888
1206	0.0755436
1218	0.176711
1230	0.186486
1242	0.199346
1254	0.306255
1266	0.186202
1278	0.0983205
1290	0.0505838
1302	0.0440355
1314	0.0495873
1326	0.0639653
1338	0.153934
1350	0.346779
1362	0.473381
1374	0.162998
1386	0.0559934
1398	0.0373447
1410	0.039053
1422	0.0660532
1434	0.101595
1446	0.13557
1458	0.10411
1470	0.0871219
1482	0.0340231
1494	0.0214958
1506	0.0192181
1518	0.0168455
1530	0.0178894
1542	0.022255
1554	0.0326944
1566	0.0682834
1578	0.10876
1590	0.196641
1602	0.177898
1614	0.0461708
1626	0.0220177
1638	0.0127646
1650	0.0108191
1662	0.00901588
1674	0.0121477
1686	0.0164184
1698	0.0264782
1710	0.0458386
1722	0.0648669
1734	0.230332
1746	0.329412
1758	0.0819496
1770	0.11621
1782	0.124894
1794	0.0406664
1806	0.0225397
1818	0.00920569
1830	0.00669073
1842	0.00441304
1854	0.00317928
1866	0.00351145
1878	0.00322674
1890	0.00341654
1902	0.00308438
1914	0.0022777
1926	0.00185063
1938	0.00166082
1950	0.00189808
1962	0.00256241
1974	0.003464
1986	0.00408087
1998	0.0035589
2010	0.00341654
2022	0.00332164
2034	0.00379616
2046	0.00313183
2058	0.00218279
2070	0.00298948
2082	0.00341654
2094	0.00441304
2106	0.0046503
2118	0.00507736
2130	0.0059315
2142	0.00640602
2154	0.00460284
2166	0.00351145
2178	0.0022777
2190	0.00175572
2202	0.00123375
2214	0.0011863
2226	0.00147101
2238	0.00137611
2250	0.00180318
2262	0.00194553
2274	0.00218279
2286	0.00389106
2298	0.00740251
2310	0.0105818
2322	0.00896843
2334	0.00450794
2346	0.00892098
2358	0.0071178
2370	0.00412832
2382	0.00854136
2394	0.00208789
2406	0.00151846
2418	0.00147101
2430	0.00166082
2442	0.00156592
2454	0.00189808
2466	0.00213534
2478	0.00218279
2490	0.00189808
2502	0.00232515
2514	0.00265731
2526	0.00317928
2538	0.00270476
2550	0.0022777
2562	0.00218279
2574	0.00242005
2586	0.00260986
2598	0.00327419
2610	0.003464
2622	0.00294202
2634	0.00265731
2646	0.0022777
2658	0.00256241
2670	0.00242005
2682	0.00260986
2694	0.00279967
2706	0.00260986
2718	0.00218279
2730	0.00223024
2742	0.0022777
2754	0.0024675
2766	0.0024675
2778	0.00270476
2790	0.00351145
2802	0.00398597
2814	0.00521972
2826	0.00626366
2838	0.0106292
2850	0.0244852
2862	0.0267155
2874	0.0176047
2886	0.0159913
2898	0.0189333
2910	0.0220177
2922	0.0239633
2934	0.0230617
2946	0.0421848
2958	0.115546
2970	0.079577
2982	0.0344502
2994	0.0280916
3006	0.0335486
3018	0.0387208
3030	0.0315556
3042	0.0187435
3054	0.0111987
3066	0.00968021
3078	0.00930059
3090	0.0105343
3102	0.0107716
3114	0.00645347
3126	0.00521972
3138	0.0048401
3150	0.00360635
3162	0.00327419
3174	0.00270476
3186	0.00213534
3198	0.00232515
3210	0.00251496
3222	0.00213534
3234	0.00232515
3246	0.00156592
3258	0.00199298
3270	0.00232515
3282	0.00137611
3294	0.00208789
3306	0.00204044
3318	0.00213534
3330	0.00189808
3342	0.00132866
3354	0.00180318
3366	0.00199298
3378	0.00204044
3390	0.00156592
3402	0.00208789
3414	0.00256241
3426	0.00151846
3438	0.0024675
3450	0.00242005
3462	0.00332164
3474	0.00204044
3486	0.00166082
3498	0.00270476
3510	0.00208789
3522	0.00204044
3534	0.00213534
3546	0.00180318
3558	0.00166082
3570	0.00156592
3582	0.00199298
3594	0.00256241
3606	0.00185063
3618	0.00166082
3630	0.00260986
3642	0.00189808
3654	0.00194553
3666	0.00156592
3678	0.00180318
3690	0.0023726
3702	0.00232515
3714	0.00204044
3726	0.0023726
3738	0.00308438
3750	0.00199298
3762	0.00142356
3774	0.00113885
3786	0.00104394
3798	0.00232515
3810	0.00137611
3822	0.00170827
3834	0.00313183
3846	0.0012812
3858	0.0024675
3870	0.00199298
3882	0.00256241
3894	0.00137611
3906	0.00256241
3918	0.0023726
3930	0.00175572
3942	0.0023726
3954	0.00270476
3966	0.00332164
