Infrared Spectrum: Pipecolamide
Formula: C 6 H 12 N 2 O
CAS: 19889-77-1
Origin: Sadtler Research Labs Under US-EPA Contract
1/CM	ABSORBANCE
450	0.0533773
462	0.0507582
474	0.0414555
486	0.0290821
498	0.0218567
510	0.0200504
522	0.0319722
534	0.0374816
546	0.0161667
558	0.00587061
570	0.00514807
582	0.00984455
594	0.0151733
606	0.0176118
618	0.00921233
630	0.00803821
642	0.0047868
654	0.000722536
666	0.00216761
678	0.00686409
690	0.0166183
702	0.0251081
714	0.0388363
726	0.0540096
738	0.0501259
750	0.0428103
762	0.0447069
774	0.0617768
786	0.0858915
798	0.0806531
810	0.0566288
822	0.036759
834	0.0298046
846	0.0487712
858	0.084898
870	0.0855302
882	0.0502163
894	0.0302562
906	0.0305271
918	0.038475
930	0.0386557
942	0.0260113
954	0.016528
966	0.0120122
978	0.00758663
990	0.00695441
1002	0.00921233
1014	0.0214051
1026	0.0264629
1038	0.0227599
1050	0.0324238
1062	0.031069
1074	0.0166183
1086	0.0198697
1098	0.0477777
1110	0.0760469
1122	0.0615059
1134	0.0397395
1146	0.0253791
1158	0.0158055
1170	0.00749631
1182	0.00894138
1194	0.022218
1206	0.0338689
1218	0.0294433
1230	0.0307981
1242	0.0361268
1254	0.0492228
1266	0.0603318
1278	0.062409
1290	0.0723439
1302	0.12527
1314	0.169344
1326	0.129966
1338	0.107748
1350	0.125902
1362	0.137824
1374	0.106303
1386	0.0650282
1398	0.033056
1410	0.0227599
1422	0.0345914
1434	0.0701763
1446	0.0984455
1458	0.0752341
1470	0.0332367
1482	0.00776726
1494	0.00307078
1506	0.00641251
1518	0.00948328
1530	0.0231212
1542	0.0865237
1554	0.209897
1566	0.278899
1578	0.208903
1590	0.120212
1602	0.0583448
1614	0.033056
1626	0.0264629
1638	0.0279983
1650	0.0420877
1662	0.0597899
1674	0.0750534
1686	0.097723
1698	0.108109
1710	0.248552
1722	0.731477
1734	0.900822
1746	0.358739
1758	0.0975424
1770	0.0507582
1782	0.0324238
1794	0.0228502
1806	0.0118315
1818	0.00451585
1830	0.00270951
1842	0.00270951
1854	0.00153539
1866	0.000993487
1878	0.000451585
1890	0.000722536
1902	0.00126444
1914	0.000722536
1926	0.00171602
1938	0.00198697
1950	0.00144507
1962	0.00171602
1974	0.00171602
1986	0.00135476
1998	0.00135476
2010	0.00126444
2022	0.00135476
2034	0.00162571
2046	0.00090317
2058	0.000993487
2070	0.00117412
2082	0.000722536
2094	0.000632219
2106	0.000812853
2118	0.000541902
2130	0.000993487
2142	0.00090317
2154	0.000993487
2166	0.00171602
2178	0.00153539
2190	0.00144507
2202	0.00153539
2214	0.00144507
2226	0.00162571
2238	0.00189666
2250	0.00198697
2262	0.00234824
2274	0.00207729
2286	0.00198697
2298	0.003703
2310	0.00487712
2322	0.00415458
2334	0.00388363
2346	0.00397395
2358	0.0053287
2370	0.00460617
2382	0.00505775
2394	0.00216761
2406	0.00225793
2418	0.00117412
2430	0.000812853
2442	0.00126444
2454	0.00189666
2466	0.00171602
2478	0.00225793
2490	0.00207729
2502	0.00207729
2514	0.00171602
2526	0.00153539
2538	0.00144507
2550	0.00162571
2562	0.00225793
2574	0.00261919
2586	0.00361268
2598	0.00442553
2610	0.00460617
2622	0.00514807
2634	0.0053287
2646	0.00686409
2658	0.0101155
2670	0.0110187
2682	0.0110187
2694	0.0116509
2706	0.0139991
2718	0.0153539
2730	0.0158055
2742	0.0155345
2754	0.0150829
2766	0.0183344
2778	0.0278176
2790	0.0451585
2802	0.0564481
2814	0.0561772
2826	0.0634929
2838	0.0825497
2850	0.119941
2862	0.174492
2874	0.157603
2886	0.0971811
2898	0.0867946
2910	0.123554
2922	0.219832
2934	0.402543
2946	0.539283
2958	0.37337
2970	0.131863
2982	0.0373912
2994	0.0129153
3006	0.00876075
3018	0.00731568
3030	0.00559965
3042	0.00587061
3054	0.00623187
3066	0.00614156
3078	0.00550934
3090	0.00514807
3102	0.00559965
3114	0.00568997
3126	0.0053287
3138	0.00550934
3150	0.00568997
3162	0.00686409
3174	0.00713504
3186	0.00650282
3198	0.00695441
3210	0.00677378
3222	0.00632219
3234	0.00596092
3246	0.00605124
3258	0.00722536
3270	0.00713504
3282	0.00803821
3294	0.00858011
3306	0.00885107
3318	0.00803821
3330	0.00830916
3342	0.0095736
3354	0.0090317
3366	0.0109284
3378	0.012825
3390	0.0223986
3402	0.0574416
3414	0.0825497
3426	0.0550031
3438	0.025921
3450	0.0175215
3462	0.0112896
3474	0.00867043
3486	0.0114703
3498	0.0186956
3510	0.0385654
3522	0.0895041
3534	0.155616
3546	0.122289
3558	0.0395588
3570	0.014541
3582	0.00460617
3594	0.00243856
3606	0.00234824
3618	0.00144507
3630	0.00298046
3642	0.00171602
3654	0.00135476
3666	0.00243856
3678	0.00090317
3690	0.00126444
3702	0.00270951
3714	0.00234824
3726	0.00298046
3738	0.00225793
3750	0.0031611
3762	0.00198697
3774	0.00243856
3786	0.00198697
3798	0.00216761
3810	0.00180634
3822	0.00279983
3834	0.00198697
3846	0.00198697
3858	0.00352236
3870	0.000722536
3882	0.00334173
3894	0.00126444
3906	0.000812853
3918	0.00279983
3930	0.00270951
3942	0.00325141
3954	0.00406427
3966	0.00216761
