Infrared Spectrum: Benzonitrile, 3,5-bis(1,1-dimethylethyl)-4-hydroxy-
Formula: C 15 H 21 N O
CAS: 1988-88-1
Origin: Sadtler Research Labs Under US-EPA Contract
1/CM	ABSORBANCE
450	0.0268293
462	0.0132735
474	0.0113907
486	0.0127086
498	0.0154386
510	0.012991
522	0.0148738
534	0.0212752
546	0.0315362
558	0.0253231
570	0.0161917
582	0.0132735
594	0.00988449
606	0.0144031
618	0.0335131
630	0.010261
642	0.018451
654	0.02184
666	0.00960208
678	0.00564828
690	0.00498931
702	0.00837828
714	0.00997863
726	0.0199573
738	0.0283355
750	0.0729569
762	0.064108
774	0.0564828
786	0.0120497
798	0.00969621
810	0.0164741
822	0.00574242
834	0.00517759
846	0.00376552
858	0.00630725
870	0.0161917
882	0.101292
894	0.134053
906	0.0270176
918	0.02184
930	0.0333249
942	0.019769
954	0.00894311
966	0.00753104
978	0.00847242
990	0.00828414
1002	0.00884897
1014	0.0145914
1026	0.0241935
1038	0.0145914
1050	0.0125204
1062	0.0139324
1074	0.0154386
1086	0.0199573
1098	0.0254173
1110	0.0405735
1122	0.0926318
1134	0.074369
1146	0.120403
1158	0.291451
1170	0.228379
1182	0.140454
1194	0.178768
1206	0.197596
1218	0.13264
1230	0.26208
1242	0.385495
1254	0.28938
1266	0.127369
1278	0.0725804
1290	0.0631666
1302	0.0705094
1314	0.16493
1326	0.152221
1338	0.0460335
1350	0.0375611
1362	0.0959266
1374	0.200514
1386	0.104493
1398	0.183193
1410	0.161729
1422	0.273188
1434	0.602107
1446	0.314797
1458	0.132452
1470	0.113907
1482	0.138948
1494	0.088678
1506	0.0404793
1518	0.0289945
1530	0.0208045
1542	0.0155328
1554	0.0140266
1566	0.0148738
1578	0.0216517
1590	0.033419
1602	0.0303124
1614	0.0145914
1626	0.0118614
1638	0.0113907
1650	0.00997863
1662	0.0108259
1674	0.0112024
1686	0.01092
1698	0.0111083
1710	0.0108259
1722	0.00979035
1734	0.010261
1746	0.00997863
1758	0.0114848
1770	0.021181
1782	0.0272059
1794	0.0149679
1806	0.00706035
1818	0.00527173
1830	0.00404793
1842	0.00357724
1854	0.00301242
1866	0.00244759
1878	0.00273
1890	0.00244759
1902	0.00263586
1914	0.00244759
1926	0.00254173
1938	0.00244759
1950	0.00244759
1962	0.00263586
1974	0.00254173
1986	0.00273
1998	0.00244759
2010	0.00188276
2022	0.00112966
2034	0.00112966
2046	0.000847242
2058	0.000282414
2070	0
2082	0.000188276
2094	9.4138e-05
2106	0
2118	0.00047069
2130	0.00188276
2142	0.00225931
2154	0.00329483
2166	0.00461276
2178	0.00771932
2190	0.00687207
2202	0.00960208
2214	0.0275824
2226	0.1108
2238	0.135559
2250	0.0165683
2262	0.00583656
2274	0.00385966
2286	0.00376552
2298	0.00489518
2310	0.00461276
2322	0.00489518
2334	0.00433035
2346	0.00385966
2358	0.00423621
2370	0.00338897
2382	0.00451862
2394	0.00536587
2406	0.00498931
2418	0.0047069
2430	0.00536587
2442	0.0047069
2454	0.00433035
2466	0.00602483
2478	0.00649552
2490	0.00527173
2502	0.00498931
2514	0.00489518
2526	0.00536587
2538	0.00564828
2550	0.00564828
2562	0.00696621
2574	0.00611897
2586	0.00687207
2598	0.00621311
2610	0.00517759
2622	0.00611897
2634	0.00762518
2646	0.00790759
2658	0.00677794
2670	0.00658966
2682	0.00621311
2694	0.00611897
2706	0.0066838
2718	0.00884897
2730	0.0111083
2742	0.0103552
2754	0.0111083
2766	0.0119555
2778	0.0119555
2790	0.0149679
2802	0.0166624
2814	0.0194866
2826	0.0253231
2838	0.0305007
2850	0.0411383
2862	0.0735218
2874	0.168789
2886	0.266505
2898	0.241558
2910	0.251913
2922	0.329671
2934	0.321293
2946	0.365726
2958	0.615757
2970	0.897041
2982	0.698504
2994	0.192983
3006	0.146761
3018	0.0896194
3030	0.03822
3042	0.0273
3054	0.0223107
3066	0.0194866
3078	0.0190159
3090	0.0205221
3102	0.0224048
3114	0.01638
3126	0.0146855
3138	0.0142148
3150	0.0139324
3162	0.0142148
3174	0.014309
3186	0.0141207
3198	0.0121438
3210	0.0101669
3222	0.00931966
3234	0.0086607
3246	0.0086607
3258	0.00790759
3270	0.0086607
3282	0.00856656
3294	0.00913139
3306	0.00903725
3318	0.00931966
3330	0.00997863
3342	0.00997863
3354	0.00988449
3366	0.010261
3378	0.0101669
3390	0.0103552
3402	0.0094138
3414	0.00884897
3426	0.00884897
3438	0.00762518
3450	0.00546
3462	0.00461276
3474	0.00461276
3486	0.00433035
3498	0.00433035
3510	0.00527173
3522	0.00555414
3534	0.00489518
3546	0.00385966
3558	0.00404793
3570	0.00414207
3582	0.0086607
3594	0.0118614
3606	0.0179804
3618	0.0276766
3630	0.0592128
3642	0.21567
3654	0.743314
3666	0.331554
3678	0.0693797
3690	0.0230638
3702	0.0127086
3714	0.00687207
3726	0.00385966
3738	0.00273
3750	0.000658966
3762	0.00404793
3774	0.00357724
3786	0.00433035
3798	0.00442449
3810	0.00527173
3822	0.0047069
3834	0.00555414
3846	0.00385966
3858	0.00282414
3870	0.00207104
3882	0.00235345
3894	0.00583656
3906	0.00461276
3918	0.00498931
3930	0.00480104
3942	0.0047069
3954	0.00546
3966	0.00480104
