Infrared Spectrum: Phenol, 4-(1-phenylethyl)-
Formula: C 14 H 14 O
CAS: 1988-89-2
Origin: Sadtler Research Labs Under US-EPA Contract
1/CM	ABSORBANCE
450	0.0723298
462	0.00258722
474	0.02351
486	0.0314966
498	0.0825662
510	0.0448827
522	0.0443203
534	0.138248
546	0.227901
558	0.0970771
570	0.0509571
582	0.032509
594	0.0332964
606	0.0663679
618	0.0336339
630	0.0284595
642	0.0310467
654	0.0187855
666	0.0300343
678	0.0690676
690	0.196179
702	0.274921
714	0.124637
726	0.0781792
738	0.0826787
750	0.117437
762	0.134761
774	0.148034
786	0.117775
798	0.0932526
810	0.100564
822	0.167495
834	0.259285
846	0.120475
858	0.0448827
870	0.0229476
882	0.0181106
894	0.0244099
906	0.0265472
918	0.0161983
930	0.0158608
942	0.0151859
954	0.0165357
966	0.0212602
978	0.0265472
990	0.0204728
1002	0.0248598
1014	0.0755919
1026	0.104051
1038	0.0701925
1050	0.0755919
1062	0.0588312
1074	0.0471325
1086	0.0537693
1098	0.084591
1110	0.100002
1122	0.0872907
1134	0.0929151
1146	0.0853784
1158	0.208778
1170	1.0215
1182	0.641519
1194	0.311817
1206	0.176944
1218	0.113613
1230	0.112038
1242	0.19033
1254	0.538255
1266	0.335439
1278	0.0923526
1290	0.0699675
1302	0.0717673
1314	0.0880781
1326	0.1126
1338	0.14376
1350	0.0616434
1362	0.0368961
1374	0.0598436
1386	0.0579313
1398	0.0217102
1410	0.0326215
1422	0.0680552
1434	0.11935
1446	0.101914
1458	0.119912
1470	0.0832411
1482	0.0960648
1494	0.246124
1506	0.514295
1518	0.614859
1530	0.0901029
1542	0.0367836
1554	0.0334089
1566	0.0363336
1578	0.0582688
1590	0.130711
1602	0.214515
1614	0.238137
1626	0.0950524
1638	0.0317216
1650	0.0122612
1662	0.0176606
1674	0.00989894
1686	0.00326215
1698	0.00236225
1710	0.0116988
1722	0.0112488
1734	0.00809914
1746	0.0174356
1758	0.0174356
1770	0.0122612
1782	0.0143985
1794	0.0179981
1806	0.0150734
1818	0.0114738
1830	0.00641182
1842	0.00922402
1854	0.0195729
1866	0.0251973
1878	0.0300343
1890	0.018673
1902	0.0125987
1914	0.00888655
1926	0.0123737
1938	0.0190105
1950	0.0196854
1962	0.0139485
1974	0.00798665
1986	0.00764918
1998	0.00596186
2010	0.0075367
2022	0.00708674
2034	0.00787416
2046	0.00674928
2058	0.00674928
2070	0.00596186
2082	0.00539942
2094	0.00809914
2106	0.00742421
2118	0.00449952
2130	0.0037121
2142	0.00303718
2154	0.00292469
2166	0.0028122
2178	0.00427454
2190	0.00416206
2202	0.00258722
2214	0.00326215
2226	0.00382459
2238	0.00438703
2250	0.00449952
2262	0.00551191
2274	0.00573689
2286	0.00573689
2298	0.0075367
2310	0.00967397
2322	0.0109113
2334	0.0120362
2346	0.0155233
2358	0.0114738
2370	0.0113613
2382	0.00967397
2394	0.00787416
2406	0.00866158
2418	0.0139485
2430	0.0192354
2442	0.0130486
2454	0.00956148
2466	0.00854909
2478	0.00798665
2490	0.00798665
2502	0.0110238
2514	0.0120362
2526	0.00866158
2538	0.00742421
2550	0.00686177
2562	0.00629933
2574	0.00708674
2586	0.00922402
2598	0.00944899
2610	0.00866158
2622	0.00821162
2634	0.00832411
2646	0.00821162
2658	0.00798665
2670	0.00832411
2682	0.0075367
2694	0.00674928
2706	0.00731172
2718	0.00821162
2730	0.00832411
2742	0.00888655
2754	0.00821162
2766	0.00854909
2778	0.0093365
2790	0.0103489
2802	0.00967397
2814	0.00922402
2826	0.0111363
2838	0.013611
2850	0.0152984
2862	0.0251973
2874	0.0563565
2886	0.118225
2898	0.104051
2910	0.0688427
2922	0.0623184
2934	0.0923526
2946	0.107764
2958	0.0725548
2970	0.224526
2982	0.349275
2994	0.0674928
3006	0.0915652
3018	0.164907
3030	0.247024
3042	0.218114
3054	0.154446
3066	0.226326
3078	0.214627
3090	0.125424
3102	0.0790791
3114	0.0515195
3126	0.0264347
3138	0.0172107
3150	0.0125987
3162	0.0111363
3174	0.00866158
3186	0.00944899
3198	0.00956148
3210	0.0084366
3222	0.0084366
3234	0.00866158
3246	0.00686177
3258	0.00809914
3270	0.00866158
3282	0.00776167
3294	0.0056244
3306	0.00573689
3318	0.00663679
3330	0.00674928
3342	0.00899904
3354	0.0116988
3366	0.00911153
3378	0.00866158
3390	0.0109113
3402	0.00989894
3414	0.00899904
3426	0.00911153
3438	0.00742421
3450	0.00528694
3462	0.00731172
3474	0.00911153
3486	0.00596186
3498	0.00596186
3510	0.00539942
3522	0.00697426
3534	0.00821162
3546	0.00584938
3558	0.0109113
3570	0.0115863
3582	0.023285
3594	0.0239599
3606	0.0176606
3618	0.0133861
3630	0.0295843
3642	0.152421
3654	0.456476
3666	0.0902154
3678	0.0152984
3690	0.00618684
3702	0.00596186
3714	0.00123737
3726	0.000674928
3738	0.000112488
3750	0
3762	0.00584938
3774	0.00798665
3786	0.00607435
3798	0.00427454
3810	0.00764918
3822	0.00314966
3834	0.00798665
3846	0.0103489
3858	0.00483698
3870	0.00618684
3882	0.0093365
3894	0.0104614
3906	0.00168732
3918	0.00708674
3930	0.00899904
3942	0.0065243
3954	0.0111363
3966	0.013836
