Infrared Spectrum: Thiocyanic acid, octyl ester
Formula: C 9 H 17 N S
CAS: 19942-78-0
Origin: Sadtler Research Labs Under US-EPA Contract
1/CM	ABSORBANCE
450	0.0165767
462	0.00577038
474	0.00975719
486	0.00608513
498	0.00828836
510	0.00503597
522	0.00566546
534	0.00650479
546	0.00828836
558	0.00681954
570	0.00702937
582	0.00671462
594	0.00660971
606	0.00556055
618	0.00755395
630	0.00891786
642	0.00692446
654	0.00619004
666	0.00639988
678	0.00692446
690	0.00797362
702	0.0172062
714	0.0295863
726	0.0309502
738	0.0241307
750	0.0212979
762	0.0190947
774	0.0171013
786	0.0141637
798	0.0121703
810	0.0118555
822	0.00933752
834	0.00744904
846	0.00755395
858	0.00734412
870	0.0078687
882	0.00860311
894	0.00923261
906	0.0103867
918	0.0118555
930	0.0111211
942	0.00933752
954	0.00807853
966	0.00629496
978	0.00598021
990	0.00598021
1002	0.00660971
1014	0.00713429
1026	0.00923261
1038	0.00965227
1050	0.00891786
1062	0.00807853
1074	0.00734412
1086	0.00755395
1098	0.00923261
1110	0.0102818
1122	0.00912769
1134	0.00608513
1146	0.00556055
1158	0.00660971
1170	0.00639988
1182	0.00619004
1194	0.00839328
1206	0.0114358
1218	0.0151079
1230	0.0263339
1242	0.0371403
1254	0.032524
1266	0.0434352
1278	0.0573891
1290	0.0566546
1302	0.0536121
1314	0.0376648
1326	0.0233963
1338	0.0227668
1350	0.0351469
1362	0.0364059
1374	0.0330485
1386	0.036196
1398	0.0190947
1410	0.0164718
1422	0.0317895
1434	0.0528777
1446	0.0734412
1458	0.107749
1470	0.105755
1482	0.0434352
1494	0.0181505
1506	0.0130096
1518	0.00954736
1530	0.00828836
1542	0.0072392
1554	0.00671462
1566	0.00608513
1578	0.00535072
1590	0.00556055
1602	0.00545563
1614	0.00503597
1626	0.00503597
1638	0.0046163
1650	0.00451139
1662	0.00430156
1674	0.00398681
1686	0.00388189
1698	0.00356714
1710	0.00272782
1722	0.00146882
1734	0.000209832
1746	0.00115408
1758	0.00272782
1770	0.00356714
1782	0.00314748
1794	0.0032524
1806	0.00356714
1818	0.00346223
1830	0.00367206
1842	0.00335731
1854	0.00335731
1866	0.00304256
1878	0.00314748
1890	0.0032524
1902	0.00314748
1914	0.0032524
1926	0.00335731
1938	0.00335731
1950	0.00346223
1962	0.00335731
1974	0.0032524
1986	0.00346223
1998	0.00356714
2010	0.00398681
2022	0.00451139
2034	0.00577038
2046	0.00629496
2058	0.00681954
2070	0.00650479
2082	0.0058753
2094	0.00503597
2106	0.00514088
2118	0.00545563
2130	0.00619004
2142	0.0115408
2154	0.033678
2166	0.079946
2178	0.0232914
2190	0.00776378
2202	0.0046163
2214	0.00388189
2226	0.00356714
2238	0.00377698
2250	0.00346223
2262	0.00356714
2274	0.00367206
2286	0.00388189
2298	0.00409172
2310	0.00398681
2322	0.00398681
2334	0.00335731
2346	0.00409172
2358	0.00314748
2370	0.00388189
2382	0.00419664
2394	0.00388189
2406	0.00356714
2418	0.00304256
2430	0.00314748
2442	0.00293765
2454	0.00283273
2466	0.00283273
2478	0.00293765
2490	0.00283273
2502	0.00283273
2514	0.00272782
2526	0.00356714
2538	0.00430156
2550	0.00577038
2562	0.00503597
2574	0.00472122
2586	0.00493105
2598	0.00514088
2610	0.00598021
2622	0.00671462
2634	0.0072392
2646	0.00765887
2658	0.00870803
2670	0.0101769
2682	0.0114358
2694	0.0110162
2706	0.0102818
2718	0.00996702
2730	0.0105965
2742	0.012485
2754	0.012485
2766	0.0121703
2778	0.0131145
2790	0.0168915
2802	0.0219274
2814	0.0280126
2826	0.0390288
2838	0.0601169
2850	0.122752
2862	0.353987
2874	0.373291
2886	0.261975
2898	0.195249
2910	0.279391
2922	0.529931
2934	1.0159
2946	0.841531
2958	0.444005
2970	0.511046
2982	0.244559
2994	0.094949
3006	0.0509892
3018	0.0342026
3030	0.0264388
3042	0.0205635
3054	0.0163669
3066	0.0138489
3078	0.0122752
3090	0.0110162
3102	0.00944244
3114	0.0084982
3126	0.0078687
3138	0.00765887
3150	0.00734412
3162	0.00713429
3174	0.00681954
3186	0.00660971
3198	0.00639988
3210	0.00545563
3222	0.00493105
3234	0.00398681
3246	0.00388189
3258	0.00356714
3270	0.00419664
3282	0.0032524
3294	0.00356714
3306	0.0032524
3318	0.00346223
3330	0.00377698
3342	0.00388189
3354	0.00388189
3366	0.00409172
3378	0.00419664
3390	0.00409172
3402	0.00430156
3414	0.00377698
3426	0.00440647
3438	0.00335731
3450	0.00367206
3462	0.00367206
3474	0.00293765
3486	0.00377698
3498	0.00304256
3510	0.0026229
3522	0.00314748
3534	0.00293765
3546	0.00293765
3558	0.00314748
3570	0.00304256
3582	0.00293765
3594	0.00346223
3606	0.00356714
3618	0.00398681
3630	0.00398681
3642	0.00451139
3654	0.00493105
3666	0.00430156
3678	0.0046163
3690	0.00503597
3702	0.00356714
3714	0.00419664
3726	0.00451139
3738	0.0046163
3750	0.00409172
3762	0.0046163
3774	0.00514088
3786	0.00472122
3798	0.00419664
3810	0.00472122
3822	0.00409172
3834	0.00419664
3846	0.00482614
3858	0.00566546
3870	0.00451139
3882	0.00419664
3894	0.00440647
3906	0.00493105
3918	0.00419664
3930	0.00482614
3942	0.0032524
3954	0.00671462
3966	0.0046163
