Infrared Spectrum: Benzofuran, 2,3-dihydro-2,2,6-trimethyl-,
Formula: C 11 H 14 O
CAS: 19956-97-9
Origin: Sadtler Research Labs Under US-EPA Contract
1/CM	ABSORBANCE
450	0.0191628
462	0.0145173
474	0.00953994
486	0.00705126
498	0.00497736
510	0.00389893
522	0.000165912
534	0.00199094
546	0.0041478
558	0.00381598
570	0.00937403
582	0.0363347
594	0.0296982
606	0.00721717
618	0.00389893
630	0.00306937
642	0.00506032
654	0.0214026
666	0.0069683
678	0.00215686
690	0.00298642
702	0.0102865
714	0.013107
726	0.00846151
738	0.0277903
750	0.11788
762	0.049027
774	0.0852788
786	0.187232
798	0.23294
810	0.0782275
822	0.020822
834	0.0213197
846	0.0594795
858	0.134721
870	0.154049
882	0.114396
894	0.0350074
906	0.0209049
918	0.026463
930	0.0632954
942	0.377782
954	0.271266
966	0.0875186
978	0.0893436
990	0.0970585
1002	0.0694342
1014	0.0389893
1026	0.0227299
1038	0.0186651
1050	0.0196606
1062	0.0221493
1074	0.0467872
1086	0.191379
1098	0.353641
1110	0.225143
1122	0.173046
1134	0.19337
1146	0.0812969
1158	0.0956483
1170	0.0777298
1182	0.134306
1194	0.174622
1206	0.0920812
1218	0.198597
1230	0.124102
1242	0.103197
1254	0.146749
1266	0.426394
1278	0.82956
1290	0.233189
1302	0.0902561
1314	0.115807
1326	0.168152
1338	0.0668625
1350	0.034012
1362	0.0851129
1374	0.200836
1386	0.184494
1398	0.0650375
1410	0.0570737
1422	0.164751
1434	0.362932
1446	0.257744
1458	0.180015
1470	0.152888
1482	0.149653
1494	0.474094
1506	0.49898
1518	0.0958971
1530	0.0479486
1542	0.043303
1554	0.0408144
1566	0.0477827
1578	0.0975563
1590	0.209713
1602	0.195942
1614	0.208966
1626	0.288106
1638	0.0629636
1650	0.0388234
1662	0.0248868
1674	0.0187481
1686	0.0158446
1698	0.020739
1710	0.022564
1722	0.0204901
1734	0.0194947
1746	0.0140196
1758	0.00846151
1770	0.00771491
1782	0.007549
1794	0.00613874
1806	0.00481145
1818	0.00572396
1830	0.007549
1842	0.0103695
1854	0.0141855
1866	0.0122775
1878	0.00730013
1890	0.00613874
1902	0.00522623
1914	0.0034012
1926	0.00182503
1938	0.00182503
1950	0.00124434
1962	0.00107843
1974	0.00116138
1986	0.00082956
1998	0.00141025
2010	0.00165912
2022	0.00323528
2034	0.00273755
2046	0.00107843
2058	0.000912516
2070	0.00223981
2082	0.00306937
2094	0.00107843
2106	0.00041478
2118	0.000580692
2130	0.00082956
2142	0.000497736
2154	0.00041478
2166	0.000580692
2178	0.000165912
2190	0.00041478
2202	0.0013273
2214	0.00323528
2226	0.00506032
2238	0.00348415
2250	0.00306937
2262	0.00290346
2274	0.00257164
2286	0.00107843
2298	0.000663648
2310	0
2322	0.00041478
2334	0.00174208
2346	0.00248868
2358	0.00373302
2370	0.00555805
2382	0.00580692
2394	0.00522623
2406	0.00638761
2418	0.00506032
2430	0.00323528
2442	0.00315233
2454	0.0028205
2466	0.00199094
2478	0.00199094
2490	0.00182503
2502	0.0020739
2514	0.00306937
2526	0.00406484
2538	0.00497736
2550	0.00564101
2562	0.00530918
2574	0.00456258
2586	0.00472849
2598	0.00605579
2610	0.00464554
2622	0.00298642
2634	0.00298642
2646	0.00323528
2658	0.00265459
2670	0.00315233
2682	0.00348415
2694	0.00464554
2706	0.0062217
2718	0.00588988
2730	0.00837856
2742	0.0143514
2754	0.00887629
2766	0.00688535
2778	0.00630466
2790	0.00605579
2802	0.00812969
2814	0.0141025
2826	0.0210708
2838	0.0292005
2850	0.056576
2862	0.147828
2874	0.204984
2886	0.156123
2898	0.137209
2910	0.166244
2922	0.273091
2934	0.43834
2946	0.371726
2958	0.183416
2970	0.251191
2982	0.650956
2994	0.268612
3006	0.0889288
3018	0.0969756
3030	0.142435
3042	0.156206
3054	0.128084
3066	0.0965608
3078	0.0515157
3090	0.0350074
3102	0.0241402
3114	0.0141025
3126	0.0106184
3138	0.00588988
3150	0.0028205
3162	0.00273755
3174	0.00331824
3186	0.00530918
3198	0.00738308
3210	0.00564101
3222	0.00306937
3234	0.00265459
3246	0.00265459
3258	0.0013273
3270	0.000995472
3282	0.00107843
3294	0.00174208
3306	0.00165912
3318	0.000995472
3330	0.00149321
3342	0.00082956
3354	0.00124434
3366	0.000995472
3378	0.00082956
3390	0.00116138
3402	0.000995472
3414	0.000580692
3426	0.00157616
3438	0.00190799
3450	0.00157616
3462	0.00165912
3474	0.00182503
3486	0.00107843
3498	0.00107843
3510	0.000912516
3522	0.00041478
3534	0.00157616
3546	0.000580692
3558	0.000580692
3570	0.000580692
3582	0.00041478
3594	0.00041478
3606	0.000995472
3618	0.000248868
3630	0.000663648
3642	0.00124434
3654	0.00116138
3666	0.000912516
3678	0.000248868
3690	0.00165912
3702	0.00124434
3714	0
3726	0.00107843
3738	0.000995472
3750	0.000912516
3762	0.00082956
3774	0.000580692
3786	0.00124434
3798	0.00141025
3810	0.00116138
3822	0.0013273
3834	0.00157616
3846	0.00248868
3858	0.00182503
3870	0.00041478
3882	0.000912516
3894	0.000663648
3906	0.000580692
3918	0.000580692
3930	0.000912516
3942	0.000580692
3954	0.00174208
3966	0.000248868
