Infrared Spectrum: 2-Chloro-4-fluorophenol
Formula: C 6 H 4 Cl F O
CAS: 1996-41-4
Origin: Sadtler Research Labs Under US-EPA Contract
1/CM	ABSORBANCE
450	0
462	0.0188005
474	0.0272092
486	0.025226
498	0.0214976
510	0.0305409
522	0.0571948
534	0.0367284
546	0.0276058
558	0.0318101
570	0.041488
582	0.0362524
594	0.0207043
606	0.0228462
618	0.0185625
630	0.0178486
642	0.0179279
654	0.0243534
666	0.020625
678	0.0287164
690	0.033
702	0.0224495
714	0.0246707
726	0.028875
738	0.0406948
750	0.0552116
762	0.0613991
774	0.207837
786	0.102728
798	0.045613
810	0.100031
822	0.0606058
834	0.0432332
846	0.0629063
858	0.136125
870	0.0692525
882	0.0483895
894	0.0441058
906	0.115659
918	0.103918
930	0.0273678
942	0.0223702
954	0.0161827
966	0.0157861
978	0.0155481
990	0.0157067
1002	0.0184039
1014	0.0188005
1026	0.021339
1038	0.06719
1050	0.0683005
1062	0.0258606
1074	0.0251467
1086	0.0237188
1098	0.0215769
1110	0.0228462
1122	0.02475
1134	0.0239568
1146	0.0294303
1158	0.0577501
1170	0.109233
1182	0.127716
1194	0.202998
1206	0.387036
1218	0.266539
1230	0.155402
1242	0.104553
1254	0.192368
1266	0.158575
1278	0.0506106
1290	0.0640169
1302	0.0348246
1314	0.0362524
1326	0.0740914
1338	0.0827381
1350	0.0290337
1362	0.0182452
1374	0.0218149
1386	0.0246707
1398	0.0199904
1410	0.0274471
1422	0.0566395
1434	0.0464856
1446	0.0268919
1458	0.0333967
1470	0.0418053
1482	0.163096
1494	0.65421
1506	0.681736
1518	0.239092
1530	0.045375
1542	0.0216563
1554	0.0186418
1566	0.0193558
1578	0.0205457
1590	0.0253053
1602	0.0381563
1614	0.0621924
1626	0.0391875
1638	0.0179279
1650	0.0181659
1662	0.0153894
1674	0.0184039
1686	0.0168173
1698	0.0177692
1710	0.0190385
1722	0.0194351
1734	0.0188798
1746	0.0160241
1758	0.0140409
1770	0.0141202
1782	0.0127716
1794	0.0141202
1806	0.0132476
1818	0.0124543
1830	0.0137236
1842	0.0140409
1854	0.0180072
1866	0.0204664
1878	0.0136442
1890	0.0119784
1902	0.0111851
1914	0.0110265
1926	0.0117404
1938	0.012137
1950	0.012137
1962	0.011899
1974	0.0113438
1986	0.0113438
1998	0.0111851
2010	0.0115024
2022	0.0111058
2034	0.0112644
2046	0.0126923
2058	0.0149928
2070	0.0133269
2082	0.0111058
2094	0.0111058
2106	0.0115817
2118	0.0114231
2130	0.0105505
2142	0.0102332
2154	0.0104712
2166	0.0107091
2178	0.0105505
2190	0.0104712
2202	0.00975722
2214	0.0099952
2226	0.0105505
2238	0.0100745
2250	0.0105505
2262	0.0103918
2274	0.0109471
2286	0.0112644
2298	0.0119784
2310	0.012137
2322	0.0115024
2334	0.0114231
2346	0.012375
2358	0.012613
2370	0.0122957
2382	0.013089
2394	0.0119784
2406	0.0124543
2418	0.012375
2430	0.0122957
2442	0.0120577
2454	0.0116611
2466	0.0111851
2478	0.012375
2490	0.0138822
2502	0.0133269
2514	0.0117404
2526	0.0112644
2538	0.0122164
2550	0.0122164
2562	0.0107885
2574	0.0113438
2586	0.0111851
2598	0.0111058
2610	0.0115024
2622	0.0107091
2634	0.0111058
2646	0.0109471
2658	0.011899
2670	0.0118197
2682	0.0112644
2694	0.0109471
2706	0.0106298
2718	0.0111058
2730	0.0111058
2742	0.0107091
2754	0.0109471
2766	0.0114231
2778	0.0124543
2790	0.0125337
2802	0.0122164
2814	0.0119784
2826	0.0115024
2838	0.0117404
2850	0.0122164
2862	0.0130096
2874	0.0135649
2886	0.0133269
2898	0.0138029
2910	0.0138029
2922	0.0143582
2934	0.0153101
2946	0.0148341
2958	0.0143582
2970	0.0144375
2982	0.0134063
2994	0.0120577
3006	0.0115024
3018	0.0122957
3030	0.0148341
3042	0.0157861
3054	0.0168967
3066	0.0183245
3078	0.0172933
3090	0.0164207
3102	0.0145962
3114	0.0115817
3126	0.0120577
3138	0.0116611
3150	0.0116611
3162	0.0115024
3174	0.0116611
3186	0.012137
3198	0.012613
3210	0.0117404
3222	0.0118197
3234	0.0125337
3246	0.0120577
3258	0.0118197
3270	0.012375
3282	0.012613
3294	0.0111058
3306	0.0115024
3318	0.0115024
3330	0.0115024
3342	0.0113438
3354	0.0117404
3366	0.0126923
3378	0.012613
3390	0.0112644
3402	0.0116611
3414	0.011899
3426	0.012137
3438	0.0112644
3450	0.0103125
3462	0.0114231
3474	0.0116611
3486	0.0109471
3498	0.0111058
3510	0.0099952
3522	0.0116611
3534	0.011899
3546	0.0125337
3558	0.0141995
3570	0.0309375
3582	0.209265
3594	0.191257
3606	0.0244327
3618	0.0117404
3630	0.0151515
3642	0.0197524
3654	0.0341106
3666	0.0315721
3678	0.0136442
3690	0.0106298
3702	0.0117404
3714	0.00959857
3726	0.00951924
3738	0.0100745
3750	0.0101539
3762	0.0111851
3774	0.0108678
3786	0.00951924
3798	0.0099952
3810	0.0136442
3822	0.0115024
3834	0.0116611
3846	0.0110265
3858	0.0106298
3870	0.0101539
3882	0.012137
3894	0.0138822
3906	0.0119784
3918	0.0143582
3930	0.0140409
3942	0.0109471
3954	0.0134856
3966	0.0116611
