Infrared Spectrum: Benzenepropanol, .gamma.-phenyl-
Formula: C 15 H 16 O
CAS: 20017-67-8
Origin: Sadtler Research Labs Under US-EPA Contract
1/CM	ABSORBANCE
450	0.367023
462	0.073837
474	0.012831
486	0.024628
498	0.048739
510	0.025897
522	0.033323
534	0.066082
546	0.060536
558	0.070312
570	0.07285
582	0.060818
594	0.070782
606	0.041313
618	0.053768
630	0.061053
642	0.044368
654	0.04512
666	0.06298
678	0.090945
690	0.237162
702	0.456135
714	0.16027
726	0.124973
738	0.162291
750	0.1692
762	0.109416
774	0.09024
786	0.046295
798	0.03713
810	0.027119
822	0.032618
834	0.029986
846	0.030456
858	0.036566
870	0.040843
882	0.041924
894	0.043099
906	0.041219
918	0.036237
930	0.029939
942	0.030127
954	0.035015
966	0.037224
978	0.046812
990	0.069654
1002	0.102977
1014	0.157685
1026	0.242379
1038	0.298262
1050	0.286371
1062	0.196131
1074	0.122247
1086	0.073367
1098	0.052452
1110	0.049491
1122	0.046013
1134	0.050807
1146	0.047564
1158	0.045919
1170	0.046248
1182	0.053251
1194	0.052217
1206	0.048692
1218	0.04277
1230	0.039339
1242	0.046248
1254	0.053486
1266	0.052311
1278	0.050243
1290	0.051512
1302	0.053063
1314	0.055366
1326	0.059502
1338	0.060583
1350	0.061429
1362	0.05781
1374	0.064061
1386	0.075576
1398	0.068667
1410	0.049444
1422	0.043663
1434	0.057058
1446	0.10293
1458	0.090381
1470	0.054896
1482	0.081075
1494	0.204215
1506	0.080229
1518	0.031114
1530	0.027213
1542	0.02867
1554	0.023547
1566	0.025803
1578	0.042488
1590	0.080229
1602	0.114022
1614	0.044932
1626	0.023312
1638	0.020398
1650	0.021949
1662	0.020163
1674	0.020633
1686	0.019364
1698	0.018471
1710	0.01739
1722	0.017907
1734	0.022466
1746	0.022983
1758	0.018941
1770	0.019176
1782	0.022184
1794	0.036143
1806	0.026179
1818	0.018894
1830	0.015651
1842	0.015792
1854	0.017249
1866	0.021902
1878	0.023688
1890	0.021761
1902	0.015839
1914	0.015181
1926	0.020116
1938	0.032477
1950	0.030362
1962	0.021714
1974	0.012784
1986	0.011797
1998	0.010058
2010	0.010387
2022	0.010199
2034	0.011327
2046	0.011233
2058	0.011186
2070	0.011609
2082	0.010293
2094	0.00893
2106	0.008413
2118	0.007238
2130	0.008037
2142	0.007896
2154	0.006721
2166	0.006862
2178	0.006157
2190	0.00611
2202	0.006016
2214	0.00564
2226	0.006063
2238	0.006345
2250	0.006674
2262	0.007003
2274	0.00752
2286	0.008883
2298	0.011985
2310	0.014852
2322	0.014711
2334	0.012173
2346	0.011703
2358	0.013865
2370	0.008037
2382	0.008883
2394	0.009259
2406	0.009259
2418	0.009494
2430	0.009823
2442	0.009306
2454	0.009165
2466	0.008695
2478	0.00799
2490	0.008413
2502	0.008554
2514	0.008225
2526	0.008178
2538	0.007896
2550	0.006862
2562	0.007285
2574	0.007849
2586	0.008319
2598	0.008507
2610	0.009494
2622	0.009682
2634	0.010011
2646	0.009494
2658	0.010998
2670	0.011515
2682	0.01222
2694	0.012267
2706	0.013113
2718	0.013207
2730	0.014053
2742	0.015651
2754	0.016168
2766	0.017484
2778	0.019411
2790	0.021855
2802	0.02209
2814	0.021855
2826	0.024487
2838	0.029704
2850	0.043381
2862	0.063309
2874	0.097243
2886	0.156228
2898	0.126947
2910	0.096303
2922	0.126477
2934	0.180198
2946	0.221981
2958	0.162714
2970	0.085587
2982	0.045496
2994	0.035673
3006	0.049491
3018	0.08883
3030	0.219866
3042	0.186825
3054	0.127464
3066	0.239606
3078	0.238525
3090	0.143632
3102	0.084083
3114	0.048316
3126	0.02115
3138	0.013442
3150	0.012549
3162	0.013019
3174	0.010951
3186	0.008789
3198	0.007896
3210	0.008789
3222	0.008883
3234	0.008037
3246	0.008695
3258	0.00564
3270	0.005264
3282	0.006627
3294	0.007614
3306	0.006768
3318	0.00846
3330	0.006533
3342	0.008084
3354	0.009212
3366	0.009776
3378	0.009588
3390	0.011515
3402	0.011562
3414	0.013865
3426	0.013207
3438	0.012408
3450	0.014335
3462	0.013019
3474	0.014006
3486	0.013536
3498	0.013818
3510	0.01175
3522	0.011562
3534	0.010951
3546	0.012455
3558	0.010293
3570	0.013583
3582	0.011797
3594	0.011938
3606	0.015228
3618	0.021244
3630	0.036237
3642	0.035861
3654	0.045872
3666	0.06815
3678	0.054426
3690	0.022372
3702	0.015933
3714	0.014006
3726	0.015369
3738	0.013442
3750	0.012032
3762	0.009729
3774	0.015698
3786	0.014617
3798	0.012032
3810	0.018048
3822	0.018283
3834	0.018471
3846	0.017014
3858	0.012173
3870	0.012643
3882	0.016497
3894	0.017108
3906	0.015886
3918	0.01269
3930	0.015792
3942	0.020398
3954	0.017625
3966	0.015839
