Infrared Spectrum: 4-Chlorophenyl benzoate
Formula: C 13 H 9 Cl O 2
CAS: 2005-08-5
Origin: Sadtler Research Labs Under US-EPA Contract
1/CM	ABSORBANCE
450	0
462	0.0830049
474	0.0662033
486	0.088271
498	0.111969
510	0.134413
522	0.0959195
534	0.0782402
546	0.080121
558	0.0680841
570	0.0759833
582	0.0812495
594	0.0713441
606	0.0749802
618	0.0831303
630	0.081751
642	0.0897757
654	0.0838826
666	0.092158
678	0.127015
690	0.209393
702	0.336909
714	0.270581
726	0.129021
738	0.110088
750	0.0883964
762	0.0807479
774	0.0917818
786	0.0995557
798	0.126012
810	0.122125
822	0.125887
834	0.118113
846	0.111216
858	0.121247
870	0.143315
882	0.111593
894	0.0902772
906	0.0853872
918	0.0861395
930	0.0890234
942	0.0880203
954	0.0867664
966	0.0853872
978	0.0890234
990	0.100935
1002	0.130651
1014	0.357723
1026	0.423551
1038	0.145572
1050	0.469943
1062	0.653883
1074	0.467185
1086	0.243247
1098	0.280235
1110	0.13529
1122	0.109586
1134	0.102189
1146	0.112094
1158	0.197732
1170	0.269703
1182	0.463548
1194	0.578401
1206	1.23918
1218	0.605359
1230	0.354213
1242	0.455398
1254	0.843089
1266	0.846474
1278	0.273715
1290	0.17579
1302	0.14344
1314	0.151214
1326	0.127767
1338	0.120871
1350	0.108834
1362	0.0940387
1374	0.0902772
1386	0.087268
1398	0.0865156
1410	0.0867664
1422	0.0892741
1434	0.111969
1446	0.123379
1458	0.132908
1470	0.121874
1482	0.389195
1494	0.582539
1506	0.162374
1518	0.109712
1530	0.093788
1542	0.0883964
1554	0.0838826
1566	0.0828795
1578	0.092158
1590	0.110213
1602	0.110464
1614	0.0880203
1626	0.0802464
1638	0.0811241
1650	0.0793687
1662	0.0794941
1674	0.0838826
1686	0.0863903
1698	0.0857633
1710	0.0919072
1722	0.0995557
1734	0.122877
1746	0.231711
1758	0.593823
1770	0.468062
1782	0.141309
1794	0.0920326
1806	0.0909041
1818	0.0877695
1830	0.0791179
1842	0.0789925
1854	0.0781149
1866	0.076861
1878	0.0799956
1890	0.0782402
1902	0.0754818
1914	0.0763595
1926	0.0756072
1938	0.0718456
1950	0.0725979
1962	0.0741025
1974	0.0737264
1986	0.0690871
1998	0.0705918
2010	0.0709679
2022	0.0713441
2034	0.0712187
2046	0.0692125
2058	0.0698394
2070	0.0700902
2082	0.0688364
2094	0.0674571
2106	0.0679587
2118	0.0683348
2130	0.0674571
2142	0.0659525
2154	0.0649494
2166	0.0646987
2178	0.064824
2190	0.0639463
2202	0.0641971
2214	0.0636956
2226	0.0640717
2238	0.0640717
2250	0.0646987
2262	0.0658271
2274	0.0669556
2286	0.0682094
2298	0.0704664
2310	0.0729741
2322	0.0720964
2334	0.067081
2346	0.0674571
2358	0.068711
2370	0.0664541
2382	0.0689618
2394	0.0668302
2406	0.0663287
2418	0.0643225
2430	0.0635702
2442	0.0623163
2454	0.0619402
2466	0.0616894
2478	0.062191
2490	0.0625671
2502	0.062191
2514	0.0625671
2526	0.0618148
2538	0.061564
2550	0.0616894
2562	0.0624417
2574	0.0619402
2586	0.0614386
2598	0.0613133
2610	0.061564
2622	0.0606863
2634	0.0611879
2646	0.0608117
2658	0.0606863
2670	0.0603102
2682	0.060561
2694	0.0613133
2706	0.0600594
2718	0.0596833
2730	0.0596833
2742	0.0608117
2754	0.0613133
2766	0.0606863
2778	0.0610625
2790	0.0608117
2802	0.0609371
2814	0.0614386
2826	0.0625671
2838	0.0644479
2850	0.0655764
2862	0.0663287
2874	0.0650748
2886	0.0645733
2898	0.0646987
2910	0.0645733
2922	0.0660779
2934	0.0678333
2946	0.0673317
2958	0.0657017
2970	0.0678333
2982	0.0658271
2994	0.063821
3006	0.0646987
3018	0.0688364
3030	0.0722218
3042	0.086641
3054	0.0940387
3066	0.100433
3078	0.135667
3090	0.0942895
3102	0.0940387
3114	0.0778641
3126	0.0649494
3138	0.0625671
3150	0.0623163
3162	0.0624417
3174	0.0624417
3186	0.0618148
3198	0.0610625
3210	0.0614386
3222	0.0606863
3234	0.060561
3246	0.0608117
3258	0.060561
3270	0.0608117
3282	0.0608117
3294	0.0601848
3306	0.060561
3318	0.0609371
3330	0.0610625
3342	0.0600594
3354	0.0613133
3366	0.0624417
3378	0.0608117
3390	0.0613133
3402	0.0601848
3414	0.0619402
3426	0.0616894
3438	0.0608117
3450	0.0618148
3462	0.0614386
3474	0.0624417
3486	0.0634448
3498	0.065451
3510	0.0657017
3522	0.0623163
3534	0.0624417
3546	0.0625671
3558	0.0624417
3570	0.0635702
3582	0.065451
3594	0.0653256
3606	0.0623163
3618	0.063194
3630	0.0626925
3642	0.065451
3654	0.0690871
3666	0.0662033
3678	0.0643225
3690	0.0633194
3702	0.061564
3714	0.0626925
3726	0.063194
3738	0.0636956
3750	0.0608117
3762	0.061564
3774	0.0619402
3786	0.0610625
3798	0.0596833
3810	0.0601848
3822	0.060561
3834	0.063194
3846	0.0633194
3858	0.0616894
3870	0.062191
3882	0.0611879
3894	0.060561
3906	0.0645733
3918	0.0600594
3930	0.0623163
3942	0.0634448
3954	0.0611879
3966	0.0601848
