Infrared Spectrum: 1-Hexanol, 6-chloro-
Formula: C 6 H 13 Cl O
CAS: 2009-83-8
Origin: Sadtler Research Labs Under US-EPA Contract
1/CM	ABSORBANCE
450	0.00330983
462	0.00447801
474	0.00136287
486	0.00399127
498	0.0132393
510	0.0108056
522	0.00778784
534	0.00438066
546	0.0048674
558	0.00866397
570	0.00496475
582	0.00214166
594	0.00408862
606	0.00613292
618	0.00623027
630	0.0143102
642	0.0300805
654	0.0777811
666	0.0974453
678	0.0335851
690	0.0184961
702	0.0253105
714	0.0457536
726	0.0889761
738	0.140668
750	0.108543
762	0.0627895
774	0.0407888
786	0.0328063
798	0.0270627
810	0.0278415
822	0.0229741
834	0.0253105
846	0.0254078
858	0.0283283
870	0.0284256
882	0.0312487
894	0.0409835
906	0.0434172
918	0.0416649
930	0.0434172
942	0.0520812
954	0.0668781
966	0.0747633
978	0.088684
990	0.112729
1002	0.131614
1014	0.15235
1026	0.213971
1038	0.301876
1050	0.35571
1062	0.305478
1074	0.224387
1086	0.160819
1098	0.0913124
1110	0.0661966
1122	0.0661966
1134	0.0533467
1146	0.0443907
1158	0.0417623
1170	0.0410809
1182	0.0442933
1194	0.0493554
1206	0.0571433
1218	0.0627895
1230	0.0689224
1242	0.0792413
1254	0.0920912
1266	0.110198
1278	0.128791
1290	0.151181
1302	0.151571
1314	0.134438
1326	0.106207
1338	0.0806041
1350	0.0845954
1362	0.0818697
1374	0.0853742
1386	0.0961798
1398	0.0769049
1410	0.0476032
1422	0.0413729
1434	0.0653205
1446	0.113216
1458	0.138332
1470	0.0927726
1482	0.0554884
1494	0.0229741
1506	0.0125579
1518	0.00817723
1530	0.0048674
1542	0.00438066
1554	0.00438066
1566	0.00282309
1578	0.00330983
1590	0.00233635
1602	0.00155757
1614	0.00107083
1626	0.000876132
1638	0.00146022
1650	9.7348e-05
1662	0.00097348
1674	0.00097348
1686	0.00233635
1698	0.000778784
1710	0.00116818
1722	0.00136287
1734	0.00184961
1746	0.00253105
1758	0.00282309
1770	0.00204431
1782	0.00155757
1794	0.0026284
1806	0.00194696
1818	0.00194696
1830	0.00194696
1842	0.00107083
1854	0.00165492
1866	0.00116818
1878	0.00214166
1890	0.002239
1902	0.00272574
1914	0.0024337
1926	0.00301779
1938	0.00282309
1950	0.00330983
1962	0.00360188
1974	0.00340718
1986	0.00321248
1998	0.00379657
2010	0.00389392
2022	0.00438066
2034	0.00350453
2046	0.00399127
2058	0.00399127
2070	0.00253105
2082	0.00253105
2094	0.00389392
2106	0.00428331
2118	0.00399127
2130	0.00340718
2142	0.00399127
2154	0.00350453
2166	0.00389392
2178	0.00389392
2190	0.00340718
2202	0.00292044
2214	0.00379657
2226	0.00292044
2238	0.00330983
2250	0.00330983
2262	0.00311514
2274	0.00292044
2286	0.00253105
2298	0.00155757
2310	0.000194696
2322	0.00107083
2334	0.0026284
2346	0.00379657
2358	0.00126552
2370	0.00584088
2382	0.00350453
2394	0.00330983
2406	0.00340718
2418	0.00340718
2430	0.00330983
2442	0.00330983
2454	0.00389392
2466	0.00350453
2478	0.00292044
2490	0.00282309
2502	0.00350453
2514	0.00292044
2526	0.00292044
2538	0.00292044
2550	0.00340718
2562	0.00204431
2574	0.00155757
2586	0.00272574
2598	0.00428331
2610	0.00632762
2622	0.00788519
2634	0.00846928
2646	0.0107083
2658	0.0119738
2670	0.0129473
2682	0.0139208
2694	0.0168412
2706	0.0175226
2718	0.0187882
2730	0.0219033
2742	0.0233635
2754	0.0251158
2766	0.0269654
2778	0.0304699
2790	0.0351426
2802	0.039718
2814	0.0445854
2826	0.0564618
2838	0.0914098
2850	0.184669
2862	0.341205
2874	0.459288
2886	0.429402
2898	0.362816
2910	0.427747
2922	0.57669
2934	0.833202
2946	0.958488
2958	0.689808
2970	0.428526
2982	0.210856
2994	0.159651
3006	0.129473
3018	0.0465323
3030	0.0235582
3042	0.0154783
3054	0.0103189
3066	0.00817723
3078	0.0050621
3090	0.00360188
3102	0.00272574
3114	0.00165492
3126	0.00184961
3138	0.00146022
3150	0.00253105
3162	0.00272574
3174	0.00272574
3186	0.00330983
3198	0.00282309
3210	0.00340718
3222	0.00389392
3234	0.00369922
3246	0.00350453
3258	0.00340718
3270	0.00292044
3282	0.00146022
3294	0.00194696
3306	0.00116818
3318	0.00155757
3330	0.00107083
3342	0.00155757
3354	0.00194696
3366	0.00146022
3378	0.000194696
3390	0.00165492
3402	0.00253105
3414	0.00292044
3426	0.00418596
3438	0.00369922
3450	0.0050621
3462	0.00554884
3474	0.00691171
3486	0.00661966
3498	0.0074958
3510	0.00691171
3522	0.00613292
3534	0.00496475
3546	0.00554884
3558	0.0071064
3570	0.00846928
3582	0.00671701
3594	0.00720375
3606	0.00934541
3618	0.013142
3630	0.0199563
3642	0.0293991
3654	0.0630815
3666	0.0991976
3678	0.101534
3690	0.0474085
3702	0.0208325
3714	0.0127526
3726	0.00924806
3738	0.00905336
3750	0.00720375
3762	0.00681436
3774	0.00584088
3786	0.00584088
3798	0.00515944
3810	0.00642497
3822	0.00603558
3834	0.00652232
3846	0.00661966
3858	0.00525679
3870	0.00496475
3882	0.00613292
3894	0.00759314
3906	0.00778784
3918	0.00856662
3930	0.00778784
3942	0.00700906
3954	0.00759314
3966	0.00963745
