Infrared Spectrum: Benzene, methoxymethyl-pentamethyl-,
Formula: C 13 H 20 O
CAS: 20145-50-0
Origin: Sadtler Research Labs Under US-EPA Contract
1/CM	ABSORBANCE
450	0
462	0.010008
474	0.0104629
486	0.0146871
498	0.0122176
510	0.0070186
522	0.0094881
534	0.00883823
546	0.00929314
558	0.0105929
570	0.00825335
582	0.00994301
594	0.00922815
606	0.0079934
618	0.0079934
630	0.0085133
642	0.0111128
654	0.0242402
666	0.0239802
678	0.0102679
690	0.00987802
702	0.00916317
714	0.00838332
726	0.00831834
738	0.0126075
750	0.0114377
762	0.0102679
774	0.0123475
786	0.0185863
798	0.0233303
810	0.0456859
822	0.0461408
834	0.0189112
846	0.0137123
858	0.0131274
870	0.0140372
882	0.0191062
894	0.0367826
906	0.0567337
918	0.029829
930	0.0317786
942	0.059983
954	0.060178
966	0.0391222
978	0.0323635
990	0.0306089
1002	0.0339882
1014	0.0384723
1026	0.0455559
1038	0.0674565
1050	0.102355
1062	0.155969
1074	0.184173
1086	0.229859
1098	0.511643
1110	0.580334
1122	0.186903
1134	0.089877
1146	0.0668716
1158	0.0593331
1170	0.0554989
1182	0.0933863
1194	0.111128
1206	0.0430214
1218	0.0304139
1230	0.0353529
1242	0.0362627
1254	0.0344431
1266	0.0314537
1278	0.0388622
1290	0.0488702
1302	0.0336633
1314	0.0254099
1326	0.0256049
1338	0.0307389
1350	0.0504299
1362	0.0883823
1374	0.123475
1386	0.0967656
1398	0.0792192
1410	0.0705759
1422	0.0889022
1434	0.1006
1446	0.103069
1458	0.109308
1470	0.112233
1482	0.0922166
1494	0.0816887
1506	0.0696661
1518	0.0531594
1530	0.0441912
1542	0.0394471
1554	0.0387972
1566	0.039967
1578	0.0379524
1590	0.0304789
1602	0.0257349
1614	0.0226805
1626	0.019821
1638	0.0172216
1650	0.0157918
1662	0.0141672
1674	0.0132573
1686	0.0127375
1698	0.0140372
1710	0.0183913
1722	0.0107229
1734	0.0103329
1746	0.0142322
1758	0.0118276
1770	0.0124775
1782	0.0139072
1794	0.0161168
1806	0.0106579
1818	0.00838332
1830	0.00773345
1842	0.00779844
1854	0.00773345
1866	0.00740852
1878	0.00727854
1890	0.00740852
1902	0.00734353
1914	0.00734353
1926	0.00766847
1938	0.00812338
1950	0.0085133
1962	0.00903319
1974	0.0094881
1986	0.0107878
1998	0.0124775
2010	0.0121526
2022	0.0121526
2034	0.0134523
2046	0.0142971
2058	0.0128674
2070	0.0105279
2082	0.010073
2094	0.00987802
2106	0.00903319
2118	0.00864327
2130	0.00896821
2142	0.00935813
2154	0.00916317
2166	0.00903319
2178	0.00955309
2190	0.00955309
2202	0.00961808
2214	0.00857828
2226	0.00773345
2238	0.00740852
2250	0.00747351
2262	0.00766847
2274	0.00727854
2286	0.00721356
2298	0.0070186
2310	0.00688862
2322	0.00818836
2334	0.00916317
2346	0.00903319
2358	0.00987802
2370	0.00896821
2382	0.00942312
2394	0.00942312
2406	0.00909818
2418	0.00916317
2430	0.0094881
2442	0.00968306
2454	0.00994301
2466	0.00987802
2478	0.00961808
2490	0.00981304
2502	0.00955309
2514	0.0094881
2526	0.0094881
2538	0.00916317
2550	0.00935813
2562	0.0094881
2574	0.00974805
2586	0.0105929
2598	0.0110478
2610	0.0108528
2622	0.0113077
2634	0.0109178
2646	0.0113727
2658	0.0115677
2670	0.0121526
2682	0.0128674
2694	0.0141672
2706	0.0165717
2718	0.020081
2730	0.0291142
2742	0.0342481
2754	0.0291792
2766	0.0303489
2778	0.0357429
2790	0.0460758
2802	0.0803239
2814	0.164742
2826	0.182678
2838	0.126985
2850	0.134718
2862	0.188722
2874	0.305374
2886	0.388752
2898	0.425665
2910	0.414227
2922	0.437492
2934	0.495071
2946	0.45088
2958	0.369581
2970	0.285098
2982	0.283733
2994	0.276325
3006	0.189632
3018	0.169486
3030	0.154409
3042	0.133093
3054	0.108398
3066	0.0856529
3078	0.0658968
3090	0.0509498
3102	0.0402919
3114	0.0323635
3126	0.0265147
3138	0.0219656
3150	0.0183913
3162	0.0160518
3174	0.0139722
3186	0.0127375
3198	0.0110478
3210	0.0103329
3222	0.00994301
3234	0.00922815
3246	0.00929314
3258	0.0085133
3270	0.00844831
3282	0.00857828
3294	0.00831834
3306	0.00831834
3318	0.00857828
3330	0.00838332
3342	0.00831834
3354	0.00812338
3366	0.00825335
3378	0.00864327
3390	0.00831834
3402	0.0085133
3414	0.00883823
3426	0.0085133
3438	0.00825335
3450	0.00786343
3462	0.0085133
3474	0.00844831
3486	0.00818836
3498	0.00792841
3510	0.00740852
3522	0.00818836
3534	0.00825335
3546	0.00786343
3558	0.0085133
3570	0.00805839
3582	0.00786343
3594	0.00786343
3606	0.00740852
3618	0.00786343
3630	0.00838332
3642	0.00773345
3654	0.0079934
3666	0.00766847
3678	0.0085133
3690	0.00688862
3702	0.00831834
3714	0.00857828
3726	0.0085133
3738	0.00857828
3750	0.00688862
3762	0.00760348
3774	0.00688862
3786	0.00753849
3798	0.00727854
3810	0.00708358
3822	0.0079934
3834	0.00812338
3846	0.00877325
3858	0.00883823
3870	0.00922815
3882	0.00818836
3894	0.00909818
3906	0.00877325
3918	0.0094881
3930	0.00974805
3942	0.0094881
3954	0.00812338
3966	0.00818836
