Infrared Spectrum: Benzene, 1,3-dichloro-2-(chloromethyl)-
Formula: C 7 H 5 Cl 3
CAS: 2014-83-7
Origin: Sadtler Research Labs Under US-EPA Contract
1/CM	ABSORBANCE
450	0.00267187
462	0.00183691
474	0.00793212
486	0.00542724
498	0.0084331
510	0.0040913
522	0.00175342
534	0.0063457
546	0.00993602
558	0.00960204
570	0.00467578
582	0.00985253
594	0.0151128
606	0.0351518
618	0.0268022
630	0.0153633
642	0.0172002
654	0.0272197
666	0.030476
678	0.0391596
690	0.0366547
702	0.0275537
714	0.0220429
726	0.0204565
738	0.0241303
750	0.0344004
762	0.0537714
774	0.127665
786	0.17267
798	0.176427
810	0.335069
822	0.309687
834	0.155052
846	0.102533
858	0.0741444
870	0.0672978
882	0.0457558
894	0.0313945
906	0.0253828
918	0.0250488
930	0.020039
942	0.020039
954	0.0211245
966	0.021375
978	0.0272197
990	0.0561093
1002	0.174423
1014	0.540386
1026	0.83496
1038	0.423659
1050	0.163903
1062	0.172419
1074	0.235709
1086	0.273282
1098	0.196299
1110	0.127582
1122	0.082995
1134	0.0575287
1146	0.0333984
1158	0.0241303
1170	0.0146953
1182	0.00860009
1194	0.01027
1206	0.0084331
1218	0.00776513
1230	0.0116059
1242	0.0268857
1254	0.100362
1266	0.268273
1278	0.0807406
1290	0.0225439
1302	0.0145283
1314	0.00768163
1326	0.00935155
1338	0.00509326
1350	0.00392431
1362	0.00751464
1374	0.0103535
1386	0.0149458
1398	0.0220429
1410	0.0284721
1422	0.021709
1434	0.0186196
1446	0.0202895
1458	0.0588647
1470	0.0693017
1482	0.03081
1494	0.0159477
1506	0.00943505
1518	0.00384082
1530	0.00567773
1542	0.00592822
1554	0.0191206
1566	0.0469248
1578	0.106123
1590	0.0483442
1602	0.0121069
1614	0.00918456
1626	0.00592822
1638	0.00475927
1650	0.00192041
1662	0.00333984
1674	0.00225439
1686	0
1698	0.00108545
1710	0.00250488
1722	0.00342334
1734	0.00342334
1746	0.00350683
1758	0.0020039
1770	0.0020039
1782	0.00283886
1794	0.00292236
1806	0.00225439
1818	0.00125244
1830	0.00192041
1842	0.00242138
1854	0.00308935
1866	0.00292236
1878	0.00225439
1890	0.00267187
1902	0.00233789
1914	0.00325634
1926	0.00333984
1938	0.00342334
1950	0.00350683
1962	0.00250488
1974	0.00250488
1986	0.00225439
1998	0.0021709
2010	0.00233789
2022	0.00183691
2034	0.00250488
2046	0.00225439
2058	0.0020039
2070	0.0020039
2082	0.00258838
2094	0.0021709
2106	0.00233789
2118	0.00175342
2130	0.00192041
2142	0.0020039
2154	0.00233789
2166	0.00275537
2178	0.0021709
2190	0.00308935
2202	0.00250488
2214	0.0020039
2226	0.00283886
2238	0.00275537
2250	0.00233789
2262	0.00275537
2274	0.00275537
2286	0.0041748
2298	0.00584472
2310	0.0082661
2322	0.00968554
2334	0.0108545
2346	0.0103535
2358	0.0137768
2370	0.0122739
2382	0.0063457
2394	0.00192041
2406	0.00258838
2418	0.00283886
2430	0.00225439
2442	0.00192041
2454	0.0020874
2466	0.0021709
2478	0.00192041
2490	0.00258838
2502	0.0021709
2514	0.00325634
2526	0.00158642
2538	0.00175342
2550	0.00267187
2562	0.00225439
2574	0.00375732
2586	0.00308935
2598	0.00325634
2610	0.00275537
2622	0.00292236
2634	0.0021709
2646	0.00300586
2658	0.00325634
2670	0.00292236
2682	0.00325634
2694	0.00267187
2706	0.00500976
2718	0.00317285
2730	0.00793212
2742	0.00275537
2754	0.0100195
2766	0.00325634
2778	0.010103
2790	0.00442529
2802	0.0100195
2814	0.00601171
2826	0.00667968
2838	0.0061787
2850	0.00793212
2862	0.00951854
2874	0.0118564
2886	0.011105
2898	0.0151963
2910	0.0227109
2922	0.0181186
2934	0.0186196
2946	0.0333984
2958	0.042583
2970	0.0984418
2982	0.0551909
2994	0.0148623
3006	0.0119399
3018	0.0165322
3030	0.0147788
3042	0.0103535
3054	0.010771
3066	0.0140273
3078	0.0170332
3090	0.0135264
3102	0.00951854
3114	0.00768163
3126	0.0062622
3138	0.00459228
3150	0.00467578
3162	0.00384082
3174	0.00300586
3186	0.00333984
3198	0.00225439
3210	0.00384082
3222	0.00333984
3234	0.0021709
3246	0.00333984
3258	0.00308935
3270	0.00317285
3282	0.00317285
3294	0.00133594
3306	0.00292236
3318	0.00125244
3330	0.0020874
3342	0.00166992
3354	0.00275537
3366	0.00375732
3378	0.00183691
3390	0.0020874
3402	0.00275537
3414	0.00275537
3426	0.00275537
3438	0.00333984
3450	0.00175342
3462	0.00242138
3474	0.00250488
3486	0.00150293
3498	0.00175342
3510	0.00258838
3522	0.00333984
3534	0.00242138
3546	0.00250488
3558	0.00317285
3570	0.00166992
3582	0.00333984
3594	0.00175342
3606	0.0040913
3618	0.00267187
3630	0.00141943
3642	0.0041748
3654	0.00509326
3666	0.00534374
3678	0.00375732
3690	0.0040913
3702	0.00542724
3714	0.00751464
3726	0.00709716
3738	0.00676318
3750	0.00718066
3762	0.00935155
3774	0.00876708
3786	0.00801562
3798	0.00860009
3810	0.00759814
3822	0.00709716
3834	0.00793212
3846	0.00960204
3858	0.00993602
3870	0.00918456
3882	0.00935155
3894	0.0100195
3906	0.00943505
3918	0.010938
3930	0.00910106
3942	0.011105
3954	0.00292236
3966	0.00384082
