Infrared Spectrum: 1-Butanol, 2,3-dimethyl-,
Formula: C 6 H 14 O
CAS: 20281-85-0
Origin: Sadtler Research Labs Under US-EPA Contract
1/CM	ABSORBANCE
450	0.0248354
462	0.0128612
474	0.0201049
486	0.0224702
498	0.00872197
510	0.0170005
522	0.0113829
534	0.013896
546	0.0115307
558	0.0172961
570	0.0127134
582	0.0110872
594	0.0118264
606	0.0118264
618	0.0109394
630	0
642	0.0107916
654	0.0115307
666	0.00975678
678	0.00872197
690	0.0073915
702	0.0102003
714	0.0116786
726	0.00946112
738	0.00665235
750	0.0124177
762	0.0131569
774	0.0153743
786	0.0125655
798	0.013896
810	0.0109394
822	0.00901763
834	0.0121221
846	0.016557
858	0.0249833
870	0.0306008
882	0.029566
894	0.0314878
906	0.0418359
918	0.0527753
930	0.0570624
942	0.0548449
954	0.0601668
966	0.0854457
978	0.10762
990	0.141325
1002	0.201049
1014	0.337052
1026	0.528197
1038	0.577572
1050	0.433438
1062	0.265207
1074	0.132308
1086	0.0932807
1098	0.0963852
1110	0.102151
1122	0.0960895
1134	0.0835239
1146	0.0792369
1158	0.0823413
1170	0.0866284
1182	0.086924
1194	0.0813065
1206	0.0875154
1218	0.0949069
1230	0.0884023
1242	0.0770194
1254	0.0700714
1266	0.0671148
1278	0.0687409
1290	0.0687409
1302	0.0684453
1314	0.0680018
1326	0.0675583
1338	0.0712541
1350	0.0858892
1362	0.133934
1374	0.217014
1386	0.243328
1398	0.176509
1410	0.0876632
1422	0.05041
1434	0.0501144
1446	0.0934286
1458	0.175179
1470	0.226328
1482	0.172813
1494	0.0811587
1506	0.0310443
1518	0.0181831
1530	0.0121221
1542	0.0119742
1554	0.00975678
1566	0.00724367
1578	0.00901763
1590	0.00753933
1602	0.00709584
1614	0.00753933
1626	0.00576537
1638	0.00768716
1650	0.00546971
1662	0.00576537
1674	0.00635669
1686	0.00857414
1698	0.00798282
1710	0.00532188
1722	0.00783499
1734	0.0107916
1746	0.0143395
1758	0.0158178
1770	0.01567
1782	0.0122699
1794	0.00561754
1806	0.00340009
1818	0.00251311
1830	0.00221745
1842	0.00206962
1854	0.00162613
1866	0.00133047
1878	0.00162613
1890	0.00162613
1902	0.00133047
1914	0.0014783
1926	0.0014783
1938	0.00162613
1950	0.00192179
1962	0.00192179
1974	0.00192179
1986	0.00192179
1998	0.00266094
2010	0.00413924
2022	0.00473056
2034	0.00635669
2046	0.00665235
2058	0.00635669
2070	0.00310443
2082	0.00206962
2094	0.00251311
2106	0.00192179
2118	0.00177396
2130	0.0014783
2142	0.00118264
2154	0.00073915
2166	0.0014783
2178	0.00118264
2190	0.00133047
2202	0.0014783
2214	0.00206962
2226	0.00206962
2238	0.00221745
2250	0.00280877
2262	0.00221745
2274	0.00221745
2286	0.00280877
2298	0.0029566
2310	0.00280877
2322	0.00192179
2334	0.0029566
2346	0.00399141
2358	0.00177396
2370	0.00546971
2382	0.00724367
2394	0.00576537
2406	0.00576537
2418	0.00635669
2430	0.00576537
2442	0.00576537
2454	0.00546971
2466	0.00458273
2478	0.00502622
2490	0.00428707
2502	0.00399141
2514	0.00458273
2526	0.00532188
2538	0.00546971
2550	0.00635669
2562	0.00724367
2574	0.0088698
2586	0.0107916
2598	0.0127134
2610	0.0152265
2622	0.0149308
2634	0.0136004
2646	0.0133047
2658	0.0149308
2670	0.013896
2682	0.0134525
2694	0.0174439
2706	0.0211397
2718	0.027792
2730	0.0357749
2742	0.0403576
2754	0.0405054
2766	0.0424272
2778	0.0456795
2790	0.0487839
2802	0.0539579
2814	0.0606103
2826	0.0719932
2838	0.0920981
2850	0.143247
2862	0.278512
2874	0.582746
2886	0.838787
2898	0.764872
2910	0.638773
2922	0.658878
2934	0.734863
2946	0.809961
2958	1.1275
2970	1.4783
2982	1.01367
2994	0.396332
3006	0.125803
3018	0.0572102
3030	0.0406533
3042	0.0319313
3054	0.0272007
3066	0.0242441
3078	0.0215832
3090	0.0202527
3102	0.0187744
3114	0.0186266
3126	0.0164091
3138	0.0177396
3150	0.0183309
3162	0.0190701
3174	0.0186266
3186	0.0186266
3198	0.0162613
3210	0.0121221
3222	0.00916546
3234	0.00724367
3246	0.00517405
3258	0.00413924
3270	0.00369575
3282	0.00177396
3294	0.00221745
3306	0.00118264
3318	0.0029566
3330	0.00266094
3342	0.0014783
3354	0.00266094
3366	0.00236528
3378	0.00236528
3390	0.0029566
3402	0.00340009
3414	0.00340009
3426	0.00399141
3438	0.00340009
3450	0.00561754
3462	0.00280877
3474	0.00606103
3486	0.00620886
3498	0.0059132
3510	0.00369575
3522	0.0044349
3534	0.00399141
3546	0.00221745
3558	0.00280877
3570	0.00635669
3582	0.00561754
3594	0.00384358
3606	0.00236528
3618	0.00576537
3630	0.0109394
3642	0.023505
3654	0.0644539
3666	0.124177
3678	0.125508
3690	0.0595755
3702	0.0133047
3714	0.00517405
3726	0.00576537
3738	0.0044349
3750	0.00103481
3762	0.00354792
3774	0.00428707
3786	0.0014783
3798	0.00162613
3810	0.00399141
3822	0.00399141
3834	0.00665235
3846	0.00665235
3858	0.00665235
3870	0.00635669
3882	0.00606103
3894	0.00561754
3906	0.0059132
3918	0.0029566
3930	0.00428707
3942	0.00473056
3954	0.00384358
3966	0.00576537
