Infrared Spectrum: Ethane, 2-bromo-1,1-diethoxy-
Formula: C 6 H 13 Br O 2
CAS: 2032-35-1
Origin: Sadtler Research Labs Under US-EPA Contract
1/CM	ABSORBANCE
450	0
462	0.0307587
474	0.0323928
486	0.0285479
498	0.0497907
510	0.0310471
522	0.039698
534	0.0297014
546	0.0393135
558	0.0275867
570	0.0416204
582	0.0449846
594	0.0274906
606	0.0318161
618	0.0351803
630	0.0457536
642	0.0427738
654	0.030182
666	0.0328734
678	0.0823757
690	0.160138
702	0.060364
714	0.0507519
726	0.0475799
738	0.032585
750	0.0361415
762	0.0307587
774	0.0296053
786	0.035757
798	0.036526
810	0.0443118
822	0.0426777
834	0.0335462
846	0.0392174
858	0.038929
870	0.0394096
882	0.0488295
894	0.0477721
906	0.0420049
918	0.0510403
930	0.0403708
942	0.0414282
954	0.0459458
966	0.0612291
978	0.102946
990	0.201758
1002	0.279616
1014	0.29836
1026	0.249915
1038	0.289228
1050	0.483393
1062	0.884025
1074	0.91834
1086	0.643626
1098	0.535682
1110	0.522322
1122	0.605851
1134	0.665734
1146	0.546063
1158	0.341999
1170	0.242129
1182	0.20195
1194	0.214638
1206	0.183399
1218	0.139568
1230	0.106021
1242	0.0718024
1254	0.0657468
1266	0.0600756
1278	0.0616136
1290	0.0639205
1302	0.0721869
1314	0.0701683
1326	0.0945831
1338	0.158311
1350	0.182534
1362	0.12092
1374	0.153313
1386	0.161964
1398	0.126207
1410	0.0952559
1422	0.110251
1434	0.128802
1446	0.0982357
1458	0.0748783
1470	0.057961
1482	0.0559424
1494	0.0455614
1506	0.0338346
1518	0.0313354
1530	0.0280673
1542	0.0272984
1554	0.026241
1566	0.024607
1578	0.0260488
1590	0.0232613
1602	0.0244147
1614	0.0253759
1626	0.0249915
1638	0.0252798
1650	0.0278751
1662	0.0217233
1674	0.0263372
1686	0.0265294
1698	0.0267216
1710	0.0252798
1722	0.0287402
1734	0.0370066
1746	0.0463303
1758	0.0503674
1770	0.0392174
1782	0.0332579
1794	0.0297975
1806	0.0281635
1818	0.0258565
1830	0.0248953
1842	0.0236458
1854	0.0233574
1866	0.024607
1878	0.0249915
1890	0.0265294
1902	0.0271061
1914	0.0263372
1926	0.0274906
1938	0.0282596
1950	0.0298936
1962	0.0285479
1974	0.0283557
1986	0.027779
1998	0.0261449
2010	0.0254721
2022	0.0247031
2034	0.024607
2046	0.023838
2058	0.023838
2070	0.0237419
2082	0.0242225
2094	0.0243186
2106	0.0241264
2118	0.0245109
2130	0.024607
2142	0.024607
2154	0.0251837
2166	0.0250876
2178	0.0248953
2190	0.024607
2202	0.0240302
2214	0.0243186
2226	0.0239341
2238	0.0241264
2250	0.0235496
2262	0.0242225
2274	0.023838
2286	0.0217233
2298	0.0196087
2310	0.0180707
2322	0.0194164
2334	0.0217233
2346	0.0257604
2358	0.0189358
2370	0.0233574
2382	0.0216272
2394	0.0232613
2406	0.0231652
2418	0.0239341
2430	0.024607
2442	0.0242225
2454	0.0235496
2466	0.0229729
2478	0.0231652
2490	0.0233574
2502	0.0229729
2514	0.0225884
2526	0.0225884
2538	0.022204
2550	0.0226846
2562	0.023069
2574	0.0233574
2586	0.0239341
2598	0.0249915
2610	0.026241
2622	0.0278751
2634	0.0291247
2646	0.0298936
2658	0.0298936
2670	0.0290285
2682	0.029413
2694	0.0291247
2706	0.0311432
2718	0.0322005
2730	0.035757
2742	0.038929
2754	0.0408514
2766	0.0432544
2778	0.0459458
2790	0.0510403
2802	0.0560385
2814	0.0580571
2826	0.0624786
2838	0.0720907
2850	0.0925645
2862	0.138991
2874	0.219829
2886	0.287882
2898	0.248857
2910	0.250395
2922	0.28721
2934	0.266832
2946	0.277597
2958	0.201662
2970	0.227807
2982	0.473396
2994	0.417742
3006	0.133128
3018	0.0863167
3030	0.0678614
3042	0.0569998
3054	0.0394096
3066	0.0337385
3078	0.0304704
3090	0.0276828
3102	0.0265294
3114	0.0257604
3126	0.0253759
3138	0.0248953
3150	0.0247031
3162	0.0247992
3174	0.0249915
3186	0.0245109
3198	0.0249915
3210	0.024607
3222	0.0240302
3234	0.0232613
3246	0.022204
3258	0.0223962
3270	0.021435
3282	0.0212427
3294	0.0207621
3306	0.020666
3318	0.0208583
3330	0.0202815
3342	0.021435
3354	0.021435
3366	0.0210505
3378	0.0220117
3390	0.020666
3402	0.020666
3414	0.0209544
3426	0.0205699
3438	0.0201854
3450	0.0199932
3462	0.022204
3474	0.0203777
3486	0.0207621
3498	0.020666
3510	0.0199932
3522	0.0199932
3534	0.0197048
3546	0.0215311
3558	0.0191281
3570	0.0219156
3582	0.0185514
3594	0.0211466
3606	0.019032
3618	0.0189358
3630	0.023069
3642	0.0200893
3654	0.0258565
3666	0.020666
3678	0.021435
3690	0.0249915
3702	0.0191281
3714	0.0225884
3726	0.0205699
3738	0.0179746
3750	0.0278751
3762	0.0176863
3774	0.018263
3786	0.0186475
3798	0.0217233
3810	0.0179746
3822	0.0236458
3834	0.0188397
3846	0.0220117
3858	0.0211466
3870	0.0213389
3882	0.019897
3894	0.018263
3906	0.0226846
3918	0.0215311
3930	0.0192242
3942	0.0205699
3954	0.0215311
3966	0.024607
