Infrared Spectrum: Benzene, 1-(2-bromoethoxy)-4-chloro-
Formula: C 8 H 8 Br Cl O
CAS: 2033-76-3
Origin: Sadtler Research Labs Under US-EPA Contract
1/CM	ABSORBANCE
450	0
462	0.0134537
474	0.0169417
486	0.0242499
498	0.0416898
510	0.0533165
522	0.0531504
534	0.0443474
546	0.0285683
558	0.0194331
570	0.0222567
582	0.0363748
594	0.0303954
606	0.0230872
618	0.0508251
630	0.0993248
642	0.105636
654	0.09783
666	0.107463
678	0.0898574
690	0.112114
702	0.167756
714	0.0671024
726	0.0347139
738	0.0330529
750	0.0362087
762	0.035046
774	0.0305615
786	0.0446796
798	0.0798917
810	0.12507
822	0.260105
834	0.239177
846	0.103809
858	0.0498285
870	0.0393645
882	0.0287344
894	0.0169417
906	0.0146164
918	0.0159451
930	0.0199314
942	0.0284022
954	0.0308937
966	0.0372053
978	0.0395306
990	0.0705904
1002	0.227052
1014	0.410919
1026	0.322556
1038	0.239675
1050	0.142343
1062	0.13354
1074	0.165597
1086	0.19865
1098	0.412082
1110	0.138523
1122	0.0647771
1134	0.0382019
1146	0.0365409
1158	0.0832136
1170	0.31176
1182	0.13354
1194	0.163105
1206	0.347139
1218	0.653916
1230	0.906713
1242	1.21731
1254	0.434837
1266	0.378032
1278	0.355277
1290	0.256783
1302	0.201805
1314	0.0925149
1326	0.0521538
1338	0.0373714
1350	0.0327207
1362	0.0343817
1374	0.0554757
1386	0.0827153
1398	0.0360426
1410	0.0395306
1422	0.0676007
1434	0.0896913
1446	0.119588
1458	0.176393
1470	0.218249
1482	0.572031
1494	1.66095
1506	0.263759
1518	0.0911862
1530	0.0511573
1542	0.0360426
1554	0.0342156
1566	0.0443474
1578	0.106965
1590	0.185196
1602	0.150814
1614	0.0461744
1626	0.0274057
1638	0.0245821
1650	0.0220906
1662	0.0194331
1674	0.0159451
1686	0.0147825
1698	0.00830475
1710	0.00764037
1722	0.00614551
1734	0.00896913
1746	0.0097996
1758	0.00415237
1770	0.00465066
1782	0.00647771
1794	0.012291
1806	0.013952
1818	0.0151146
1830	0.0166095
1842	0.0210941
1854	0.0250803
1866	0.0310598
1878	0.0295649
1890	0.0230872
1902	0.01744
1914	0.0134537
1926	0.0126232
1938	0.013952
1950	0.0137859
1962	0.0121249
1974	0.0114606
1986	0.0117927
1998	0.0137859
2010	0.0164434
2022	0.0197653
2034	0.0205958
2046	0.0191009
2058	0.0184365
2070	0.0177722
2082	0.0151146
2094	0.0121249
2106	0.0101318
2118	0.00913523
2130	0.00747427
2142	0.00647771
2154	0.0066438
2166	0.00631161
2178	0.00631161
2190	0.0066438
2202	0.00747427
2214	0.00813865
2226	0.00780647
2238	0.00797256
2250	0.00880304
2262	0.0097996
2274	0.0112945
2286	0.0109623
2298	0.0109623
2310	0.0107962
2322	0.00913523
2334	0.00714209
2346	0.00863694
2358	0.00797256
2370	0.00847084
2382	0.0102979
2394	0.00880304
2406	0.00863694
2418	0.00847084
2430	0.00847084
2442	0.00896913
2454	0.0099657
2466	0.0101318
2478	0.00963351
2490	0.00880304
2502	0.00963351
2514	0.0097996
2526	0.00946741
2538	0.00847084
2550	0.00647771
2562	0.00597942
2574	0.00564723
2586	0.00548113
2598	0.00465066
2610	0.00398628
2622	0.00398628
2634	0.00398628
2646	0.00481675
2658	0.00564723
2670	0.00564723
2682	0.00531504
2694	0.00548113
2706	0.00548113
2718	0.00647771
2730	0.00880304
2742	0.0097996
2754	0.00880304
2766	0.00697599
2778	0.00730818
2790	0.00780647
2802	0.00963351
2814	0.0127893
2826	0.0169417
2838	0.0214263
2850	0.0327207
2862	0.0514894
2874	0.0626178
2886	0.0568045
2898	0.0566384
2910	0.057635
2922	0.0632822
2934	0.068099
2946	0.0651092
2958	0.0637805
2970	0.08039
2982	0.094342
2994	0.059462
3006	0.0317241
3018	0.0380358
3030	0.0463405
3042	0.0509912
3054	0.0491641
3066	0.0362087
3078	0.0368731
3090	0.0370392
3102	0.0413577
3114	0.0224228
3126	0.00930132
3138	0.00647771
3150	0.00597942
3162	0.00581333
3174	0.00514895
3186	0.00465066
3198	0.00448457
3210	0.00465066
3222	0.00431847
3234	0.00481675
3246	0.00465066
3258	0.00498285
3270	0.00448457
3282	0.00465066
3294	0.00465066
3306	0.00415237
3318	0.00514895
3330	0.00481675
3342	0.00514895
3354	0.00498285
3366	0.00481675
3378	0.00498285
3390	0.00548113
3402	0.00514895
3414	0.00548113
3426	0.00514895
3438	0.00548113
3450	0.00398628
3462	0.00398628
3474	0.00415237
3486	0.00415237
3498	0.00448457
3510	0.00448457
3522	0.00398628
3534	0.00481675
3546	0.00448457
3558	0.00431847
3570	0.00531504
3582	0.00415237
3594	0.00398628
3606	0.00415237
3618	0.00398628
3630	0.00564723
3642	0.00564723
3654	0.00614551
3666	0.00631161
3678	0.00548113
3690	0.00531504
3702	0.00498285
3714	0.00514895
3726	0.00564723
3738	0.00597942
3750	0.00398628
3762	0.00398628
3774	0.00431847
3786	0.00431847
3798	0.00365409
3810	0.00431847
3822	0.00531504
3834	0.00498285
3846	0.00531504
3858	0.00481675
3870	0.00465066
3882	0.00465066
3894	0.00597942
3906	0.00581333
3918	0.00548113
3930	0.00465066
3942	0.00498285
3954	0.00465066
3966	0.00465066
