Infrared Spectrum: Triethyl .gamma.-phosphonocrotonate
Formula: C 10 H 19 O 5 P
CAS: 20345-62-4
Origin: Sadtler Research Labs Under US-EPA Contract
1/CM	ABSORBANCE
450	0.0453189
462	0.0346465
474	0.0467109
486	0.0604768
498	0.0771813
510	0.0945046
522	0.0706851
534	0.0756346
546	0.0737785
558	0.0457829
570	0.01887
582	0.00912565
594	0.00232008
606	0.000154672
618	0.00247475
630	0.00556819
642	0.0109817
654	0.020726
666	0.0313984
678	0.0648076
690	0.0737785
702	0.0501137
714	0.0454736
726	0.05893
738	0.0739332
750	0.0745519
762	0.106724
774	0.19334
786	0.204476
798	0.175553
810	0.150496
822	0.119097
834	0.123738
846	0.119407
858	0.0833682
870	0.0765626
882	0.0765626
894	0.0634155
906	0.0750159
918	0.120644
930	0.242526
942	0.536557
954	0.723092
966	0.593786
978	0.393331
990	0.241907
1002	0.24268
1014	0.440815
1026	0.974588
1038	1.53234
1050	1.34302
1062	0.960358
1074	0.608789
1086	0.368119
1098	0.408025
1110	0.273151
1122	0.22149
1134	0.324966
1146	0.33502
1158	0.313056
1170	0.367346
1182	0.58466
1194	0.6671
1206	0.411582
1218	0.344455
1230	0.257529
1242	0.283514
1254	0.500055
1266	0.771659
1278	0.79687
1290	0.476699
1302	0.324502
1314	0.330998
1326	0.246083
1338	0.0935766
1350	0.059394
1362	0.0781094
1374	0.153744
1386	0.122346
1398	0.174625
1410	0.123274
1422	0.0791921
1434	0.0600127
1446	0.0638795
1458	0.0609408
1470	0.0672823
1482	0.048567
1494	0.027841
1506	0.0159312
1518	0.0102084
1530	0.00696024
1542	0.00464016
1554	0.00464016
1566	0.00464016
1578	0.00464016
1590	0.00572286
1602	0.00958966
1614	0.0162406
1626	0.0340278
1638	0.0717678
1650	0.151424
1662	0.128687
1674	0.0484123
1686	0.0397507
1698	0.0532072
1710	0.0832135
1722	0.174779
1734	0.538104
1746	0.684888
1758	0.285989
1770	0.126676
1782	0.05893
1794	0.0394414
1806	0.0341825
1818	0.0306251
1830	0.0205714
1842	0.0159312
1854	0.0136111
1866	0.0109817
1878	0.00974434
1890	0.00897098
1902	0.00819762
1914	0.00618688
1926	0.00417614
1938	0.0027841
1950	0.00185606
1962	0.00185606
1974	0.00154672
1986	0.00154672
1998	0.00185606
2010	0.00154672
2022	0.000618688
2034	0.00123738
2046	0.00139205
2058	0.00232008
2070	0.00216541
2082	0.00247475
2094	0.00293877
2106	0.00293877
2118	0.00232008
2130	0.00247475
2142	0.00185606
2154	0.00139205
2166	0.00077336
2178	0.000464016
2190	0.000154672
2202	0.000309344
2214	0
2226	0.000464016
2238	0.000618688
2250	0.000618688
2262	0.000464016
2274	0.00123738
2286	0.00123738
2298	0.00216541
2310	0.00262942
2322	0.00262942
2334	0.00216541
2346	0.00371213
2358	0.00139205
2370	0.00293877
2382	0.00262942
2394	0.000928032
2406	0.0010827
2418	0.0010827
2430	0.00123738
2442	0.00154672
2454	0.00154672
2466	0.00185606
2478	0.00170139
2490	0.000928032
2502	0.000928032
2514	0.00077336
2526	0.00123738
2538	0.000928032
2550	0.0010827
2562	0.00077336
2574	0.000928032
2586	0.00077336
2598	0.0010827
2610	0.00170139
2622	0.00170139
2634	0.0010827
2646	0.000928032
2658	0.00154672
2670	0.00185606
2682	0.00185606
2694	0.00232008
2706	0.00247475
2718	0.00324811
2730	0.00572286
2742	0.00603221
2754	0.00726958
2766	0.00928032
2778	0.0114457
2790	0.010363
2802	0.010363
2814	0.0122191
2826	0.0157765
2838	0.0180966
2850	0.0235101
2862	0.0329451
2874	0.0559913
2886	0.0873897
2898	0.0963607
2910	0.142762
2922	0.159622
2934	0.188855
2946	0.259694
2958	0.196124
2970	0.236493
2982	0.391939
2994	0.37508
3006	0.214685
3018	0.120644
3030	0.0682104
3042	0.0428441
3054	0.0335638
3066	0.0269129
3078	0.0165499
3090	0.0126831
3102	0.010827
3114	0.00943499
3126	0.00866163
3138	0.00804294
3150	0.00804294
3162	0.00696024
3174	0.00649622
3186	0.00634155
3198	0.00556819
3210	0.00510418
3222	0.00479483
3234	0.00433082
3246	0.00355746
3258	0.00293877
3270	0.00201074
3282	0.00139205
3294	0.00170139
3306	0.00123738
3318	0.00216541
3330	0.00201074
3342	0.00216541
3354	0.0027841
3366	0.00232008
3378	0.00232008
3390	0.00293877
3402	0.00262942
3414	0.00232008
3426	0.00201074
3438	0.00262942
3450	0.00433082
3462	0.00572286
3474	0.00479483
3486	0.00216541
3498	0.00201074
3510	0.00123738
3522	0.00077336
3534	0.00123738
3546	0.000618688
3558	0.000928032
3570	0.000928032
3582	0.000309344
3594	0
3606	0.000309344
3618	0.000154672
3630	0.000309344
3642	0.000309344
3654	0.00139205
3666	0.00154672
3678	0.000928032
3690	0.000928032
3702	0.00139205
3714	0.00154672
3726	0.000928032
3738	0.00154672
3750	0.00170139
3762	0.00170139
3774	0.00154672
3786	0.00139205
3798	0.00139205
3810	0.00185606
3822	0.00123738
3834	0.0010827
3846	0.000154672
3858	0.000464016
3870	0.00077336
3882	0.00123738
3894	0.0010827
3906	0.000928032
3918	0.00123738
3930	0.000309344
3942	0
3954	0.00154672
3966	0.0010827
