Infrared Spectrum: Octanoic acid, 3-methylbutyl ester
Formula: C 13 H 26 O 2
CAS: 2035-99-6
Origin: Sadtler Research Labs Under US-EPA Contract
1/CM	ABSORBANCE
450	0
462	0.0361989
474	0.0221645
486	0.034791
498	0.0119452
510	0.0139891
522	0.0318841
534	0.0199844
546	0.0228458
558	0.0129898
570	0.0199389
582	0.0261613
594	0.0261159
606	0.0302491
618	0.0266155
630	0.0248442
642	0.0233908
654	0.026888
666	0.0234362
678	0.0237087
690	0.0281144
702	0.0258888
714	0.030022
726	0.0270697
738	0.021574
750	0.0218465
762	0.0270243
774	0.0227095
786	0.0241629
798	0.0233908
810	0.0237087
822	0.0271606
834	0.0248896
846	0.0261159
858	0.0266155
870	0.0284777
882	0.0280689
894	0.0308849
906	0.0298403
918	0.0326108
930	0.0340188
942	0.0386516
954	0.0396054
966	0.0532765
978	0.0575913
990	0.058863
1002	0.059726
1014	0.0476445
1026	0.04769
1038	0.0529586
1050	0.0604073
1062	0.0643133
1074	0.0499155
1086	0.0519139
1098	0.0762131
1110	0.103101
1122	0.0963337
1134	0.0913376
1146	0.134985
1158	0.256708
1170	0.278373
1182	0.191169
1194	0.156968
1206	0.143479
1218	0.140708
1230	0.149383
1242	0.148611
1254	0.143115
1266	0.115682
1278	0.095062
1290	0.0826626
1302	0.0792562
1314	0.0741238
1326	0.0640862
1338	0.0690369
1350	0.0842068
1362	0.0848427
1374	0.0754864
1386	0.0716258
1398	0.0568192
1410	0.0373344
1422	0.0392874
1434	0.0502788
1446	0.0571371
1458	0.0813908
1470	0.0948803
1482	0.0570917
1494	0.0313845
1506	0.0248896
1518	0.0216194
1530	0.0208019
1542	0.0183493
1554	0.0203023
1566	0.0218465
1578	0.0211653
1590	0.0218011
1602	0.0200752
1614	0.0199389
1626	0.019076
1638	0.0186218
1650	0.0173501
1662	0.0201206
1674	0.020166
1686	0.0213469
1698	0.0261613
1710	0.035881
1722	0.0492796
1734	0.0845248
1746	0.258661
1758	0.372935
1770	0.114229
1782	0.0523227
1794	0.0335192
1806	0.0252984
1818	0.0211653
1830	0.0193485
1842	0.0183493
1854	0.0174409
1866	0.016805
1878	0.0170775
1890	0.0164417
1902	0.0158966
1914	0.0159421
1926	0.01626
1938	0.0160329
1950	0.0156241
1962	0.014852
1974	0.0149883
1986	0.0152608
1998	0.0147158
2010	0.0151699
2022	0.0163054
2034	0.0159875
2046	0.0159875
2058	0.0156696
2070	0.0159421
2082	0.0153516
2094	0.0147612
2106	0.0154879
2118	0.0155333
2130	0.0155333
2142	0.0149883
2154	0.0143978
2166	0.0143524
2178	0.0142616
2190	0.0138528
2202	0.0138982
2214	0.0142161
2226	0.0138982
2238	0.013762
2250	0.0141253
2262	0.0140799
2274	0.0144887
2286	0.0156241
2298	0.018213
2310	0.0208473
2322	0.0183039
2334	0.0170775
2346	0.0199389
2358	0.0178497
2370	0.0191214
2382	0.0168959
2394	0.0132169
2406	0.0130807
2418	0.0131261
2430	0.0127173
2442	0.0126719
2454	0.0124448
2466	0.0125356
2478	0.0119906
2490	0.0125811
2502	0.012899
2514	0.0121723
2526	0.0121723
2538	0.0125811
2550	0.0124902
2562	0.0122177
2574	0.012899
2586	0.0135349
2598	0.0138074
2610	0.0146703
2622	0.0156241
2634	0.0162146
2646	0.0158512
2658	0.0163508
2670	0.017123
2682	0.0178042
2694	0.018213
2706	0.017668
2718	0.0184401
2730	0.0206202
2742	0.020484
2754	0.0183947
2766	0.0180768
2778	0.0183039
2790	0.0189397
2802	0.0217557
2814	0.0246171
2826	0.0291136
2838	0.0384699
2850	0.0637229
2862	0.13494
2874	0.172274
2886	0.172638
2898	0.137801
2910	0.18154
2922	0.274149
2934	0.402094
2946	0.372027
2958	0.321839
2970	0.45419
2982	0.203795
2994	0.0858419
3006	0.0473266
3018	0.0323837
3030	0.026343
3042	0.0224824
3054	0.0208927
3066	0.0200752
3078	0.018213
3090	0.0178042
3102	0.0168959
3114	0.0161237
3126	0.0157604
3138	0.0153516
3150	0.0159421
3162	0.0158512
3174	0.0163054
3186	0.0158966
3198	0.0155787
3210	0.0152608
3222	0.0142161
3234	0.0144432
3246	0.0146249
3258	0.0130807
3270	0.0136257
3282	0.0140799
3294	0.0146249
3306	0.0149429
3318	0.0144887
3330	0.0158966
3342	0.0158058
3354	0.015397
3366	0.0147612
3378	0.0155787
3390	0.0160329
3402	0.0152154
3414	0.0149429
3426	0.0156241
3438	0.0147158
3450	0.0149883
3462	0.0152608
3474	0.0159875
3486	0.0171684
3498	0.0153062
3510	0.0150791
3522	0.0147612
3534	0.0134894
3546	0.0146249
3558	0.0146249
3570	0.0146249
3582	0.0155333
3594	0.0141707
3606	0.0145341
3618	0.0152608
3630	0.0126265
3642	0.0145795
3654	0.0133986
3666	0.0151699
3678	0.0129898
3690	0.0120815
3702	0.0142616
3714	0.0152154
3726	0.0158966
3738	0.0144432
3750	0.0133078
3762	0.0165325
3774	0.0167142
3786	0.015715
3798	0.0153516
3810	0.0180313
3822	0.0141253
3834	0.0147612
3846	0.0148974
3858	0.0158512
3870	0.0141707
3882	0.0150337
3894	0.0154425
3906	0.0146703
3918	0.014307
3930	0.0154879
3942	0.0141707
3954	0.0152154
3966	0.01626
