Infrared Spectrum: Benzenepropanamine
Formula: C 9 H 13 N
CAS: 2038-57-5
Origin: Sadtler Research Labs Under US-EPA Contract
1/CM	ABSORBANCE
450	0.0136173
462	0.0149719
474	0.0223866
486	0.0332948
498	0.0342216
510	0.031655
522	0.0157562
534	0.00228144
546	0.00256662
558	0.017396
570	0.0407094
582	0.031655
594	0.0176099
606	0.00983871
618	0.00941094
630	0.0128331
642	0.017396
654	0.0277338
666	0.0375725
678	0.0913289
690	0.278478
702	0.40132
714	0.255165
726	0.288317
738	0.46905
750	0.415222
762	0.339578
774	0.385278
786	0.32318
798	0.166545
810	0.100526
822	0.0660905
834	0.0496926
846	0.0523305
858	0.0463418
870	0.0345781
882	0.0270921
894	0.0275199
906	0.0334374
918	0.0263792
930	0.0206756
942	0.0147581
954	0.0101239
966	0.0116211
978	0.0109794
990	0.0146155
1002	0.0209607
1014	0.0320115
1026	0.0857679
1038	0.093539
1050	0.0702256
1062	0.0958205
1074	0.122556
1086	0.0884771
1098	0.0410659
1110	0.0195348
1122	0.0137599
1134	0.00969612
1146	0.00484806
1158	0.0028518
1170	0.00356475
1182	0.00591749
1194	0.00777116
1206	0.0085554
1218	0.0057036
1230	0.0057036
1242	0.00655914
1254	0.00491936
1266	0.00727209
1278	0.00983871
1290	0.0133322
1302	0.017396
1314	0.0187506
1326	0.0228144
1338	0.0353623
1350	0.0492648
1362	0.0527583
1374	0.0541842
1386	0.0670173
1398	0.0487658
1410	0.0209607
1422	0.0181802
1434	0.0422066
1446	0.101168
1458	0.120132
1470	0.0794939
1482	0.057749
1494	0.153213
1506	0.127832
1518	0.0167543
1530	0.0138312
1542	0.0146868
1554	0.0128331
1566	0.0171821
1578	0.0330096
1590	0.060672
1602	0.131397
1614	0.146654
1626	0.123768
1638	0.0732913
1650	0.0377864
1662	0.0193209
1674	0.0155423
1686	0.00777116
1698	0.00777116
1710	0.00491936
1722	0.00663044
1734	0.0099813
1746	0.00748597
1758	0.0057036
1770	0.0057749
1782	0.00876928
1794	0.0238125
1806	0.0183941
1818	0.00955353
1830	0.00698691
1842	0.00741468
1854	0.0114785
1866	0.0149719
1878	0.0151858
1890	0.00791374
1902	0.00221015
1914	0.00249533
1926	0.00941094
1938	0.0188219
1950	0.0211033
1962	0.0104091
1974	0.00106942
1986	0.00135461
1998	0.00085554
2010	0.000356475
2022	0.00042777
2034	0.000784245
2046	0.000784245
2058	0.000784245
2070	0.00028518
2082	0.000641655
2094	0.00057036
2106	0.00014259
2118	0.00042777
2130	0.000499065
2142	0.000499065
2154	0.00057036
2166	0.00028518
2178	0.00085554
2190	0.00085554
2202	0.00042777
2214	0.00071295
2226	0.000499065
2238	0.00014259
2250	0.00057036
2262	0.00057036
2274	0.00071295
2286	0.00106942
2298	0.000499065
2310	0.00199626
2322	0.00185367
2334	0.000213885
2346	0.00135461
2358	0.00014259
2370	0.00014259
2382	0.00106942
2394	0.00099813
2406	0.00106942
2418	0.0014259
2430	0.0014259
2442	0.00149719
2454	0.00149719
2466	0.00178238
2478	0.00149719
2490	0.00171108
2502	0.00185367
2514	0.00171108
2526	0.00249533
2538	0.0027805
2550	0.00342216
2562	0.00406382
2574	0.004349
2586	0.0057749
2598	0.00634526
2610	0.00762857
2622	0.00755727
2634	0.00891187
2646	0.0101952
2658	0.011122
2670	0.013047
2682	0.0151858
2694	0.0163266
2706	0.0162553
2718	0.0178237
2730	0.0216024
2742	0.0250958
2754	0.0275912
2766	0.0289458
2778	0.0291597
2790	0.0315124
2802	0.0359327
2814	0.0466982
2826	0.0730061
2838	0.129899
2850	0.236343
2862	0.360325
2874	0.337938
2886	0.229855
2898	0.195491
2910	0.281473
2922	0.490652
2934	0.698477
2946	0.61827
2958	0.34079
2970	0.149078
2982	0.0660192
2994	0.0429909
3006	0.0609572
3018	0.115712
3030	0.298726
3042	0.311345
3054	0.131325
3066	0.222726
3078	0.274557
3090	0.150932
3102	0.0980306
3114	0.0551823
3126	0.0215311
3138	0.00748597
3150	0.00584619
3162	0.0056323
3174	0.0057749
3186	0.00335087
3198	0.00263792
3210	0.00306568
3222	0.00299439
3234	0.00249533
3246	0.00206756
3258	0.00192497
3270	0.00206756
3282	0.00235273
3294	0.00249533
3306	0.00249533
3318	0.0029231
3330	0.004349
3342	0.011122
3354	0.0119776
3366	0.00606007
3378	0.00392123
3390	0.00342216
3402	0.004349
3414	0.00691561
3426	0.00556101
3438	0.00363605
3450	0.0027805
3462	0.00221015
3474	0.00156849
3486	0.0014259
3498	0.00178238
3510	0.00171108
3522	0.00128331
3534	0.00121202
3546	0.00014259
3558	0.00185367
3570	0.000926835
3582	0.0014259
3594	0.00149719
3606	0.00206756
3618	0.00121202
3630	0.0027805
3642	0.00377864
3654	0.00470547
3666	0.00335087
3678	0.00363605
3690	0.00313698
3702	0.00249533
3714	0.0027805
3726	0.000784245
3738	0.00235273
3750	0.00106942
3762	0.00121202
3774	0.00213885
3786	0.00335087
3798	0.00270921
3810	0.00299439
3822	0.00128331
3834	0.00270921
3846	0.00185367
3858	0.00349345
3870	0.00249533
3882	0.00121202
3894	0.0029231
3906	0.00171108
3918	0.00442029
3930	0.00349345
3942	0.00135461
3954	0.00342216
3966	0.00384993
