Infrared Spectrum: Cyclopentane, butyl-
Formula: C 9 H 18
CAS: 2040-95-1
Origin: Sadtler Research Labs Under US-EPA Contract
1/CM	ABSORBANCE
450	0
462	0.0128026
474	0.00804266
486	0.00656544
498	0.00738612
510	0.00853507
522	0.00672958
534	0.00902748
546	0.00886334
558	0.00886334
570	0.00886334
582	0.00853507
594	0.0082068
606	0.00738612
618	0.0082068
630	0.00902748
642	0.00738612
654	0.00755026
666	0.00837094
678	0.00869921
690	0.00804266
702	0.00902748
714	0.0118178
726	0.0182191
738	0.0213377
750	0.0178908
762	0.0149364
774	0.0149364
786	0.0154288
798	0.0118178
810	0.0106688
822	0.0101764
834	0.0101764
846	0.0101764
858	0.0114895
870	0.0131309
882	0.0185474
894	0.0267542
906	0.0211735
918	0.0190398
930	0.020517
942	0.0218301
954	0.020517
966	0.0195322
978	0.0164136
990	0.0139516
1002	0.0121461
1014	0.0114895
1026	0.0123102
1038	0.0134592
1050	0.0147722
1062	0.0154288
1074	0.016906
1086	0.0165777
1098	0.0141157
1110	0.0136233
1122	0.0152646
1134	0.0159212
1146	0.0160853
1158	0.019368
1170	0.0237997
1182	0.0221584
1194	0.0196963
1206	0.0198605
1218	0.0215018
1230	0.022979
1242	0.0242921
1254	0.024128
1266	0.0223225
1278	0.0208453
1290	0.0234714
1302	0.0280673
1314	0.0260976
1326	0.02659
1338	0.0351251
1350	0.0390644
1362	0.0341403
1374	0.0395568
1386	0.0515387
1398	0.0295445
1410	0.0231432
1422	0.0264259
1434	0.0397209
1446	0.0800984
1458	0.131801
1470	0.127205
1482	0.0773081
1494	0.0343044
1506	0.018055
1518	0.0128026
1530	0.0101764
1542	0.00722198
1554	0.00475994
1566	0.00295445
1578	0.00393926
1590	0.00574476
1602	0.00672958
1614	0.00738612
1626	0.00771439
1638	0.00705785
1650	0.00705785
1662	0.00672958
1674	0.00722198
1686	0.00804266
1698	0.00919162
1710	0.0126385
1722	0.0198605
1734	0.0249487
1746	0.0221584
1758	0.0219942
1770	0.018055
1782	0.0119819
1794	0.00886334
1806	0.00705785
1818	0.0059089
1830	0.00525235
1842	0.00525235
1854	0.00508822
1866	0.00475994
1878	0.00492408
1890	0.00508822
1902	0.00475994
1914	0.00492408
1926	0.00492408
1938	0.00443167
1950	0.00459581
1962	0.00443167
1974	0.00443167
1986	0.0041034
1998	0.00443167
2010	0.00459581
2022	0.00508822
2034	0.00574476
2046	0.00541649
2058	0.00541649
2070	0.00525235
2082	0.00492408
2094	0.00508822
2106	0.00525235
2118	0.00558062
2130	0.00541649
2142	0.00525235
2154	0.00558062
2166	0.0064013
2178	0.00672958
2190	0.00656544
2202	0.0064013
2214	0.00607303
2226	0.00623717
2238	0.00607303
2250	0.0059089
2262	0.0059089
2274	0.0059089
2286	0.00607303
2298	0.00607303
2310	0.0064013
2322	0.00738612
2334	0.00738612
2346	0.00804266
2358	0.00722198
2370	0.00558062
2382	0.00623717
2394	0.00541649
2406	0.00525235
2418	0.00525235
2430	0.00492408
2442	0.00459581
2454	0.00459581
2466	0.00443167
2478	0.00443167
2490	0.00443167
2502	0.00475994
2514	0.00525235
2526	0.00607303
2538	0.00623717
2550	0.00672958
2562	0.00755026
2574	0.00886334
2586	0.0103406
2598	0.0114895
2610	0.0118178
2622	0.0121461
2634	0.0126385
2646	0.0128026
2658	0.0126385
2670	0.0136233
2682	0.0152646
2694	0.0155929
2706	0.0152646
2718	0.0162495
2730	0.0182191
2742	0.0215018
2754	0.0215018
2766	0.021666
2778	0.0251128
2790	0.03135
2802	0.0392285
2814	0.0498973
2826	0.0684447
2838	0.123594
2850	0.281493
2862	0.552154
2874	0.760934
2886	0.720393
2898	0.532785
2910	0.711037
2922	1.11202
2934	1.29848
2946	1.36889
2958	1.56799
2970	1.41797
2982	0.592531
2994	0.21272
3006	0.117029
3018	0.0751743
3030	0.0540007
3042	0.0400492
3054	0.0300369
3066	0.0234714
3078	0.020517
3090	0.0185474
3102	0.0167419
3114	0.0151005
3126	0.0131309
3138	0.0118178
3150	0.0116537
3162	0.0109971
3174	0.010833
3186	0.010833
3198	0.0103406
3210	0.00935575
3222	0.00722198
3234	0.0059089
3246	0.00558062
3258	0.00574476
3270	0.00541649
3282	0.00541649
3294	0.00525235
3306	0.00541649
3318	0.00541649
3330	0.0064013
3342	0.00574476
3354	0.00558062
3366	0.00623717
3378	0.00623717
3390	0.00525235
3402	0.00558062
3414	0.00525235
3426	0.00508822
3438	0.00492408
3450	0.00492408
3462	0.00492408
3474	0.00508822
3486	0.00541649
3498	0.00541649
3510	0.00574476
3522	0.00558062
3534	0.00525235
3546	0.00475994
3558	0.00541649
3570	0.00492408
3582	0.00541649
3594	0.00475994
3606	0.00525235
3618	0.00508822
3630	0.00492408
3642	0.00558062
3654	0.00558062
3666	0.00656544
3678	0.00541649
3690	0.0064013
3702	0.00558062
3714	0.0064013
3726	0.00672958
3738	0.00607303
3750	0.00574476
3762	0.00656544
3774	0.00672958
3786	0.0082068
3798	0.00722198
3810	0.00771439
3822	0.00705785
3834	0.00722198
3846	0.00738612
3858	0.00755026
3870	0.00623717
3882	0.00525235
3894	0.00623717
3906	0.00672958
3918	0.00574476
3930	0.00623717
3942	0.00623717
3954	0.0064013
3966	0.00558062
