Infrared Spectrum: 4-Methyl-3-nitrophenol
Formula: C 7 H 7 N O 3
CAS: 2042-14-0
Origin: Sadtler Research Labs Under US-EPA Contract
1/CM	ABSORBANCE
450	0.0380111
462	0.0271508
474	0.0488714
486	0.0385929
498	0.038108
510	0.0351021
522	0.0450897
534	0.0283144
546	0.0240478
558	0.0291871
570	0.0225933
582	0.0196843
594	0.0386898
606	0.0202661
618	0.0172601
630	0.014642
642	0.0134784
654	0.0155147
666	0.0163874
678	0.0291871
690	0.0391747
702	0.017551
714	0.023466
726	0.0249205
738	0.0456715
750	0.0456715
762	0.0386898
774	0.0437321
786	0.0431503
798	0.0789311
810	0.34433
822	0.294004
834	0.0482896
846	0.0433442
858	0.067489
870	0.0630286
882	0.0511986
894	0.0277326
906	0.0191025
918	0.0214297
930	0.052944
942	0.0607983
954	0.0255023
966	0.0127996
978	0.0149329
990	0.0159996
1002	0.0213327
1014	0.0198782
1026	0.0179389
1038	0.0172601
1050	0.0163874
1062	0.0195873
1074	0.026375
1086	0.0220115
1098	0.026472
1110	0.0311264
1122	0.0390777
1134	0.0722404
1146	0.131681
1158	0.184916
1170	0.318924
1182	0.463987
1194	0.344039
1206	0.209158
1218	0.0986154
1230	0.0634164
1242	0.0948337
1254	0.144093
1266	0.114615
1278	0.20557
1290	0.266853
1302	0.163971
1314	0.166201
1326	0.161062
1338	0.165329
1350	0.307579
1362	0.421516
1374	0.214394
1386	0.106761
1398	0.0812583
1410	0.0728222
1422	0.0965791
1434	0.0888218
1446	0.0795129
1458	0.0897914
1470	0.0840704
1482	0.0871733
1494	0.177159
1506	0.316694
1518	0.343748
1530	0.540882
1542	0.950761
1554	0.792511
1566	0.371481
1578	0.254441
1590	0.166977
1602	0.0868824
1614	0.0787372
1626	0.109864
1638	0.0892096
1650	0.0396595
1662	0.0232721
1674	0.0115391
1686	0.0094058
1698	0.00649679
1710	0.0126057
1722	0.0096967
1734	0.00804826
1746	0.0096967
1758	0.0110542
1770	0.00950277
1782	0.00649679
1794	0.00543015
1806	0.00659376
1818	0.00688466
1830	0.00475138
1842	0.00504228
1854	0.00727252
1866	0.00795129
1878	0.00843613
1890	0.00892096
1902	0.00833916
1914	0.00407261
1926	0.00416958
1938	0.00436352
1950	0.00358778
1962	0.00484835
1974	0.00475138
1986	0.00601195
1998	0.00639982
2010	0.00698162
2022	0.00446048
2034	0.00397565
2046	0.00329688
2058	0.00387868
2070	0.00387868
2082	0.00339384
2094	0.00407261
2106	0.00407261
2118	0.00378171
2130	0.00416958
2142	0.00436352
2154	0.00436352
2166	0.00504228
2178	0.00543015
2190	0.00620589
2202	0.00446048
2214	0.00358778
2226	0.00271508
2238	0.00193934
2250	0.00281204
2262	0.00213327
2274	0.00319991
2286	0.00319991
2298	0.00513925
2310	0.00581802
2322	0.00746646
2334	0.00523622
2346	0.0106664
2358	0.00979367
2370	0.00543015
2382	0.00504228
2394	0.00562409
2406	0.00562409
2418	0.00814523
2430	0.0100846
2442	0.0105694
2454	0.00901793
2466	0.0085331
2478	0.00785433
2490	0.00610892
2502	0.00504228
2514	0.00416958
2526	0.00475138
2538	0.00436352
2550	0.00436352
2562	0.00649679
2574	0.00591499
2586	0.00698162
2598	0.00746646
2610	0.00746646
2622	0.00766039
2634	0.00833916
2646	0.00804826
2658	0.00756343
2670	0.0085331
2682	0.00804826
2694	0.00863006
2706	0.00814523
2718	0.00746646
2730	0.00766039
2742	0.00804826
2754	0.0106664
2766	0.0102785
2778	0.00795129
2790	0.00824219
2802	0.0091149
2814	0.00950277
2826	0.0114421
2838	0.0138663
2850	0.0168723
2862	0.0226903
2874	0.0298658
2886	0.0332597
2898	0.0310294
2910	0.0296719
2922	0.0314173
2934	0.0456715
2946	0.0694284
2958	0.0534288
2970	0.0365566
2982	0.0478047
2994	0.0476108
3006	0.0315143
3018	0.0244357
3030	0.032387
3042	0.0462533
3054	0.0416958
3066	0.0395625
3078	0.0374293
3090	0.023466
3102	0.0143511
3114	0.0106664
3126	0.00775736
3138	0.00756343
3150	0.00756343
3162	0.00727252
3174	0.00688466
3186	0.00649679
3198	0.00552712
3210	0.00639982
3222	0.00727252
3234	0.00746646
3246	0.00727252
3258	0.00717556
3270	0.00814523
3282	0.00814523
3294	0.00872703
3306	0.00785433
3318	0.00746646
3330	0.0085331
3342	0.0109573
3354	0.0105694
3366	0.0105694
3378	0.0104724
3390	0.00950277
3402	0.00959973
3414	0.0102785
3426	0.00892096
3438	0.00833916
3450	0.00892096
3462	0.0104724
3474	0.00921186
3486	0.00494532
3498	0.00620589
3510	0.00513925
3522	0.00552712
3534	0.00649679
3546	0.00455745
3558	0.00484835
3570	0.00378171
3582	0.00533318
3594	0.00659376
3606	0.00581802
3618	0.00707859
3630	0.0306416
3642	0.168044
3654	0.331821
3666	0.137693
3678	0.0124118
3690	0.00639982
3702	0.00620589
3714	0.00572105
3726	0.00581802
3738	0.00426655
3750	0.00572105
3762	0.00358778
3774	0.00620589
3786	0.00552712
3798	0.00804826
3810	0.00766039
3822	0.0114421
3834	0.00785433
3846	0.00193934
3858	0.00378171
3870	0.00766039
3882	0.011636
3894	0.00746646
3906	0.00213327
3918	0.00921186
3930	0.00892096
3942	0.008824
3954	0.0121209
3966	0.00756343
