Infrared Spectrum: Benzenamine, N-methyl-2,4-dinitro-
Formula: C 7 H 7 N 3 O 4
CAS: 2044-88-4
Origin: Sadtler Research Labs Under US-EPA Contract
1/CM	ABSORBANCE
450	0.0122635
462	0.00782689
474	0.000878955
486	0.00924995
498	0.0117194
510	0.0197556
522	0.0151934
534	0.00648753
546	0.00707349
558	0.0100452
570	0.0179139
582	0.0141051
594	0.0128495
606	0.0156956
618	0.01444
630	0.0211368
642	0.0284195
654	0.0109242
666	0.00523187
678	0.0129751
690	0.0305541
702	0.0372091
714	0.0111334
726	0.00895697
738	0.0242759
750	0.0201741
762	0.0105893
774	0.00347396
786	0.00364139
798	0.00707349
810	0.0208019
822	0.0292985
834	0.0351163
846	0.00908253
858	0.000125565
870	0.00246944
882	0.00313912
894	0.00590156
906	0.0160723
918	0.0433199
930	0.0172443
942	0.00426921
954	0.0033484
966	0.00443663
978	0.00447848
990	0.00485518
1002	0.00573413
1014	0.00745019
1026	0.00996149
1038	0.0133936
1050	0.0210112
1062	0.0164072
1074	0.0283358
1086	0.0285451
1098	0.0214716
1110	0.0420643
1122	0.0434873
1134	0.0566717
1146	0.042148
1158	0.0159049
1170	0.0349908
1182	0.0411016
1194	0.014733
1206	0.0146492
1218	0.0174954
1230	0.0263687
1242	0.0485099
1254	0.0457475
1266	0.0569228
1278	0.0851331
1290	0.110204
1302	0.127072
1314	0.138247
1326	0.120166
1338	0.298175
1350	0.377909
1362	0.09296
1374	0.0387996
1386	0.023104
1398	0.0197556
1410	0.025406
1422	0.0396367
1434	0.066382
1446	0.0896116
1458	0.0575925
1470	0.0375021
1482	0.0465428
1494	0.0595597
1506	0.0912439
1518	0.175289
1530	0.204545
1542	0.135945
1554	0.103968
1566	0.0934204
1578	0.0886489
1590	0.153482
1602	0.207936
1614	0.258999
1626	0.319103
1638	0.0866398
1650	0.0243596
1662	0.0115938
1674	0.00577599
1686	0.00510631
1698	0.00460405
1710	0.00372509
1722	0.00498074
1734	0.0063201
1746	0.00372509
1758	0.00209275
1770	0.00171605
1782	0.00108823
1794	0.000376695
1806	0.000460405
1818	0.00050226
1830	0.00133936
1842	0.00200904
1854	0.0016742
1866	0.000878955
1878	0.000627825
1890	0.00041855
1902	0.0008371
1914	0.00230203
1926	0.00238573
1938	0.00150678
1950	0.00150678
1962	0.00192533
1974	0.00159049
1986	0.000795245
1998	0.0008371
2010	0.00092081
2022	0.0008371
2034	0.00146492
2046	0.00179976
2058	0.0016742
2070	0.00142307
2082	0.0008371
2094	0.00146492
2106	0.00129751
2118	0.00108823
2130	0.00150678
2142	0.00171605
2154	0.00188347
2166	0.0020509
2178	0.00184162
2190	0.00188347
2202	0.00150678
2214	0.00146492
2226	0.00163234
2238	0.0016742
2250	0.00234388
2262	0.00242759
2274	0.00209275
2286	0.00226017
2298	0.00188347
2310	0.00196718
2322	0.00016742
2334	0
2346	0.00376695
2358	0.000795245
2370	0.00447848
2382	0.00481332
2394	0.00326469
2406	0.00330654
2418	0.00372509
2430	0.00393437
2442	0.00343211
2454	0.00389252
2466	0.00376695
2478	0.00351582
2490	0.0029717
2502	0.00238573
2514	0.00159049
2526	0.00226017
2538	0.00255316
2550	0.0021346
2562	0.00305541
2574	0.00322283
2586	0.0038088
2598	0.0038088
2610	0.00351582
2622	0.0038088
2634	0.00405993
2646	0.00313912
2658	0.00414364
2670	0.0041855
2682	0.00339026
2694	0.00309727
2706	0.00322283
2718	0.00414364
2730	0.00401808
2742	0.00447848
2754	0.00477147
2766	0.00514816
2778	0.00527373
2790	0.00577599
2802	0.00707349
2814	0.00807801
2826	0.0108404
2838	0.0138121
2850	0.0133936
2862	0.0137284
2874	0.0130169
2886	0.0124728
2898	0.0133099
2910	0.0172861
2922	0.0214716
2934	0.0244015
2946	0.0215135
2958	0.0258664
2970	0.0171187
2982	0.00962665
2994	0.00849656
3006	0.0126821
3018	0.00698979
3030	0.00410179
3042	0.0046459
3054	0.00410179
3066	0.00447848
3078	0.00594341
3090	0.0104219
3102	0.01963
3114	0.0148167
3126	0.00519002
3138	0.00318098
3150	0.0029717
3162	0.00259501
3174	0.00292985
3186	0.00267872
3198	0.00255316
3210	0.00196718
3222	0.00184162
3234	0.0020509
3246	0.00159049
3258	0.0020509
3270	0.0021346
3282	0.00226017
3294	0.00217646
3306	0.00322283
3318	0.00414364
3330	0.0053993
3342	0.00657123
3354	0.0102545
3366	0.0180814
3378	0.0331492
3390	0.0541185
3402	0.0569228
3414	0.0371254
3426	0.0186255
3438	0.00765946
3450	0.00422735
3462	0.00234388
3474	0.00230203
3486	0.00171605
3498	0.00196718
3510	0.00196718
3522	0.00196718
3534	0.00163234
3546	0.00230203
3558	0.00179976
3570	0.00184162
3582	0.00175791
3594	0.00259501
3606	0.00226017
3618	0.00255316
3630	0.00179976
3642	0
3654	0.00188347
3666	0.000711535
3678	0.00175791
3690	0.00150678
3702	0.00259501
3714	0.00305541
3726	0.00209275
3738	0.00263686
3750	0.00150678
3762	0.00142307
3774	0.00150678
3786	0.00175791
3798	0.00246944
3810	0.00129751
3822	0.0029717
3834	0.00217646
3846	0.00276243
3858	0.00330654
3870	0.00318098
3882	0.00234388
3894	0.00355767
3906	0.00318098
3918	0.0025113
3930	0.00263686
3942	0.00175791
3954	0.00230203
3966	0.0020509
