Infrared Spectrum: Dinonylamine
Formula: C 18 H 39 N
CAS: 2044-21-5
Origin: Sadtler Research Labs Under US-EPA Contract
1/CM	ABSORBANCE
450	0.00589204
462	0.00723879
474	0.00959561
486	0.00723879
498	0.00488198
510	0.00454529
522	0.00538701
534	0.00488198
546	0.00639707
558	0.00707045
570	0.00808051
582	0.00606038
594	0.00622873
606	0.00622873
618	0.0119524
630	0.0129625
642	0.0178445
654	0.0233998
666	0.0314803
678	0.0373724
690	0.041581
702	0.0449478
714	0.0513449
726	0.047978
738	0.0387191
750	0.0299652
762	0.0254199
774	0.0207063
786	0.0183495
798	0.0188545
810	0.0166661
822	0.0132992
834	0.0109424
846	0.0101006
858	0.00976395
870	0.00976395
882	0.0101006
894	0.011279
906	0.010774
918	0.010269
930	0.0114474
942	0.010269
954	0.0099323
966	0.0114474
978	0.0117841
990	0.0134675
1002	0.0159927
1014	0.0198646
1026	0.0225581
1038	0.0242415
1050	0.0252516
1062	0.0274401
1074	0.0291235
1086	0.0316487
1098	0.0398975
1110	0.0585837
1122	0.0829936
1134	0.12407
1146	0.0769332
1158	0.0393925
1170	0.0291235
1182	0.0242415
1194	0.0217164
1206	0.0202013
1218	0.0195279
1230	0.0202013
1242	0.021548
1254	0.0244099
1266	0.0289552
1278	0.0271034
1290	0.0311436
1302	0.0368673
1314	0.0375407
1326	0.0360256
1338	0.0555535
1350	0.0732296
1362	0.073903
1374	0.0609405
1386	0.0513449
1398	0.0292919
1410	0.0242415
1422	0.0319854
1434	0.0587521
1446	0.113127
1458	0.17996
1470	0.160095
1482	0.0740714
1494	0.0402342
1506	0.0262617
1518	0.0143092
1530	0.00791217
1542	0.00656542
1554	0.00521866
1566	0.00336688
1578	0.00454529
1590	0.00353522
1602	0.00353522
1614	0.00336688
1626	0.00286185
1638	0.00538701
1650	0.00723879
1662	0.00808051
1674	0.011279
1686	0.00774382
1698	0.0143092
1710	0.0225581
1722	0.00909058
1734	0.00824886
1746	0.00538701
1758	0.00336688
1770	0.00286185
1782	0.00202013
1794	0.00168344
1806	0.00117841
1818	0.00185178
1830	0.00084172
1842	0.00084172
1854	0.00084172
1866	0.000336688
1878	0.000673376
1890	0.000673376
1902	0.000336688
1914	0
1926	0.000168344
1938	0.000168344
1950	0.000336688
1962	0.000168344
1974	0.000673376
1986	0.000673376
1998	0.00101006
2010	0.00134675
2022	0.00202013
2034	0.00252516
2046	0.00235682
2058	0.00185178
2070	0.0015151
2082	0.0015151
2094	0.00117841
2106	0.00134675
2118	0.00117841
2130	0.00084172
2142	0.00101006
2154	0.0015151
2166	0.00117841
2178	0.00134675
2190	0.00117841
2202	0.00117841
2214	0.00134675
2226	0.00101006
2238	0.00117841
2250	0.0015151
2262	0.00185178
2274	0.00235682
2286	0.00319854
2298	0.00437694
2310	0.00488198
2322	0.00488198
2334	0.00336688
2346	0.00471363
2358	0.0042086
2370	0.00387191
2382	0.00471363
2394	0.00252516
2406	0.00252516
2418	0.0026935
2430	0.00235682
2442	0.00252516
2454	0.00252516
2466	0.00235682
2478	0.0026935
2490	0.00286185
2502	0.00336688
2514	0.00387191
2526	0.00471363
2538	0.00555535
2550	0.00589204
2562	0.0069021
2574	0.00791217
2586	0.00909058
2598	0.0101006
2610	0.0114474
2622	0.0131308
2634	0.015151
2646	0.0175078
2658	0.0207063
2670	0.0244099
2682	0.0277768
2694	0.0294602
2706	0.0301336
2718	0.0319854
2730	0.0356889
2742	0.041581
2754	0.0452845
2766	0.0486514
2778	0.0579103
2790	0.084172
2802	0.13316
2814	0.189219
2826	0.197804
2838	0.199824
2850	0.319517
2862	0.656037
2874	0.52759
2886	0.427089
2898	0.421028
2910	0.62624
2922	1.08986
2934	1.68344
2946	1.10013
2958	0.60183
2970	0.571696
2982	0.243762
2994	0.116831
3006	0.0725563
3018	0.0510082
3030	0.0385508
3042	0.0299652
3054	0.0239048
3066	0.0191912
3078	0.0171711
3090	0.0144776
3102	0.0127941
3114	0.011279
3126	0.0099323
3138	0.00942726
3150	0.00892223
3162	0.00858554
3174	0.00740714
3186	0.00707045
3198	0.0057237
3210	0.00521866
3222	0.0042086
3234	0.00370357
3246	0.00319854
3258	0.0026935
3270	0.0026935
3282	0.0026935
3294	0.0026935
3306	0.00286185
3318	0.00319854
3330	0.00303019
3342	0.00336688
3354	0.00336688
3366	0.00319854
3378	0.00370357
3390	0.00353522
3402	0.00336688
3414	0.00303019
3426	0.00286185
3438	0.00303019
3450	0.0026935
3462	0.00303019
3474	0.00319854
3486	0.00252516
3498	0.00235682
3510	0.00185178
3522	0.00134675
3534	0.0015151
3546	0.00252516
3558	0.00168344
3570	0.00370357
3582	0.00235682
3594	0.00235682
3606	0.00252516
3618	0.00353522
3630	0.00656542
3642	0.00471363
3654	0.00454529
3666	0.00370357
3678	0.00521866
3690	0.00387191
3702	0.00488198
3714	0.00437694
3726	0.00370357
3738	0.0057237
3750	0.00319854
3762	0.00336688
3774	0.00303019
3786	0.00286185
3798	0.0026935
3810	0.00353522
3822	0.00505032
3834	0.0042086
3846	0.0042086
3858	0.00437694
3870	0.00488198
3882	0.0042086
3894	0.00521866
3906	0.00404026
3918	0.00454529
3930	0.00404026
3942	0.00437694
3954	0.00370357
3966	0.0042086
