Infrared Spectrum: Benzenebutanoic acid, methyl ester
Formula: C 11 H 14 O 2
CAS: 2046-17-5
Origin: Sadtler Research Labs Under US-EPA Contract
1/CM	ABSORBANCE
450	0.0721804
462	0.0083439
474	0.0207454
486	0.0264604
498	0.0272606
510	0.0186881
522	0.0004572
534	0.0142875
546	0.0107442
558	0.012973
570	0.0145161
582	0.0101155
594	0.0054864
606	0.0144589
618	0.0125159
630	0.00622935
642	0.0154305
654	0.0115443
666	0.0145732
678	0.0390906
690	0.0920687
702	0.144247
714	0.0698373
726	0.0630364
738	0.110357
750	0.0927545
762	0.047606
774	0.0333184
786	0.0277177
798	0.0206883
810	0.0261175
822	0.028975
834	0.0254317
846	0.0269748
858	0.0334327
870	0.0332042
882	0.0333184
894	0.0233172
906	0.0202883
918	0.0150305
930	0.00931545
942	0.00977265
954	0.0138875
966	0.0152019
978	0.0214884
990	0.0337185
1002	0.0582358
1014	0.0704088
1026	0.0912114
1038	0.0909828
1050	0.073552
1062	0.0568071
1074	0.049549
1086	0.0486918
1098	0.0428625
1110	0.0542354
1122	0.0889254
1134	0.164821
1146	0.281578
1158	0.313639
1170	0.291008
1182	0.275977
1194	0.280092
1206	0.311296
1218	0.279178
1230	0.255861
1242	0.25346
1254	0.218256
1266	0.161334
1278	0.121387
1290	0.0979551
1302	0.0892112
1314	0.0894397
1326	0.0925259
1338	0.100813
1350	0.10167
1362	0.119501
1374	0.0932688
1386	0.048406
1398	0.0312039
1410	0.0305181
1422	0.0477774
1434	0.1139
1446	0.144247
1458	0.109214
1470	0.0632651
1482	0.0389763
1494	0.0717804
1506	0.0539496
1518	0.018288
1530	0.0174307
1542	0.0181737
1554	0.0146876
1566	0.0153733
1578	0.0172593
1590	0.0246888
1602	0.0444627
1614	0.0296037
1626	0.0132017
1638	0.0132588
1650	0.0132588
1662	0.0113157
1674	0.013716
1686	0.0165163
1698	0.0304038
1710	0.0508064
1722	0.0752666
1734	0.148761
1746	0.313982
1758	0.564699
1770	0.392563
1782	0.175222
1794	0.0695516
1806	0.0294894
1818	0.0156019
1830	0.0110871
1842	0.00908685
1854	0.00885825
1866	0.0110871
1878	0.0113157
1890	0.0085725
1902	0.00634365
1914	0.0065151
1926	0.00817245
1938	0.0126301
1950	0.0131445
1962	0.00920115
1974	0.0066294
1986	0.0076581
1998	0.0078867
2010	0.00874395
2022	0.00988695
2034	0.00920115
2046	0.00988695
2058	0.009144
2070	0.0081153
2082	0.00588645
2094	0.00325755
2106	0.00302895
2118	0.00360045
2130	0.0030861
2142	0.0026289
2154	0.0025146
2166	0.0027432
2178	0.0021717
2190	0.0021717
2202	0.00234315
2214	0.0018288
2226	0.00222885
2238	0.0020574
2250	0.00154305
2262	0.00234315
2274	0.002286
2286	0.0025146
2298	0.00234315
2310	0.00165735
2322	0.0005715
2334	0.00051435
2346	0.0043434
2358	0.0001143
2370	0.0105728
2382	0.00794385
2394	0.00451485
2406	0.0036576
2418	0.00337185
2430	0.0043434
2442	0.00360045
2454	0.00314325
2466	0.0041148
2478	0.0042291
2490	0.0037719
2502	0.00508635
2514	0.0053721
2526	0.00451485
2538	0.0048006
2550	0.0049149
2562	0.0048006
2574	0.0054864
2586	0.0060579
2598	0.00760095
2610	0.0070866
2622	0.0059436
2634	0.0053721
2646	0.005715
2658	0.003429
2670	0.0044577
2682	0.00565785
2694	0.00622935
2706	0.0062865
2718	0.0060579
2730	0.0065151
2742	0.00657225
2754	0.00714375
2766	0.00771525
2778	0.00954405
2790	0.00942975
2802	0.00954405
2814	0.0128588
2826	0.0157163
2838	0.0244602
2850	0.049149
2862	0.0602932
2874	0.0668084
2886	0.056007
2898	0.0553783
2910	0.0720661
2922	0.115786
2934	0.157391
2946	0.187166
2958	0.24906
2970	0.169221
2982	0.0828675
2994	0.0632079
3006	0.0657225
3018	0.0764096
3030	0.138074
3042	0.124358
3054	0.0664654
3066	0.0977836
3078	0.107956
3090	0.0674942
3102	0.0421767
3114	0.0301181
3126	0.0157734
3138	0.0108585
3150	0.00977265
3162	0.0094869
3174	0.0078867
3186	0.00668655
3198	0.005715
3210	0.0043434
3222	0.0062865
3234	0.0044577
3246	0.00337185
3258	0.004572
3270	0.0032004
3282	0.00257175
3294	0.00382905
3306	0.0035433
3318	0.00222885
3330	0.0033147
3342	0.0025146
3354	0.0043434
3366	0.002286
3378	0.0013716
3390	0.00245745
3402	0.00280035
3414	0.0040005
3426	0.0025146
3438	0.00291465
3450	0.00097155
3462	0.0032004
3474	0.00337185
3486	0.00371475
3498	0.00634365
3510	0.004572
3522	0.00314325
3534	0.0036576
3546	0.0028575
3558	0.00097155
3570	0.0042291
3582	0.00291465
3594	0.00302895
3606	0.00382905
3618	0.0026289
3630	0.00257175
3642	0.00371475
3654	0.00520065
3666	0.0029718
3678	0.0051435
3690	0.00520065
3702	0.00554355
3714	0.006858
3726	0.00520065
3738	0.0065151
3750	0.00520065
3762	0.00440055
3774	0.004572
3786	0.00828675
3798	0.00691515
3810	0.0073152
3822	0.005715
3834	0.00565785
3846	0.00851535
3858	0.00782955
3870	0.0088011
3882	0.0073152
3894	0.00691515
3906	0.0094869
3918	0.00725805
3930	0.0065151
3942	0.00668655
3954	0.00840105
3966	0.00657225
