Infrared Spectrum: Propanedioic acid, 2-propenyl-, diethyl ester
Formula: C 10 H 16 O 4
CAS: 2049-80-1
Origin: Sadtler Research Labs Under US-EPA Contract
1/CM	ABSORBANCE
450	0.0065976
462	0.0030239
474	0.00071474
486	0.00142948
498	0.00516812
510	0.0046733
522	0.0038486
534	0.00390358
546	0.00225418
558	0.00786214
570	0.0100064
582	0.0129203
594	0.0113259
606	0.0124805
618	0.016384
630	0.0181434
642	0.0229267
654	0.0208374
666	0.0158892
678	0.0145147
690	0.0205625
702	0.0162191
714	0.0147896
726	0.0107211
738	0.0103362
750	0.0114358
762	0.0128103
774	0.0141848
786	0.0155593
798	0.0147346
810	0.0148996
822	0.0135251
834	0.0168789
846	0.0229816
858	0.0421147
870	0.0353521
882	0.024741
894	0.0209474
906	0.0285896
918	0.074333
930	0.0537704
942	0.0268302
954	0.0252908
966	0.0255657
978	0.0337577
990	0.0449736
1002	0.0509665
1014	0.0595433
1026	0.0964349
1038	0.151855
1050	0.13679
1062	0.106056
1074	0.074278
1086	0.0670206
1098	0.101218
1110	0.119581
1122	0.140364
1134	0.17907
1146	0.287545
1158	0.307448
1170	0.275615
1182	0.273361
1194	0.267478
1206	0.231026
1218	0.222944
1230	0.270172
1242	0.27402
1254	0.21937
1266	0.222009
1278	0.191605
1290	0.147456
1302	0.119252
1314	0.0981943
1326	0.120901
1338	0.145752
1350	0.0718039
1362	0.0539354
1374	0.0992939
1386	0.0484374
1398	0.0378812
1410	0.0320533
1422	0.0333179
1434	0.0401354
1446	0.0599282
1458	0.041125
1470	0.0480525
1482	0.0361768
1494	0.0187482
1506	0.0126454
1518	0.011106
1530	0.0100613
1542	0.00901672
1554	0.00945656
1566	0.00967648
1578	0.00813704
1590	0.0093466
1602	0.00973146
1614	0.00973146
1626	0.0105012
1638	0.022047
1650	0.0286996
1662	0.0139099
1674	0.0123155
1686	0.0156693
1698	0.0198478
1710	0.0327131
1722	0.0510214
1734	0.112159
1746	0.372709
1758	0.521045
1770	0.392612
1782	0.133546
1794	0.0478876
1806	0.0279298
1818	0.019298
1830	0.0150095
1842	0.0155593
1854	0.0127554
1866	0.0090717
1878	0.00808206
1890	0.00791712
1902	0.00846692
1914	0.0079721
1926	0.00698246
1938	0.00593784
1950	0.005498
1962	0.00588286
1974	0.00626772
1986	0.00626772
1998	0.0057729
2010	0.00566294
2022	0.00560796
2034	0.00566294
2046	0.00505816
2058	0.00505816
2070	0.00511314
2082	0.00544302
2094	0.00500318
2106	0.00434342
2118	0.00401354
2130	0.0043984
2142	0.0038486
2154	0.00379362
2166	0.00379362
2178	0.00335378
2190	0.00318884
2202	0.00318884
2214	0.00263904
2226	0.00269402
2238	0.0035737
2250	0.0030239
2262	0.0030239
2274	0.0030239
2286	0.00346374
2298	0.0038486
2310	0.0043984
2322	0.0057729
2334	0.0063227
2346	0.0057729
2358	0.0076972
2370	0.00533306
2382	0.00280398
2394	0.00214422
2406	0.00313386
2418	0.00252908
2430	0.00258406
2442	0.00203426
2454	0.0019243
2466	0.0019243
2478	0.0019243
2490	0.00186932
2502	0.00181434
2514	0.00181434
2526	0.00181434
2538	0.00142948
2550	0.0016494
2562	0.00170438
2574	0.00159442
2586	0.00126454
2598	0.00098964
2610	0.00153944
2622	0.00153944
2634	0.00087968
2646	0.00071474
2658	0.00087968
2670	0.00093466
2682	0.00032988
2694	0.00021992
2706	0.0008247
2718	0.00087968
2730	0.0013745
2742	0.00148446
2754	0.00159442
2766	0.00214422
2778	0.00318884
2790	0.00324382
2802	0.00230916
2814	0.00313386
2826	0.00483824
2838	0.00544302
2850	0.00764222
2862	0.0102263
2874	0.0149546
2886	0.0252908
2898	0.0254557
2910	0.035627
2922	0.0424995
2934	0.0535505
2946	0.0807106
2958	0.063117
2970	0.0752676
2982	0.131567
2994	0.155978
3006	0.0818652
3018	0.0462932
3030	0.0218271
3042	0.0127554
3054	0.00967648
3066	0.00973146
3078	0.0156693
3090	0.038486
3102	0.0128653
3114	0.00406852
3126	0.00395856
3138	0.00346374
3150	0.0032988
3162	0.0032988
3174	0.00280398
3186	0.00307888
3198	0.00263904
3210	0.00269402
3222	0.00170438
3234	0.00197928
3246	0.00142948
3258	0.00087968
3270	0.00142948
3282	0.00104462
3294	0.00115458
3306	0.00071474
3318	0.00115458
3330	0.00131952
3342	0.00087968
3354	0.00098964
3366	0.00153944
3378	0.00060478
3390	0.00126454
3402	0.00126454
3414	0.00076972
3426	0.0019243
3438	0.00093466
3450	0.0013745
3462	0.00181434
3474	0.00170438
3486	0.00461832
3498	0.00516812
3510	0.00335378
3522	0.00175936
3534	0.00142948
3546	0.0005498
3558	0.00021992
3570	0.00104462
3582	0.00065976
3594	0.0008247
3606	0.00038486
3618	0.0005498
3630	0.00016494
3642	0.00170438
3654	0.00120956
3666	0.0016494
3678	0.00104462
3690	0.00148446
3702	0.00285896
3714	0.00203426
3726	0.00335378
3738	0.00269402
3750	0.00373864
3762	0.0052231
3774	0.00538804
3786	0.00533306
3798	0.00582788
3810	0.00637768
3822	0.00654262
3834	0.0065976
3846	0.00599282
3858	0.0065976
3870	0.00725736
3882	0.00775218
3894	0.00665258
3906	0.00753226
3918	0.00709242
3930	0.0071474
3942	0.00665258
3954	0.0002749
3966	0.00093466
