Infrared Spectrum: Decane, 1-iodo-
Formula: C 10 H 21 I
CAS: 2050-77-3
Origin: Sadtler Research Labs Under US-EPA Contract
1/CM	ABSORBANCE
450	0
462	0.0208369
474	0.0273089
486	0.0233625
498	0.0375695
510	0.0339388
522	0.0238361
534	0.0225733
546	0.0211526
558	0.0161012
570	0.0172062
582	0.0260461
594	0.0467251
606	0.0443573
618	0.022889
630	0.0203633
642	0.0197319
654	0.0197319
666	0.0194162
678	0.0205212
690	0.022889
702	0.0325181
714	0.0505136
726	0.0574592
738	0.0465672
750	0.0386745
762	0.033781
774	0.0309396
786	0.0235204
798	0.0287296
810	0.0254147
822	0.022889
834	0.0243097
846	0.0252568
858	0.0263618
870	0.0233625
882	0.0247832
894	0.0252568
906	0.023994
918	0.0233625
930	0.021784
942	0.0219418
954	0.0232047
966	0.0225733
978	0.0205212
990	0.0192583
1002	0.0197319
1014	0.0214683
1026	0.0224154
1038	0.0216261
1050	0.021784
1062	0.0222576
1074	0.0225733
1086	0.0227311
1098	0.0225733
1110	0.0236783
1122	0.0230468
1134	0.0246254
1146	0.0336231
1158	0.0561964
1170	0.109551
1182	0.103395
1194	0.113813
1206	0.114287
1218	0.104816
1230	0.0991329
1242	0.0853996
1254	0.0700876
1266	0.0674041
1278	0.0615635
1290	0.0595113
1302	0.0563542
1314	0.0465672
1326	0.0383588
1338	0.0481458
1350	0.0688248
1362	0.0606163
1374	0.0524079
1386	0.0503557
1398	0.031571
1410	0.0298346
1422	0.0396216
1434	0.0787696
1446	0.0997644
1458	0.149173
1470	0.134335
1482	0.0590378
1494	0.0301503
1506	0.0225733
1518	0.0178376
1530	0.0161012
1542	0.0157855
1554	0.014207
1566	0.014207
1578	0.0140491
1590	0.0124705
1602	0.0123127
1614	0.0127863
1626	0.0113656
1638	0.0115234
1650	0.0105763
1662	0.00994487
1674	0.0104184
1686	0.0115234
1698	0.010892
1710	0.0107341
1722	0.0105763
1734	0.0107341
1746	0.0101027
1758	0.00978701
1770	0.0105763
1782	0.00931345
1794	0.00962916
1806	0.0094713
1818	0.00915559
1830	0.00852417
1842	0.00836632
1854	0.00883988
1866	0.00883988
1878	0.00978701
1890	0.00852417
1902	0.00915559
1914	0.00836632
1926	0.00899774
1938	0.00852417
1950	0.00836632
1962	0.00836632
1974	0.0077349
1986	0.00757704
1998	0.0077349
2010	0.00805061
2022	0.00852417
2034	0.00820846
2046	0.00868203
2058	0.00710348
2070	0.00647206
2082	0.00568278
2094	0.00584064
2106	0.00615635
2118	0.00599849
2130	0.00647206
2142	0.0063142
2154	0.00710348
2166	0.00678777
2178	0.0063142
2190	0.00694562
2202	0.00599849
2214	0.00584064
2226	0.00584064
2238	0.00520922
2250	0.00568278
2262	0.00568278
2274	0.00536707
2286	0.00520922
2298	0.00520922
2310	0.00899774
2322	0.00868203
2334	0.00805061
2346	0.00789275
2358	0.00694562
2370	0.00552493
2382	0.00363067
2394	0.00363067
2406	0.00363067
2418	0.00378852
2430	0.00331496
2442	0.00284139
2454	0.00299925
2466	0.00220997
2478	0.00331496
2490	0.00268354
2502	0.00347281
2514	0.00284139
2526	0.00331496
2538	0.00410423
2550	0.00457779
2562	0.00363067
2574	0.00552493
2586	0.00647206
2598	0.00757704
2610	0.00915559
2622	0.0104184
2634	0.0112077
2646	0.0110499
2658	0.0132598
2670	0.0134177
2682	0.0132598
2694	0.013102
2706	0.0110499
2718	0.0094713
2730	0.0101027
2742	0.0138912
2754	0.0135755
2766	0.0134177
2778	0.0159434
2790	0.0216261
2802	0.0299925
2814	0.0415159
2826	0.0590378
2838	0.102606
2850	0.23252
2862	0.579012
2874	0.496612
2886	0.357542
2898	0.321077
2910	0.464409
2922	0.895827
2934	1.57855
2946	1.06884
2958	0.552177
2970	0.609478
2982	0.256357
2994	0.109236
3006	0.0749811
3018	0.0745076
3030	0.0331495
3042	0.0236783
3054	0.0165748
3066	0.011997
3078	0.00915559
3090	0.00662991
3102	0.00584064
3114	0.00457779
3126	0.00284139
3138	0.00331496
3150	0.00426209
3162	0.00552493
3174	0.00489351
3186	0.00536707
3198	0.00441994
3210	0.00615635
3222	0.00473565
3234	0.00536707
3246	0.00426209
3258	0.00394638
3270	0.00489351
3282	0.00284139
3294	0.00473565
3306	0.00441994
3318	0.00489351
3330	0.00536707
3342	0.00426209
3354	0.0031571
3366	0.00268354
3378	0.00615635
3390	0.0031571
3402	0.00599849
3414	0.00536707
3426	0.00552493
3438	0.00615635
3450	0.00647206
3462	0.00520922
3474	0.00568278
3486	0.00710348
3498	0.00426209
3510	0.00615635
3522	0.00852417
3534	0.00662991
3546	0.00726133
3558	0.00678777
3570	0.00489351
3582	0.00741919
3594	0.00694562
3606	0.00552493
3618	0.0077349
3630	0.00915559
3642	0.00710348
3654	0.00647206
3666	0.00489351
3678	0.00520922
3690	0.00678777
3702	0.00584064
3714	0.0063142
3726	0.00489351
3738	0.00868203
3750	0.00615635
3762	0.00741919
3774	0.00805061
3786	0.00489351
3798	0.00883988
3810	0.00978701
3822	0.0118391
3834	0.00852417
3846	0.0134177
3858	0.00757704
3870	0.0107341
3882	0.010892
3894	0.0116813
3906	0.0113656
3918	0.00852417
3930	0.0134177
3942	0.00694562
3954	0.00931345
3966	0.00220997
