Infrared Spectrum: 1,2-Diethoxybenzene
Formula: C 10 H 14 O 2
CAS: 2050-46-6
Origin: Sadtler Research Labs Under US-EPA Contract
1/CM	ABSORBANCE
450	0.00126311
462	0.00225555
474	0.0036991
486	0.000992442
498	0.001624
510	0.00342844
522	0.00180444
534	0.00180444
546	0.00270666
558	0.00730798
570	0.0082102
582	0.0141649
594	0.0173226
606	0.0130822
618	0.00415021
630	0.0028871
642	0.00135333
654	0.00153377
666	0.000992442
678	0.00342844
690	0.00433066
702	0.00622532
714	0.0167813
726	0.0703732
738	0.240171
750	0.239991
762	0.0839967
774	0.0385248
786	0.025623
798	0.0226457
810	0.0270666
822	0.0274275
834	0.0192173
846	0.0145257
858	0.0130822
870	0.0134431
882	0.0239088
894	0.0577421
906	0.0750647
918	0.0761474
930	0.0698318
942	0.0324799
954	0.0130822
966	0.0104658
978	0.012992
990	0.0176835
1002	0.0306755
1014	0.0693807
1026	0.173046
1038	0.39003
1050	0.428194
1062	0.168896
1074	0.0735309
1086	0.0940113
1098	0.153738
1110	0.23963
1122	0.263899
1134	0.151122
1146	0.0566594
1158	0.0590954
1170	0.0529603
1182	0.0738016
1194	0.201105
1206	0.383263
1218	0.386872
1230	0.298725
1242	0.423141
1254	0.875695
1266	0.659703
1278	0.298274
1290	0.196504
1302	0.165467
1314	0.102673
1326	0.0585541
1338	0.0347355
1350	0.0267959
1362	0.0370812
1374	0.0596367
1386	0.160595
1398	0.184324
1410	0.0653207
1422	0.0367204
1434	0.0463741
1446	0.106101
1458	0.131724
1470	0.114853
1482	0.26417
1494	0.536099
1506	0.531498
1518	0.156896
1530	0.0601781
1542	0.0358181
1554	0.031307
1566	0.0335626
1578	0.0695612
1590	0.134701
1602	0.126672
1614	0.0358181
1626	0.0143453
1638	0.0111875
1650	0.0131724
1662	0.00992442
1674	0.0098342
1686	0.00974398
1698	0.0106462
1710	0.00640576
1722	0.00649598
1734	0.0117289
1746	0.00857109
1758	0.00757865
1770	0.00884176
1782	0.00694709
1794	0.00694709
1806	0.0053231
1818	0.00505243
1830	0.00649598
1842	0.00730798
1854	0.00748843
1866	0.0090222
1878	0.00911242
1890	0.00875153
1902	0.00793954
1914	0.0116386
1926	0.0108266
1938	0.00848087
1950	0.00649598
1962	0.00577421
1974	0.00577421
1986	0.0053231
1998	0.0053231
2010	0.00622532
2022	0.00685687
2034	0.00667643
2046	0.00568399
2058	0.00604487
2070	0.00568399
2082	0.00568399
2094	0.00424043
2106	0.00279688
2118	0.00180444
2130	0.00117289
2142	0.000721776
2154	0.000811998
2166	0.000180444
2178	0.000180444
2190	0.000721776
2202	0.000721776
2214	0.000721776
2226	0.000631554
2238	0.000631554
2250	0.00171422
2262	0.00261644
2274	0.00216533
2286	0.00216533
2298	0.00216533
2310	0.0036991
2322	0.00360888
2334	0.00189466
2346	0.000631554
2358	0.00261644
2370	0
2382	9.0222e-05
2394	0.00216533
2406	0.00333821
2418	0.00378932
2430	0.00333821
2442	0.00279688
2454	0.00324799
2466	0.00324799
2478	0.00333821
2490	0.00324799
2502	0.00469154
2514	0.0053231
2526	0.0053231
2538	0.00604487
2550	0.00694709
2562	0.00676665
2574	0.00523288
2586	0.00342844
2598	0.00207511
2610	0.00180444
2622	0.00135333
2634	0.00090222
2646	0
2658	0.000992442
2670	0.00090222
2682	0.000631554
2694	0.00117289
2706	0.00252622
2718	0.00505243
2730	0.00775909
2742	0.00929287
2754	0.0100146
2766	0.00974398
2778	0.0102853
2790	0.00992442
2802	0.010556
2814	0.0136235
2826	0.0184053
2838	0.0235479
2850	0.0334724
2862	0.0516972
2874	0.0979811
2886	0.163302
2898	0.151032
2910	0.150039
2922	0.145167
2934	0.173497
2946	0.200112
2958	0.137408
2970	0.1624
2982	0.310634
2994	0.303417
3006	0.108357
3018	0.0547648
3030	0.0496221
3042	0.0746136
3054	0.0658621
3066	0.0822825
3078	0.102943
3090	0.055667
3102	0.0243599
3114	0.0175933
3126	0.00947331
3138	0.00559376
3150	0.00487199
3162	0.00396977
3174	0.00460132
3186	0.00387955
3198	0.0028871
3210	0.00324799
3222	0.00333821
3234	0.00216533
3246	0.00135333
3258	0.000270666
3270	0.00045111
3282	0.000631554
3294	0.00090222
3306	0.00108266
3318	0.00117289
3330	0.000811998
3342	0.000721776
3354	0.000992442
3366	0.00135333
3378	0.000541332
3390	0.00108266
3402	0.000721776
3414	0.00144355
3426	0.00126311
3438	0.000811998
3450	0.000811998
3462	0.00126311
3474	0.00108266
3486	0.00117289
3498	0.00117289
3510	0.00108266
3522	0.00126311
3534	0.00135333
3546	0.00189466
3558	0.00090222
3570	0.00117289
3582	0.00180444
3594	0.001624
3606	0.00180444
3618	0.00180444
3630	0.00261644
3642	0.00153377
3654	0.00045111
3666	0.00171422
3678	0.00207511
3690	0.00171422
3702	0.00180444
3714	0.001624
3726	0.00252622
3738	0.001624
3750	0.00324799
3762	0.00189466
3774	0.00216533
3786	0.0028871
3798	0.00360888
3810	0.00315777
3822	0.0036991
3834	0.00324799
3846	0.00415021
3858	0.00405999
3870	0.0036991
3882	0.00396977
3894	0.00396977
3906	0.00333821
3918	0.00351866
3930	0.0036991
3942	0.00333821
3954	0.00315777
3966	0.00415021
