Infrared Spectrum: 1,1'-Biphenyl, 4,4'-dichloro-
Formula: C 12 H 8 Cl 2
CAS: 2050-68-2
Origin: Sadtler Research Labs Under US-EPA Contract
1/CM	ABSORBANCE
450	0
462	0.0198673
474	0.00954862
486	0.0194053
498	0.046126
510	0.062066
522	0.0335742
534	0.0237945
546	0.0198673
558	0.0131679
570	0.0110117
582	0.0120898
594	0.00531334
606	0.0060834
618	0.0091636
630	0.0118588
642	0.014631
654	0.0123978
666	0.0116278
678	0.0174031
690	0.0205603
702	0.0868616
714	0.0595249
726	0.0179422
738	0.0189432
750	0.0214844
762	0.0276448
774	0.0237945
786	0.0266437
798	0.0652232
810	0.217308
822	0.216538
834	0.0795462
846	0.0498222
858	0.0225625
870	0.014631
882	0.0192513
894	0.0138609
906	0.0107037
918	0.0102417
930	0.0112427
942	0.0102417
954	0.0164791
966	0.0112427
978	0.00908659
990	0.0140919
1002	0.16017
1014	0.0887098
1026	0.0786221
1038	0.0227165
1050	0.0257197
1062	0.0194823
1074	0.0251036
1086	0.125672
1098	0.704519
1110	0.0569837
1122	0.030571
1134	0.015093
1146	0.015247
1158	0.0114737
1170	0.0135529
1182	0.0207143
1194	0.0120128
1206	0.00993364
1218	0.0200983
1230	0.0210224
1242	0.014631
1254	0.0126288
1266	0.00970263
1278	0.00900959
1290	0.0102417
1302	0.0117048
1314	0.0128598
1326	0.0141689
1338	0.014631
1350	0.0163251
1362	0.0179422
1374	0.0190972
1386	0.0326501
1398	0.0295699
1410	0.0190202
1422	0.014862
1434	0.0182502
1446	0.0402736
1458	0.0656853
1470	0.256427
1482	0.455947
1494	0.130909
1506	0.0331892
1518	0.0202523
1530	0.0120898
1542	0.0165561
1554	0.0168641
1566	0.0167871
1578	0.015709
1590	0.0392725
1602	0.030263
1614	0.0123208
1626	0.0205603
1638	0.0247956
1650	0.0210224
1662	0.0181732
1674	0.0127058
1686	0.00723847
1698	0.00823953
1710	0.0077005
1722	0.0077005
1734	0.00954862
1746	0.0091636
1758	0.0124748
1770	0.0195593
1782	0.0130908
1794	0.0102417
1806	0.0102417
1818	0.00785451
1830	0.00816253
1842	0.00700746
1854	0.00793152
1866	0.0100106
1878	0.0135529
1890	0.0246416
1902	0.0225625
1914	0.0117818
1926	0.0076235
1938	0.00716146
1950	0.00723847
1962	0.00731548
1974	0.00639142
1986	0.00677644
1998	0.0061604
2010	0.00646842
2022	0.00700746
2034	0.00669944
2046	0.0062374
2058	0.00631441
2070	0.0061604
2082	0.0060834
2094	0.0061604
2106	0.0060834
2118	0.00585238
2130	0.00562136
2142	0.00569837
2154	0.00569837
2166	0.00562136
2178	0.00546736
2190	0.00562136
2202	0.00592938
2214	0.0061604
2226	0.00577538
2238	0.0060834
2250	0.0061604
2262	0.00669944
2274	0.00716146
2286	0.00808552
2298	0.00847055
2310	0.00831654
2322	0.00847055
2334	0.0077005
2346	0.0061604
2358	0.00808552
2370	0.00685344
2382	0.0062374
2394	0.0062374
2406	0.0061604
2418	0.00562136
2430	0.00508233
2442	0.00508233
2454	0.00515934
2466	0.00515934
2478	0.00531334
2490	0.00585238
2502	0.0062374
2514	0.00631441
2526	0.00585238
2538	0.00600639
2550	0.00592938
2562	0.00708446
2574	0.00739248
2586	0.00693045
2598	0.00746948
2610	0.00723847
2622	0.0060834
2634	0.00546736
2646	0.00562136
2658	0.0060834
2670	0.00585238
2682	0.00662243
2694	0.00662243
2706	0.0061604
2718	0.00577538
2730	0.00585238
2742	0.00585238
2754	0.00569837
2766	0.0062374
2778	0.00669944
2790	0.00600639
2802	0.00693045
2814	0.00731548
2826	0.0062374
2838	0.00631441
2850	0.00631441
2862	0.00708446
2874	0.00716146
2886	0.00639142
2898	0.00646842
2910	0.00600639
2922	0.00554436
2934	0.00546736
2946	0.00577538
2958	0.00646842
2970	0.00739248
2982	0.00823953
2994	0.00870156
3006	0.00908659
3018	0.0120128
3030	0.03034
3042	0.0552126
3054	0.030725
3066	0.0284148
3078	0.0347293
3090	0.046896
3102	0.0345752
3114	0.0186352
3126	0.00954862
3138	0.00716146
3150	0.00716146
3162	0.00662243
3174	0.00639142
3186	0.00600639
3198	0.0061604
3210	0.00585238
3222	0.00585238
3234	0.00592938
3246	0.00569837
3258	0.00592938
3270	0.00577538
3282	0.00662243
3294	0.0062374
3306	0.0062374
3318	0.00677644
3330	0.0060834
3342	0.00669944
3354	0.00669944
3366	0.0062374
3378	0.0061604
3390	0.00639142
3402	0.00631441
3414	0.0062374
3426	0.00631441
3438	0.0060834
3450	0.00639142
3462	0.00677644
3474	0.00639142
3486	0.00723847
3498	0.00639142
3510	0.0061604
3522	0.00677644
3534	0.00677644
3546	0.00808552
3558	0.00716146
3570	0.0077005
3582	0.00669944
3594	0.0092406
3606	0.00669944
3618	0.00785451
3630	0.0100877
3642	0.00685344
3654	0.00808552
3666	0.00577538
3678	0.0116278
3690	0.00677644
3702	0.00800852
3714	0.00954862
3726	0.00839355
3738	0.00970263
3750	0.00700746
3762	0.0076235
3774	0.00746948
3786	0.00754649
3798	0.00854756
3810	0.0060834
3822	0.0100877
3834	0.00870156
3846	0.00862456
3858	0.00908659
3870	0.0114737
3882	0.0091636
3894	0.0091636
3906	0.00862456
3918	0.0100877
3930	0.00854756
3942	0.00870156
3954	0.00847055
3966	0.00854756
