Infrared Spectrum: 5-Nonanone, 2,8-dimethyl-
Formula: C 11 H 22 O
CAS: 2050-99-9
Origin: Sadtler Research Labs Under US-EPA Contract
1/CM	ABSORBANCE
450	0.00698604
462	0.00790872
474	0.0115995
486	0.0106768
498	0.0115995
510	0.010545
522	0.00804053
534	0.0200354
546	0.0129176
558	0.00962228
570	0.010545
582	0.00738147
594	0.00342711
606	0.00869959
618	0.0102813
630	0.00448161
642	0.00685422
654	0.00975409
666	0.00421798
678	0.0076451
690	0.00197718
702	0.00316349
714	0.00408617
726	0.00289986
738	0.00408617
750	0.00711785
762	0.00962228
774	0.0142357
786	0.0110722
798	0.00408617
810	0.00395436
822	0.00514067
834	0.00487704
846	0.00751328
858	0.0108086
870	0.0137084
882	0.0150266
894	0.0118631
906	0.0123903
918	0.022408
930	0.0204309
942	0.0179264
954	0.0150266
966	0.0152902
978	0.0163447
990	0.0199036
1002	0.0249125
1014	0.0275487
1026	0.0307122
1038	0.0412572
1050	0.0723648
1062	0.132339
1074	0.0975409
1086	0.0469251
1098	0.0423117
1110	0.0499567
1122	0.0684104
1134	0.0930593
1146	0.0976727
1158	0.104922
1170	0.104791
1182	0.0549656
1194	0.0388845
1206	0.0445525
1218	0.0498249
1230	0.0494295
1242	0.0601063
1254	0.0681468
1266	0.0839642
1278	0.0734193
1290	0.0533839
1302	0.0402027
1314	0.0570746
1326	0.101232
1338	0.137348
1350	0.113358
1362	0.144334
1374	0.176628
1386	0.146707
1398	0.100573
1410	0.0624789
1422	0.0702558
1434	0.0694649
1446	0.0884459
1458	0.129439
1470	0.163842
1482	0.0935865
1494	0.0336121
1506	0.0163447
1518	0.00949046
1530	0.00672241
1542	0.00685422
1554	0.0055361
1566	0.00500886
1578	0.00540429
1590	0.00461342
1602	0.0055361
1614	0.00606335
1626	0.00698604
1638	0.00843597
1650	0.00949046
1662	0.0114676
1674	0.0185855
1686	0.0296577
1698	0.0508794
1710	0.148025
1722	0.414285
1734	0.412967
1746	0.122453
1758	0.0423117
1770	0.0292623
1782	0.0246488
1794	0.0176628
1806	0.0123903
1818	0.00869959
1830	0.0055361
1842	0.00369074
1854	0.00263624
1866	0.0022408
1878	0.0022408
1890	0.00171356
1902	0.00131812
1914	0.00131812
1926	0.0010545
1938	0.000790872
1950	0.000922684
1962	0.00131812
1974	0.00144993
1986	0.00065906
1998	0.000922684
2010	0.00131812
2022	0.00144993
2034	0.000922684
2046	0.00065906
2058	0.000790872
2070	0.0022408
2082	0.000922684
2094	0.00118631
2106	0.00144993
2118	0.00184537
2130	0.00171356
2142	0.0022408
2154	0.0022408
2166	0.00237262
2178	0.00184537
2190	0.00237262
2202	0.00184537
2214	0.00171356
2226	0.00197718
2238	0.00158174
2250	0.00158174
2262	0.00118631
2274	0.00131812
2286	0.00171356
2298	0.00303168
2310	0.0032953
2322	0.00540429
2334	0.00514067
2346	0.00342711
2358	0.00540429
2370	0.00131812
2382	0.00118631
2394	0.00250443
2406	0.00210899
2418	0.00158174
2430	0.00158174
2442	0.00065906
2454	0.000527248
2466	0.0010545
2478	0.00144993
2490	0.000922684
2502	0.00131812
2514	0.000922684
2526	0.00065906
2538	0.000395436
2550	0.000395436
2562	0.000922684
2574	0.0022408
2586	0.00303168
2598	0.00408617
2610	0.00408617
2622	0.00474523
2634	0.0055361
2646	0.00751328
2658	0.00514067
2670	0.00448161
2682	0.00619516
2694	0.00724966
2706	0.00711785
2718	0.00949046
2730	0.0150266
2742	0.0164765
2754	0.0138403
2766	0.0142357
2778	0.0163447
2790	0.0180582
2802	0.0241216
2814	0.0325576
2826	0.0398072
2838	0.0502204
2850	0.0889731
2862	0.163711
2874	0.30699
2886	0.40954
2898	0.356815
2910	0.409013
2922	0.491263
2934	0.560069
2946	0.617276
2958	0.845442
2970	1.24602
2982	0.354706
2994	0.10914
3006	0.0479796
3018	0.0274169
3030	0.0188491
3042	0.0150266
3054	0.0144993
3066	0.0123903
3078	0.0113358
3090	0.0110722
3102	0.00935865
3114	0.00843597
3126	0.00711785
3138	0.00830416
3150	0.0088314
3162	0.0118631
3174	0.0134448
3186	0.0135766
3198	0.0118631
3210	0.0101495
3222	0.00698604
3234	0.00540429
3246	0.00461342
3258	0.00514067
3270	0.00289986
3282	0.00263624
3294	0.000922684
3306	0.00474523
3318	0.00289986
3330	0.00448161
3342	0.00369074
3354	0.00342711
3366	0.00395436
3378	0.00276805
3390	0.00382255
3402	0.00382255
3414	0.00514067
3426	0.00672241
3438	0.00869959
3450	0.00619516
3462	0.00118631
3474	0.00184537
3486	0.00144993
3498	0.00158174
3510	0.00250443
3522	0.0010545
3534	0.00289986
3546	0.00131812
3558	0.00342711
3570	0.00448161
3582	0.00632698
3594	0.00237262
3606	0.00369074
3618	0.00316349
3630	0.00369074
3642	0.00237262
3654	0.00263624
3666	0.00237262
3678	0.00382255
3690	0.0032953
3702	0.00237262
3714	0.0032953
3726	0.00184537
3738	0.00395436
3750	0.00355892
3762	0.00197718
3774	0.0032953
3786	0.0043498
3798	0.00448161
3810	0.0055361
3822	0.000922684
3834	0.00342711
3846	0.00579973
3858	0.00448161
3870	0.00171356
3882	0.00487704
3894	0.00395436
3906	0.00355892
3918	0.0043498
3930	0.00316349
3942	0.00804053
3954	0.00579973
3966	0.00250443
