Infrared Spectrum: Ethanedioic acid, dibutyl ester
Formula: C 10 H 18 O 4
CAS: 2050-60-4
Origin: Sadtler Research Labs Under US-EPA Contract
1/CM	ABSORBANCE
450	0.00168595
462	0.00922005
474	0.00147521
486	0.00785021
498	0.00505786
510	0.00279236
522	0.00648038
534	0.00216013
546	0.00806096
558	0.00505786
570	0.00126446
582	0.0124339
594	0.00342459
606	0.00721798
618	0.0102738
630	0.00553203
642	0.0113802
654	0.0071653
666	0.00922005
678	0.0120124
690	0.0103791
702	0.0103791
714	0.0108006
726	0.0114329
738	0.0166488
750	0.0183874
762	0.0277655
774	0.022655
786	0.0171756
798	0.0164907
810	0.0144886
822	0.0160165
834	0.0124339
846	0.0146994
858	0.0142779
870	0.0126446
882	0.013751
894	0.0131188
906	0.0165434
918	0.0214432
930	0.0353523
942	0.0504205
954	0.0350889
966	0.0299783
978	0.0238668
990	0.0211271
1002	0.0245517
1014	0.0251839
1026	0.0207583
1038	0.0207056
1050	0.0236033
1062	0.0361426
1074	0.030874
1086	0.0277655
1098	0.036406
1110	0.0561106
1122	0.113486
1134	0.221176
1146	0.401204
1158	0.52607
1170	0.473015
1182	0.262534
1194	0.115646
1206	0.0587976
1218	0.0405155
1230	0.0369856
1242	0.0396726
1254	0.038092
1266	0.0442562
1278	0.0582707
1290	0.084561
1302	0.119018
1314	0.104108
1326	0.0594825
1338	0.0360372
1350	0.0241302
1362	0.0192304
1374	0.0201787
1386	0.0248678
1398	0.0234453
1410	0.0157531
1422	0.0130134
1434	0.0165961
1446	0.0211271
1458	0.0331922
1470	0.040779
1482	0.0264484
1494	0.0136984
1506	0.00848245
1518	0.00858782
1530	0.00621695
1542	0.0056374
1554	0.00605889
1566	0.00479443
1578	0.00547934
1590	0.00505786
1602	0.004531
1614	0.0060062
1626	0.0048998
1638	0.00590083
1650	0.00637501
1662	0.00611158
1674	0.00763947
1686	0.00811364
1698	0.0118017
1710	0.0186508
1722	0.0350362
1734	0.0706519
1746	0.168226
1758	0.303261
1770	0.199258
1782	0.185718
1794	0.161904
1806	0.0612211
1818	0.0270806
1830	0.0149101
1842	0.00895662
1854	0.0079029
1866	0.00537397
1878	0.00500517
1890	0.00505786
1902	0.00374071
1914	0.00474174
1926	0.00326653
1938	0.00305579
1950	0.00363533
1962	0.00258161
1974	0.00310847
1986	0.00310847
1998	0.0030031
2010	0.00347728
2022	0.00247624
2034	0.00352996
2046	0.00326653
2058	0.00310847
2070	0.00384608
2082	0.00231818
2094	0.0033719
2106	0.0026343
2118	0.00258161
2130	0.00321385
2142	0.00210744
2154	0.00258161
2166	0.00231818
2178	0.00205475
2190	0.00310847
2202	0.00200207
2214	0.0022655
2226	0.00210744
2238	0.00194938
2250	0.00289773
2262	0.00237087
2274	0.00368802
2286	0.00669112
2298	0.0120124
2310	0.0182294
2322	0.0167541
2334	0.0143306
2346	0.0189143
2358	0.0179659
2370	0.0170176
2382	0.0109587
2394	0.00205475
2406	0.00200207
2418	0.00152789
2430	0.00247624
2442	0.00210744
2454	0.00237087
2466	0.00289773
2478	0.00200207
2490	0.00237087
2502	0.00184401
2514	0.00126446
2526	0.00168595
2538	0.00136984
2550	0.00210744
2562	0.00168595
2574	0.00121178
2586	0.00194938
2598	0.000684918
2610	0.00152789
2622	0.00152789
2634	0.00152789
2646	0.00200207
2658	0.00121178
2670	0.00200207
2682	0.00210744
2694	0.00158058
2706	0.00289773
2718	0.00252893
2730	0.00326653
2742	0.00421488
2754	0.00395145
2766	0.00537397
2778	0.00384608
2790	0.00479443
2802	0.00584815
2814	0.00616426
2826	0.00927274
2838	0.0114855
2850	0.0185455
2862	0.0310847
2874	0.0485765
2886	0.0755517
2898	0.064435
2910	0.0678596
2922	0.089092
2934	0.105003
2946	0.138406
2958	0.13456
2970	0.2089
2982	0.146836
2994	0.0612738
3006	0.0301891
3018	0.0170703
3030	0.0102211
3042	0.00953617
3054	0.00590083
3066	0.00553203
3078	0.00474174
3090	0.00326653
3102	0.00447831
3114	0.00242356
3126	0.00358265
3138	0.00321385
3150	0.00252893
3162	0.00400414
3174	0.00205475
3186	0.00305579
3198	0.00279236
3210	0.00110641
3222	0.00258161
3234	0.00115909
3246	0.00147521
3258	0.00179132
3270	0.00126446
3282	0.00221281
3294	0.000737604
3306	0.000948348
3318	0.00237087
3330	0.00079029
3342	0.00237087
3354	0.00110641
3366	0.000948348
3378	0.00242356
3390	0.00105372
3402	0.00216013
3414	0.00184401
3426	0.00147521
3438	0.00358265
3450	0.00110641
3462	0.0030031
3474	0.00258161
3486	0.00258161
3498	0.00468905
3510	0.00368802
3522	0.00537397
3534	0.00289773
3546	0.00221281
3558	0.00342459
3570	0.00147521
3582	0.00310847
3594	0.00279236
3606	0.00231818
3618	0.00389876
3630	0.00237087
3642	0.00289773
3654	0.00347728
3666	0.00352996
3678	0.00505786
3690	0.00421488
3702	0.00405682
3714	0.00405682
3726	0.00258161
3738	0.00521591
3750	0.00331922
3762	0.00316116
3774	0.00426757
3786	0.0030031
3798	0.00410951
3810	0.00432025
3822	0.00331922
3834	0.0052686
3846	0.0033719
3858	0.00537397
3870	0.00484711
3882	0.00405682
3894	0.00632232
3906	0.00374071
3918	0.00648038
3930	0.00595352
3942	0.004531
3954	0
3966	0.00052686
