Infrared Spectrum: Disulfide, bis(3-methylbutyl)
Formula: C 10 H 22 S 2
CAS: 2051-04-9
Origin: Sadtler Research Labs Under US-EPA Contract
1/CM	ABSORBANCE
450	0.0414629
462	0.0208047
474	0.0162628
486	0.024028
498	0.0181675
510	0.0218303
522	0.0218303
534	0.00879072
546	0.0202187
558	0.0191931
570	0.0187535
582	0.0152372
594	0.0193396
606	0.0181675
618	0.0196326
630	0.0196326
642	0.0221233
654	0.0187535
666	0.0190466
678	0.0175814
690	0.0213908
702	0.024614
714	0.024321
726	0.0269582
738	0.0376536
750	0.0421955
762	0.0288629
774	0.0222698
786	0.018607
798	0.0205117
810	0.0193396
822	0.0205117
834	0.0212442
846	0.0218303
858	0.0326722
870	0.0358954
882	0.0328187
894	0.0257861
906	0.0256396
918	0.0383861
930	0.0320861
942	0.0287164
954	0.0269582
966	0.0210977
978	0.0190466
990	0.018021
1002	0.018607
1014	0.0215373
1026	0.0230024
1038	0.0203652
1050	0.0169954
1062	0.0174349
1074	0.0199256
1086	0.0208047
1098	0.0227094
1110	0.0265187
1122	0.0250536
1134	0.024321
1146	0.0295954
1158	0.0539164
1170	0.0851235
1182	0.0562606
1194	0.0504001
1206	0.0433676
1218	0.0892258
1230	0.0679816
1242	0.0376536
1254	0.0446862
1266	0.0896653
1278	0.11091
1290	0.0694467
1302	0.0638792
1314	0.0527443
1326	0.043221
1338	0.0644653
1350	0.0927421
1362	0.0838049
1374	0.137721
1386	0.145779
1398	0.0952328
1410	0.0540629
1422	0.0688606
1434	0.0873212
1446	0.109591
1458	0.135524
1470	0.188561
1482	0.1071
1494	0.0479094
1506	0.0279838
1518	0.0200721
1530	0.0164093
1542	0.0150907
1554	0.0145047
1566	0.0143582
1578	0.0136256
1590	0.0134791
1602	0.0136256
1614	0.0133326
1626	0.0130396
1638	0.0131861
1650	0.0130396
1662	0.0137721
1674	0.0137721
1686	0.0127465
1698	0.0127465
1710	0.0127465
1722	0.0124535
1734	0.0115744
1746	0.0112814
1758	0.0109884
1770	0.00996282
1782	0.00923026
1794	0.00908374
1806	0.00864421
1818	0.00923026
1830	0.0084977
1842	0.00879072
1854	0.00864421
1866	0.0084977
1878	0.00791165
1890	0.00791165
1902	0.00776514
1914	0.00761862
1926	0.00703258
1938	0.00717909
1950	0.00703258
1962	0.00659304
1974	0.00673955
1986	0.00659304
1998	0.00630002
2010	0.00673955
2022	0.00717909
2034	0.00835118
2046	0.0084977
2058	0.00747211
2070	0.00805816
2082	0.00761862
2094	0.00600699
2106	0.00586048
2118	0.0061535
2130	0.00600699
2142	0.00586048
2154	0.00586048
2166	0.00571397
2178	0.0048349
2190	0.00498141
2202	0.00468838
2214	0.00454187
2226	0.00468838
2238	0.00454187
2250	0.00527443
2262	0.00498141
2274	0.00586048
2286	0.0073256
2298	0.00966979
2310	0.0104024
2322	0.00864421
2334	0.00556746
2346	0.00512792
2358	0.00498141
2370	0.00146512
2382	0.00527443
2394	0.00293024
2406	0.00293024
2418	0.00322326
2430	0.00263722
2442	0.00263722
2454	0.0036628
2466	0.0036628
2478	0.00351629
2490	0.00293024
2502	0.00263722
2514	0.00234419
2526	0.00175814
2538	0.00175814
2550	0.00175814
2562	0.00146512
2574	0.00278373
2586	0.00410234
2598	0.00439536
2610	0.00395582
2622	0.0048349
2634	0.00717909
2646	0.00791165
2658	0.00659304
2670	0.00717909
2682	0.00703258
2694	0.00791165
2706	0.00952328
2718	0.012014
2730	0.018021
2742	0.0189
2754	0.0168489
2766	0.0175814
2778	0.0178745
2790	0.0216838
2802	0.0279838
2814	0.0383861
2826	0.0533304
2838	0.0739886
2850	0.132447
2862	0.171859
2874	0.307968
2886	0.443345
2898	0.369064
2910	0.501657
2922	0.584436
2934	0.647437
2946	0.639964
2958	0.942219
2970	1.38703
2982	0.365401
2994	0.121458
3006	0.0525978
3018	0.0316466
3030	0.0224163
3042	0.0178745
3054	0.0167024
3066	0.0165559
3078	0.0165559
3090	0.0147977
3102	0.0130396
3114	0.012014
3126	0.0115744
3138	0.0121605
3150	0.011721
3162	0.0130396
3174	0.0149442
3186	0.0139186
3198	0.0130396
3210	0.012307
3222	0.00820467
3234	0.00703258
3246	0.00688606
3258	0.00893723
3270	0.00761862
3282	0.0061535
3294	0.00527443
3306	0.00659304
3318	0.00717909
3330	0.00688606
3342	0.0104024
3354	0.00761862
3366	0.0073256
3378	0.00835118
3390	0.00717909
3402	0.00791165
3414	0.00717909
3426	0.00703258
3438	0.00717909
3450	0.00600699
3462	0.00586048
3474	0.0061535
3486	0.00571397
3498	0.00512792
3510	0.00571397
3522	0.00512792
3534	0.00630002
3546	0.00512792
3558	0.00659304
3570	0.00600699
3582	0.00454187
3594	0.00263722
3606	0.00454187
3618	0.0036628
3630	0.00161163
3642	0.00424885
3654	0.00512792
3666	0.00307675
3678	0.00307675
3690	0.0061535
3702	0.00395582
3714	0.00219768
3726	0.00263722
3738	0.00205117
3750	0.00263722
3762	0.00336978
3774	0.0036628
3786	0.00395582
3798	0.00556746
3810	0.00556746
3822	0.00644653
3834	0.00600699
3846	0.00717909
3858	0.00380931
3870	0.00512792
3882	0.00322326
3894	0.00454187
3906	0.00512792
3918	0.00556746
3930	0.00424885
3942	0.00586048
3954	0.00586048
3966	0.00644653
