Infrared Spectrum: 4-Decanol
Formula: C 10 H 22 O
CAS: 2051-31-2
Origin: Sadtler Research Labs Under US-EPA Contract
1/CM	ABSORBANCE
450	0.0676958
462	0.0137263
474	0.0126345
486	0.0113866
498	0.0124785
510	0.0126345
522	0.0101388
534	0.00951484
546	0.00857895
558	0.0101388
570	0.00670718
582	0.00545934
594	0.0102947
606	0.00826699
618	0.00889092
630	0.00842297
642	0.00935886
654	0.00623924
666	0.00701915
678	0.00779905
690	0.00826699
702	0.0129464
714	0.0201215
726	0.0265168
738	0.0269847
750	0.0276086
762	0.0212134
774	0.0184058
786	0.0154421
798	0.016378
810	0.0173139
822	0.0215254
834	0.032756
846	0.0461704
858	0.0400871
870	0.0343158
882	0.0338479
894	0.0394632
906	0.0439866
918	0.0388393
930	0.0340039
942	0.0341598
954	0.0424268
966	0.0606766
978	0.0825139
990	0.110279
1002	0.107315
1014	0.121821
1026	0.134924
1038	0.105131
1050	0.0896891
1062	0.101076
1074	0.098892
1086	0.0915608
1098	0.0945245
1110	0.0967082
1122	0.105755
1134	0.118078
1146	0.0885972
1158	0.0533455
1170	0.0481981
1182	0.0558412
1194	0.0633283
1206	0.0744029
1218	0.0786144
1230	0.0775226
1242	0.0781465
1254	0.0803302
1266	0.082358
1278	0.0770546
1290	0.0648881
1302	0.0581809
1314	0.0525656
1326	0.0511618
1338	0.0620804
1350	0.0762747
1362	0.0932766
1374	0.121197
1386	0.142879
1398	0.0978001
1410	0.0630163
1422	0.0463264
1434	0.0592728
1446	0.0932766
1458	0.155357
1470	0.168615
1482	0.0726871
1494	0.0287005
1506	0.0187177
1518	0.0134144
1530	0.0109187
1542	0.0090469
1554	0.00779905
1566	0.00530335
1578	0.00733111
1590	0.00483541
1602	0.00358756
1614	0.00499139
1626	0.00311962
1638	0.00421149
1650	0.00202775
1662	0.00202775
1674	0.0024957
1686	0.00530335
1698	0.0032756
1710	0.0024957
1722	0.00358756
1734	0.00358756
1746	0.00202775
1758	0.00140383
1770	0.000467943
1782	0.00140383
1794	0.000623924
1806	0.000467943
1818	0.000467943
1830	0.000155981
1842	0.00109187
1854	0.000155981
1866	0.000155981
1878	0.000779905
1890	0.000623924
1902	0.000779905
1914	0.000623924
1926	0.000935886
1938	0.000779905
1950	0.000155981
1962	0.000155981
1974	0.000155981
1986	0.000311962
1998	0.000155981
2010	0.000155981
2022	0.000623924
2034	0.000935886
2046	0.00171579
2058	0.00124785
2070	0.000779905
2082	0.000623924
2094	0.000311962
2106	0.000935886
2118	0.00109187
2130	0.000467943
2142	0.000467943
2154	0.000779905
2166	0.000935886
2178	0.000935886
2190	0.00155981
2202	0.00124785
2214	0.00140383
2226	0.00124785
2238	0.00155981
2250	0.00171579
2262	0.00171579
2274	0.00233972
2286	0.00233972
2298	0.00265168
2310	0.00202775
2322	0.00155981
2334	0.00311962
2346	0.00514737
2358	0.000623924
2370	0.00857895
2382	0.00748709
2394	0.00483541
2406	0.00483541
2418	0.00499139
2430	0.00530335
2442	0.00499139
2454	0.00483541
2466	0.00467943
2478	0.00483541
2490	0.00514737
2502	0.00545934
2514	0.00623924
2526	0.0065512
2538	0.00795503
2550	0.00811101
2562	0.00857895
2574	0.00967082
2586	0.0106067
2598	0.0116986
2610	0.0127904
2622	0.0135703
2634	0.0157541
2646	0.0171579
2658	0.0198096
2670	0.0226172
2682	0.0233971
2694	0.0230852
2706	0.0221493
2718	0.0233971
2730	0.024645
2742	0.0296364
2754	0.0294804
2766	0.0290125
2778	0.0321321
2790	0.0377474
2802	0.0463264
2814	0.0592728
2826	0.0795503
2838	0.126033
2850	0.262828
2862	0.528776
2874	0.629383
2886	0.601307
2898	0.440178
2910	0.598499
2922	0.983616
2934	1.53719
2946	1.26173
2958	0.811413
2970	1.13492
2982	0.441426
2994	0.154577
3006	0.0923408
3018	0.0645761
3030	0.0505378
3042	0.0403991
3054	0.0313522
3066	0.0255809
3078	0.0221493
3090	0.0196536
3102	0.0180938
3114	0.0157541
3126	0.0140383
3138	0.0131024
3150	0.0132584
3162	0.0131024
3174	0.0120105
3186	0.0118546
3198	0.0127904
3210	0.00951484
3222	0.00701915
3234	0.0065512
3246	0.0057713
3258	0.00608326
3270	0.00421149
3282	0.00343158
3294	0.00296364
3306	0.00311962
3318	0.00343158
3330	0.00280766
3342	0.00296364
3354	0.00109187
3366	0.00358756
3378	0.00218373
3390	0.0024957
3402	0.00389953
3414	0.00452345
3426	0.00608326
3438	0.00467943
3450	0.00467943
3462	0.00405551
3474	0.00530335
3486	0.00296364
3498	0.00499139
3510	0.00421149
3522	0.00405551
3534	0.00421149
3546	0.00265168
3558	0.00483541
3570	0.00467943
3582	0.00467943
3594	0.00483541
3606	0.00701915
3618	0.0131024
3630	0.024489
3642	0.0355637
3654	0.0712833
3666	0.0527216
3678	0.0213694
3690	0.0126345
3702	0.0115426
3714	0.00686316
3726	0.00483541
3738	0.00779905
3750	0.0101388
3762	0.00842297
3774	0.00717513
3786	0.00826699
3798	0.00592728
3810	0.00779905
3822	0.00811101
3834	0.00811101
3846	0.00920288
3858	0.0121665
3870	0.00717513
3882	0.00748709
3894	0.0101388
3906	0.00436747
3918	0.00811101
3930	0.00608326
3942	0.00717513
3954	0.00733111
3966	0.00311962
