Infrared Spectrum: Acenaphthylene, 5-bromo-1,2-dihydro-
Formula: C 12 H 9 Br
CAS: 2051-98-1
Origin: Sadtler Research Labs Under US-EPA Contract
1/CM	ABSORBANCE
450	0.0055054
462	0.00575243
474	0.0239979
486	0.00419963
498	0.00384672
510	0.0244567
522	0.0216687
534	0.00476429
546	0.00141164
558	0.00395259
570	0.00635238
582	0.00624651
594	0.00592889
606	0.00808164
618	0.00698762
630	0.0100579
642	0.0253389
654	0.0121401
666	0.00247037
678	0.0115402
690	0.0298562
702	0.0460548
714	0.0115754
726	0.0158809
738	0.0204335
750	0.0737229
762	0.196712
774	0.190571
786	0.080887
798	0.0375143
810	0.117166
822	0.155739
834	0.182878
846	0.110637
858	0.075064
870	0.0244214
882	0.016975
894	0.0152104
906	0.00808164
918	0.00652883
930	0.00395259
942	0.00345852
954	0.00324677
966	0.00596418
978	0.00522307
990	0.0116107
1002	0.0334559
1014	0.0545952
1026	0.0699468
1038	0.0215628
1050	0.0183513
1062	0.0682881
1074	0.155033
1086	0.0278093
1098	0.0259036
1110	0.0505367
1122	0.0132341
1134	0.00321148
1146	0.000811693
1158	0.0141517
1170	0.0207864
1182	0.00758756
1194	0.0203982
1206	0.0404788
1218	0.0313737
1230	0.0237508
1242	0.0775343
1254	0.00561127
1266	0.0153163
1278	0.012246
1290	0.000917566
1302	0.00455254
1314	0.00444667
1326	0.0204335
1338	0.0386436
1350	0.0756992
1362	0.195653
1374	0.0669117
1386	0.0577361
1398	0.0827927
1410	0.0395965
1422	0.092286
1434	0.0385731
1446	0.0257271
1458	0.0341264
1470	0.0311267
1482	0.036385
1494	0.0581243
1506	0.0126342
1518	0.00395259
1530	0.00575243
1542	0.0055054
1554	0.00617592
1566	0.00779931
1578	0.0266447
1590	0.0706879
1602	0.101426
1614	0.0576302
1626	0.0295386
1638	0.0173632
1650	0.0151398
1662	0.00928153
1674	0.00165868
1686	0.000423492
1698	0.00338794
1710	0.00698762
1722	0.00719936
1734	0.00607005
1746	0.0161986
1758	0.00769344
1770	0.0160221
1782	0.0125283
1794	0.00472899
1806	0.00811693
1818	0.00924624
1830	0.011152
1842	0.0300679
1854	0.0293268
1866	0.00652883
1878	0.00539952
1890	0.00691704
1902	0.00561127
1914	0.0094227
1926	0.0190571
1938	0.00836397
1950	0.00282328
1962	0.00261153
1974	0.00271741
1986	0.00204688
1998	0.00247037
2010	0.0027527
2022	0.00268212
2034	0.00268212
2046	0.00292915
2058	0.00317619
2070	0.00299973
2082	0.00239979
2094	0.00229391
2106	0.00190571
2118	0.00201159
2130	0.00225862
2142	0.00218804
2154	0.00296444
2166	0.0027527
2178	0.00328206
2190	0.00254095
2202	0.00299973
2214	0.0031409
2226	0.00289386
2238	0.00264682
2250	0.00225862
2262	0.00317619
2274	0.00419963
2286	0.00437608
2298	0.0046937
2310	0.00543481
2322	0.00568185
2334	0.00543481
2346	0.0058936
2358	0.00465841
2370	0.00405846
2382	0.00349381
2394	0.00208217
2406	0.00317619
2418	0.00388201
2430	0.00434079
2442	0.00349381
2454	0.0019763
2466	0.00211746
2478	0.00144693
2490	0.00211746
2502	0.00151751
2514	0.00102344
2526	0.00123518
2538	0.00169397
2550	0.00127048
2562	0.00112931
2574	0.00130577
2586	0.00148222
2598	0.00183513
2610	0.00148222
2622	0.00127048
2634	0.00144693
2646	0.00130577
2658	0.00137635
2670	0.0019763
2682	0.00141164
2694	0.000776402
2706	0.000846984
2718	0.000635238
2730	0.00134106
2742	0.00123518
2754	0.00148222
2766	0.000917566
2778	0.00162339
2790	0.00299973
2802	0.00395259
2814	0.0070582
2826	0.00959915
2838	0.0143987
2850	0.0639473
2862	0.05276
2874	0.0271741
2886	0.0284798
2898	0.0592889
2910	0.0425962
2922	0.0710408
2934	0.252648
2946	0.314972
2958	0.15041
2970	0.0197983
2982	0.00779931
2994	0.00476429
3006	0.00917566
3018	0.0278446
3030	0.0799341
3042	0.157257
3054	0.130012
3066	0.097262
3078	0.118013
3090	0.0662059
3102	0.0278093
3114	0.00695233
3126	0.00127048
3138	0.000458783
3150	0.00112931
3162	0.00239979
3174	0.00254095
3186	0.001941
3198	0.00190571
3210	0.00257624
3222	0.00179984
3234	0.00232921
3246	0.00179984
3258	0.00137635
3270	0.000917566
3282	0.00127048
3294	0.00215275
3306	0.00165868
3318	0.00211746
3330	0.00264682
3342	0.00268212
3354	0.00299973
3366	0.00331735
3378	0.00356439
3390	0.00395259
3402	0.00532894
3414	0.00395259
3426	0.00427021
3438	0.00409376
3450	0.00490545
3462	0.00522307
3474	0.00441137
3486	0.00564656
3498	0.00518778
3510	0.0058936
3522	0.00631709
3534	0.00621122
3546	0.00808164
3558	0.00772873
3570	0.00779931
3582	0.00617592
3594	0.0058936
3606	0.00603476
3618	0.00455254
3630	0.00554069
3642	0.00642296
3654	0.00631709
3666	0.00462312
3678	0.0050819
3690	0.0058936
3702	0.00525836
3714	0.00649354
3726	0.0070582
3738	0.00695233
3750	0.00568185
3762	0.00677587
3774	0.00543481
3786	0.00564656
3798	0.00614063
3810	0.00656413
3822	0.00539952
3834	0.00716407
3846	0.0089992
3858	0.00818751
3870	0.00804635
3882	0.00818751
3894	0.00730524
3906	0.00882275
3918	0.00917566
3930	0.0082228
3942	0.00977561
3954	0.00670529
3966	0.00846984
