Infrared Spectrum: Hydantoin, 5,5-dimethyl-2,4-dithio-
Formula: C 5 H 8 N 2 S 2
CAS: 20513-25-1
Origin: Sadtler Research Labs Under US-EPA Contract
1/CM	ABSORBANCE
450	0.0194567
462	0.016433
474	0.0145925
486	0.0231377
498	0.0123576
510	0.00854516
522	0.00828223
534	0.0148554
546	0.0266872
558	0.0378616
570	0.0248467
582	0.0136723
594	0.0135408
606	0.0178791
618	0.0460124
630	0.101622
642	0.102279
654	0.0466697
666	0.0247152
678	0.022086
690	0.0205084
702	0.00631027
714	0.00907102
726	0.00670466
738	0.00420685
750	0.00499563
762	0.00499563
774	0.00341806
786	0.00157757
798	0.00249782
810	0.00565295
822	0.00867662
834	0.0119632
846	0.014724
858	0.0141981
870	0.01078
882	0.0155128
894	0.0310255
906	0.0295794
918	0.0182735
930	0.0130149
942	0.0111744
954	0.0131464
966	0.0306311
978	0.0377302
990	0.0190623
1002	0.0182735
1014	0.0193252
1026	0.0173532
1038	0.0214286
1050	0.0331289
1062	0.0407538
1074	0.0545576
1086	0.153156
1098	0.401097
1110	0.53164
1122	0.465645
1134	0.139615
1146	0.0690186
1158	0.0496934
1170	0.056661
1182	0.0571868
1194	0.0632342
1206	0.0712535
1218	0.103857
1230	0.203769
1242	0.207582
1254	0.112139
1266	0.115688
1278	0.169589
1290	0.137117
1302	0.0690186
1314	0.0560037
1326	0.0819021
1338	0.106223
1350	0.0671781
1362	0.0759862
1374	0.110956
1386	0.279492
1398	0.497854
1410	0.477609
1422	0.142507
1434	0.0936024
1446	0.115425
1458	0.280544
1470	0.2766
1482	0.380588
1494	1.1486
1506	1.09864
1518	0.240316
1530	0.114768
1542	0.0859775
1554	0.0840055
1566	0.0850572
1578	0.0539002
1590	0.0343121
1602	0.0261613
1614	0.0206398
1626	0.0141981
1638	0.0135408
1650	0.0134093
1662	0.0123576
1674	0.0143296
1686	0.0131464
1698	0.0149869
1710	0.0138037
1722	0.0130149
1734	0.0145925
1746	0.012752
1758	0.0115688
1770	0.0145925
1782	0.014724
1794	0.0098598
1806	0.00565295
1818	0.00368099
1830	0.00394392
1842	0.00420685
1854	0.0032866
1866	0.00210342
1878	0.00131464
1890	0.00170903
1902	0.00197196
1914	0.00197196
1926	0.00249782
1938	0.00368099
1950	0.00433831
1962	0.00420685
1974	0.0051271
1986	0.00617881
1998	0.00893955
2010	0.00828223
2022	0.00486417
2034	0.00289221
2046	0.00315514
2058	0.00381246
2070	0.00394392
2082	0.00381246
2094	0.00289221
2106	0.00118318
2118	0.000394392
2130	0.000131464
2142	0
2154	0
2166	0.000394392
2178	0.000920248
2190	0.00131464
2202	0.00197196
2214	0.00197196
2226	0.0014461
2238	0.00157757
2250	0.00223489
2262	0.0018405
2274	0.00210342
2286	0.00262928
2298	0.00460124
2310	0.00499563
2322	0.00420685
2334	0.00354953
2346	0.00486417
2358	0.00420685
2370	0.00341806
2382	0.00486417
2394	0.00315514
2406	0.00315514
2418	0.00289221
2430	0.00394392
2442	0.00486417
2454	0.00525856
2466	0.00433831
2478	0.00486417
2490	0.00578442
2502	0.00631027
2514	0.0047327
2526	0.00420685
2538	0.00381246
2550	0.00368099
2562	0.00394392
2574	0.00433831
2586	0.00420685
2598	0.00499563
2610	0.00644174
2622	0.00749345
2634	0.00736198
2646	0.00617881
2658	0.00565295
2670	0.00539002
2682	0.00486417
2694	0.00525856
2706	0.00565295
2718	0.00670466
2730	0.00854516
2742	0.0080193
2754	0.00670466
2766	0.00683613
2778	0.00696759
2790	0.00736198
2802	0.00749345
2814	0.0080193
2826	0.00880809
2838	0.00946541
2850	0.0114374
2862	0.0161701
2874	0.0206398
2886	0.0203769
2898	0.0215601
2910	0.0269501
2922	0.0352324
2934	0.0490361
2946	0.0440404
2958	0.0268187
2970	0.0370728
2982	0.0770379
2994	0.0770379
3006	0.032866
3018	0.0156442
3030	0.0148554
3042	0.014724
3054	0.0151184
3066	0.0161701
3078	0.0165645
3090	0.0173532
3102	0.0190623
3114	0.0203769
3126	0.0219545
3138	0.0226118
3150	0.0244523
3162	0.0256355
3174	0.0266872
3186	0.0276074
3198	0.0282648
3210	0.0289221
3222	0.0282648
3234	0.0268187
3246	0.0264243
3258	0.0253726
3270	0.0243208
3282	0.0239264
3294	0.0226118
3306	0.021823
3318	0.0210342
3330	0.0203769
3342	0.0187994
3354	0.0174847
3366	0.0163015
3378	0.014724
3390	0.0131464
3402	0.0118318
3414	0.0114374
3426	0.0134093
3438	0.0276074
3450	0.0855831
3462	0.155653
3474	0.111613
3486	0.0591588
3498	0.0187994
3510	0.00368099
3522	0.00289221
3534	0.00223489
3546	0.00262928
3558	0.00276074
3570	0.00407538
3582	0.00433831
3594	0.00236635
3606	0.00276074
3618	0.00262928
3630	0.0032866
3642	0.00170903
3654	0.00249782
3666	0.00276074
3678	0.00262928
3690	0.00210342
3702	0.00236635
3714	0.00236635
3726	0.00394392
3738	0.00394392
3750	0.00276074
3762	0.00249782
3774	0.00433831
3786	0.0032866
3798	0.00381246
3810	0.00341806
3822	0.00354953
3834	0.00381246
3846	0.00407538
3858	0.00433831
3870	0.00407538
3882	0.00486417
3894	0.00368099
3906	0.00499563
3918	0.00446978
3930	0.00565295
3942	0.0047327
3954	0.00499563
3966	0.00631027
