Infrared Spectrum: 1,1'-Biphenyl, 4-chloro-
Formula: C 12 H 9 Cl
CAS: 2051-62-9
Origin: Sadtler Research Labs Under US-EPA Contract
1/CM	ABSORBANCE
450	0
462	0.0410579
474	0.154551
486	0.108653
498	0.106706
510	0.0894595
522	0.0488467
534	0.0660376
546	0.065203
558	0.0435614
570	0.034048
582	0.0303205
594	0.0401677
606	0.037553
618	0.0334917
630	0.0382206
642	0.0346043
654	0.0362177
666	0.0582488
678	0.0738263
690	0.163063
702	0.215637
714	0.108041
726	0.0657594
738	0.0934095
750	0.218586
762	0.425378
774	0.129071
786	0.0544101
798	0.0436171
810	0.0668164
822	0.151046
834	0.219866
846	0.0871785
858	0.0403346
870	0.0352163
882	0.0385544
894	0.0382206
906	0.0359396
918	0.0332135
930	0.0309325
942	0.0299867
954	0.0331022
966	0.0308769
978	0.028874
990	0.0412804
1002	0.125232
1014	0.219866
1026	0.0746052
1038	0.060196
1050	0.043172
1062	0.0456755
1074	0.0763298
1086	0.182424
1098	0.554115
1110	0.0480678
1122	0.0435058
1134	0.0505713
1146	0.0488467
1158	0.0393332
1170	0.0312107
1182	0.0364959
1194	0.0325459
1206	0.0300424
1218	0.0382206
1230	0.0411135
1242	0.0327128
1254	0.0310438
1266	0.0278726
1278	0.0293748
1290	0.0318226
1302	0.0328797
1314	0.0351607
1326	0.0366072
1338	0.0374417
1350	0.0364403
1362	0.0364959
1374	0.0380537
1386	0.0471776
1398	0.0600847
1410	0.0470107
1422	0.0376642
1434	0.0480678
1446	0.074327
1458	0.0718235
1470	0.221646
1482	0.55634
1494	0.219866
1506	0.111657
1518	0.0475671
1530	0.0397227
1542	0.0451748
1554	0.0379424
1566	0.0428938
1578	0.0442847
1590	0.0520178
1602	0.112047
1614	0.0581375
1626	0.0297642
1638	0.0389994
1650	0.0486241
1662	0.0429494
1674	0.0395001
1686	0.0321008
1698	0.0319339
1710	0.029486
1722	0.0318783
1734	0.0364403
1746	0.0376086
1758	0.0386656
1770	0.0436727
1782	0.0374417
1794	0.0427825
1806	0.0372748
1818	0.0339367
1830	0.0308212
1842	0.029486
1854	0.0326572
1866	0.036941
1878	0.0418924
1890	0.0548551
1902	0.0450635
1914	0.0338811
1926	0.0335473
1938	0.0382762
1950	0.040279
1962	0.039222
1974	0.0285959
1986	0.0283177
1998	0.0282621
2010	0.0276501
2022	0.0277614
2034	0.0279283
2046	0.0275388
2058	0.0274276
2070	0.0273163
2082	0.0277057
2094	0.0273719
2106	0.0274832
2118	0.0270381
2130	0.0269269
2142	0.027205
2154	0.0270938
2166	0.0273719
2178	0.0270938
2190	0.0269269
2202	0.0270938
2214	0.0270938
2226	0.0275945
2238	0.0274276
2250	0.0279283
2262	0.028429
2274	0.0284846
2286	0.0290409
2298	0.0283733
2310	0.0289297
2322	0.0301536
2334	0.0289297
2346	0.0298198
2358	0.0305987
2370	0.0294304
2382	0.028429
2394	0.0279839
2406	0.0280395
2418	0.0273163
2430	0.0277614
2442	0.0268712
2454	0.0269825
2466	0.0264818
2478	0.0263705
2490	0.0272607
2502	0.0279283
2514	0.0277057
2526	0.0273719
2538	0.0276501
2550	0.0280395
2562	0.0279839
2574	0.0286515
2586	0.0292635
2598	0.0293748
2610	0.0299867
2622	0.0286515
2634	0.0280395
2646	0.0274276
2658	0.027817
2670	0.0276501
2682	0.0279283
2694	0.0283177
2706	0.0273163
2718	0.0269825
2730	0.0272607
2742	0.0269825
2754	0.0274832
2766	0.0278726
2778	0.0282621
2790	0.0279283
2802	0.0284846
2814	0.0287071
2826	0.0280952
2838	0.0280395
2850	0.0295417
2862	0.0303205
2874	0.0314888
2886	0.0310994
2898	0.0303762
2910	0.0290966
2922	0.0284846
2934	0.0293191
2946	0.0299311
2958	0.0308212
2970	0.0315445
2982	0.033436
2994	0.0347713
3006	0.0393332
3018	0.0546326
3030	0.121505
3042	0.182591
3054	0.10576
3066	0.184149
3078	0.201729
3090	0.146985
3102	0.105705
3114	0.0640904
3126	0.0387769
3138	0.0347156
3150	0.0328241
3162	0.0309325
3174	0.0293748
3186	0.0284846
3198	0.0277614
3210	0.0281508
3222	0.0273163
3234	0.0275388
3246	0.028429
3258	0.0277614
3270	0.0280395
3282	0.0273719
3294	0.027817
3306	0.0274832
3318	0.0273163
3330	0.0282621
3342	0.0269269
3354	0.0274276
3366	0.0273163
3378	0.0271494
3390	0.0284846
3402	0.0264818
3414	0.0264818
3426	0.0282621
3438	0.027205
3450	0.0276501
3462	0.0270938
3474	0.0268156
3486	0.0280952
3498	0.0270381
3510	0.0279839
3522	0.0274832
3534	0.0283177
3546	0.0274832
3558	0.0278726
3570	0.0282621
3582	0.0277057
3594	0.0282621
3606	0.0283177
3618	0.0280395
3630	0.0294304
3642	0.0288184
3654	0.0298755
3666	0.0303205
3678	0.0292635
3690	0.0294304
3702	0.0320452
3714	0.0302093
3726	0.0319895
3738	0.0312107
3750	0.0291522
3762	0.0298198
3774	0.0279283
3786	0.028874
3798	0.0298755
3810	0.0298198
3822	0.0303762
3834	0.0304318
3846	0.0280952
3858	0.0307656
3870	0.0321008
3882	0.0281508
3894	0.0309325
3906	0.0313219
3918	0.0279283
3930	0.0310994
3942	0.030098
3954	0.0314888
3966	0.0295973
