Infrared Spectrum: Pentyl sulfite
Formula: C 10 H 22 O 3 S
CAS: 2051-05-0
Origin: Sadtler Research Labs Under US-EPA Contract
1/CM	ABSORBANCE
450	0.000152722
462	0.00481074
474	0.00595616
486	0.0103087
498	0.0135923
510	0.0132105
522	0.00656705
534	0.00381805
546	0.00244355
558	0.00076361
570	0.00122178
582	0.0134395
594	0.0243592
606	0.0164176
618	0.0117596
630	0.0128286
642	0.0193193
654	0.0454348
666	0.0929313
678	0.219309
690	0.376689
702	0.481914
714	0.409982
726	0.305139
738	0.271998
750	0.229312
762	0.164482
774	0.144628
786	0.163642
798	0.169827
810	0.113396
822	0.0558199
834	0.0436785
846	0.0548272
858	0.0558199
870	0.0985057
882	0.274594
894	0.466489
906	0.313462
918	0.190597
930	0.149973
942	0.258482
954	0.608368
966	0.513299
978	0.380201
990	0.296662
1002	0.173492
1014	0.140581
1026	0.156235
1038	0.187466
1050	0.137297
1062	0.0662813
1074	0.0717793
1086	0.0390205
1098	0.0224501
1110	0.0189375
1122	0.0225265
1134	0.0197775
1146	0.0180976
1158	0.0190902
1170	0.0244355
1182	0.0432967
1194	0.125461
1206	0.311706
1218	0.270089
1230	0.290935
1242	0.176318
1254	0.0547508
1266	0.0268791
1278	0.0232901
1290	0.0216102
1302	0.0200829
1314	0.017563
1326	0.020312
1338	0.0325298
1350	0.0407768
1362	0.0447475
1374	0.0859061
1386	0.102553
1398	0.0397077
1410	0.0193193
1422	0.0194721
1434	0.0325298
1446	0.0523836
1458	0.0876624
1470	0.121185
1482	0.0685722
1494	0.0265736
1506	0.0139741
1518	0.00878152
1530	0.00679613
1542	0.00549799
1554	0.00389441
1566	0.00343624
1578	0.00397077
1590	0.00412349
1602	0.00412349
1614	0.00374169
1626	0.00366533
1638	0.00335988
1650	0.00366533
1662	0.00328352
1674	0.00358897
1686	0.00335988
1698	0.00320716
1710	0.00236719
1722	0.00229083
1734	0.00213811
1746	0.00160358
1758	0.00129814
1770	0.000839971
1782	0.00129814
1794	0.000916332
1806	0.00076361
1818	0.00076361
1830	0.000916332
1842	0.00114541
1854	0.00183266
1866	0.00213811
1878	0.00236719
1890	0.00213811
1902	0.00213811
1914	0.00206175
1926	0.00198539
1938	0.00221447
1950	0.00221447
1962	0.00221447
1974	0.00152722
1986	0.000916332
1998	0.000992693
2010	0.00076361
2022	0.000610888
2034	0.00076361
2046	0.000839971
2058	0.000610888
2070	0.000534527
2082	0.000534527
2094	0.000229083
2106	0.000381805
2118	0.000458166
2130	0.000381805
2142	0.000687249
2154	0.000916332
2166	0.000839971
2178	0.000839971
2190	0.000687249
2202	0.000610888
2214	0.000610888
2226	0.000458166
2238	0.00076361
2250	0.000687249
2262	0.000687249
2274	0.000687249
2286	0.000458166
2298	0.000534527
2310	7.6361e-05
2322	0.000534527
2334	0.000687249
2346	0.000687249
2358	0.00145086
2370	0.00198539
2382	0.00229083
2394	0.00251991
2406	0.00290172
2418	0.00259627
2430	0.00213811
2442	0.00244355
2454	0.002749
2466	0.00190902
2478	0.00183266
2490	0.0017563
2502	0.00122178
2514	0.00160358
2526	0.00106905
2538	0.00106905
2550	0.0013745
2562	0.00183266
2574	0.00236719
2586	0.0031308
2598	0.00328352
2610	0.00320716
2622	0.0031308
2634	0.00351261
2646	0.00404713
2658	0.00465802
2670	0.00595616
2682	0.0076361
2694	0.00786518
2706	0.00740702
2718	0.00786518
2730	0.00992693
2742	0.0138977
2754	0.0134395
2766	0.0117596
2778	0.012065
2790	0.0142031
2802	0.0179448
2814	0.0228319
2826	0.0305444
2838	0.0484892
2850	0.0905641
2862	0.177539
2874	0.28559
2886	0.334003
2898	0.254206
2910	0.273678
2922	0.378292
2934	0.548577
2946	0.663348
2958	0.588132
2970	0.76361
2982	0.391656
2994	0.136915
3006	0.0648305
3018	0.0402422
3030	0.0297808
3042	0.021992
3054	0.0162649
3066	0.012905
3078	0.0113778
3090	0.00969785
3102	0.00862879
3114	0.00794154
3126	0.00694885
3138	0.00641432
3150	0.00580344
3162	0.00557435
3174	0.00557435
3186	0.00557435
3198	0.00503983
3210	0.00427622
3222	0.00335988
3234	0.00244355
3246	0.00244355
3258	0.00198539
3270	0.00190902
3282	0.0017563
3294	0.00152722
3306	0.00167994
3318	0.00160358
3330	0.00145086
3342	0.0017563
3354	0.00122178
3366	0.00206175
3378	0.00206175
3390	0.00160358
3402	0.00167994
3414	0.00190902
3426	0.0017563
3438	0.00198539
3450	0.0017563
3462	0.00129814
3474	0.0013745
3486	0.00122178
3498	0.00129814
3510	0.000610888
3522	0.00106905
3534	0.000687249
3546	0.000610888
3558	0.000839971
3570	0.000610888
3582	0.00122178
3594	0.000992693
3606	0.000687249
3618	0.00122178
3630	0.00244355
3642	0.00282536
3654	0.00381805
3666	0.00580344
3678	0.00565071
3690	0.00404713
3702	0.00305444
3714	0.00213811
3726	0.00190902
3738	0.000687249
3750	0.00145086
3762	0.00221447
3774	0.00122178
3786	0.00160358
3798	0.00152722
3810	0.00236719
3822	0.00114541
3834	0.00213811
3846	0.00221447
3858	0.00160358
3870	0.00206175
3882	0.00206175
3894	0.00206175
3906	0.00129814
3918	0.00167994
3930	0.00259627
3942	0.00183266
3954	0.000992693
3966	0.00129814
