Infrared Spectrum: o-Toluidine, 5-isopropyl-
Formula: C 10 H 15 N
CAS: 2051-53-8
Origin: Sadtler Research Labs Under US-EPA Contract
1/CM	ABSORBANCE
450	0.125035
462	0.0522593
474	0.0336828
486	0.0354179
498	0.0208221
510	0.00122483
522	0.0144938
534	0.0204138
546	0.0213324
558	0.0278648
570	0.0155145
582	0.0140855
594	0.0140855
606	0.0261297
618	0.0300083
630	0.0629766
642	0.091658
654	0.115338
666	0.146571
678	0.115848
690	0.0820635
702	0.0657324
714	0.074
726	0.0501159
738	0.0364386
750	0.0144938
762	0.0139835
774	0.0100028
786	0.0403173
798	0.154226
810	0.162596
822	0.0602207
834	0.0237821
846	0.0515448
858	0.109826
870	0.0622621
882	0.0189848
894	0.0101048
906	0.00990069
918	0.0137793
930	0.0267421
942	0.0393986
954	0.0185766
966	0.0110235
978	0.0231697
990	0.0888
1002	0.0809407
1014	0.00643035
1026	0.00275586
1038	0.0130648
1050	0.0533821
1062	0.0550152
1074	0.0285793
1086	0.0304166
1098	0.0320497
1110	0.0285793
1122	0.0176579
1134	0.0138814
1146	0.0218428
1158	0.0261297
1170	0.0183724
1182	0.0285793
1194	0.0152083
1206	0.00939035
1218	0.0155145
1230	0.00867586
1242	0.0268441
1254	0.085738
1266	0.146469
1278	0.159228
1290	0.159534
1302	0.188419
1314	0.10115
1326	0.0698152
1338	0.0782869
1350	0.0920662
1362	0.0938014
1374	0.0760414
1386	0.0793076
1398	0.0548111
1410	0.0795118
1422	0.199137
1434	0.227818
1446	0.156982
1458	0.167393
1470	0.177396
1482	0.140243
1494	0.131057
1506	0.208017
1518	0.327641
1530	0.186174
1542	0.134425
1554	0.125953
1566	0.142795
1578	0.183316
1590	0.175252
1602	0.198422
1614	0.349688
1626	0.566483
1638	0.370613
1650	0.119625
1662	0.0381738
1674	0.0347035
1686	0.0137793
1698	0.0150041
1710	0.0270483
1722	0.0218428
1734	0.00959449
1746	0.0119421
1758	0.00653242
1770	0.00142897
1782	0.0072469
1794	0.00540966
1806	0.00643035
1818	0.00571586
1830	0.00806345
1842	0.00336828
1854	0.0161269
1866	0.0184745
1878	0.00959449
1890	0.00296
1902	0.00438897
1914	0.00244966
1926	0.00540966
1938	0.00500138
1950	0.00255172
1962	0.00244966
1974	0.00367448
1986	0.00357242
1998	0.00193931
2010	0.00214345
2022	0.00244966
2034	0.00285793
2046	0.00296
2058	0.00336828
2070	0.00306207
2082	0.00224552
2094	0.00224552
2106	0.00204138
2118	0.00153104
2130	0.00214345
2142	0.0013269
2154	0.00173517
2166	0.00153104
2178	0.00183724
2190	0.00173517
2202	0.00122483
2214	0.00102069
2226	0.00204138
2238	0.00306207
2250	0.00367448
2262	0.00316414
2274	0.00336828
2286	0.00510345
2298	0.00918621
2310	0.0123503
2322	0.0117379
2334	0.0107172
2346	0.0226593
2358	0.0120441
2370	0.0158207
2382	0.010309
2394	0.00418483
2406	0.00449104
2418	0.00489931
2430	0.00520552
2442	0.00581793
2454	0.00632828
2466	0.00745104
2478	0.00765518
2490	0.00745104
2502	0.00704276
2514	0.00622621
2526	0.00683862
2538	0.00785931
2550	0.00908414
2562	0.0100028
2574	0.0112276
2586	0.0126566
2598	0.0137793
2610	0.0125545
2622	0.0108193
2634	0.0108193
2646	0.0107172
2658	0.0113297
2670	0.01184
2682	0.0124524
2694	0.0128607
2706	0.0148
2718	0.0202097
2730	0.0267421
2742	0.0309269
2754	0.0260276
2766	0.022149
2778	0.0208221
2790	0.0230676
2802	0.0272524
2814	0.0333766
2826	0.0378676
2838	0.0474621
2850	0.0760414
2862	0.161473
2874	0.332949
2886	0.351628
2898	0.312025
2910	0.336215
2922	0.353873
2934	0.461964
2946	0.44696
2958	0.560563
2970	1.02069
2982	0.487686
2994	0.20373
3006	0.21312
3018	0.245782
3030	0.201688
3042	0.137079
3054	0.117992
3066	0.115134
3078	0.0855338
3090	0.0596083
3102	0.0461352
3114	0.0365407
3126	0.0328662
3138	0.0312331
3150	0.0284773
3162	0.02368
3174	0.0229655
3186	0.0241904
3198	0.025211
3210	0.0262317
3222	0.0253131
3234	0.0223531
3246	0.0203117
3258	0.0195972
3270	0.0172497
3282	0.0161269
3294	0.0161269
3306	0.0160248
3318	0.0153104
3330	0.016331
3342	0.0173517
3354	0.0170455
3366	0.0178621
3378	0.0201076
3390	0.0298041
3402	0.0556276
3414	0.0580773
3426	0.0343973
3438	0.0239862
3450	0.0231697
3462	0.0260276
3474	0.0410317
3486	0.075429
3498	0.0689986
3510	0.0421545
3522	0.025211
3534	0.0226593
3546	0.0190869
3558	0.0264359
3570	0.0160248
3582	0.0248028
3594	0.0148
3606	0.0183724
3618	0.0268441
3630	0.010309
3642	0.0234759
3654	0.00540966
3666	0.0170455
3678	0.0366428
3690	0.01184
3702	0.019291
3714	0.0174538
3726	0.0304166
3738	0.0344993
3750	0
3762	0.0283752
3774	0.0235779
3786	0.022251
3798	0.0128607
3810	0.0211283
3822	0.0235779
3834	0.0198014
3846	0.0121462
3858	0.0334786
3870	0.0275586
3882	0.0184745
3894	0.0315393
3906	0.025109
3918	0.0137793
3930	0.0231697
3942	0.0194952
3954	0.016331
3966	0.0179641
