Infrared Spectrum: 1-Hexanol, 5-methyl-2-(1-methylethyl)-
Formula: C 10 H 22 O
CAS: 2051-33-4
Origin: Sadtler Research Labs Under US-EPA Contract
1/CM	ABSORBANCE
450	0.00472598
462	0.0214956
474	0.0231726
486	0.00335392
498	0.0201235
510	0.0192088
522	0.0135681
534	0.0147877
546	0.007775
558	0.0114338
570	0.0163123
582	0.01555
594	0.00990932
606	0.00960441
618	0.0105191
630	0.00792745
642	0.0111289
654	0.00640294
666	0.00868971
678	0.0080799
690	0.0071652
702	0.00945196
714	0.00838481
726	0.0132632
738	0.0111289
750	0.0158549
762	0.0126534
774	0.0137206
786	0.0140255
798	0.013873
810	0.0106716
822	0.0120436
834	0.0152451
846	0.0112814
858	0.012501
870	0.0190564
882	0.0204284
894	0.0214956
906	0.0272887
918	0.035826
930	0.0410093
942	0.0390275
954	0.0477172
966	0.0646392
978	0.0804941
990	0.087202
1002	0.103819
1014	0.140407
1026	0.186295
1038	0.250172
1050	0.26496
1062	0.1555
1074	0.0766829
1086	0.0519858
1098	0.0490892
1110	0.0525956
1122	0.0568642
1134	0.0536628
1146	0.0498515
1158	0.0623525
1170	0.0836956
1182	0.0710422
1194	0.0541201
1206	0.0535103
1218	0.0550348
1230	0.0554922
1242	0.0548824
1254	0.0538152
1266	0.0492417
1278	0.0471074
1290	0.0493941
1302	0.0498515
1314	0.0512235
1326	0.0583887
1338	0.0672309
1350	0.0707373
1362	0.0974162
1374	0.169068
1386	0.178215
1398	0.120284
1410	0.0458878
1422	0.0312525
1434	0.0339966
1446	0.056102
1458	0.121656
1470	0.20337
1482	0.137663
1494	0.0506137
1506	0.0224103
1518	0.0123485
1530	0.00838481
1542	0.00564069
1554	0.00625049
1566	0.00625049
1578	0.00472598
1590	0.00548824
1602	0.00365882
1614	0.00335392
1626	0.00487843
1638	0.00396373
1650	0.00289657
1662	0.00472598
1674	0.00457353
1686	0.00350637
1698	0.00472598
1710	0.00442108
1722	0.00396373
1734	0.00411618
1746	0.00701275
1758	0.00868971
1770	0.0109765
1782	0.00731765
1794	0.00457353
1806	0.00289657
1818	0.00213431
1830	0.00121961
1842	0.00198186
1854	0.00182941
1866	0.000762255
1878	0.00289657
1890	0.000914706
1902	0.00137206
1914	0.00152451
1926	0.00182941
1938	0.00213431
1950	0.00106716
1962	0.00106716
1974	0.00243922
1986	0.00137206
1998	0.00137206
2010	0.00198186
2022	0.00213431
2034	0.00289657
2046	0.00152451
2058	0.00198186
2070	0.00274412
2082	0.00198186
2094	0.00182941
2106	0.00213431
2118	0.00121961
2130	0.000914706
2142	0.000762255
2154	0.000762255
2166	0.000914706
2178	0.000914706
2190	0.00121961
2202	0.000914706
2214	0.000914706
2226	0.00182941
2238	0.00121961
2250	0.00213431
2262	0.00167696
2274	0.00213431
2286	0.00228677
2298	0.00182941
2310	0.00198186
2322	0.00274412
2334	0.00243922
2346	0.00396373
2358	0.00518333
2370	0.00503088
2382	0.00396373
2394	0.00365882
2406	0.00381128
2418	0.00350637
2430	0.00365882
2442	0.00289657
2454	0.00259167
2466	0.00335392
2478	0.00289657
2490	0.00304902
2502	0.00350637
2514	0.00320147
2526	0.00365882
2538	0.00411618
2550	0.00442108
2562	0.00548824
2574	0.00701275
2586	0.00899461
2598	0.0102142
2610	0.0118912
2622	0.012501
2634	0.0129583
2646	0.0128059
2658	0.012501
2670	0.012501
2682	0.0134157
2694	0.0143304
2706	0.0166172
2718	0.0201235
2730	0.0274412
2742	0.029423
2754	0.0272887
2766	0.0292706
2778	0.0318623
2790	0.0349113
2802	0.0390275
2814	0.0471074
2826	0.0599132
2838	0.0817137
2850	0.151841
2862	0.276241
2874	0.497753
2886	0.688469
2898	0.554922
2910	0.602181
2922	0.689536
2934	0.823083
2946	0.807076
2958	1.09048
2970	1.3934
2982	0.474428
2994	0.156872
3006	0.0695177
3018	0.0414667
3030	0.0303377
3042	0.0225627
3054	0.0187515
3066	0.0170745
3078	0.0158549
3090	0.0141779
3102	0.0134157
3114	0.0123485
3126	0.0111289
3138	0.0115863
3150	0.0123485
3162	0.0135681
3174	0.0135681
3186	0.0131108
3198	0.0112814
3210	0.00868971
3222	0.00594559
3234	0.00350637
3246	0.00228677
3258	0.00213431
3270	0.00167696
3282	0.00137206
3294	0.00121961
3306	0.00167696
3318	0.00198186
3330	0.00152451
3342	0.00259167
3354	0.00274412
3366	0.00213431
3378	0.00137206
3390	0.00152451
3402	0.00182941
3414	0.00121961
3426	0.00167696
3438	0.00167696
3450	0.00259167
3462	0.00198186
3474	0.00228677
3486	0.00289657
3498	0.00182941
3510	0.00320147
3522	0.00274412
3534	0.00228677
3546	0.00182941
3558	0.00259167
3570	0.00350637
3582	0.00304902
3594	0.00289657
3606	0.00228677
3618	0.00320147
3630	0.00426863
3642	0.0146353
3654	0.0356735
3666	0.0756157
3678	0.0655539
3690	0.0189039
3702	0.00350637
3714	0.000609804
3726	0.000914706
3738	0
3750	0
3762	0
3774	0
3786	0
3798	0
3810	0
3822	0
3834	0
3846	0
3858	0
3870	0.00121961
3882	0
3894	0.000152451
3906	0.000152451
3918	0
3930	0
3942	0.000914706
3954	0.000609804
3966	0.000762255
