Infrared Spectrum: Butanoic acid, 2-propenyl ester
Formula: C 7 H 12 O 2
CAS: 2051-78-7
Origin: Sadtler Research Labs Under US-EPA Contract
1/CM	ABSORBANCE
450	0.00828208
462	0.00767608
474	0.00161602
486	0.00262603
498	0.00309736
510	0.00760874
522	0.00848408
534	0.00962876
546	0.0129955
558	0.00821475
570	0.0134668
582	0.0234996
594	0.0245769
606	0.0202675
618	0.0243076
630	0.0228936
642	0.0204022
654	0.0171028
666	0.0176415
678	0.0181802
690	0.0163622
702	0.0168335
714	0.0155542
726	0.0183822
738	0.0115814
750	0.0215469
762	0.0174395
774	0.0197289
786	0.0246442
798	0.0238362
810	0.0204022
822	0.0206042
834	0.0243076
846	0.0228262
858	0.0307716
870	0.028617
882	0.0286843
894	0.0354177
906	0.0514432
918	0.0897562
930	0.134937
942	0.0891502
954	0.0520492
966	0.0594559
978	0.112111
990	0.227656
1002	0.188872
1014	0.096557
1026	0.0645733
1038	0.0832248
1050	0.0977016
1062	0.0872649
1074	0.105445
1086	0.159312
1098	0.195269
1110	0.162679
1122	0.116151
1134	0.111236
1146	0.160457
1158	0.3094
1170	0.598599
1182	0.617453
1194	0.37431
1206	0.255331
1218	0.170826
1230	0.166921
1242	0.197356
1254	0.219374
1266	0.18059
1278	0.150559
1290	0.138237
1302	0.134264
1314	0.0869955
1326	0.0588499
1338	0.0781748
1350	0.0947389
1362	0.102752
1374	0.122077
1386	0.0972976
1398	0.0616779
1410	0.0484131
1422	0.0582439
1434	0.06996
1446	0.0742694
1458	0.0849082
1470	0.069152
1482	0.0391884
1494	0.0240382
1506	0.0173048
1518	0.0138035
1530	0.0127261
1542	0.0106388
1554	0.0109754
1566	0.0109754
1578	0.0103021
1590	0.0108408
1602	0.0114468
1614	0.0119181
1626	0.0138035
1638	0.0188535
1650	0.0275396
1662	0.0226242
1674	0.0159582
1686	0.0173048
1698	0.0232976
1710	0.0382457
1722	0.0641693
1734	0.141132
1746	0.389931
1758	0.615567
1770	0.420905
1782	0.152444
1794	0.0720474
1806	0.0397944
1818	0.0233649
1830	0.0166988
1842	0.0154868
1854	0.0160928
1866	0.0165642
1878	0.0129955
1890	0.0103021
1902	0.00942676
1914	0.00834942
1926	0.00902276
1938	0.00781074
1950	0.00848408
1962	0.00962876
1974	0.00861875
1986	0.00841675
1998	0.00760874
2010	0.00787808
2022	0.00733941
2034	0.00834942
2046	0.0071374
2058	0.00747407
2070	0.0071374
2082	0.00659873
2094	0.0065314
2106	0.00612739
2118	0.00552139
2130	0.00538672
2142	0.00491538
2154	0.00491538
2166	0.00457871
2178	0.00424204
2190	0.00471338
2202	0.00417471
2214	0.00397271
2226	0.00397271
2238	0.00390537
2250	0.0037707
2262	0.00410737
2274	0.00464605
2286	0.00417471
2298	0.00417471
2310	0.00410737
2322	0.0037707
2334	0.00518472
2346	0.00437671
2358	0.00329937
2370	0.00585806
2382	0.0029627
2394	0.00215469
2406	0.00262603
2418	0.00343403
2430	0.0031647
2442	0.00262603
2454	0.00235669
2466	0.00175068
2478	0.00175068
2490	0.00127935
2502	0.00114468
2514	0.00154868
2526	0.00168335
2538	0.00181802
2550	0.00134668
2562	0.00141401
2574	0.00134668
2586	0.00168335
2598	0.00127935
2610	0.00114468
2622	0.00161602
2634	0.00161602
2646	0.00148135
2658	0.00188535
2670	0.00215469
2682	0.00269336
2694	0.00222202
2706	0.00215469
2718	0.00235669
2730	0.00383804
2742	0.00437671
2754	0.00558872
2766	0.00505005
2778	0.00437671
2790	0.00491538
2802	0.00720474
2814	0.00902276
2826	0.0102348
2838	0.0128608
2850	0.0179782
2862	0.0249136
2874	0.0498272
2886	0.0948736
2898	0.0864569
2910	0.0700947
2922	0.0839655
2934	0.126049
2946	0.191229
2958	0.205032
2970	0.227522
2982	0.230956
2994	0.133995
3006	0.069152
3018	0.0424878
3030	0.0357544
3042	0.0221529
3054	0.0152175
3066	0.0150828
3078	0.0220856
3090	0.036293
3102	0.0408044
3114	0.0215469
3126	0.00760874
3138	0.00518472
3150	0.00350137
3162	0.00444404
3174	0.00329937
3186	0.00309736
3198	0.00289536
3210	0.00350137
3222	0.00309736
3234	0.00148135
3246	0.00222202
3258	0.00215469
3270	0.00107734
3282	0.00033667
3294	0.00154868
3306	0.00154868
3318	0.00175068
3330	0.00067334
3342	0.00107734
3354	0.00134668
3366	0.00188535
3378	0.00222202
3390	0.00276069
3402	0.00249136
3414	0.00168335
3426	0.00202002
3438	0.00228936
3450	0.00262603
3462	0.00303003
3474	0.00478071
3486	0.00639673
3498	0.00794541
3510	0.00471338
3522	0.00424204
3534	0.00303003
3546	0.0029627
3558	0.00471338
3570	0.00868609
3582	0.0101674
3594	0.00754141
3606	0.00249136
3618	0.00228936
3630	0.00181802
3642	0.00208735
3654	0.00208735
3666	0.00228936
3678	0.00202002
3690	0.00175068
3702	0.000202002
3714	0.00121201
3726	0.000471338
3738	0.000808008
3750	0.000471338
3762	0.000269336
3774	0.000404004
3786	0.000269336
3798	0.000538672
3810	0.000942676
3822	0.000404004
3834	0.000538672
3846	0.000202002
3858	0.000202002
3870	0.000538672
3882	0.000202002
3894	0.000202002
3906	0.000269336
3918	0.00161602
3930	0.00208735
3942	0.00195269
3954	0
3966	0.000202002
