Infrared Spectrum: Benzoic acid, 2-hydroxy-, butyl ester
Formula: C 11 H 14 O 3
CAS: 2052-14-4
Origin: Sadtler Research Labs Under US-EPA Contract
1/CM	ABSORBANCE
450	0
462	0.00761131
474	0.0066292
486	0.0146088
498	0.0211152
510	0.0244298
522	0.0395297
534	0.0570848
546	0.0301997
558	0.0203787
570	0.0153454
582	0.00601539
594	0.0100666
606	0.00957551
618	0.0133812
630	0.0108031
642	0.00699749
654	0.0262713
666	0.0855658
678	0.0623636
690	0.0936682
702	0.194211
714	0.153699
726	0.0716936
738	0.0602766
750	0.244298
762	0.206242
774	0.0386703
786	0.0153454
798	0.0243071
810	0.0266396
822	0.0276217
834	0.0289721
846	0.0321639
858	0.0509466
870	0.037811
882	0.0178006
894	0.00945275
906	0.00871617
918	0.00847065
930	0.0225884
942	0.0526653
954	0.0520515
966	0.0460361
978	0.0223429
990	0.0241843
1002	0.0244298
1014	0.02799
1026	0.0656782
1038	0.0800415
1050	0.0384248
1062	0.0584352
1074	0.150139
1086	0.548137
1098	0.256943
1110	0.124236
1122	0.168063
1134	0.357977
1146	0.237915
1158	0.866338
1170	0.262099
1182	0.254488
1194	0.221464
1206	0.645365
1218	0.717795
1230	0.392105
1242	0.465763
1254	0.785806
1266	0.325936
1278	0.273884
1290	0.447962
1302	1.22763
1314	0.56962
1326	0.475707
1338	0.315746
1350	0.18574
1362	0.129883
1374	0.111101
1386	0.174078
1398	0.274007
1410	0.25682
1422	0.186477
1434	0.105822
1446	0.0952641
1458	0.164993
1470	0.297209
1482	0.406223
1494	0.270938
1506	0.114783
1518	0.0565937
1530	0.0301997
1542	0.0240615
1554	0.0327777
1566	0.0540157
1578	0.121044
1590	0.190774
1602	0.144124
1614	0.293526
1626	0.159715
1638	0.0556116
1650	0.0727985
1662	0.115274
1674	0.265905
1686	0.786543
1698	0.881929
1710	0.253874
1722	0.080287
1734	0.0613815
1746	0.0980876
1758	0.0622408
1770	0.025903
1782	0.013995
1794	0.0116625
1806	0.0182917
1818	0.0135039
1830	0.00945275
1842	0.00822512
1854	0.00576986
1866	0.00601539
1878	0.00552433
1890	0.0066292
1902	0.00797959
1914	0.00945275
1926	0.0176779
1938	0.00982104
1950	0.0137495
1962	0.00589262
1974	0.00441947
1986	0.00417394
1998	0.00466499
2010	0.0042967
2022	0.00441947
2034	0.00589262
2046	0.00576986
2058	0.00601539
2070	0.00589262
2082	0.00540157
2094	0.00540157
2106	0.00613815
2118	0.00613815
2130	0.00638368
2142	0.00589262
2154	0.00613815
2166	0.00589262
2178	0.00576986
2190	0.00552433
2202	0.00478776
2214	0.00503328
2226	0.00540157
2238	0.00552433
2250	0.00589262
2262	0.00552433
2274	0.00613815
2286	0.00675196
2298	0.00724302
2310	0.00675196
2322	0.00724302
2334	0.00761131
2346	0.00699749
2358	0.00883894
2370	0.00712025
2382	0.00773407
2394	0.00834788
2406	0.00761131
2418	0.00748854
2430	0.00822512
2442	0.00797959
2454	0.00761131
2466	0.00785683
2478	0.00748854
2490	0.00773407
2502	0.00834788
2514	0.00785683
2526	0.00810236
2538	0.00932999
2550	0.0101893
2562	0.0099438
2574	0.00945275
2586	0.00945275
2598	0.00945275
2610	0.0105576
2622	0.0120308
2634	0.0123991
2646	0.0112942
2658	0.0103121
2670	0.0101893
2682	0.0108031
2694	0.0128901
2706	0.0135039
2718	0.013995
2730	0.0138722
2742	0.0159592
2754	0.0185372
2766	0.0196421
2778	0.0202559
2790	0.0205014
2802	0.0207469
2814	0.0213608
2826	0.0244298
2838	0.0293404
2850	0.0419849
2862	0.0628547
2874	0.0966145
2886	0.144983
2898	0.119939
2910	0.125955
2922	0.157259
2934	0.193843
2946	0.268237
2958	0.260749
2970	0.411624
2982	0.28125
2994	0.125095
3006	0.0764813
3018	0.0579441
3030	0.0567165
3042	0.0536474
3054	0.0670286
3066	0.0897398
3078	0.0988242
3090	0.0736578
3102	0.0623636
3114	0.0423532
3126	0.035233
3138	0.0346192
3150	0.0370744
3162	0.0432126
3174	0.0536474
3186	0.0644506
3198	0.0809008
3210	0.108277
3222	0.151244
3234	0.194702
3246	0.206978
3258	0.191633
3270	0.16217
3282	0.136512
3294	0.121413
3306	0.107786
3318	0.0962462
3330	0.0877755
3342	0.080287
3354	0.0719391
3366	0.064205
3378	0.0579441
3390	0.0504556
3402	0.0434581
3414	0.0383021
3426	0.0346192
3438	0.0322867
3450	0.0341281
3462	0.0510694
3474	0.070466
3486	0.0491052
3498	0.035724
3510	0.0297086
3522	0.0230794
3534	0.0182917
3546	0.0153454
3558	0.0132584
3570	0.0122763
3582	0.011908
3594	0.0108031
3606	0.00982104
3618	0.0089617
3630	0.00797959
3642	0.00675196
3654	0.00638368
3666	0.0056471
3678	0.00576986
3690	0.00527881
3702	0.00491052
3714	0.00478776
3726	0.00515605
3738	0.00478776
3750	0.0042967
3762	0.00417394
3774	0.00441947
3786	0.00417394
3798	0.0042967
3810	0.00417394
3822	0.00417394
3834	0.0042967
3846	0.0042967
3858	0.00417394
3870	0.00613815
3882	0.00576986
3894	0.00601539
3906	0.00601539
3918	0.00589262
3930	0.00589262
3942	0.00687473
3954	0.00773407
3966	0.00626091
