Infrared Spectrum: Pentanoic acid, 4-oxo-, butyl ester
Formula: C 9 H 16 O 3
CAS: 2052-15-5
Origin: Sadtler Research Labs Under US-EPA Contract
1/CM	ABSORBANCE
450	0.0306474
462	0.0195509
474	0.020872
486	0.023514
498	0.0294585
510	0.0351389
522	0.0266844
534	0.0228535
546	0.0225893
558	0.0289301
570	0.03395
582	0.0277412
594	0.0136064
606	0.00832236
618	0.00779396
630	0.00554824
642	0.00303832
654	0.00396303
666	0.00409513
678	0.00118891
690	0.000660505
702	0.000660505
714	0
726	0.00211362
738	0.0133422
750	0.0262881
762	0.0286659
774	0.0126817
786	0.00924707
798	0.0142669
810	0.0163805
822	0.0203436
834	0.0229856
846	0.0214004
858	0.014399
870	0.0107002
882	0.0141348
894	0.0211362
906	0.0315721
918	0.0414797
930	0.058917
942	0.0878472
954	0.0893003
966	0.0873188
978	0.0671073
990	0.0657863
1002	0.0733161
1014	0.0997363
1026	0.14399
1038	0.11823
1050	0.0871867
1062	0.139895
1074	0.193264
1086	0.106209
1098	0.0725234
1110	0.08111
1122	0.137649
1134	0.232498
1146	0.538708
1158	1.2004
1170	0.743597
1182	0.722857
1194	0.633821
1206	0.71176
1218	0.537915
1230	0.482961
1242	0.426554
1254	0.355616
1266	0.307399
1278	0.286395
1290	0.238839
1302	0.226553
1314	0.23831
1326	0.189697
1338	0.223383
1350	0.371864
1362	0.517308
1374	0.290622
1386	0.194981
1398	0.188904
1410	0.161956
1422	0.200397
1434	0.170939
1446	0.128138
1458	0.124175
1470	0.124968
1482	0.0764865
1494	0.0354031
1506	0.0216646
1518	0.0179657
1530	0.0155879
1542	0.0124175
1554	0.0118891
1566	0.0101718
1578	0.00924707
1590	0.00805816
1602	0.00752976
1614	0.00752976
1626	0.00700135
1638	0.00832236
1650	0.0109644
1662	0.0174373
1674	0.0257597
1686	0.0484811
1698	0.0890361
1710	0.166711
1722	0.344519
1734	0.815856
1746	1.24241
1758	1.1823
1770	0.465788
1782	0.165655
1794	0.0813742
1806	0.0430649
1818	0.0269486
1830	0.0153237
1842	0.00937917
1854	0.00660505
1866	0.00488774
1878	0.00435933
1890	0.00330253
1902	0.00330253
1914	0.00277412
1926	0.00211362
1938	0.00211362
1950	0.00250992
1962	0.00290622
1974	0.00369883
1986	0.00369883
1998	0.00317042
2010	0.00343463
2022	0.00264202
2034	0.00290622
2046	0.00290622
2058	0.00264202
2070	0.00317042
2082	0.00343463
2094	0.00409513
2106	0.00409513
2118	0.00330253
2130	0.00290622
2142	0.00224572
2154	0.00158521
2166	0.00132101
2178	0.00118891
2190	0.000924707
2202	0.000528404
2214	0.000264202
2226	0
2238	0.000264202
2250	0.000132101
2262	0.000396303
2274	0.000792606
2286	0.00132101
2298	0.00250992
2310	0.00343463
2322	0.00184941
2334	0.00184941
2346	0.00330253
2358	0.00198152
2370	0.00383093
2382	0.00396303
2394	0.00224572
2406	0.00171731
2418	0.00171731
2430	0.00145311
2442	0.00105681
2454	0.00105681
2466	0.000660505
2478	0.000792606
2490	0.000924707
2502	0.00132101
2514	0.00158521
2526	0.000924707
2538	0.000660505
2550	0.000528404
2562	0.00105681
2574	0.00158521
2586	0.00171731
2598	0.00198152
2610	0.00211362
2622	0.00184941
2634	0.00224572
2646	0.00237782
2658	0.00317042
2670	0.00422723
2682	0.00462353
2694	0.00475564
2706	0.00528404
2718	0.00581244
2730	0.00660505
2742	0.00898287
2754	0.010436
2766	0.0103039
2778	0.0114928
2790	0.0121533
2802	0.0146632
2814	0.0194188
2826	0.0256276
2838	0.0330252
2850	0.0542935
2862	0.086262
2874	0.142801
2886	0.219023
2898	0.183356
2910	0.230252
2922	0.334348
2934	0.373317
2946	0.459183
2958	0.45522
2970	0.661826
2982	0.41625
2994	0.180186
3006	0.102642
3018	0.0786001
3030	0.0476885
3042	0.0347426
3054	0.0266844
3066	0.0224572
3078	0.0190225
3090	0.01572
3102	0.0126817
3114	0.010436
3126	0.00819026
3138	0.00700135
3150	0.00660505
3162	0.00594454
3174	0.00528404
3186	0.00568034
3198	0.00462353
3210	0.00435933
3222	0.00343463
3234	0.00317042
3246	0.00171731
3258	0.00211362
3270	0.00184941
3282	0.00158521
3294	0.00158521
3306	0.00198152
3318	0.00158521
3330	0.00184941
3342	0.00132101
3354	0.00198152
3366	0.00224572
3378	0.00237782
3390	0.00171731
3402	0.00277412
3414	0.00356673
3426	0.00422723
3438	0.00700135
3450	0.0107002
3462	0.0124175
3474	0.00964337
3486	0.0105681
3498	0.00660505
3510	0.00356673
3522	0.00158521
3534	0
3546	0
3558	0.000792606
3570	0.00396303
3582	0.00568034
3594	0.00171731
3606	0.00105681
3618	0.00145311
3630	0.00145311
3642	0.00132101
3654	0.00184941
3666	0.00237782
3678	0.00277412
3690	0.00277412
3702	0.00158521
3714	0.00118891
3726	0.00105681
3738	0.00171731
3750	0.00132101
3762	0.00224572
3774	0.000924707
3786	0.00145311
3798	0.00171731
3810	0.00118891
3822	0.00132101
3834	0.00184941
3846	0.00264202
3858	0.00132101
3870	0.00264202
3882	0.00132101
3894	0.00158521
3906	0.000396303
3918	0.00211362
3930	0.00132101
3942	0.000528404
3954	0.00105681
3966	0
