Infrared Spectrum: 1-Propene, 1,2,3,3-tetrachloro-
Formula: C 3 H 2 Cl 4
CAS: 20589-85-9
Origin: Sadtler Research Labs Under US-EPA Contract
1/CM	ABSORBANCE
450	0.0268101
462	0.0555818
474	0.0796945
486	0.0539471
498	0.041196
510	0.0277092
522	0.0187997
534	0.0170015
546	0.0553366
558	0.0671886
570	0.0447924
582	0.0822284
594	0.102908
606	0.0205162
618	0.0376812
630	0.0606496
642	0.0742998
654	0.0883588
666	0.0605679
678	0.104543
690	0.0913013
702	0.0871327
714	0.262297
726	0.463863
738	0.447352
750	0.605515
762	0.742263
774	0.584917
786	0.258374
798	0.126203
810	0.33202
822	0.81738
834	0.789998
846	0.193065
858	0.0598322
870	0.046182
882	0.0429124
894	0.163231
906	0.200176
918	0.0539471
930	0.047408
942	0.0281179
954	0.0197806
966	0.0250118
978	0.0228866
990	0.0120155
1002	0.019045
1014	0.0172467
1026	0.0189632
1038	0.0245214
1050	0.0310604
1062	0.0431577
1074	0.120482
1086	0.219712
1098	0.113452
1110	0.0829641
1122	0.115904
1134	0.0670252
1146	0.0279544
1158	0.0250118
1170	0.027464
1182	0.0367821
1194	0.0627748
1206	0.179742
1218	0.184891
1230	0.129718
1242	0.0809206
1254	0.0429942
1266	0.0413594
1278	0.0650634
1290	0.0610583
1302	0.0341665
1314	0.0209249
1326	0.0184728
1338	0.0163476
1350	0.0174919
1362	0.0212519
1374	0.020271
1386	0.015285
1398	0.019045
1410	0.0158572
1422	0.0189632
1434	0.018391
1446	0.0158572
1458	0.0186363
1470	0.0143859
1482	0.0140589
1494	0.0140589
1506	0.0164293
1518	0.0127511
1530	0.0170832
1542	0.0239492
1554	0.0194536
1566	0.0232136
1578	0.0488793
1590	0.108139
1602	0.174756
1614	0.1947
1626	0.138709
1638	0.0838632
1650	0.0330222
1662	0.0241127
1674	0.0210884
1686	0.020598
1698	0.0162659
1710	0.0162659
1722	0.0201075
1734	0.0232953
1746	0.0207615
1758	0.0211701
1770	0.020271
1782	0.0152033
1794	0.0159389
1806	0.00972682
1818	0.00760163
1830	0.0058034
1842	0.00523123
1854	0.0081738
1866	0.00662078
1878	0.00686599
1890	0.00702947
1902	0.0064573
1914	0.00457733
1926	0.00841901
1938	0.00613035
1950	0.00490428
1962	0.00678425
1974	0.00514949
1986	0.0047408
1998	0.00531297
2010	0.00498602
2022	0.00196171
2034	0.00498602
2046	0.00482254
2058	0.00588514
2070	0.00776511
2082	0.00727468
2094	0.00514949
2106	0.00653904
2118	0.00727468
2130	0.0047408
2142	0.00482254
2154	0.00400516
2166	0.00449559
2178	0.00531297
2190	0.00547645
2202	0.00563992
2214	0.00539471
2226	0.00506776
2238	0.00604861
2250	0.00768337
2262	0.00457733
2274	0.00629383
2286	0.0058034
2298	0.00555818
2310	0.00784685
2322	0.0117703
2334	0.00956335
2346	0.00850075
2358	0.012179
2370	0.00997204
2382	0.00915466
2394	0.00531297
2406	0.00735642
2418	0.00776511
2430	0.00907292
2442	0.00841901
2454	0.00825554
2466	0.00899118
2478	0.00539471
2490	0.00768337
2502	0.0101355
2514	0.0081738
2526	0.00604861
2538	0.0058034
2550	0.00563992
2562	0.00711121
2574	0.00743816
2586	0.00604861
2598	0.00662078
2610	0.00465907
2622	0.00563992
2634	0.00768337
2646	0.00727468
2658	0.00335126
2670	0.00694773
2682	0.00678425
2694	0.00629383
2706	0.00792859
2718	0.00694773
2730	0.00490428
2742	0.00604861
2754	0.00923639
2766	0.00686599
2778	0.00997204
2790	0.00931813
2802	0.00776511
2814	0.0107894
2826	0.0110346
2838	0.0112798
2850	0.0113616
2862	0.012179
2874	0.0119337
2886	0.0174102
2898	0.0140589
2910	0.0138955
2922	0.015612
2934	0.0159389
2946	0.0175737
2958	0.0201893
2970	0.0165928
2982	0.0140589
2994	0.0187997
3006	0.0233771
3018	0.0201075
3030	0.0253388
3042	0.012179
3054	0.00915466
3066	0.0210067
3078	0.0438933
3090	0.0634287
3102	0.0811658
3114	0.0241127
3126	0.0122607
3138	0.0151215
3150	0.0134868
3162	0.0103807
3174	0.0108712
3186	0.00899118
3198	0.0088277
3210	0.0125059
3222	0.00899118
3234	0.0106259
3246	0.00972682
3258	0.0125059
3270	0.0143041
3282	0.0158572
3294	0.0113616
3306	0.0127511
3318	0.0120972
3330	0.0104625
3342	0.0161024
3354	0.0127511
3366	0.00899118
3378	0.012179
3390	0.0120155
3402	0.00907292
3414	0.0116885
3426	0.0105442
3438	0.00686599
3450	0.0136502
3462	0.0150398
3474	0.0138137
3486	0.0132416
3498	0.0136502
3510	0.00686599
3522	0.0115251
3534	0.00858249
3546	0.00613035
3558	0.00629383
3570	0.00841901
3582	0.00801032
3594	0.0105442
3606	0.0102172
3618	0.00858249
3630	0.0136502
3642	0.00711121
3654	0.00890944
3666	0.0106259
3678	0.0109529
3690	0.00931813
3702	0.00997204
3714	0.00931813
3726	0.00964508
3738	0.0151215
3750	0.00850075
3762	0.00727468
3774	0.00792859
3786	0.0075199
3798	0.0111164
3810	0.0143859
3822	0.0143041
3834	0.0136502
3846	0.0186363
3858	0.0132416
3870	0.0125877
3882	0.00972682
3894	0.00490428
3906	0.00809206
3918	0.0116068
3930	0.0123424
3942	0.0160206
3954	0
3966	0.00163476
