Infrared Spectrum: Diethyl bis(hydroxymethyl)malonate
Formula: C 9 H 16 O 6
CAS: 20605-01-0
Origin: Sadtler Research Labs Under US-EPA Contract
1/CM	ABSORBANCE
450	0.00323544
462	0.00147906
474	0.00776504
486	0.00693308
498	0.0131266
510	0.0115551
522	0.0106307
534	0.0110005
546	0.00878189
558	0.00591622
570	0.0103534
582	0.0170091
594	0.0146981
606	0.00896678
618	0.00415985
630	0.00101685
642	0.000647087
654	0.000831969
666	0.00314299
678	0.00656331
690	0.00961386
702	0.0151603
714	0.00905922
726	0.00582378
738	0.00323544
750	0.00425229
762	0.00637843
774	0.00748772
786	0.0107232
798	0.00961386
810	0.010261
822	0.0111854
834	0.0138662
846	0.0278247
858	0.0725662
870	0.068961
882	0.0252364
894	0.0177487
906	0.015715
918	0.022648
930	0.0345729
942	0.0285643
954	0.0259759
966	0.0306904
978	0.0395647
990	0.0621204
1002	0.106862
1014	0.20411
1026	0.386126
1038	0.672693
1050	0.642742
1062	0.390193
1074	0.344158
1086	0.382244
1098	0.40332
1110	0.356083
1122	0.298769
1134	0.248112
1146	0.211967
1158	0.230178
1170	0.307366
1182	0.423657
1194	0.523678
1206	0.639969
1218	0.708283
1230	0.721964
1242	0.659104
1254	0.613901
1266	0.526451
1278	0.413396
1290	0.385387
1302	0.334821
1314	0.237204
1326	0.148368
1338	0.0977101
1350	0.08218
1362	0.108341
1374	0.190613
1386	0.153175
1398	0.15299
1410	0.130619
1422	0.091609
1434	0.0622128
1446	0.0656331
1458	0.0904073
1470	0.129048
1482	0.0800539
1494	0.0304131
1506	0.0174713
1518	0.0104458
1530	0.00905922
1542	0.00656331
1554	0.00610111
1566	0.00369764
1578	0.00379008
1590	0.00286567
1602	0.00342032
1614	0.00415985
1626	0.00536158
1638	0.00647087
1650	0.00859701
1662	0.0132191
1674	0.0228329
1686	0.0422455
1698	0.0751545
1710	0.138662
1722	0.337502
1734	0.746276
1746	0.92441
1758	0.739528
1770	0.3412
1782	0.136628
1794	0.0685912
1806	0.0382706
1818	0.022001
1830	0.0129417
1842	0.00785749
1854	0.00591622
1866	0.00489937
1878	0.00480693
1890	0.00452961
1902	0.00323544
1914	0.00249591
1926	0.00194126
1938	0.00240347
1950	0.00240347
1962	0.00258835
1974	0.00221858
1986	0.00147906
1998	0.00129417
2010	0.00147906
2022	0.00184882
2034	0.00249591
2046	0.0036052
2058	0.00489937
2070	0.00582378
2082	0.00647087
2094	0.00600867
2106	0.00508426
2118	0.00388252
2130	0.00305055
2142	0.0020337
2154	0.00166394
2166	0.00110929
2178	0.000647087
2190	0
2202	9.2441e-05
2214	0.000369764
2226	0.000462205
2238	0.000739528
2250	0.000462205
2262	0.000647087
2274	0.000831969
2286	0.00240347
2298	0.00425229
2310	0.0056389
2322	0.00526914
2334	0.00434473
2346	0.00573134
2358	0.00526914
2370	0.00397496
2382	0.00536158
2394	0.00231102
2406	0.00249591
2418	0.00249591
2430	0.00212614
2442	0.00184882
2454	0.00166394
2466	0.00184882
2478	0.00138662
2490	0.000831969
2502	0.00101685
2514	0.000462205
2526	0.000554646
2538	0.000277323
2550	0.000462205
2562	0.000462205
2574	0.000462205
2586	0.000554646
2598	0.000739528
2610	0.00120173
2622	0.00110929
2634	0.00101685
2646	0.000831969
2658	0.0015715
2670	0.00277323
2682	0.00314299
2694	0.00425229
2706	0.00656331
2718	0.00758016
2730	0.0134039
2742	0.0135888
2754	0.0161772
2766	0.0179336
2778	0.0202446
2790	0.0152528
2802	0.0268079
2814	0.0252364
2826	0.026623
2838	0.0261608
2850	0.0285643
2862	0.039195
2874	0.0556495
2886	0.0966008
2898	0.12914
2910	0.109912
2922	0.102887
2934	0.127846
2946	0.197824
2958	0.18063
2970	0.201984
2982	0.288508
2994	0.287861
3006	0.154099
3018	0.0803312
3030	0.0402118
3042	0.0230178
3054	0.015715
3066	0.0119249
3078	0.00915166
3090	0.00758016
3102	0.00693308
3114	0.00656331
3126	0.00591622
3138	0.00508426
3150	0.0040674
3162	0.00415985
3174	0.00323544
3186	0.00277323
3198	0.00249591
3210	0.00194126
3222	0.00194126
3234	0.0015715
3246	0.00110929
3258	0.000462205
3270	0.000647087
3282	0.000369764
3294	9.2441e-05
3306	0.000739528
3318	0.00129417
3330	0.000831969
3342	0.00175638
3354	0.0015715
3366	0.00166394
3378	0.00249591
3390	0.00240347
3402	0.00323544
3414	0.00452961
3426	0.00647087
3438	0.00794993
3450	0.00952142
3462	0.0110929
3474	0.0119249
3486	0.0120173
3498	0.0114627
3510	0.010261
3522	0.00961386
3534	0.012572
3546	0.0192277
3558	0.0346654
3570	0.0737679
3582	0.105383
3594	0.115089
3606	0.0981723
3618	0.0812556
3630	0.0796841
3642	0.0553722
3654	0.0410438
3666	0.0317073
3678	0.0221858
3690	0.0122022
3702	0.00942898
3714	0.00841213
3726	0.00878189
3738	0.00748772
3750	0.00628599
3762	0.00443717
3774	0.0036052
3786	0.00295811
3798	0.00240347
3810	0.0020337
3822	0.00277323
3834	0.00295811
3846	0.00175638
3858	0.00286567
3870	0.00277323
3882	0.00249591
3894	0.00268079
3906	0.00268079
3918	0.00305055
3930	0.00129417
3942	0.000277323
3954	0.00369764
3966	0.00295811
