Infrared Spectrum: Pyran, 4-phenyltetrahydro-,
Formula: C 11 H 14 O
CAS: 20638-52-2
Origin: Sadtler Research Labs Under US-EPA Contract
1/CM	ABSORBANCE
450	0.0123156
462	0.0162767
474	0.0130358
486	0.0155565
498	0.0185094
510	0.0373069
522	0.0751899
534	0.122076
546	0.0817438
558	0.0135399
570	0.00489743
582	0.00468136
594	0.000576168
606	0.000792231
618	0.0013684
630	0.00244871
642	0.0122436
654	0.013612
666	0.0250633
678	0.0605697
690	0.215055
702	0.280018
714	0.118403
726	0.0766303
738	0.116026
750	0.175083
762	0.107023
774	0.0365867
786	0.0215343
798	0.0200939
810	0.0196617
822	0.0208861
834	0.0695723
846	0.0568966
858	0.0150524
870	0.0129638
882	0.0335618
894	0.119411
906	0.082392
918	0.0383872
930	0.0180773
942	0.00806635
954	0.00835444
966	0.0230467
978	0.0589132
990	0.0578329
1002	0.0604256
1014	0.166945
1026	0.179404
1038	0.0537997
1050	0.0415561
1062	0.0866413
1074	0.149876
1086	0.198202
1098	0.209077
1110	0.165936
1122	0.255026
1134	0.407351
1146	0.268134
1158	0.10371
1170	0.0643148
1182	0.0538717
1194	0.0517831
1206	0.044653
1218	0.0553841
1230	0.129566
1242	0.177172
1254	0.127477
1266	0.101982
1278	0.0439328
1290	0.0427805
1302	0.0491903
1314	0.0322654
1326	0.0291685
1338	0.0314732
1350	0.0388193
1362	0.0600655
1374	0.0831122
1386	0.197482
1398	0.0585531
1410	0.0139001
1422	0.0246312
1434	0.0464535
1446	0.110336
1458	0.0921869
1470	0.0704365
1482	0.0558883
1494	0.120131
1506	0.0756941
1518	0.0188695
1530	0.0122436
1542	0.0105151
1554	0.00604976
1566	0.00713008
1578	0.0182213
1590	0.0417002
1602	0.0942035
1614	0.0443649
1626	0.00792231
1638	0.00986688
1650	0.0115954
1662	0.00532955
1674	0.00669795
1686	0.00835444
1698	0.0119555
1710	0.010299
1722	0.0128918
1734	0.0221825
1746	0.0339219
1758	0.027368
1770	0.0265037
1782	0.0318333
1794	0.0328416
1806	0.0146203
1818	0.00871454
1830	0.00612178
1842	0.00640987
1854	0.00936273
1866	0.0117394
1878	0.0115234
1890	0.00849848
1902	0.0072021
1914	0.00698604
1926	0.0123156
1938	0.0189415
1950	0.0193016
1962	0.0145482
1974	0.00713008
1986	0.00403318
1998	0.00165648
2010	0.00165648
2022	0.00302488
2034	0.00244871
2046	0.00144042
2058	0.000648189
2070	0.000144042
2082	0.000144042
2094	0.000432126
2106	0.000504147
2118	0.000936273
2130	0.000792231
2142	0.000504147
2154	0.000360105
2166	0.000216063
2178	0.00072021
2190	0.00144042
2202	0.00151244
2214	0.00129638
2226	0.00144042
2238	0.00201659
2250	0.00244871
2262	0.00201659
2274	0.00280882
2286	0.00324094
2298	0.00453732
2310	0.00734614
2322	0.00590572
2334	0.00338499
2346	0.00525753
2358	0.00460934
2370	0.00381711
2382	0.00453732
2394	0.00201659
2406	0.00180052
2418	0.00108031
2430	0.000576168
2442	0.000864252
2454	0.00230467
2466	0.00129638
2478	0.00158446
2490	0.00129638
2502	0.00158446
2514	0.00201659
2526	0.00302488
2538	0.00201659
2550	0.00180052
2562	0.00252073
2574	0.00424924
2586	0.00590572
2598	0.00669795
2610	0.00734614
2622	0.00676997
2634	0.00655391
2646	0.00741816
2658	0.00835444
2670	0.0131078
2682	0.0261436
2694	0.0429965
2706	0.0408359
2718	0.0347861
2730	0.0256395
2742	0.0298887
2754	0.0570406
2766	0.0532235
2778	0.0253514
2790	0.020454
2802	0.0293846
2814	0.0633065
2826	0.194025
2838	0.551249
2850	0.665042
2862	0.299751
2874	0.190784
2886	0.13576
2898	0.0998211
2910	0.16392
2922	0.350958
2934	0.529931
2946	0.634001
2958	0.502707
2970	0.696515
2982	0.268206
2994	0.0595614
3006	0.0499826
3018	0.0844806
3030	0.193088
3042	0.198202
3054	0.122004
3066	0.203675
3078	0.221897
3090	0.118619
3102	0.0806635
3114	0.0447971
3126	0.0164928
3138	0.00684199
3150	0.0058337
3162	0.00684199
3174	0.0072021
3186	0.0054736
3198	0.00388913
3210	0.00439328
3222	0.00338499
3234	0.00244871
3246	0.0013684
3258	0.00144042
3270	0.00129638
3282	0.000864252
3294	0.00194457
3306	0.00158446
3318	0.00180052
3330	0.00216063
3342	0.00194457
3354	0.00194457
3366	0.00194457
3378	0.00208861
3390	0.0027368
3402	0.00302488
3414	0.0030969
3426	0.0027368
3438	0.00252073
3450	0.00288084
3462	0.00201659
3474	0.0030969
3486	0.00316892
3498	0.00280882
3510	0.0017285
3522	0.00165648
3534	0.00201659
3546	0.00237669
3558	0.00158446
3570	0.00252073
3582	0.00295286
3594	0.00266478
3606	0.00129638
3618	0.00237669
3630	0.00331297
3642	0.00252073
3654	0.00424924
3666	0.00216063
3678	0.00352903
3690	0.00288084
3702	0.00280882
3714	0.00324094
3726	0.00352903
3738	0.00367307
3750	0.00302488
3762	0.00187255
3774	0.00280882
3786	0.00158446
3798	0.00165648
3810	0.0027368
3822	0.00295286
3834	0.00223265
3846	0.00230467
3858	0.00331297
3870	0.00388913
3882	0.00230467
3894	0.0030969
3906	0.00259276
3918	0.00367307
3930	0.00396116
3942	0.0030969
3954	0.00367307
3966	0.00374509
