Infrared Spectrum: Benzoic acid, 2,6-dimethoxy-, methyl ester
Formula: C 10 H 12 O 4
CAS: 2065-27-2
Origin: Sadtler Research Labs Under US-EPA Contract
1/CM	ABSORBANCE
450	0.175061
462	0.0300702
474	0.06184
486	0.0525575
498	0.045236
510	0.0313776
522	0.0479816
534	0.0334694
546	0.029155
558	0.0430135
570	0.0366072
582	0.036215
594	0.0439286
606	0.0461512
618	0.0559567
630	0.0545186
642	0.0414446
654	0.0435364
666	0.0359535
678	0.0298087
690	0.0345154
702	0.0537341
714	0.103938
726	0.173361
738	0.151397
750	0.0677233
762	0.0672004
774	0.068377
786	0.0747833
798	0.101454
810	0.0802744
822	0.114659
834	0.0732144
846	0.0324235
858	0.0313776
870	0.0312469
882	0.0324235
894	0.0288935
906	0.032685
918	0.0359535
930	0.032162
942	0.0317698
954	0.0413138
966	0.0641933
978	0.055826
990	0.0537341
1002	0.0756985
1014	0.103808
1026	0.119366
1038	0.133486
1050	0.160157
1062	0.329596
1074	0.499165
1086	0.46818
1098	0.834644
1110	1.29799
1122	0.846411
1134	0.356528
1146	0.160026
1158	0.110345
1170	0.116751
1182	0.123419
1194	0.119758
1206	0.100147
1218	0.123157
1230	0.245922
1242	0.674488
1254	1.29354
1266	0.988002
1278	0.617616
1290	0.661152
1302	0.530543
1314	0.261219
1326	0.129825
1338	0.0940021
1350	0.0708611
1362	0.0649778
1374	0.0621015
1386	0.0600097
1398	0.0677233
1410	0.0911258
1422	0.165517
1434	0.43641
1446	0.306585
1458	0.249975
1470	0.645725
1482	0.616439
1494	0.166824
1506	0.0936098
1518	0.0798821
1530	0.0755677
1542	0.0877265
1554	0.107991
1566	0.180813
1578	0.325281
1590	0.594475
1602	0.6184
1614	0.18016
1626	0.0913873
1638	0.0660237
1650	0.0607941
1662	0.0551723
1674	0.0615785
1686	0.0576563
1698	0.0613171
1710	0.0862884
1722	0.118058
1734	0.150351
1746	0.451445
1758	1.0688
1770	0.376662
1782	0.117927
1794	0.0839351
1806	0.0417061
1818	0.0345154
1830	0.0355613
1842	0.0298087
1854	0.0207877
1866	0.0175192
1878	0.0162118
1890	0.0244484
1902	0.026671
1914	0.0232717
1926	0.0274554
1938	0.029678
1950	0.0207877
1962	0.0146429
1974	0.0132047
1986	0.0145121
1998	0.0116359
2010	0.0104592
2022	0.0121588
2034	0.0128125
2046	0.0116359
2058	0.0109822
2070	0.0146429
2082	0.0159503
2094	0.0126818
2106	0.0109822
2118	0.0128125
2130	0.0128125
2142	0.0162118
2154	0.0192188
2166	0.0203954
2178	0.0218336
2190	0.0211799
2202	0.0202647
2214	0.0159503
2226	0.0103285
2238	0.006537
2250	0.0045759
2262	0.00444516
2274	0.00444516
2286	0.00366072
2298	0.0078444
2310	0.00928254
2322	0.00745218
2334	0.00836736
2346	0.0139892
2358	0.00444516
2370	0.0167347
2382	0.0151658
2394	0.00732144
2406	0.00418368
2418	0.00274554
2430	0.00235332
2442	0.00209184
2454	0.00248406
2466	0.00418368
2478	0.00209184
2490	0.00209184
2502	0.00091518
2514	0.00117666
2526	0.00431442
2538	0.0026148
2550	0.00483738
2562	0.0091518
2574	0.00928254
2586	0.00797514
2598	0.00679848
2610	0.00692922
2622	0.00562182
2634	0.006537
2646	0.00614478
2658	0.00562182
2670	0.0032685
2682	0.00431442
2694	0.00575256
2706	0.00758292
2718	0.00705996
2730	0.00823662
2742	0.00732144
2754	0.0078444
2766	0.00941328
2778	0.00771366
2790	0.0084981
2802	0.0139892
2814	0.0220951
2826	0.0398757
2838	0.10773
2850	0.178199
2862	0.0805358
2874	0.0587023
2886	0.0730837
2898	0.101454
2910	0.117927
2922	0.127341
2934	0.151789
2946	0.285275
2958	0.366856
2970	0.230495
2982	0.116882
2994	0.123157
3006	0.188004
3018	0.168524
3030	0.0921717
3042	0.062363
3054	0.0468049
3066	0.0504656
3078	0.0609248
3090	0.0675926
3102	0.0478508
3114	0.0219643
3126	0.0145121
3138	0.0108514
3150	0.0071907
3162	0.00614478
3174	0.0058833
3186	0.00418368
3198	0.00235332
3210	0.00183036
3222	0.00078444
3234	0.0013074
3246	0.0039222
3258	0.00562182
3270	0.00575256
3282	0.00601404
3294	0.00732144
3306	0.00823662
3318	0.00797514
3330	0.00705996
3342	0.00875958
3354	0.00954402
3366	0.00954402
3378	0.00928254
3390	0.0109822
3402	0.0105899
3414	0.00954402
3426	0.00823662
3438	0.0091518
3450	0.0098055
3462	0.00679848
3474	0.00993624
3486	0.00954402
3498	0.0152966
3510	0.0101977
3522	0.006537
3534	0.00797514
3546	0.00745218
3558	0.00875958
3570	0.00836736
3582	0.00562182
3594	0.0039222
3606	0.0039222
3618	0.00418368
3630	0.00444516
3642	0.00483738
3654	0.00300702
3666	0.00352998
3678	0.00575256
3690	0.00248406
3702	0.0052296
3714	0.00418368
3726	0.00431442
3738	0.00562182
3750	0.00222258
3762	0.00771366
3774	0.00509886
3786	0.00509886
3798	0.00483738
3810	0.00379146
3822	0.00575256
3834	0.0039222
3846	0.0108514
3858	0.00758292
3870	0.00013074
3882	0.00797514
3894	0.0052296
3906	0.00313776
3918	0.00627552
3930	0.00013074
3942	0.00902106
3954	0.00026148
3966	0.00091518
