Infrared Spectrum: Ether, o-bromophenyl 3-nitro-.alpha.,.alpha.,.alpha.-trifluoro-p-tolyl-,
Formula: C 13 H 7 Br F 3 N O 3
CAS: 2069-14-9
Origin: Sadtler Research Labs Under US-EPA Contract
1/CM	ABSORBANCE
450	0
462	0.0351482
474	0.0233535
486	0.0248868
498	0.0363277
510	0.0326713
522	0.028897
534	0.0297226
546	0.0406917
558	0.0263022
570	0.0229997
582	0.01781
594	0.0193433
606	0.0287791
618	0.026656
630	0.0434045
642	0.0426968
654	0.0375071
666	0.0324354
678	0.0503634
690	0.049066
702	0.0235894
714	0.0287791
726	0.0347944
738	0.064635
750	0.0878705
762	0.0671118
774	0.0910551
786	0.0419891
798	0.0338508
810	0.0398661
822	0.0607427
834	0.0679375
846	0.0487121
858	0.0958909
870	0.0469429
882	0.024415
894	0.0362097
906	0.0633375
918	0.0329072
930	0.0270099
942	0.0279534
954	0.0259483
966	0.0292509
978	0.0275996
990	0.0233535
1002	0.0217022
1014	0.0285432
1026	0.0597991
1038	0.0674657
1050	0.135285
1062	0.0456455
1074	0.0774912
1086	0.104973
1098	0.314801
1110	0.156752
1122	0.109809
1134	0.128326
1146	0.382738
1158	0.530408
1170	0.231176
1182	0.406917
1194	0.14649
1206	0.152977
1218	0.125024
1230	0.121485
1242	0.185531
1254	0.314565
1266	0.528756
1278	0.5113
1290	0.227874
1302	0.19131
1314	0.342872
1326	1.17947
1338	0.182228
1350	0.168074
1362	0.180931
1374	0.093414
1386	0.0609786
1398	0.0528403
1410	0.0607427
1422	0.0678195
1434	0.0620401
1446	0.117357
1458	0.0822091
1470	0.305247
1482	0.133516
1494	0.106978
1506	0.136111
1518	0.105798
1530	0.127737
1542	0.188597
1554	0.377548
1566	0.261135
1578	0.22292
1590	0.213956
1602	0.130803
1614	0.111106
1626	0.206289
1638	0.097896
1650	0.0635734
1662	0.0668759
1674	0.0713579
1686	0.0517787
1698	0.0344405
1710	0.0386866
1722	0.0228817
1734	0.0145075
1746	0.0174562
1758	0.0185177
1770	0.0207587
1782	0.0228817
1794	0.0195792
1806	0.0195792
1818	0.0172203
1830	0.0152152
1842	0.0142716
1854	0.0160408
1866	0.015687
1878	0.0161587
1890	0.0163946
1902	0.020051
1914	0.022174
1926	0.01781
1938	0.0176921
1950	0.0174562
1962	0.0148613
1974	0.0145075
1986	0.0146254
1998	0.0152152
2010	0.0153331
2022	0.0161587
2034	0.0158049
2046	0.0160408
2058	0.0166305
2070	0.0176921
2082	0.0168664
2094	0.0158049
2106	0.0150972
2118	0.015687
2130	0.015687
2142	0.0147434
2154	0.0141536
2166	0.0143895
2178	0.0148613
2190	0.0148613
2202	0.0137998
2214	0.0146254
2226	0.0150972
2238	0.0154511
2250	0.0163946
2262	0.0158049
2274	0.0163946
2286	0.0172203
2298	0.0186356
2310	0.0194613
2322	0.0189895
2334	0.0193433
2346	0.0188715
2358	0.0183997
2370	0.0183997
2382	0.0175741
2394	0.0158049
2406	0.0159228
2418	0.0167485
2430	0.0165126
2442	0.0169844
2454	0.0176921
2466	0.0185177
2478	0.0189895
2490	0.0175741
2502	0.0173382
2514	0.0172203
2526	0.0176921
2538	0.0180459
2550	0.0182818
2562	0.0183997
2574	0.0174562
2586	0.01781
2598	0.0179279
2610	0.0169844
2622	0.0169844
2634	0.0171023
2646	0.0175741
2658	0.0171023
2670	0.0168664
2682	0.0168664
2694	0.0169844
2706	0.0175741
2718	0.0172203
2730	0.0174562
2742	0.0172203
2754	0.0173382
2766	0.01781
2778	0.0179279
2790	0.0174562
2802	0.0185177
2814	0.0187536
2826	0.0202869
2838	0.019933
2850	0.0209946
2862	0.0217022
2874	0.0217022
2886	0.0229997
2898	0.0240612
2910	0.0242971
2922	0.0225279
2934	0.0226458
2946	0.022292
2958	0.0208766
2970	0.0206407
2982	0.0198151
2994	0.0196971
3006	0.0204048
3018	0.0219381
3030	0.0213484
3042	0.0217022
3054	0.022174
3066	0.0274817
3078	0.0458814
3090	0.0390405
3102	0.0225279
3114	0.0182818
3126	0.0185177
3138	0.0183997
3150	0.0182818
3162	0.0175741
3174	0.0174562
3186	0.0176921
3198	0.0169844
3210	0.0185177
3222	0.0180459
3234	0.0180459
3246	0.0171023
3258	0.0182818
3270	0.0168664
3282	0.01781
3294	0.0179279
3306	0.0182818
3318	0.0182818
3330	0.0189895
3342	0.01781
3354	0.0193433
3366	0.0187536
3378	0.0191074
3390	0.0185177
3402	0.0188715
3414	0.0189895
3426	0.0175741
3438	0.0171023
3450	0.0181638
3462	0.0185177
3474	0.0175741
3486	0.0173382
3498	0.0181638
3510	0.0179279
3522	0.0169844
3534	0.0175741
3546	0.0187536
3558	0.0189895
3570	0.0183997
3582	0.0179279
3594	0.01781
3606	0.0180459
3618	0.0176921
3630	0.0161587
3642	0.0183997
3654	0.015687
3666	0.0187536
3678	0.0163946
3690	0.0174562
3702	0.0189895
3714	0.0169844
3726	0.0208766
3738	0.0205228
3750	0.0130921
3762	0.0206407
3774	0.0187536
3786	0.0204048
3798	0.0172203
3810	0.0176921
3822	0.0161587
3834	0.0208766
3846	0.0175741
3858	0.0148613
3870	0.0168664
3882	0.0196971
3894	0.013446
3906	0.01781
3918	0.0172203
3930	0.0153331
3942	0.0169844
3954	0.0140357
3966	0.0188715
