Infrared Spectrum: Benzene, 1,2,4-trichloro-3-methyl-
Formula: C 7 H 5 Cl 3
CAS: 2077-46-5
Origin: Sadtler Research Labs Under US-EPA Contract
1/CM	ABSORBANCE
450	0.0213801
462	0.0192421
474	0.0279442
486	0.0538629
498	0.0236682
510	0.00075018
522	0.00787689
534	0.0136158
546	0.0224304
558	0.0350334
570	0.0495494
582	0.0444857
594	0.0653407
606	0.0945227
618	0.0175167
630	0.0025131
642	0.00596393
654	0.0130906
666	0.0169916
678	0.00513873
690	0.00765184
702	0.00528877
714	0.00168791
726	0.0108026
738	0.00270065
750	0.0070892
762	0.0214551
774	0.0877711
786	0.14561
798	0.149848
810	0.204049
822	0.035296
834	0.00637653
846	0.0122279
858	0.0319202
870	0.0490618
882	0.0625275
894	0.0119654
906	0.00836451
918	0.0049887
930	0.00663909
942	0.00727675
954	0.0108401
966	0.0191296
978	0.0416725
990	0.0815446
1002	0.120216
1014	0.11474
1026	0.0654532
1038	0.0568261
1050	0.0523626
1062	0.0493994
1074	0.0572012
1086	0.191483
1098	0.212376
1110	0.0606521
1122	0.0289945
1134	0.0215677
1146	0.0129031
1158	0.0202549
1170	0.0719048
1182	0.172016
1194	0.102437
1206	0.0265189
1218	0.0132782
1230	0.00903967
1242	0.00847703
1254	0.00648906
1266	0.0117403
1278	0.00536379
1290	0.00513873
1302	0.006264
1314	0.00633902
1326	0.0091522
1338	0.0196922
1350	0.026894
1362	0.0526626
1374	0.137696
1386	0.170141
1398	0.0823323
1410	0.0591517
1422	0.125693
1434	0.355248
1446	0.260688
1458	0.102062
1470	0.0553633
1482	0.0448608
1494	0.039422
1506	0.0247559
1518	0.0167665
1530	0.0178543
1542	0.0257687
1554	0.0441481
1566	0.0434729
1578	0.0256937
1590	0.0155287
1602	0.0135032
1614	0.0138033
1626	0.00637653
1638	0.00307574
1650	0.00247559
1662	0.00453859
1674	0.00285068
1686	0.00221303
1698	0.00247559
1710	0.00262563
1722	0.00401346
1734	0.00930223
1746	0.00723924
1758	0.00337581
1770	0.0025131
1782	0.00198798
1794	0.00150036
1806	0.00146285
1818	0.00157538
1830	0.000975234
1842	0.00202549
1854	0.00363837
1866	0.0111777
1878	0.0130906
1890	0.00322577
1902	0.000975234
1914	0.000900216
1926	0.00075018
1938	0.00101274
1950	0.000975234
1962	0.00101274
1974	0.00101274
1986	0.000712671
1998	0.00127531
2010	0.00127531
2022	0.00146285
2034	0.000562635
2046	0.000825198
2058	0.000600144
2070	0.000675162
2082	0.00101274
2094	0.000412599
2106	0.000787689
2118	0.000487617
2130	0.000637653
2142	0.000600144
2154	0.000825198
2166	0.000825198
2178	0.000525126
2190	0.000862707
2202	0.000525126
2214	0.00108776
2226	0.000562635
2238	0.00112527
2250	0.00142534
2262	0.00191296
2274	0.00221303
2286	0.002063
2298	0.00277567
2310	0.00378841
2322	0.00273816
2334	0.002063
2346	0
2358	0.0041635
2370	0.00112527
2382	0.002063
2394	0.00108776
2406	0.00153787
2418	0.00150036
2430	0.00135032
2442	0.00213801
2454	0.00202549
2466	0.00172541
2478	0.00116278
2490	0.0016504
2502	0.00157538
2514	0.00138783
2526	0.000787689
2538	0.00037509
2550	0.000637653
2562	0.00135032
2574	0.00120029
2586	0.00112527
2598	0.00116278
2610	0.00161289
2622	0.00108776
2634	0.00168791
2646	0.00217552
2658	0.00168791
2670	0.000975234
2682	0.00112527
2694	0.0012378
2706	0.0012378
2718	0.00112527
2730	0.0016504
2742	0.00262563
2754	0.00255061
2766	0.00266314
2778	0.00232556
2790	0.00232556
2802	0.0037509
2814	0.00378841
2826	0.00300072
2838	0.00341332
2850	0.00468863
2862	0.00678913
2874	0.00930223
2886	0.00892714
2898	0.00828949
2910	0.0100899
2922	0.0139533
2934	0.0253561
2946	0.0367213
2958	0.0288069
2970	0.018642
2982	0.0108026
2994	0.00825198
3006	0.0075018
3018	0.00817696
3030	0.00922721
3042	0.00986487
3054	0.0100899
3066	0.00971483
3078	0.0109901
3090	0.00795191
3102	0.00427603
3114	0.00303823
3126	0.00322577
3138	0.00187545
3150	0.0016504
3162	0.00168791
3174	0.0012378
3186	0.00176292
3198	0.00116278
3210	0.00161289
3222	0.00131282
3234	0.00075018
3246	0.00120029
3258	0.000862707
3270	0.000975234
3282	0.00116278
3294	0.00127531
3306	0.0016504
3318	0.00131282
3330	0.00105025
3342	0.00127531
3354	0.00101274
3366	0.000787689
3378	0.000862707
3390	0.00195047
3402	0.000825198
3414	0.00153787
3426	0.000562635
3438	0.00101274
3450	0.00108776
3462	0.00198798
3474	0.00131282
3486	0.00187545
3498	0.00195047
3510	0.00127531
3522	0.00146285
3534	0.00180043
3546	0.00236307
3558	0.00247559
3570	0.0012378
3582	0.00153787
3594	0.00180043
3606	0.00135032
3618	0.00266314
3630	0.00131282
3642	0.00378841
3654	0.000937725
3666	0.00326328
3678	0.00393845
3690	0.0016504
3702	0.00195047
3714	0.00322577
3726	0.00382592
3738	0.00356336
3750	0.000300072
3762	0.00288819
3774	0.00525126
3786	0.00468863
3798	0.00326328
3810	0.00521375
3822	0.00195047
3834	0.00247559
3846	0.00352585
3858	0.00401346
3870	0.00401346
3882	0.00570137
3894	0.00378841
3906	0.00341332
3918	0.00731426
3930	0.00296321
3942	0.00675162
3954	0.00645155
3966	0.000900216
