Infrared Spectrum: Propofol
Formula: C 12 H 18 O
CAS: 2078-54-8
Origin: Sadtler Research Labs Under US-EPA Contract
1/CM	ABSORBANCE
450	0
462	0.0226041
474	0.0288534
486	0.0293853
498	0.0293853
510	0.0420169
522	0.0421499
534	0.0469366
546	0.0397565
558	0.0408203
570	0.037895
582	0.0537179
594	0.0351028
606	0.0287204
618	0.0295182
630	0.030316
642	0.030316
654	0.0353687
666	0.0413521
678	0.0384269
690	0.0297842
702	0.0275238
714	0.0313797
726	0.0370972
738	0.226971
750	0.286673
762	0.0550475
774	0.0438784
786	0.102516
798	0.112089
810	0.0724659
822	0.137885
834	0.0772527
846	0.0293853
858	0.0284545
870	0.0300501
882	0.0385598
894	0.0333742
906	0.0347039
918	0.0686099
930	0.0900173
942	0.0517234
954	0.0434796
966	0.0412191
978	0.0400225
990	0.041884
1002	0.0446762
1014	0.0485322
1026	0.0566431
1038	0.0784494
1050	0.114217
1062	0.109563
1074	0.0832361
1086	0.0946711
1098	0.13948
1110	0.169397
1122	0.110893
1134	0.123259
1146	0.259149
1158	0.224179
1170	0.211015
1182	0.242528
1194	0.368446
1206	0.458463
1218	0.216866
1230	0.108234
1242	0.0934744
1254	0.163148
1266	0.224711
1278	0.110361
1290	0.11794
1302	0.232556
1314	0.228966
1326	0.102649
1338	0.0982611
1350	0.118605
1362	0.13855
1374	0.147192
1386	0.134827
1398	0.0893525
1410	0.0583716
1422	0.0817735
1434	0.17445
1446	0.425355
1458	0.504868
1470	0.329753
1482	0.168467
1494	0.0718011
1506	0.0476015
1518	0.0374961
1530	0.0345709
1542	0.0320446
1554	0.0280556
1566	0.0297842
1578	0.0408203
1590	0.0623606
1602	0.0506597
1614	0.0348368
1626	0.0309808
1638	0.0401554
1650	0.0327094
1662	0.0291193
1674	0.0301831
1686	0.0382939
1698	0.0352357
1710	0.0277897
1722	0.0263271
1734	0.0252634
1746	0.0260611
1758	0.02646
1770	0.0261941
1782	0.0284545
1794	0.0313797
1806	0.0268589
1818	0.0247315
1830	0.0251304
1842	0.034039
1854	0.0430807
1866	0.026593
1878	0.0255293
1890	0.0260611
1902	0.0339061
1914	0.0362994
1926	0.0260611
1938	0.0241996
1950	0.0236678
1962	0.0243326
1974	0.0248645
1986	0.0244656
1998	0.0244656
2010	0.0245985
2022	0.0243326
2034	0.0234018
2046	0.0231359
2058	0.0215403
2070	0.0238007
2082	0.0253963
2094	0.0239337
2106	0.0248645
2118	0.0247315
2130	0.0251304
2142	0.0245985
2154	0.0247315
2166	0.0256622
2178	0.0249974
2190	0.0245985
2202	0.0241996
2214	0.0240667
2226	0.0245985
2238	0.0247315
2250	0.0257952
2262	0.0268589
2274	0.0277897
2286	0.02646
2298	0.0248645
2310	0.0223381
2322	0.0215403
2334	0.0238007
2346	0.0268589
2358	0.0240667
2370	0.0291193
2382	0.0300501
2394	0.0296512
2406	0.0301831
2418	0.0296512
2430	0.0276567
2442	0.0269919
2454	0.0279227
2466	0.0288534
2478	0.0287204
2490	0.0271249
2502	0.0268589
2514	0.026726
2526	0.0260611
2538	0.0260611
2550	0.0272578
2562	0.0275238
2574	0.0284545
2586	0.0289864
2598	0.030316
2610	0.0309808
2622	0.0297842
2634	0.0295182
2646	0.0311138
2658	0.0316457
2670	0.0344379
2682	0.0335072
2694	0.0319116
2706	0.0324435
2718	0.0356346
2730	0.0401554
2742	0.0382939
2754	0.0361665
2766	0.0384269
2778	0.0373632
2790	0.0392247
2802	0.0452081
2814	0.0547816
2826	0.0630254
2838	0.0690088
2850	0.0864272
2862	0.139081
2874	0.311537
2886	0.437987
2898	0.312867
2910	0.312069
2922	0.32111
2934	0.43094
2946	0.543295
2958	0.661501
2970	1.32965
2982	0.740881
2994	0.207425
3006	0.0999897
3018	0.0807098
3030	0.0969315
3042	0.135225
3054	0.127248
3066	0.137486
3078	0.164744
3090	0.104909
3102	0.0583716
3114	0.0433466
3126	0.037895
3138	0.0373632
3150	0.0368313
3162	0.0374961
3174	0.0406873
3186	0.0434796
3198	0.0404214
3210	0.038161
3222	0.0370972
3234	0.0362994
3246	0.0344379
3258	0.0313797
3270	0.0319116
3282	0.0328424
3294	0.030316
3306	0.0281886
3318	0.0276567
3330	0.0263271
3342	0.0255293
3354	0.0279227
3366	0.0308479
3378	0.0329753
3390	0.0327094
3402	0.0317786
3414	0.0309808
3426	0.0292523
3438	0.0272578
3450	0.0273908
3462	0.0271249
3474	0.026726
3486	0.0253963
3498	0.0261941
3510	0.026726
3522	0.0252634
3534	0.0251304
3546	0.0238007
3558	0.0253963
3570	0.0230029
3582	0.0277897
3594	0.0272578
3606	0.0309808
3618	0.0370972
3630	0.0710033
3642	0.259415
3654	0.371238
3666	0.159691
3678	0.0632913
3690	0.0275238
3702	0.0219392
3714	0.0215403
3726	0.0214074
3738	0.0215403
3750	0.0215403
3762	0.0215403
3774	0.0215403
3786	0.0215403
3798	0.0219392
3810	0.0215403
3822	0.0215403
3834	0.0214074
3846	0.0256622
3858	0.022737
3870	0.02287
3882	0.0218063
3894	0.0223381
3906	0.0244656
3918	0.0283215
3930	0.0252634
3942	0.0215403
3954	0.0288534
3966	0.0268589
