Infrared Spectrum: 4-Ethyl-3-methylpyridine
Formula: C 8 H 11 N
CAS: 20815-29-6
Origin: Sadtler Research Labs Under US-EPA Contract
1/CM	ABSORBANCE
450	0.0126833
462	0.00915598
474	0.00690451
486	0.0189123
498	0.0327214
510	0.02304
522	0.007655
534	0.00450294
546	0.00607897
558	0.0293442
570	0.0480314
582	0.0289689
594	0.0227398
606	0.0318958
618	0.0156102
630	0.00360235
642	0.00105069
654	0.00112574
666	0.00165108
678	0.000900588
690	0.00262672
702	0.00810529
714	0.0161355
726	0.032121
738	0.0457799
750	0.0222896
762	0.00960627
774	0.0113324
786	0.0207135
798	0.0309952
810	0.0775256
822	0.225822
834	0.257643
846	0.0929857
858	0.0211638
870	0.0113324
882	0.00893083
894	0.00690451
906	0.00773005
918	0.010657
930	0.00795519
942	0.00915598
954	0.013734
966	0.0171862
978	0.02304
990	0.0377496
1002	0.0353481
1014	0.0205634
1026	0.0310703
1038	0.0433033
1050	0.0406015
1062	0.0491571
1074	0.0649924
1086	0.0499826
1098	0.0165108
1110	0.00938113
1122	0.00863064
1134	0.00975637
1146	0.0108821
1158	0.0136589
1170	0.0185371
1182	0.0455547
1194	0.0795519
1206	0.0529846
1218	0.0397009
1230	0.0316707
1242	0.0226648
1254	0.0326463
1266	0.0330966
1278	0.0148597
1290	0.0161355
1302	0.0294943
1314	0.0436035
1326	0.0381249
1338	0.0315956
1350	0.024466
1362	0.0309202
1374	0.0431532
1386	0.0839048
1398	0.1528
1410	0.163907
1422	0.106945
1434	0.0897586
1446	0.125332
1458	0.175239
1470	0.16871
1482	0.143043
1494	0.129009
1506	0.0722722
1518	0.0258169
1530	0.0204884
1542	0.0324962
1554	0.0825539
1566	0.111223
1578	0.143944
1590	0.325037
1602	0.284736
1614	0.0874321
1626	0.0346726
1638	0.0228899
1650	0.0208636
1662	0.0156102
1674	0.0104318
1686	0.00930608
1698	0.0113324
1710	0.0276931
1722	0.0284436
1734	0.0169611
1746	0.0180118
1758	0.0112574
1770	0.0120078
1782	0.0134338
1794	0.0140342
1806	0.0104318
1818	0.00690451
1830	0.00825539
1842	0.00442789
1854	0.00240157
1866	0.00525343
1878	0.010657
1890	0.0108821
1902	0.00465304
1914	0.00848054
1926	0.0172613
1938	0.0133587
1950	0.00457799
1962	0.00375245
1974	0.00210137
1986	0.00217642
1998	0.00247662
2010	0.00217642
2022	0.00150098
2034	0.00105069
2046	0.00187623
2058	0.00247662
2070	0.00195127
2082	0.000825539
2094	0.00075049
2106	0.000900588
2118	0.000975637
2130	0.000975637
2142	0.00112574
2154	0.00165108
2166	0.00150098
2178	0.000975637
2190	0.00135088
2202	0.00202632
2214	0.00285186
2226	0.00285186
2238	0.00247662
2250	0.00135088
2262	0.00105069
2274	0.00127583
2286	0.00157603
2298	0.00172613
2310	0.000675441
2322	7.5049e-05
2334	0.000300196
2346	0.000525343
2358	0.00075049
2370	0
2382	0.00180118
2394	0.00277681
2406	0.00277681
2418	0.00360235
2430	0.00435284
2442	0.00555363
2454	0.00682946
2466	0.00630412
2478	0.00487819
2490	0.00360235
2502	0.00315206
2514	0.00195127
2526	0.00202632
2538	0.00165108
2550	0.00202632
2562	0.00180118
2574	0.00180118
2586	0.00240157
2598	0.00277681
2610	0.00322711
2622	0.00465304
2634	0.00465304
2646	0.00442789
2658	0.0036774
2670	0.0039776
2682	0.00405265
2694	0.00420274
2706	0.00465304
2718	0.00615402
2730	0.00923103
2742	0.0148597
2754	0.0171112
2766	0.0126082
2778	0.012233
2790	0.0136589
2802	0.0146346
2814	0.0175615
2826	0.0243909
2838	0.0350479
2850	0.0504329
2862	0.0794769
2874	0.157078
2886	0.271002
2898	0.260045
2910	0.208486
2922	0.21404
2934	0.292541
2946	0.405265
2958	0.40519
2970	0.58208
2982	0.748464
2994	0.395883
3006	0.270026
3018	0.279558
3030	0.235879
3042	0.205484
3054	0.218918
3066	0.203008
3078	0.117527
3090	0.0713716
3102	0.0540353
3114	0.0324962
3126	0.0188373
3138	0.0147096
3150	0.0135088
3162	0.0125332
3174	0.0114825
3186	0.00885578
3198	0.00570372
3210	0.00405265
3222	0.00337721
3234	0.00345225
3246	0.00345225
3258	0.00315206
3270	0.00345225
3282	0.00262672
3294	0.00337721
3306	0.00315206
3318	0.00247662
3330	0.00225147
3342	0.00255167
3354	0.00315206
3366	0.00292691
3378	0.00270176
3390	0.00247662
3402	0.00337721
3414	0.00300196
3426	0.00300196
3438	0.00300196
3450	0.00262672
3462	0.00307701
3474	0.00262672
3486	0.00255167
3498	0.00210137
3510	0.00202632
3522	0.00345225
3534	0.00285186
3546	0.00465304
3558	0.00240157
3570	0.00705461
3582	0.00525343
3594	0.00532848
3606	0.00187623
3618	0.00562868
3630	0.00547858
3642	0.00210137
3654	0.00262672
3666	0.00427779
3678	0.00225147
3690	0.00157603
3702	0.00465304
3714	0.00577877
3726	0.00682946
3738	0.00562868
3750	0.0039776
3762	0.00435284
3774	0.00307701
3786	0.00322711
3798	0.00225147
3810	0.0041277
3822	0.00157603
3834	0.00337721
3846	0.00547858
3858	0.0036774
3870	0.00375245
3882	0.00615402
3894	0.0035273
3906	0.00697956
3918	0.00525343
3930	0.00577877
3942	0.00705461
3954	0.00682946
3966	0.00840549
