Infrared Spectrum: 1-Methyl-2-piperidinemethanol
Formula: C 7 H 15 N O
CAS: 20845-34-5
Origin: Sadtler Research Labs Under US-EPA Contract
1/CM	ABSORBANCE
450	0.0373335
462	0.024328
474	0.025399
486	0.0283061
498	0.0325903
510	0.026317
522	0.0165246
534	0.0128525
546	0.0169837
558	0.0153006
570	0.0119345
582	0.00918036
594	0.00963938
606	0.00780331
618	0.0102514
630	0.0165246
642	0.0319783
654	0.0201968
666	0.00795631
678	0.0050492
690	0.0026011
702	0.0024481
714	0.0076503
726	0.0125465
738	0.0186667
750	0.0307542
762	0.0469728
774	0.0374865
786	0.0111694
798	0.00290711
810	0.00214208
822	0.0139235
834	0.0342733
846	0.0272351
858	0.0209618
870	0.0354974
882	0.0269291
894	0.0198908
906	0.026317
918	0.0374865
930	0.0338143
942	0.0206558
954	0.0157596
966	0.0341203
978	0.0734429
990	0.117509
1002	0.128678
1014	0.123935
1026	0.236853
1038	0.309837
1050	0.207476
1062	0.201356
1074	0.2367
1086	0.2647
1098	0.203498
1110	0.179017
1122	0.246646
1134	0.196766
1146	0.151323
1158	0.125465
1170	0.0815522
1182	0.0862954
1194	0.0850713
1206	0.0728309
1218	0.0683937
1230	0.104809
1242	0.0954757
1254	0.0660986
1266	0.107869
1278	0.158055
1290	0.14352
1302	0.119651
1314	0.0996069
1326	0.0919566
1338	0.0856834
1350	0.0827762
1362	0.0810932
1374	0.128831
1386	0.133421
1398	0.144132
1410	0.164787
1422	0.122864
1434	0.126077
1446	0.160044
1458	0.203039
1470	0.167389
1482	0.0872134
1494	0.0495739
1506	0.0217269
1518	0.00642625
1530	0.00657926
1542	0.0052022
1554	0.00382515
1566	0.00367214
1578	0.00428417
1590	0.00413116
1602	0.00321313
1614	0.00214208
1626	0.00382515
1638	0.00397816
1650	0.00382515
1662	0.00351914
1674	0.00627325
1686	0.0050492
1698	0.0052022
1710	0.00306012
1722	0.00290711
1734	0.00198908
1746	0.000918036
1758	0.0024481
1770	0.00214208
1782	0.00214208
1794	0.00229509
1806	0.00229509
1818	0.00168307
1830	0.00076503
1842	0.00137705
1854	0.00168307
1866	0.00153006
1878	0.00214208
1890	0.0026011
1902	0.00229509
1914	0.0024481
1926	0.00122405
1938	0.00076503
1950	0.00076503
1962	0.00076503
1974	0.000612024
1986	0.00122405
1998	0.00137705
2010	0.00122405
2022	0.00122405
2034	0.00183607
2046	0.00153006
2058	0.00122405
2070	0.000918036
2082	0.00137705
2094	0.00107104
2106	0.00107104
2118	0.00076503
2130	0
2142	0.000153006
2154	0.000612024
2166	0.000612024
2178	0.000918036
2190	0.00153006
2202	0.00122405
2214	0.00153006
2226	0.00076503
2238	0.00183607
2250	0.00306012
2262	0.00306012
2274	0.00382515
2286	0.00474319
2298	0.0050492
2310	0.00703828
2322	0.00856834
2334	0.00780331
2346	0.00872134
2358	0.00581423
2370	0.00428417
2382	0.00428417
2394	0.00275411
2406	0.00183607
2418	0.00183607
2430	0.0026011
2442	0.00367214
2454	0.00489619
2466	0.00627325
2478	0.00810932
2490	0.00918036
2502	0.00918036
2514	0.00979238
2526	0.00994539
2538	0.0104044
2550	0.0116285
2562	0.0133115
2574	0.0165246
2586	0.0200438
2598	0.024787
2610	0.0284591
2622	0.0302952
2634	0.0350384
2646	0.0431477
2658	0.0460548
2670	0.04988
2682	0.0561532
2694	0.0656396
2706	0.0936397
2718	0.130973
2730	0.12317
2742	0.10435
2754	0.124547
2766	0.221553
2778	0.432242
2790	0.621357
2802	0.477226
2814	0.228591
2826	0.132503
2838	0.131891
2850	0.211301
2862	0.391236
2874	0.416176
2886	0.380832
2898	0.356963
2910	0.336919
2922	0.500789
2934	1.06171
2946	1.53006
2958	0.82868
2970	0.308154
2982	0.188197
2994	0.165093
3006	0.0823172
3018	0.0283061
3030	0.0186667
3042	0.0153006
3054	0.0119345
3066	0.0100984
3078	0.00994539
3090	0.00872134
3102	0.00826232
3114	0.00856834
3126	0.00734429
3138	0.00657926
3150	0.00642625
3162	0.00642625
3174	0.00627325
3186	0.00673226
3198	0.00612024
3210	0.00581423
3222	0.00489619
3234	0.00489619
3246	0.0052022
3258	0.00612024
3270	0.00550822
3282	0.00612024
3294	0.0052022
3306	0.00367214
3318	0.00413116
3330	0.00443717
3342	0.0050492
3354	0.00397816
3366	0.00306012
3378	0.00306012
3390	0.00382515
3402	0.00535521
3414	0.00918036
3426	0.0131585
3438	0.0137705
3450	0.0134645
3462	0.00841533
3474	0.00963938
3486	0.0111694
3498	0.00856834
3510	0.00703828
3522	0.0163716
3534	0.0711478
3546	0.0902735
3558	0.0527871
3570	0.025705
3582	0.0148416
3594	0.00841533
3606	0.00367214
3618	0.0024481
3630	0.00413116
3642	0.00367214
3654	0.00933337
3666	0.024481
3678	0.0232569
3690	0.00673226
3702	0
3714	0
3726	0
3738	0
3750	0
3762	0
3774	0
3786	0
3798	0
3810	0
3822	0
3834	0
3846	0
3858	0
3870	0
3882	0
3894	0
3906	0
3918	0
3930	0
3942	0
3954	0
3966	0
