Infrared Spectrum: 1-Penten-3-ol, 2-methyl-
Formula: C 6 H 12 O
CAS: 2088-07-5
Origin: Sadtler Research Labs Under US-EPA Contract
1/CM	ABSORBANCE
450	0.0235537
462	0.029065
474	0.041422
486	0.0323718
498	0.0375931
510	0.0264544
522	0.0432204
534	0.0421182
546	0.0444967
558	0.0473974
570	0.0316756
582	0.0210011
594	0.0195507
606	0.00980437
618	0.0175782
630	0.0126471
642	0.00719374
654	0.00684565
666	0.00823799
678	0.00446708
690	0.00905018
702	0.00493119
714	0.00922423
726	0.00794792
738	0.00278467
750	0.00835402
762	0.00847004
774	0.0078899
786	0.00852806
798	0.0106166
810	0.0178103
822	0.025062
834	0.0323718
846	0.0312695
858	0.028949
870	0.0360267
882	0.0962452
894	0.253057
906	0.324124
918	0.164934
930	0.0562736
942	0.0652077
954	0.131344
966	0.20038
978	0.23339
990	0.230258
1002	0.218423
1014	0.209082
1026	0.172012
1038	0.153099
1050	0.163832
1062	0.134012
1074	0.10779
1086	0.137029
1098	0.165978
1110	0.15803
1122	0.11626
1134	0.0714732
1146	0.0410159
1158	0.0356206
1170	0.041422
1182	0.0507042
1194	0.066194
1206	0.0909079
1218	0.116956
1230	0.128443
1242	0.113881
1254	0.0928804
1266	0.0805234
1278	0.078667
1290	0.0882973
1302	0.0847004
1314	0.074664
1326	0.0752442
1338	0.0776227
1350	0.0784929
1362	0.100364
1374	0.137609
1386	0.147936
1398	0.108834
1410	0.0726915
1422	0.0653818
1434	0.0832501
1446	0.131402
1458	0.168241
1470	0.144977
1482	0.0751861
1494	0.0334161
1506	0.0194347
1518	0.0160119
1530	0.0131692
1542	0.0115448
1554	0.0120089
1566	0.0132852
1578	0.0142714
1590	0.0139814
1602	0.0146195
1614	0.0180424
1626	0.0242499
1638	0.0503562
1650	0.0794212
1662	0.062365
1674	0.0227995
1686	0.00748381
1698	0.0049892
1710	0.00510523
1722	0.00562736
1734	0.00655558
1746	0.00887614
1758	0.008296
1770	0.00690367
1782	0.00847004
1794	0.0156638
1806	0.0219873
1818	0.0180424
1830	0.00771586
1842	0.00237857
1854	0.000638154
1866	0.000812196
1878	0.000406098
1890	0.000406098
1902	0.000348084
1914	0.000754182
1926	0.00121829
1938	0.00174042
1950	0.00162439
1962	0.00203049
1974	0.000812196
1986	0.00133432
1998	0.00156638
2010	0.00139234
2022	0.00139234
2034	0.000928224
2046	0.000522126
2058	0.000754182
2070	0.000986238
2082	0.000696168
2094	0.000812196
2106	0.000348084
2118	0.000464112
2130	0.000522126
2142	0.000522126
2154	0.000812196
2166	0.000812196
2178	0.000696168
2190	0.00110227
2202	0.00087021
2214	0.000928224
2226	0.000928224
2238	0.00058014
2250	0.000174042
2262	0.000696168
2274	0.00156638
2286	0.00272666
2298	0.00388694
2310	0.00440906
2322	0.00156638
2334	0.000928224
2346	0.00133432
2358	0.00179843
2370	0.00203049
2382	0.00423502
2394	0.00284269
2406	0.00336481
2418	0.00382892
2430	0.00319077
2442	0.00261063
2454	0.00278467
2466	0.00266864
2478	0.00214652
2490	0.0020885
2502	0.00145035
2514	0.00162439
2526	0.00179843
2538	0.00243659
2550	0.00313276
2562	0.00435105
2574	0.00545332
2586	0.0062075
2598	0.00632353
2610	0.00591743
2622	0.00574339
2634	0.00574339
2646	0.00626551
2658	0.00742579
2670	0.00765785
2682	0.00841203
2694	0.0095143
2706	0.00992039
2718	0.0116028
2730	0.0141554
2742	0.0171141
2754	0.0168821
2766	0.0153737
2778	0.0169981
2790	0.0193767
2802	0.0223934
2814	0.0287749
2826	0.0426403
2838	0.07449
2850	0.126935
2862	0.188662
2874	0.257524
2886	0.305966
2898	0.261527
2910	0.203049
2922	0.255784
2934	0.390202
2946	0.459587
2958	0.44079
2970	0.558269
2982	0.533787
2994	0.320643
3006	0.133316
3018	0.0656138
3030	0.0460631
3042	0.0397396
3054	0.0403777
3066	0.066194
3078	0.1151
3090	0.11771
3102	0.0626551
3114	0.0242499
3126	0.0140974
3138	0.00980437
3150	0.0095143
3162	0.00806395
3174	0.00719374
3186	0.0062075
3198	0.00417701
3210	0.00272666
3222	0.00191446
3234	0.00133432
3246	0.00179843
3258	0.000812196
3270	0.000812196
3282	0.00179843
3294	0.00121829
3306	0.000928224
3318	0.00121829
3330	0.000522126
3342	0.00145035
3354	0.00197248
3366	0.00214652
3378	0.00237857
3390	0.0024946
3402	0.0024946
3414	0.00191446
3426	0.00272666
3438	0.00226255
3450	0.00336481
3462	0.00203049
3474	0.00319077
3486	0.00232056
3498	0.00145035
3510	0.0024946
3522	0.00266864
3534	0.00191446
3546	0.00185645
3558	0.00197248
3570	0.00319077
3582	0.00406098
3594	0.00295871
3606	0.0058014
3618	0.0106166
3630	0.0303413
3642	0.082728
3654	0.107268
3666	0.0639314
3678	0.0198988
3690	0.00556934
3702	0.00110227
3714	0.00139234
3726	0.00162439
3738	0.00179843
3750	5.8014e-05
3762	0.000638154
3774	0.000812196
3786	0.000116028
3798	0.000174042
3810	0.00179843
3822	0.00104425
3834	0.00058014
3846	0.00087021
3858	0.000232056
3870	0.00174042
3882	0.000522126
3894	0.000348084
3906	0.00388694
3918	0.00168241
3930	0.00133432
3942	0.000406098
3954	0.000174042
3966	0.00255262
