Infrared Spectrum: Ether, 2,6-dichlorophenyl p-nitrophenyl-,
Formula: C 12 H 7 Cl 2 N O 3
CAS: 2093-28-9
Origin: Sadtler Research Labs Under US-EPA Contract
1/CM	ABSORBANCE
450	0.0106949
462	0.0148462
474	0.00302552
486	0.0283555
498	0.0179421
510	0.0211083
522	0.020264
534	0.00605105
546	0.00759899
558	0.0130871
570	0.0167459
582	0.0168163
594	0.0158312
606	0.0214601
618	0.0113281
630	0.0189271
642	0.0527004
654	0.0192086
666	0.0189271
678	0.026315
690	0.0226562
702	0.022797
714	0.02533
726	0.0547409
738	0.0780303
750	0.0905546
762	0.0527707
774	0.166263
786	0.0878105
798	0.104416
810	0.0534744
822	0.0391207
834	0.0518561
846	0.147969
858	0.0705721
870	0.0679687
882	0.139104
894	0.0210379
906	0.0178717
918	0.0153387
930	0.0161127
942	0.0225859
954	0.022797
966	0.0222341
978	0.0207565
990	0.0193493
1002	0.0242745
1014	0.0299034
1026	0.0256818
1038	0.0287776
1050	0.0337029
1062	0.0383467
1074	0.042287
1086	0.0384875
1098	0.0632545
1110	0.118488
1122	0.0390504
1134	0.0309588
1146	0.0392614
1158	0.0961131
1170	0.118418
1182	0.054178
1194	0.0709942
1206	0.141988
1218	0.0777489
1230	0.110889
1242	0.262306
1254	0.70361
1266	0.179632
1278	0.0785229
1290	0.0735272
1302	0.0647321
1314	0.0747937
1326	0.10139
1338	0.217697
1350	0.397399
1362	0.131083
1374	0.0781711
1386	0.0466493
1398	0.0431313
1410	0.0510821
1422	0.0684613
1434	0.155005
1446	0.4444
1458	0.134882
1470	0.0700092
1482	0.150502
1494	0.234372
1506	0.109693
1518	0.136641
1530	0.159508
1542	0.298049
1554	0.113914
1566	0.132771
1578	0.119262
1590	0.163378
1602	0.167741
1614	0.110537
1626	0.045031
1638	0.0226562
1650	0.0170274
1662	0.0147758
1674	0.0127353
1686	0.00914693
1698	0.00928765
1710	0.00844332
1722	0.00788043
1734	0.00731754
1746	0.00816188
1758	0.0110467
1770	0.0116799
1782	0.00949873
1794	0.00443274
1806	0.00394022
1818	0.00365877
1830	0.00365877
1842	0.00443274
1854	0.00795079
1866	0.00612141
1878	0.00429202
1890	0.00738791
1902	0.0103431
1914	0.00914693
1926	0.0083026
1938	0.00422166
1950	0.00365877
1962	0.00457346
1974	0.00386986
1986	0.00471419
1998	0.00379949
2010	0.00386986
2022	0.00386986
2034	0.00457346
2046	0.00710646
2058	0.0057696
2070	0.00436238
2082	0.00457346
2094	0.00379949
2106	0.00344769
2118	0.00267372
2130	0.00260336
2142	0.00133686
2154	0.00070361
2166	0.000281444
2178	0.000562888
2190	0.0012665
2202	0.0016183
2214	0.0028848
2226	0.00267372
2238	0.00295516
2250	0.00189975
2262	0.00218119
2274	0.00344769
2286	0.00358841
2298	0.00457346
2310	0.00464383
2322	0.00351805
2334	0.00197011
2346	0.000914693
2358	0.00154794
2370	0.00218119
2382	0.00372913
2394	0.00372913
2406	0.00520671
2418	0.00562888
2430	0.00513635
2442	0.00591032
2454	0.00886549
2466	0.00823224
2478	0.00506599
2490	0.00492527
2502	0.00569924
2514	0.00520671
2526	0.00485491
2538	0.00499563
2550	0.0045031
2562	0.00443274
2574	0.00492527
2586	0.00471419
2598	0.00513635
2610	0.00506599
2622	0.00520671
2634	0.00520671
2646	0.0057696
2658	0.0054178
2670	0.00401058
2682	0.00485491
2694	0.00569924
2706	0.00569924
2718	0.00612141
2730	0.0057696
2742	0.00499563
2754	0.00429202
2766	0.00562888
2778	0.00555852
2790	0.00583996
2802	0.00520671
2814	0.00569924
2826	0.00569924
2838	0.00724718
2850	0.00900621
2862	0.00942837
2874	0.0113985
2886	0.0116799
2898	0.00900621
2910	0.00886549
2922	0.00921729
2934	0.0108356
2946	0.0108356
2958	0.00942837
2970	0.00970982
2982	0.00907657
2994	0.00893585
3006	0.0095691
3018	0.00879512
3030	0.00802115
3042	0.00893585
3054	0.0083026
3066	0.0125243
3078	0.0223044
3090	0.0221637
3102	0.0111874
3114	0.00900621
3126	0.00731754
3138	0.0083026
3150	0.00788043
3162	0.00689538
3174	0.0070361
3186	0.00795079
3198	0.00710646
3210	0.00640285
3222	0.00661393
3234	0.00781007
3246	0.00886549
3258	0.00675466
3270	0.00731754
3282	0.00795079
3294	0.00816188
3306	0.00752863
3318	0.00893585
3330	0.00914693
3342	0.00724718
3354	0.00816188
3366	0.00879512
3378	0.00978018
3390	0.00942837
3402	0.00858404
3414	0.00816188
3426	0.00795079
3438	0.00963946
3450	0.00809152
3462	0.0086544
3474	0.00781007
3486	0.00942837
3498	0.00872476
3510	0.00717682
3522	0.00914693
3534	0.0083026
3546	0.00816188
3558	0.00668429
3570	0.00640285
3582	0.00675466
3594	0.00851368
3606	0.00633249
3618	0.00569924
3630	0.00492527
3642	0.00534744
3654	0.00422166
3666	0.00591032
3678	0.00401058
3690	0.0016183
3702	0.00154794
3714	0.000773971
3726	0.00112578
3738	0.000211083
3750	0
3762	0
3774	0
3786	0
3798	0
3810	0
3822	0
3834	0
3846	0
3858	0
3870	0
3882	0
3894	0
3906	0
3918	0
3930	0
3942	0
3954	0
3966	0
