Infrared Spectrum: Benzene, 2-chloro-1,4-dimethoxy-
Formula: C 8 H 9 Cl O 2
CAS: 2100-42-7
Origin: Sadtler Research Labs Under US-EPA Contract
1/CM	ABSORBANCE
450	0.0414744
462	0.00503007
474	0.0175578
486	0.00759256
498	0.0128124
510	0.0139513
522	0.00427081
534	0.00692821
546	0.00759256
558	0.0067384
570	0.0131921
582	0.0149004
594	0.013287
606	0.0203101
618	0.0169884
630	0.01528
642	0.0124328
654	0.00768747
666	0.00825691
678	0.0195508
690	0.0243911
702	0.0198356
714	0.0257198
726	0.0516294
738	0.114932
750	0.085701
762	0.0248656
774	0.0220184
786	0.0357799
798	0.0545715
810	0.0632081
822	0.0419489
834	0.039766
846	0.0573238
858	0.0576085
870	0.0786779
882	0.103069
894	0.0666247
906	0.0220184
918	0.0135717
930	0.00996524
942	0.0114837
954	0.0137615
966	0.0140462
978	0.0202152
990	0.0329327
1002	0.0549512
1014	0.10734
1026	0.147201
1038	0.24505
1050	0.330846
1062	0.291175
1074	0.16305
1086	0.0547613
1098	0.0297059
1110	0.023442
1122	0.0319837
1134	0.0463146
1146	0.0402406
1158	0.0372035
1170	0.0664349
1182	0.118824
1194	0.101645
1206	0.23442
1218	0.485924
1230	0.337394
1242	0.164569
1254	0.231193
1266	0.387315
1278	0.27542
1290	0.133629
1302	0.0822844
1314	0.0474535
1326	0.0297059
1338	0.0231573
1350	0.0196457
1362	0.0219235
1374	0.0212592
1386	0.0254351
1398	0.0444165
1410	0.0495415
1422	0.0620692
1434	0.144448
1446	0.194749
1458	0.135622
1470	0.174819
1482	0.212212
1494	0.715029
1506	0.802723
1518	0.15299
1530	0.0524836
1542	0.0396711
1554	0.0386271
1566	0.0486873
1578	0.0613099
1590	0.064252
1602	0.0688076
1614	0.0637775
1626	0.0349258
1638	0.0220184
1650	0.0196457
1662	0.016324
1674	0.0170833
1686	0.0164189
1698	0.0160393
1710	0.0131921
1722	0.0149953
1734	0.0183171
1746	0.0145208
1758	0.0123379
1770	0.0130023
1782	0.0125277
1794	0.013287
1806	0.0100601
1818	0.00920598
1830	0.0117685
1842	0.0118634
1854	0.0094907
1866	0.0104398
1878	0.00930089
1890	0.00892126
1902	0.00968051
1914	0.010155
1926	0.00873144
1938	0.00901616
1950	0.00873144
1962	0.00939579
1974	0.011199
1986	0.0121481
1998	0.0138564
2010	0.0162291
2022	0.0189814
2034	0.017368
2046	0.0168934
2058	0.0160393
2070	0.0149004
2082	0.0133819
2094	0.013287
2106	0.0141411
2118	0.0123379
2130	0.0106296
2142	0.0105347
2154	0.0106296
2166	0.00996524
2178	0.0106296
2190	0.00996524
2202	0.0094907
2214	0.00987033
2226	0.0100601
2238	0.0105347
2250	0.0106296
2262	0.01025
2274	0.011199
2286	0.0104398
2298	0.008162
2310	0.00417591
2322	0.00170833
2334	0.00531479
2346	0.0149953
2358	0.00199305
2370	0.0287568
2382	0.0243911
2394	0.0135717
2406	0.0103449
2418	0.0100601
2430	0.0119583
2442	0.0116736
2454	0.0124328
2466	0.0127175
2478	0.0130023
2490	0.0138564
2502	0.0149953
2514	0.0156597
2526	0.0156597
2538	0.0147106
2550	0.0127175
2562	0.0127175
2574	0.0130972
2586	0.0135717
2598	0.0147106
2610	0.0136666
2622	0.0123379
2634	0.0123379
2646	0.0125277
2658	0.00958561
2670	0.00806709
2682	0.0100601
2694	0.0124328
2706	0.0130023
2718	0.0106296
2730	0.0115787
2742	0.0145208
2754	0.0138564
2766	0.0150902
2778	0.0156597
2790	0.0181272
2802	0.0220184
2814	0.0280925
2826	0.0420438
2838	0.0953815
2850	0.111421
2862	0.0595067
2874	0.0432776
2886	0.0454605
2898	0.0587474
2910	0.0860806
2922	0.0995574
2934	0.105631
2946	0.155647
2958	0.159254
2970	0.0991778
2982	0.0605507
2994	0.0636826
3006	0.131636
3018	0.105537
3030	0.0401457
3042	0.0328378
3054	0.0319837
3066	0.029611
3078	0.0297059
3090	0.0259096
3102	0.0215439
3114	0.0161342
3126	0.0140462
3138	0.0134768
3150	0.00930089
3162	0.00882635
3174	0.00844672
3186	0.00892126
3198	0.00835182
3210	0.00863654
3222	0.00911107
3234	0.0094907
3246	0.0094907
3258	0.00939579
3270	0.0067384
3282	0.00844672
3294	0.0112939
3306	0.0094907
3318	0.008162
3330	0.00787728
3342	0.008162
3354	0.008162
3366	0.00806709
3378	0.00768747
3390	0.00578933
3402	0.00892126
3414	0.00597914
3426	0.00721293
3438	0.00863654
3450	0.00588423
3462	0.00607405
3474	0.00455554
3486	0.00645368
3498	0.00569442
3510	0.00654858
3522	0.00588423
3534	0.00626386
3546	0.00398609
3558	0.00398609
3570	0.00436572
3582	0.004081
3594	0.00417591
3606	0.00351156
3618	0.00379628
3630	0.00550461
3642	0.00692821
3654	0.00740275
3666	0.00303702
3678	0.00398609
3690	0.00417591
3702	0.00436572
3714	0.00569442
3726	0.00389119
3738	0.00559951
3750	0.00493516
3762	0.00664349
3774	0.00389119
3786	0.00370137
3798	0.0027523
3810	0.00465044
3822	0.00360647
3834	0.00256249
3846	0.00208795
3858	0.00332175
3870	0.00218286
3882	0.00170833
3894	0.00284721
3906	0.00189814
3918	0.004081
3930	0.00170833
3942	0.00170833
3954	0.00208795
3966	0.00749765
