Infrared Spectrum: Benzaldehyde, 2,3,4-trimethoxy-
Formula: C 10 H 12 O 4
CAS: 2103-57-3
Origin: Sadtler Research Labs Under US-EPA Contract
1/CM	ABSORBANCE
450	0.0128582
462	0.00738663
474	0.0107608
486	0.0144997
498	0.0238014
510	0.0561749
522	0.0470556
534	0.0182386
546	0.0153204
558	0.0140437
570	0.0114903
582	0.0130406
594	0.0106696
606	0.0103048
618	0.0124022
630	0.0135878
642	0.0161412
654	0.0201537
666	0.0254428
678	0.0246221
690	0.0389394
702	0.0458701
714	0.0200625
726	0.0137701
738	0.0147733
750	0.018877
762	0.0456877
774	0.129129
786	0.113353
798	0.0906458
810	0.0783348
822	0.0437726
834	0.0253517
846	0.0126758
858	0.0100312
870	0.0120375
882	0.0173267
894	0.0298201
906	0.0254428
918	0.0175091
930	0.0331031
942	0.0793379
954	0.0454141
966	0.0365684
978	0.031644
990	0.0351093
1002	0.0690331
1014	0.165242
1026	0.229624
1038	0.222602
1050	0.155758
1062	0.132686
1074	0.222784
1086	0.326289
1098	0.570412
1110	0.534209
1122	0.184575
1134	0.0713129
1146	0.0590019
1158	0.117365
1170	0.167522
1182	0.119189
1194	0.177918
1206	0.211385
1218	0.133324
1230	0.171808
1242	0.203269
1254	0.376171
1266	0.406903
1278	0.427239
1290	0.89971
1302	0.55801
1314	0.149648
1326	0.0745959
1338	0.0504297
1350	0.0424047
1362	0.0446846
1374	0.0776052
1386	0.271938
1398	0.135604
1410	0.15594
1422	0.248501
1434	0.128491
1446	0.129494
1458	0.229259
1470	0.405444
1482	0.211294
1494	0.328386
1506	0.121378
1518	0.0476027
1530	0.0393954
1542	0.0416752
1554	0.0610081
1566	0.128217
1578	0.272941
1590	0.546155
1602	0.398057
1614	0.133415
1626	0.0511593
1638	0.034471
1650	0.0343798
1662	0.049153
1674	0.0806146
1686	0.128491
1698	0.53357
1710	0.597314
1722	0.246859
1734	0.064747
1746	0.0211568
1758	0.0128582
1770	0.0140437
1782	0.0111255
1794	0.00939288
1806	0.00793379
1818	0.00483323
1830	0.0039213
1842	0.00410369
1854	0.00291818
1866	0.00446846
1878	0.00683948
1890	0.00665709
1902	0.00683948
1914	0.00838976
1926	0.0101224
1938	0.0105784
1950	0.00857214
1962	0.00811618
1974	0.00875453
1986	0.00893691
1998	0.00720425
2010	0.00601874
2022	0.0065659
2034	0.00747783
2046	0.00592755
2058	0.00410369
2070	0.00383011
2082	0.00355653
2094	0.00337414
2106	0.00383011
2118	0.00565397
2130	0.00610993
2142	0.00492442
2154	0.00401249
2166	0.00373891
2178	0.00337414
2190	0.00346533
2202	0.0025534
2214	0.00209744
2226	0.0026446
2238	0.00300937
2250	0.00164147
2262	0.00100312
2274	0.00118551
2286	0.00100312
2298	0.000455965
2310	0.000182386
2322	0.000364772
2334	0.000455965
2346	0.00155028
2358	0.00237102
2370	0.0026446
2382	0.0039213
2394	0.00373891
2406	0.00218863
2418	0.00164147
2430	0.00155028
2442	0.00227983
2454	0.00291818
2466	0.00401249
2478	0.00410369
2490	0.00465084
2502	0.00483323
2514	0.00583635
2526	0.00574516
2538	0.00483323
2550	0.00501562
2562	0.00674828
2574	0.00994004
2586	0.0101224
2598	0.00720425
2610	0.00565397
2622	0.005198
2634	0.00465084
2646	0.00492442
2658	0.005198
2670	0.00592755
2682	0.00766021
2694	0.0115815
2706	0.0297289
2718	0.0352005
2730	0.0195153
2742	0.0361124
2754	0.0399425
2766	0.0158676
2778	0.0142261
2790	0.0194241
2802	0.0244397
2814	0.0329207
2826	0.0736839
2838	0.161776
2850	0.23464
2862	0.188952
2874	0.0871805
2886	0.0866334
2898	0.0840799
2910	0.0956615
2922	0.109158
2934	0.142079
2946	0.268655
2958	0.223423
2970	0.160317
2982	0.127579
2994	0.113444
3006	0.152566
3018	0.121378
3030	0.0536215
3042	0.0383923
3054	0.0333766
3066	0.0304585
3078	0.0315528
3090	0.0325559
3102	0.0229806
3114	0.0124022
3126	0.00820737
3138	0.00638351
3150	0.005198
3162	0.0039213
3174	0.0026446
3186	0.00164147
3198	0.00145909
3210	0.00091193
3222	0.00091193
3234	0.0012767
3246	0.0012767
3258	0.00109432
3270	0.0012767
3282	0.00145909
3294	0.00182386
3306	0.0013679
3318	0.00218863
3330	0.00164147
3342	0.00200625
3354	0.00227983
3366	0.00373891
3378	0.00674828
3390	0.0100312
3402	0.00428607
3414	0.00218863
3426	0.0025534
3438	0.00145909
3450	0.00100312
3462	0.000820737
3474	0.00118551
3486	0.00100312
3498	0.00100312
3510	0.00145909
3522	0.00109432
3534	0.0012767
3546	0.000547158
3558	0.000820737
3570	0.00109432
3582	0.000638351
3594	0.00109432
3606	0.000547158
3618	0.000820737
3630	0.00109432
3642	0.000729544
3654	0.00164147
3666	0.000820737
3678	0.0013679
3690	0.00164147
3702	0.00164147
3714	0.00100312
3726	0.00109432
3738	0.000820737
3750	0.00091193
3762	0.000820737
3774	0.0013679
3786	0.00118551
3798	0.00145909
3810	0.0013679
3822	0.0013679
3834	0.00155028
3846	0.00118551
3858	0.00155028
3870	0.00091193
3882	0.00100312
3894	0.0012767
3906	0.00182386
3918	0.000182386
3930	0.00118551
3942	0.00209744
3954	0.00182386
3966	0.0012767
