Infrared Spectrum: Nonanedioic acid, monomethyl ester
Formula: C 10 H 18 O 4
CAS: 2104-19-0
Origin: Sadtler Research Labs Under US-EPA Contract
1/CM	ABSORBANCE
450	0
462	0.168178
474	0.220177
486	0.179965
498	0.168376
510	0.199972
522	0.17739
534	0.19601
546	0.217899
558	0.221167
570	0.234043
582	0.230676
594	0.240976
606	0.251178
618	0.241373
630	0.24167
642	0.223247
654	0.203042
666	0.194921
678	0.191157
690	0.188879
702	0.192643
714	0.193732
726	0.195218
738	0.192246
750	0.18353
762	0.176498
774	0.180163
786	0.177489
798	0.17937
810	0.179668
822	0.181549
834	0.185907
846	0.188978
858	0.186502
870	0.187888
882	0.184323
894	0.178479
906	0.174715
918	0.171645
930	0.169763
942	0.170258
954	0.173626
966	0.179965
978	0.18878
990	0.203835
1002	0.220474
1014	0.241472
1026	0.251376
1038	0.24791
1050	0.25613
1062	0.292183
1074	0.34745
1086	0.39103
1098	0.400439
1110	0.454121
1122	0.551879
1134	0.539399
1146	0.544054
1158	0.588823
1170	0.610117
1182	0.565349
1194	0.517807
1206	0.484825
1218	0.441642
1230	0.422526
1242	0.42213
1254	0.404599
1266	0.35468
1278	0.314369
1290	0.2904
1302	0.276633
1314	0.271383
1326	0.268313
1338	0.278911
1350	0.305059
1362	0.319123
1374	0.299314
1386	0.269006
1398	0.23127
1410	0.213442
1422	0.22711
1434	0.285943
1446	0.292975
1458	0.26762
1470	0.236817
1482	0.19502
1494	0.17947
1506	0.174319
1518	0.171051
1530	0.168674
1542	0.169268
1554	0.168178
1566	0.167089
1578	0.167386
1590	0.166495
1602	0.1659
1614	0.166198
1626	0.167089
1638	0.168575
1650	0.17006
1662	0.170258
1674	0.17531
1686	0.181549
1698	0.194029
1710	0.220276
1722	0.274454
1734	0.397369
1746	0.61497
1758	0.926665
1770	0.974603
1782	0.866545
1794	0.520184
1806	0.33913
1818	0.237114
1830	0.194128
1842	0.178281
1854	0.171744
1866	0.168376
1878	0.166396
1890	0.165504
1902	0.164415
1914	0.164217
1926	0.163919
1938	0.164217
1950	0.165603
1962	0.166495
1974	0.166594
1986	0.166594
1998	0.166495
2010	0.166495
2022	0.167089
2034	0.16699
2046	0.166891
2058	0.167089
2070	0.165999
2082	0.165603
2094	0.164415
2106	0.162731
2118	0.162335
2130	0.161245
2142	0.161245
2154	0.161245
2166	0.161443
2178	0.162137
2190	0.162434
2202	0.163127
2214	0.16283
2226	0.162434
2238	0.162533
2250	0.162236
2262	0.162335
2274	0.161939
2286	0.16283
2298	0.164019
2310	0.165108
2322	0.16491
2334	0.163325
2346	0.162533
2358	0.163424
2370	0.160651
2382	0.161443
2394	0.161443
2406	0.161344
2418	0.160948
2430	0.160651
2442	0.161344
2454	0.160948
2466	0.161344
2478	0.161047
2490	0.160849
2502	0.161146
2514	0.160948
2526	0.161047
2538	0.16174
2550	0.16184
2562	0.162137
2574	0.16184
2586	0.161939
2598	0.162335
2610	0.16174
2622	0.161939
2634	0.162434
2646	0.162533
2658	0.16283
2670	0.164019
2682	0.164415
2694	0.164217
2706	0.163919
2718	0.163226
2730	0.163523
2742	0.163721
2754	0.165108
2766	0.166891
2778	0.166891
2790	0.169763
2802	0.172041
2814	0.174814
2826	0.182045
2838	0.197496
2850	0.235628
2862	0.308426
2874	0.326056
2886	0.27069
2898	0.260686
2910	0.313874
2922	0.425299
2934	0.56208
2946	0.608433
2958	0.534942
2970	0.379838
2982	0.27693
2994	0.238203
3006	0.219187
3018	0.205221
3030	0.197199
3042	0.186997
3054	0.17937
3066	0.176399
3078	0.172536
3090	0.171843
3102	0.170754
3114	0.169466
3126	0.168674
3138	0.167584
3150	0.166693
3162	0.16699
3174	0.164811
3186	0.164118
3198	0.164514
3210	0.16382
3222	0.165009
3234	0.164712
3246	0.163622
3258	0.164514
3270	0.164019
3282	0.16382
3294	0.164514
3306	0.163226
3318	0.164316
3330	0.163523
3342	0.16491
3354	0.165405
3366	0.165603
3378	0.1659
3390	0.165405
3402	0.165405
3414	0.165108
3426	0.164613
3438	0.166693
3450	0.1659
3462	0.166495
3474	0.167485
3486	0.170159
3498	0.171249
3510	0.172536
3522	0.171249
3534	0.172834
3546	0.17838
3558	0.195614
3570	0.304761
3582	0.335465
3594	0.195416
3606	0.171546
3618	0.168674
3630	0.168277
3642	0.164811
3654	0.166198
3666	0.166297
3678	0.163919
3690	0.163523
3702	0.160651
3714	0.161939
3726	0.1659
3738	0.163028
3750	0.16491
3762	0.160651
3774	0.16174
3786	0.162038
3798	0.160651
3810	0.160849
3822	0.160651
3834	0.160651
3846	0.162236
3858	0.164712
3870	0.160651
3882	0.163523
3894	0.163127
3906	0.160948
3918	0.160552
3930	0.160651
3942	0.166594
3954	0.160651
3966	0.160651
