Infrared Spectrum: Glutarimide, 3-[2-(3,5-dimethyl-2-oxocyclohexyl)-2-hydroxyethyl]-
Formula: C 15 H 23 N O 4
CAS: 21059-09-6
Origin: Sadtler Research Labs Under US-EPA Contract
1/CM	ABSORBANCE
450	0.0409151
462	0.00471551
474	0.037795
486	0.0116647
498	0.0146429
510	0.00939557
522	0.0157775
534	0.0177984
546	0.0157066
558	0.0156357
570	0.0151038
582	0.0168411
594	0.0163093
606	0.0179757
618	0.0134729
630	0.00705554
642	0.0152811
654	0.00897011
666	0.0108492
678	0.012622
690	0.0142175
702	0.0336822
714	0.0407732
726	0.0363059
738	0.0290022
750	0.0130829
762	0.0169829
774	0.012232
786	0.00953739
798	0.0150684
810	0.0145365
822	0.0121965
834	0.0143238
846	0.0158129
858	0.0132956
870	0.016522
882	0.0138629
894	0.0145011
906	0.0153875
918	0.0158484
930	0.0156002
942	0.0127638
954	0.013402
966	0.0137565
978	0.0120192
990	0.0148556
1002	0.0154229
1014	0.0182948
1026	0.0169475
1038	0.017302
1050	0.0156357
1062	0.0170893
1074	0.0197839
1086	0.0203512
1098	0.0210248
1110	0.0280094
1122	0.0427942
1134	0.0639254
1146	0.07091
1158	0.0351359
1170	0.0239321
1182	0.0247121
1194	0.0258467
1206	0.0340368
1218	0.0530052
1230	0.081582
1242	0.0993804
1254	0.0747391
1266	0.0412342
1278	0.0353132
1290	0.0389296
1302	0.0333986
1314	0.0396387
1326	0.0463751
1338	0.0597417
1350	0.0604153
1362	0.0480061
1374	0.0587135
1386	0.0675063
1398	0.0410214
1410	0.0226203
1422	0.0282931
1434	0.0314131
1446	0.0264494
1458	0.0322286
1470	0.0263431
1482	0.0149266
1494	0.0102465
1506	0.0104592
1518	0.0103883
1530	0.00811919
1542	0.0109201
1554	0.0119129
1566	0.010211
1578	0.0114165
1590	0.0120902
1602	0.0156357
1614	0.018543
1626	0.0186493
1638	0.0222657
1650	0.0260949
1662	0.0261658
1674	0.0402769
1686	0.0588553
1698	0.0797028
1710	0.109095
1722	0.203512
1734	0.327285
1746	0.311649
1758	0.205994
1770	0.100834
1782	0.0466233
1794	0.0282931
1806	0.0192875
1818	0.0138274
1830	0.0112392
1842	0.00811919
1854	0.00723282
1866	0.007481
1878	0.00538916
1890	0.00510552
1902	0.00450278
1914	0.00407732
1926	0.00361641
1938	0.00340368
1950	0.00304913
1962	0.00276549
1974	0.00301367
1986	0.00255276
1998	0.0028364
2010	0.00301367
2022	0.00294276
2034	0.00287185
2046	0.00273004
2058	0.00223366
2070	0.00269458
2082	0.00230458
2094	0.00237549
2106	0.00205639
2118	0.00226912
2130	0.00223366
2142	0.00159547
2154	0.00198548
2166	0.0021273
2178	0.00237549
2190	0.00209184
2202	0.00248185
2214	0.00187911
2226	0.00177275
2238	0.00177275
2250	0.00170184
2262	0.00148911
2274	0.0017373
2286	0.0024464
2298	0.00382914
2310	0.00432551
2322	0.00329731
2334	0.00127638
2346	0.00489279
2358	0.00159547
2370	0.00336822
2382	0.0035455
2394	0.00099274
2406	0.000248185
2418	0.000531825
2430	0.000673645
2442	0.000602735
2454	0.000531825
2466	0.00092183
2478	0.00106365
2490	0.00063819
2502	0.000602735
2514	0.00092183
2526	0.000531825
2538	0.000815465
2550	0.00156002
2562	0.00159547
2574	0.00138274
2586	0.00163093
2598	0.00216275
2610	0.00241094
2622	0.00265913
2634	0.00315549
2646	0.00301367
2658	0.00361641
2670	0.0042546
2682	0.00443188
2694	0.00620463
2706	0.00897011
2718	0.0161675
2730	0.0157775
2742	0.00982103
2754	0.00758737
2766	0.007481
2778	0.00744555
2790	0.00904102
2802	0.0118065
2814	0.0176566
2826	0.021663
2838	0.0179757
2850	0.0229039
2862	0.036235
2874	0.0484315
2886	0.0496725
2898	0.051977
2910	0.0676127
2922	0.0898075
2934	0.102961
2946	0.0800574
2958	0.0727891
2970	0.0869711
2982	0.0560544
2994	0.0234003
3006	0.00854465
3018	0.00553098
3030	0.00443188
3042	0.00453824
3054	0.00407732
3066	0.00514097
3078	0.00436096
3090	0.00485733
3102	0.00514097
3114	0.00478642
3126	0.00471551
3138	0.00503461
3150	0.00432551
3162	0.00482188
3174	0.0049637
3186	0.0046446
3198	0.00482188
3210	0.00542461
3222	0.00475097
3234	0.0053537
3246	0.00549552
3258	0.00542461
3270	0.00581462
3282	0.00531825
3294	0.00521188
3306	0.00482188
3318	0.00390005
3330	0.00375823
3342	0.0039355
3354	0.00294276
3366	0.00336822
3378	0.0035455
3390	0.00691372
3402	0.0208475
3414	0.0267685
3426	0.00744555
3438	0.00397096
3450	0.00379368
3462	0.00436096
3474	0.0053537
3486	0.00517643
3498	0.00407732
3510	0.00347459
3522	0.00258822
3534	0.0017373
3546	0.00308458
3558	0.00099274
3570	0.00485733
3582	0.00138274
3594	0.0045737
3606	0.00273004
3618	0.00414824
3630	0.00595644
3642	0.00273004
3654	0.00585007
3666	0.00219821
3678	0.0024464
3690	0.00382914
3702	0.0042546
3714	0.00585007
3726	0.00258822
3738	0.00397096
3750	0.0078001
3762	0.00234003
3774	0.00219821
3786	0.00312004
3798	0.00499915
3810	0.0017373
3822	0.00528279
3834	0.00273004
3846	0.00485733
3858	0.0039355
3870	0.00333277
3882	0.00358095
3894	0.00531825
3906	0.00517643
3918	0.00645281
3930	0.00414824
3942	0.00386459
3954	0.00797738
3966	0.00507006
