Infrared Spectrum: Piperazine, 1-cyclopropylmethyl-4-phenyl-,
Formula: C 14 H 20 N 2
CAS: 21057-48-7
Origin: Sadtler Research Labs Under US-EPA Contract
1/CM	ABSORBANCE
450	0.0365104
462	0.0229716
474	0.0181997
486	0.0198643
498	0.021529
510	0.0369543
522	0.0722441
534	0.0577065
546	0.0286313
558	0.0167571
570	0.00843402
582	0.00454993
594	0.00144266
606	0.00055487
618	0.00310727
630	0.00454993
642	0.0134279
654	0.0186436
666	0.0375092
678	0.10598
690	0.237151
702	0.129507
714	0.0593711
726	0.0472749
738	0.105092
750	0.257682
762	0.258236
774	0.0989888
786	0.06381
798	0.0755733
810	0.0643649
822	0.0772379
834	0.0903328
846	0.0290752
858	0.0189766
870	0.0260789
882	0.0361775
894	0.042836
906	0.0715782
918	0.245253
930	0.154143
942	0.0887792
954	0.0583723
966	0.051159
978	0.0544882
990	0.120074
1002	0.328594
1014	0.670394
1026	0.339248
1038	0.0975461
1050	0.101985
1062	0.059926
1074	0.0438347
1086	0.0453884
1098	0.0887792
1110	0.129174
1122	0.192651
1134	0.376535
1146	0.442453
1158	0.30074
1170	0.161578
1182	0.123514
1194	0.14693
1206	0.229494
1218	0.491393
1230	1.10974
1242	0.529124
1254	0.260123
1266	0.169679
1278	0.143822
1290	0.200086
1302	0.310727
1314	0.19365
1326	0.272108
1338	0.413711
1350	0.206967
1362	0.181664
1374	0.356892
1386	0.369876
1398	0.138496
1410	0.114081
1422	0.0698026
1434	0.0887792
1446	0.204525
1458	0.392848
1470	0.185105
1482	0.200974
1494	0.634438
1506	0.774266
1518	0.154698
1530	0.0655856
1542	0.0552651
1554	0.0607028
1566	0.0922194
1578	0.171788
1590	0.404056
1602	0.858495
1614	0.22217
1626	0.0551541
1638	0.0335141
1650	0.0230826
1662	0.0125401
1674	0.0132059
1686	0.0209741
1698	0.0249691
1710	0.0284093
1722	0.029741
1734	0.0345129
1746	0.0235265
1758	0.0200863
1770	0.0167571
1782	0.008545
1794	0.00754623
1806	0.00344019
1818	0.00443896
1830	0.00776818
1842	0.00832305
1854	0.0051048
1866	0.00166461
1878	0.000110974
1890	0.00321825
1902	0.0105425
1914	0.0195314
1926	0.021529
1938	0.0210851
1950	0.00776818
1962	0.00632552
1974	0.00710234
1986	0.00399506
1998	0.00188656
2010	0.000665844
2022	0.000665844
2034	0.00166461
2046	0.00266338
2058	0.00699136
2070	0.0103206
2082	0.00743526
2094	0.00699136
2106	0.00532675
2118	0.00410604
2130	0.00321825
2142	0.00277435
2154	0.00188656
2166	0.000332922
2178	0.000221948
2190	0.000221948
2202	0.000221948
2214	0.000998766
2226	0.00288532
2238	0.00388409
2250	0.00321825
2262	0.00310727
2274	0.00332922
2286	0.00432799
2298	0.00621454
2310	0.008545
2322	0.00843402
2334	0.00765721
2346	0.0104316
2358	0.00776818
2370	0.00743526
2382	0.00954376
2394	0.00621454
2406	0.00643649
2418	0.00643649
2430	0.00776818
2442	0.00865597
2454	0.0113193
2466	0.0120962
2478	0.012984
2490	0.0115413
2502	0.0118742
2514	0.0123181
2526	0.0138718
2538	0.0156473
2550	0.0186436
2562	0.0223058
2574	0.0219729
2586	0.0204192
2598	0.0205302
2610	0.0220838
2622	0.0234155
2634	0.0272996
2646	0.0354007
2658	0.0464981
2670	0.0590382
2682	0.0754623
2694	0.089667
2706	0.0934401
2718	0.0967693
2730	0.113304
2742	0.154143
2754	0.211516
2766	0.252688
2778	0.317053
2790	0.397176
2802	0.492059
2814	0.623008
2826	0.760172
2838	0.530345
2850	0.239371
2862	0.15492
2874	0.182885
2886	0.250579
2898	0.254907
2910	0.292416
2922	0.33725
2934	0.376535
2946	0.40106
2958	0.34868
2970	0.290086
2982	0.18688
2994	0.153588
3006	0.22905
3018	0.303514
3030	0.233267
3042	0.241036
3054	0.156584
3066	0.235931
3078	0.330148
3090	0.311948
3102	0.14693
3114	0.0739087
3126	0.0314056
3138	0.016868
3150	0.0130949
3162	0.00965474
3174	0.00743526
3186	0.00721331
3198	0.00643649
3210	0.00610357
3222	0.00543773
3234	0.00499383
3246	0.00443896
3258	0.00410604
3270	0.00388409
3282	0.00344019
3294	0.00332922
3306	0.00321825
3318	0.0029963
3330	0.0029963
3342	0.00233045
3354	0.00221948
3366	0.00188656
3378	0.00210851
3390	0.00188656
3402	0.00166461
3414	0.00133169
3426	0.00177558
3438	0.00210851
3450	0.00199753
3462	0.00266338
3474	0.00166461
3486	0.00133169
3498	0.000776818
3510	0.000887792
3522	0.000332922
3534	0.000665844
3546	0.00166461
3558	0.00110974
3570	0.00221948
3582	0.00199753
3594	0.0029963
3606	0.00133169
3618	0.00144266
3630	0.00344019
3642	0.00244143
3654	0.00277435
3666	0.00344019
3678	0.00321825
3690	0.00210851
3702	0.00233045
3714	0.00277435
3726	0.00332922
3738	0.00410604
3750	0.00244143
3762	0.00233045
3774	0.00221948
3786	0.00233045
3798	0.00266338
3810	0.00110974
3822	0.00388409
3834	0.00266338
3846	0.00277435
3858	0.00244143
3870	0.00321825
3882	0.00188656
3894	0.00266338
3906	0.00244143
3918	0.00277435
3930	0.00177558
3942	0.00177558
3954	0.00144266
3966	0.00266338
