Infrared Spectrum: 3-Hepten-1-ol, (E)-
Formula: C 7 H 14 O
CAS: 2108-05-6
Origin: Sadtler Research Labs Under US-EPA Contract
1/CM	ABSORBANCE
450	0.00263292
462	0.014876
474	0.0104
486	0.0135595
498	0.013757
510	0.0102684
522	0.0110583
534	0.012638
546	0.00901775
558	0.00533166
570	0.00408103
582	0.00289621
594	0.00204051
606	0.00269874
618	0.00263292
630	0.00250127
642	0.000724053
654	0.00111899
666	0.00210634
678	0.000329115
690	0.00263292
702	0.00269874
714	0.00118481
726	0.00335697
738	0.00427849
750	0.00809623
762	0.00947851
774	0.0119798
786	0.00928104
798	0.00750382
810	0.00677977
822	0.00862281
834	0.0127697
846	0.0180355
858	0.0231039
870	0.025671
882	0.0259343
894	0.0242887
906	0.0212608
918	0.0213925
930	0.0260001
942	0.0513419
954	0.116309
966	0.201813
978	0.184173
990	0.108213
1002	0.103342
1014	0.130856
1026	0.174892
1038	0.325824
1050	0.421399
1062	0.281262
1074	0.163175
1086	0.107226
1098	0.0693774
1110	0.045352
1122	0.0398887
1134	0.0369925
1146	0.0354786
1158	0.0406128
1170	0.0514078
1182	0.0556863
1194	0.053909
1206	0.0512103
1218	0.0444305
1230	0.0389672
1242	0.0357419
1254	0.037914
1266	0.0466027
1278	0.049104
1290	0.0451546
1302	0.0443647
1314	0.0452862
1326	0.0481166
1338	0.0620053
1350	0.0622027
1362	0.0569369
1374	0.0862281
1386	0.123945
1398	0.093337
1410	0.0556204
1422	0.0504204
1434	0.066942
1446	0.0769471
1458	0.0766838
1470	0.0693116
1482	0.0454837
1494	0.0214583
1506	0.0109924
1518	0.00546331
1530	0.00348862
1542	0.00348862
1554	0.00217216
1566	0.00177722
1578	0.0023038
1590	0.00151393
1602	0.000921522
1614	0.00131646
1626	0.00138228
1638	0.00204051
1650	0.00197469
1662	0.00236963
1674	0.0034228
1686	0.0040152
1698	0.00526584
1710	0.00737218
1722	0.0114532
1734	0.0135595
1746	0.0150076
1758	0.0139545
1770	0.00763547
1782	0.00467343
1794	0.00283039
1806	0.00223798
1818	0.00184304
1830	0.00164557
1842	0.00204051
1854	0.00157975
1866	0.00138228
1878	0.00131646
1890	0.00105317
1902	0.000789876
1914	0.000855699
1926	0.000855699
1938	0.000592407
1950	0.000460761
1962	0.000329115
1974	0.000526584
1986	0.000131646
1998	0.000329115
2010	0.000987345
2022	0.00105317
2034	0.00184304
2046	0.00236963
2058	0.00289621
2070	0.00243545
2082	0.00184304
2094	0.00138228
2106	0.00138228
2118	0.000526584
2130	0.000329115
2142	6.5823e-05
2154	0.000131646
2166	0.000526584
2178	0.000329115
2190	0.000329115
2202	0.000263292
2214	0.000526584
2226	0.000460761
2238	0.000197469
2250	0.000526584
2262	0.000460761
2274	0.000263292
2286	0.000329115
2298	0.000526584
2310	0.00144811
2322	0.0025671
2334	0.00302786
2346	0.00269874
2358	0.00236963
2370	0.00263292
2382	0.00190887
2394	0.0023038
2406	0.00236963
2418	0.00243545
2430	0.0023038
2442	0.00197469
2454	0.00190887
2466	0.00131646
2478	0.00125064
2490	0.00131646
2502	0.0017114
2514	0.00204051
2526	0.00236963
2538	0.00236963
2550	0.00210634
2562	0.00210634
2574	0.00204051
2586	0.00269874
2598	0.00335697
2610	0.00408103
2622	0.00441014
2634	0.0048709
2646	0.00618736
2658	0.00750382
2670	0.00855699
2682	0.0097418
2694	0.00967598
2706	0.0113216
2718	0.0134279
2730	0.0152051
2742	0.0180355
2754	0.020076
2766	0.021195
2778	0.0239596
2790	0.0271849
2802	0.0313976
2814	0.0381115
2826	0.0543698
2838	0.0977472
2850	0.17318
2862	0.244927
2874	0.34748
2886	0.402442
2898	0.336685
2910	0.40672
2922	0.521384
2934	0.635982
2946	0.619394
2958	0.520462
2970	0.63506
2982	0.42831
2994	0.18799
3006	0.122497
3018	0.0964307
3030	0.0860307
3042	0.0654939
3054	0.0394938
3066	0.0232355
3078	0.016719
3090	0.0127697
3102	0.0101367
3114	0.00796458
3126	0.00710888
3138	0.00605572
3150	0.00467343
3162	0.00467343
3174	0.00434432
3186	0.00467343
3198	0.00368609
3210	0.0031595
3222	0.0023038
3234	0.00197469
3246	0.0017114
3258	0.00144811
3270	0.00111899
3282	0.00118481
3294	0.000394938
3306	0.00125064
3318	0.000921522
3330	0.000329115
3342	0.000394938
3354	0.00125064
3366	6.5823e-05
3378	0.000724053
3390	0.000394938
3402	0.00065823
3414	0.000921522
3426	0.00125064
3438	0.00131646
3450	0.00105317
3462	0.0017114
3474	0.0017114
3486	0.00184304
3498	0.00144811
3510	0.00118481
3522	0.000987345
3534	0.0017114
3546	0.00250127
3558	0.00263292
3570	0.0034228
3582	0.00460761
3594	0.00598989
3606	0.0173114
3618	0.0439698
3630	0.0356102
3642	0.0275798
3654	0.0396254
3666	0.0603597
3678	0.0515394
3690	0.0211292
3702	0.00921522
3714	0.00506837
3726	0.00394938
3738	0.00210634
3750	0.00329115
3762	0.00184304
3774	0.00210634
3786	0.00111899
3798	0.00217216
3810	0.00184304
3822	0.00335697
3834	0.00236963
3846	0.00223798
3858	0.00263292
3870	0.00250127
3882	0.00204051
3894	0.00289621
3906	0.00138228
3918	0.00263292
3930	0.00190887
3942	0.00190887
3954	0.00144811
3966	0.00118481
