Infrared Spectrum: Biphenyl, 2-nitro-3,3',4,4'-tetramethyl-,
Formula: C 16 H 17 N O 2
CAS: 21113-36-0
Origin: Sadtler Research Labs Under US-EPA Contract
1/CM	ABSORBANCE
450	0.0147162
462	0.00469665
474	0.00553161
486	0.0066275
498	0.00146118
510	0.00954986
522	0.00574035
534	0.00474883
546	0.00902801
558	0.00913237
570	0.0136203
582	0.0134637
594	0.0207174
606	0.0190475
618	0.0066275
630	0.00328766
642	0.00120026
654	0.00401825
666	0.00433136
678	0.00542724
690	0.00401825
702	0.00652313
714	0.0221264
726	0.0377298
738	0.0188388
750	0.00970641
762	0.0145074
774	0.0201434
786	0.0505673
798	0.0390344
810	0.113241
822	0.144552
834	0.0394519
846	0.00954986
858	0.00673187
870	0.0140378
882	0.0543768
894	0.0257794
906	0.00610565
918	0.00500976
930	0.00516632
942	0.00605346
954	0.00636657
966	0.0103848
978	0.0204043
990	0.0386169
1002	0.0282321
1014	0.0213437
1026	0.0203521
1038	0.0157599
1050	0.0162817
1062	0.0133594
1074	0.011846
1086	0.0135159
1098	0.0273449
1110	0.0121069
1122	0.0129941
1134	0.0300064
1146	0.0159686
1158	0.0154989
1170	0.0165948
1182	0.0170645
1194	0.0118982
1206	0.0112198
1218	0.0154989
1230	0.0148205
1242	0.0179516
1254	0.029328
1266	0.0298498
1278	0.022283
1290	0.0178473
1302	0.0158121
1314	0.0181604
1326	0.0233789
1338	0.0350161
1350	0.0718587
1362	0.167879
1374	0.13375
1386	0.0904888
1398	0.0600128
1410	0.0406521
1422	0.0392431
1434	0.049941
1446	0.0761901
1458	0.0959682
1470	0.100091
1482	0.168558
1494	0.119765
1506	0.0894973
1518	0.119608
1530	0.268387
1542	0.52185
1554	0.243443
1566	0.0662749
1578	0.0383038
1590	0.0377819
1602	0.0443573
1614	0.0325634
1626	0.0139856
1638	0.0106457
1650	0.00542724
1662	0.00459228
1674	0.00130463
1686	0.00052185
1698	0.000887145
1710	0.00287017
1722	0.00401825
1734	0.00391387
1746	0.00615783
1758	0.00986297
1770	0.00913237
1782	0.00412262
1794	0.00120026
1806	0.000678405
1818	0.000782775
1830	0.00041748
1842	0.001409
1854	0.00187866
1866	0.00161774
1878	0.00485321
1890	0.00840179
1902	0.00594909
1914	0.00156555
1926	0.000469665
1938	0.000574035
1950	0.00083496
1962	0.00073059
1974	0.00062622
1986	0.000678405
1998	0.00020874
2010	0.000156555
2022	0.00041748
2034	0.000469665
2046	0.00062622
2058	0.00073059
2070	0.00052185
2082	0.000156555
2094	0.000365295
2106	0.000156555
2118	0.00073059
2130	0.000782775
2142	0.000574035
2154	0.000678405
2166	0.000574035
2178	0.00010437
2190	5.2185e-05
2202	0.000156555
2214	0.000782775
2226	0.00125244
2238	0.0010437
2250	0.00130463
2262	0.00172211
2274	0.00187866
2286	0.00198303
2298	0.00281799
2310	0.00380951
2322	0.00490539
2334	0.00443573
2346	0.00464447
2358	0.00380951
2370	0.00328766
2382	0.00422698
2394	0.00292236
2406	0.00328766
2418	0.00333984
2430	0.00333984
2442	0.00307892
2454	0.00333984
2466	0.0031311
2478	0.00328766
2490	0.00318329
2502	0.00323547
2514	0.00287017
2526	0.0031311
2538	0.00344421
2550	0.0041748
2562	0.00448791
2574	0.00422698
2586	0.00365295
2598	0.00401825
2610	0.00370514
2622	0.00365295
2634	0.00344421
2646	0.00375732
2658	0.00365295
2670	0.00344421
2682	0.00396606
2694	0.00433136
2706	0.00516632
2718	0.00657531
2730	0.0087149
2742	0.0123678
2754	0.0103326
2766	0.00814086
2778	0.00908019
2790	0.00850615
2802	0.00913237
2814	0.00986297
2826	0.0130463
2838	0.0179516
2850	0.0268753
2862	0.0469665
2874	0.0793734
2886	0.0883492
2898	0.0765554
2910	0.074468
2922	0.0969597
2934	0.182908
2946	0.13756
2958	0.108962
2970	0.0831829
2982	0.098734
2994	0.0651791
3006	0.0514544
3018	0.0621001
3030	0.0935155
3042	0.062622
3054	0.0509326
3066	0.0593343
3078	0.0419567
3090	0.0220743
3102	0.0146118
3114	0.0115329
3126	0.00824523
3138	0.00506194
3150	0.00323547
3162	0.00234833
3174	0.0020874
3186	0.00130463
3198	0.00114807
3210	0.00135681
3222	0.000991515
3234	0.000469665
3246	0.00062622
3258	0.00083496
3270	0.000574035
3282	0.000991515
3294	0.00093933
3306	0.00083496
3318	0.00151337
3330	0.00109589
3342	0.00083496
3354	0.00114807
3366	0.00156555
3378	0.00093933
3390	0.00125244
3402	0.00172211
3414	0.00093933
3426	0.00182648
3438	0.00146118
3450	0.00120026
3462	0.00193085
3474	0.000887145
3486	0.000782775
3498	0.00120026
3510	0.000782775
3522	0.001409
3534	0.00172211
3546	0.00198303
3558	0.000574035
3570	0.00130463
3582	0.00156555
3594	0.00093933
3606	0.00083496
3618	0.00114807
3630	0.00166992
3642	0.00166992
3654	0.00187866
3666	0.00130463
3678	0.00125244
3690	0.00130463
3702	0.00229614
3714	0.00219177
3726	0.00250488
3738	0.00120026
3750	0.00114807
3762	0.00193085
3774	0.00203521
3786	0.00109589
3798	0.0020874
3810	0.00083496
3822	0.00172211
3834	0.00240051
3846	0.001409
3858	0.00130463
3870	0.00307892
3882	0.0031311
3894	0.0020874
3906	0.00307892
3918	0.00198303
3930	0.00333984
3942	0.00297455
3954	0.00240051
3966	0.00302673
