Infrared Spectrum: Benzene, 2-(1,1-dimethylethyl)-1,4-dimethoxy-
Formula: C 12 H 18 O 2
CAS: 21112-37-8
Origin: Sadtler Research Labs Under US-EPA Contract
1/CM	ABSORBANCE
450	0.0559932
462	0.0324942
474	0.0681262
486	0.00188271
498	0.0223833
510	0.0621294
522	0.0476953
534	0.0445575
546	0.0484624
558	0.0363293
570	0.0434418
582	0.0430234
594	0.0359807
606	0.0430234
618	0.0438602
630	0.0433023
642	0.0427445
654	0.0385607
666	0.0398856
678	0.0442785
690	0.0549472
702	0.0412802
714	0.0463705
726	0.0872322
738	0.130535
750	0.0566905
762	0.045464
774	0.045185
786	0.0529251
798	0.0900912
810	0.0993653
822	0.0567602
834	0.0433721
846	0.040792
858	0.049578
870	0.0536224
882	0.0580851
894	0.0413499
906	0.0548078
918	0.0542499
930	0.0404434
942	0.0336099
954	0.0336796
966	0.0336796
978	0.0349347
990	0.0432326
1002	0.0490202
1014	0.0657554
1026	0.115264
1038	0.182204
1050	0.235966
1062	0.259814
1074	0.149501
1086	0.131232
1098	0.0855587
1110	0.0465796
1122	0.0430931
1134	0.0474861
1146	0.0578062
1158	0.0607348
1170	0.10069
1182	0.159682
1194	0.117007
1206	0.189177
1218	0.556864
1230	0.613415
1242	0.27125
1254	0.126699
1266	0.10836
1278	0.158845
1290	0.190921
1302	0.127885
1314	0.0721705
1326	0.0428142
1338	0.0362596
1350	0.0353531
1362	0.0720311
1374	0.0605256
1386	0.0608743
1398	0.112196
1410	0.14727
1422	0.120842
1434	0.0866744
1446	0.12914
1458	0.175092
1470	0.238058
1482	0.27627
1494	0.420821
1506	0.286521
1518	0.0918344
1530	0.0452548
1542	0.0362596
1554	0.0322153
1566	0.0390488
1578	0.0794922
1590	0.0919739
1602	0.0744716
1614	0.070776
1626	0.0409315
1638	0.026846
1650	0.0250331
1662	0.0324942
1674	0.0244752
1686	0.0193849
1698	0.0192455
1710	0.0178509
1722	0.0173628
1734	0.0188271
1746	0.0179903
1758	0.0172233
1770	0.0166655
1782	0.0163168
1794	0.0152709
1806	0.014713
1818	0.0142946
1830	0.0151314
1842	0.0140157
1854	0.0119936
1866	0.0111568
1878	0.0104595
1890	0.0104595
1902	0.0110871
1914	0.0110173
1926	0.0109476
1938	0.0105292
1950	0.0116449
1962	0.0129
1974	0.0126211
1986	0.0116449
1998	0.0115055
2010	0.0106687
2022	0.00983193
2034	0.01032
2046	0.0107384
2058	0.0105292
2070	0.0107384
2082	0.0108779
2094	0.0100411
2106	0.00962274
2118	0.0101806
2130	0.0104595
2142	0.00829787
2154	0.00529948
2166	0.00578759
2178	0.00585732
2190	0.00536921
2202	0.00446272
2214	0.00460218
2226	0.00369569
2238	0.00341677
2250	0.00292866
2262	0.00299839
2274	0.00230109
2286	0.00202217
2298	0.00146433
2310	0.00055784
2322	0.00195244
2334	0.00383515
2346	0.0020919
2358	0.00244055
2370	0.00230109
2382	0.00090649
2394	0.00195244
2406	0.00167352
2418	0.00181298
2430	0.00160379
2442	0.00181298
2454	0.00195244
2466	0.00237082
2478	0.00313785
2490	0.00327731
2502	0.00264974
2514	0.00264974
2526	0.00202217
2538	0.00132487
2550	0.00104595
2562	0.00076703
2574	0.0006973
2586	0.0013946
2598	0.00195244
2610	0.00174325
2622	0.0020919
2634	0.0027892
2646	0.0034865
2658	0.00320758
2670	0.00341677
2682	0.00376542
2694	0.00320758
2706	0.0034865
2718	0.00613624
2730	0.00481137
2742	0.00425353
2754	0.0055784
2766	0.0055784
2778	0.00676381
2790	0.00983193
2802	0.013946
2814	0.0205704
2826	0.0383515
2838	0.119238
2850	0.0937171
2862	0.0732862
2874	0.107524
2886	0.118192
2898	0.119936
2910	0.174255
2922	0.215187
2934	0.199149
2946	0.266717
2958	0.341538
2970	0.334355
2982	0.157869
2994	0.136392
3006	0.193501
3018	0.0581548
3030	0.0259396
3042	0.0281709
3054	0.0281709
3066	0.0296352
3078	0.0293563
3090	0.0224531
3102	0.0141552
3114	0.0130395
3126	0.0125514
3138	0.00878598
3150	0.00711246
3162	0.00641516
3174	0.00718219
3186	0.00536921
3198	0.00432326
3210	0.00516002
3222	0.00439299
3234	0.00425353
3246	0.00376542
3258	0.0048811
3270	0.00362596
3282	0.00460218
3294	0.00432326
3306	0.00404434
3318	0.00432326
3330	0.00376542
3342	0.00174325
3354	0.0034865
3366	0.00327731
3378	0.00306812
3390	0.0034865
3402	0.0034865
3414	0.00313785
3426	0.00299839
3438	0.0020919
3450	0.00216163
3462	0.00216163
3474	0.0020919
3486	0.00320758
3498	0.00355623
3510	0.00341677
3522	0.00188271
3534	0.00237082
3546	0.00397461
3558	0.00097622
3570	0.00411407
3582	0.00223136
3594	0.00355623
3606	0.00181298
3618	0.0027892
3630	0.00230109
3642	0.00390488
3654	0.00787949
3666	0.00202217
3678	0.0027892
3690	0.0020919
3702	0.00244055
3714	0.00125514
3726	0.00216163
3738	0.00181298
3750	0.00223136
3762	0.00188271
3774	0.00320758
3786	0.00111568
3798	0.00132487
3810	0.00599678
3822	0.00195244
3834	0.00292866
3846	0.00662435
3858	0.00460218
3870	0.00027892
3882	0.00516002
3894	0.00013946
3906	0.00794922
3918	0.00376542
3930	0.00725192
3942	0.0027892
3954	0.00223136
3966	0.00132487
