Infrared Spectrum: 1,1'-Biphenyl, 3-nitro-
Formula: C 12 H 9 N O 2
CAS: 2113-58-8
Origin: Sadtler Research Labs Under US-EPA Contract
1/CM	ABSORBANCE
450	0
462	0.020021
474	0.0199199
486	0.0241667
498	0.0268463
510	0.0247734
522	0.0247229
534	0.0245712
546	0.025734
558	0.0244195
570	0.0221444
582	0.0214871
594	0.0202738
606	0.0276552
618	0.0420137
630	0.0206782
642	0.0196671
654	0.0241667
666	0.041862
678	0.0809939
690	0.10688
702	0.10875
714	0.0597596
726	0.132765
738	0.121289
750	0.0555127
762	0.125586
774	0.0720957
786	0.033975
798	0.0476256
810	0.0434293
822	0.0220433
834	0.0218411
846	0.0222455
858	0.02356
870	0.0554621
882	0.0436821
894	0.0324582
906	0.0347839
918	0.0274024
930	0.0224478
942	0.019212
954	0.0185042
966	0.0208805
978	0.0195659
990	0.0189087
1002	0.0213355
1014	0.0247229
1026	0.0329638
1038	0.0247229
1050	0.0297787
1062	0.0268969
1074	0.0382218
1086	0.0417609
1098	0.0422159
1110	0.0436821
1122	0.0240656
1134	0.0210827
1146	0.020476
1158	0.0220938
1170	0.0299303
1182	0.0201726
1194	0.0190604
1206	0.0187065
1218	0.0193132
1230	0.0202232
1242	0.0213355
1254	0.0296775
1266	0.0402442
1278	0.0424182
1290	0.037514
1302	0.0365029
1314	0.0357951
1326	0.049648
1338	0.0917628
1350	0.312499
1362	0.322054
1374	0.0598607
1386	0.0299809
1398	0.0266946
1410	0.0252284
1422	0.0284136
1434	0.0252284
1446	0.0297281
1458	0.0397891
1470	0.0603157
1482	0.0635008
1494	0.0617819
1506	0.0843307
1518	0.0621358
1530	0.142068
1542	0.456337
1554	0.283074
1566	0.125536
1578	0.108801
1590	0.0751292
1602	0.0438843
1614	0.0323066
1626	0.0260374
1638	0.0229028
1650	0.0220938
1662	0.0229533
1674	0.0199199
1686	0.0179986
1698	0.0173414
1710	0.0191615
1722	0.0208805
1734	0.0197682
1746	0.0190098
1758	0.0181503
1770	0.0173414
1782	0.0185042
1794	0.0217905
1806	0.0211838
1818	0.0204254
1830	0.0190098
1842	0.0179986
1854	0.0175942
1866	0.0180492
1878	0.0203749
1890	0.0211332
1902	0.0214366
1914	0.017038
1926	0.0171392
1938	0.0201221
1950	0.023105
1962	0.0215883
1974	0.0169369
1986	0.0160269
1998	0.0154202
2010	0.0154707
2022	0.0152685
2034	0.0155719
2046	0.0154202
2058	0.0152685
2070	0.0151168
2082	0.0151168
2094	0.0150157
2106	0.0152685
2118	0.0150157
2130	0.015218
2142	0.0150157
2154	0.015218
2166	0.0154707
2178	0.0153696
2190	0.0154202
2202	0.0156224
2214	0.0155719
2226	0.0152685
2238	0.0154707
2250	0.0151674
2262	0.0150157
2274	0.0151674
2286	0.0162291
2298	0.0173414
2310	0.0190604
2322	0.0190098
2334	0.0169369
2346	0.0169875
2358	0.0173414
2370	0.014409
2382	0.0161786
2394	0.0149146
2406	0.0152685
2418	0.0152685
2430	0.0150157
2442	0.0152685
2454	0.0157235
2466	0.0151674
2478	0.0141562
2490	0.0143585
2502	0.014409
2514	0.0143079
2526	0.0142574
2538	0.0148641
2550	0.0147124
2562	0.0146618
2574	0.0149146
2586	0.0151168
2598	0.0150663
2610	0.0153696
2622	0.0155719
2634	0.015673
2646	0.0152685
2658	0.0150663
2670	0.0150663
2682	0.0157741
2694	0.016128
2706	0.0165325
2718	0.0156224
2730	0.0150157
2742	0.0150663
2754	0.0148641
2766	0.0150157
2778	0.0152685
2790	0.0154202
2802	0.0156224
2814	0.0161786
2826	0.0161786
2838	0.0163808
2850	0.0171392
2862	0.0179481
2874	0.0198187
2886	0.0216388
2898	0.0211838
2910	0.0185548
2922	0.0173414
2934	0.0173414
2946	0.0171392
2958	0.0166336
2970	0.0167853
2982	0.0171897
2994	0.0179481
3006	0.0203749
3018	0.023105
3030	0.0368062
3042	0.0600123
3054	0.0426204
3066	0.0594056
3078	0.0885776
3090	0.0577878
3102	0.0380196
3114	0.0261385
3126	0.0198693
3138	0.0169369
3150	0.016128
3162	0.0158247
3174	0.015218
3186	0.0152685
3198	0.015218
3210	0.0151674
3222	0.0153191
3234	0.015218
3246	0.0143079
3258	0.0144596
3270	0.0149146
3282	0.0148135
3294	0.0147124
3306	0.0150663
3318	0.0148641
3330	0.0148135
3342	0.0145607
3354	0.0144596
3366	0.0144596
3378	0.0148641
3390	0.0146618
3402	0.0149652
3414	0.0154202
3426	0.0148135
3438	0.0151168
3450	0.015218
3462	0.015218
3474	0.0153696
3486	0.0155719
3498	0.0152685
3510	0.0148135
3522	0.0162291
3534	0.0152685
3546	0.0160269
3558	0.015673
3570	0.0163302
3582	0.0153696
3594	0.0148135
3606	0.0161786
3618	0.0157235
3630	0.0152685
3642	0.0158752
3654	0.015673
3666	0.0158752
3678	0.015218
3690	0.0159258
3702	0.0154202
3714	0.0152685
3726	0.0154202
3738	0.0160774
3750	0.0149146
3762	0.0147629
3774	0.0151168
3786	0.0155213
3798	0.016583
3810	0.0149146
3822	0.015218
3834	0.0149146
3846	0.0155213
3858	0.0165325
3870	0.015673
3882	0.0151674
3894	0.0151168
3906	0.0158752
3918	0.0152685
3930	0.0168864
3942	0.0167853
3954	0.0154707
3966	0.0150663
