Infrared Spectrum: Cyclohexanol, 3-tert-butyl-5-phenyl-, cis,cis-
Formula: C 16 H 24 O
CAS: 21152-33-0
Origin: Sadtler Research Labs Under US-EPA Contract
1/CM	ABSORBANCE
450	0
462	0.00842587
474	0.0170948
486	0.0254397
498	0.0264119
510	0.0273841
522	0.0311109
534	0.0546061
546	0.101273
558	0.0623028
570	0.0284373
582	0.0252776
594	0.0249535
606	0.0275461
618	0.0388076
630	0.0231711
642	0.0245485
654	0.026979
666	0.0339465
678	0.0603584
690	0.130358
702	0.222637
714	0.06287
726	0.0515274
738	0.0555783
750	0.133518
762	0.116099
774	0.0412382
786	0.0258447
798	0.0247915
810	0.0300577
822	0.0303818
834	0.0245485
846	0.0473955
858	0.045046
870	0.0364581
882	0.0298956
894	0.0512844
906	0.058576
918	0.0388886
930	0.0375924
942	0.0375924
954	0.0341896
966	0.0473955
978	0.072187
990	0.0520136
1002	0.0662727
1014	0.127927
1026	0.109779
1038	0.189987
1050	0.407359
1062	0.195172
1074	0.09471
1086	0.076319
1098	0.0952772
1110	0.0758328
1122	0.0624649
1134	0.0486918
1146	0.0402659
1158	0.0456131
1170	0.0571177
1182	0.0690273
1194	0.0739694
1206	0.0862842
1218	0.100219
1230	0.128333
1242	0.125011
1254	0.0919554
1266	0.0866082
1278	0.0926846
1290	0.0831245
1302	0.0640852
1314	0.0562265
1326	0.0660297
1338	0.0653815
1350	0.0955202
1362	0.182777
1374	0.299362
1386	0.145589
1398	0.146481
1410	0.0651385
1422	0.0439118
1434	0.0453701
1446	0.0650575
1458	0.100624
1470	0.112939
1482	0.122661
1494	0.144779
1506	0.0557404
1518	0.0249535
1530	0.0212267
1542	0.0164467
1554	0.0131249
1566	0.0142592
1578	0.0192823
1590	0.0423724
1602	0.0787495
1614	0.0328933
1626	0.0160416
1638	0.0117476
1650	0.013368
1662	0.0141782
1674	0.0128819
1686	0.0123147
1698	0.0154744
1710	0.0203355
1722	0.0344327
1734	0.0481247
1746	0.0230901
1758	0.0165277
1770	0.0144212
1782	0.0163656
1794	0.0251156
1806	0.0149073
1818	0.0119907
1830	0.0105323
1842	0.0107754
1854	0.0126388
1866	0.0150693
1878	0.0145022
1890	0.0113425
1902	0.00858791
1914	0.00939809
1926	0.0115046
1938	0.018148
1950	0.0162036
1962	0.0119907
1974	0.00712958
1986	0.00688653
1998	0.0063194
2010	0.00599533
2022	0.0058333
2034	0.00591431
2046	0.00591431
2058	0.00607635
2070	0.00591431
2082	0.00607635
2094	0.00615737
2106	0.0063194
2118	0.00599533
2130	0.00559024
2142	0.00510413
2154	0.00534719
2166	0.00559024
2178	0.00567126
2190	0.00526617
2202	0.0049421
2214	0.00461803
2226	0.00445599
2238	0.00437497
2250	0.00421294
2262	0.00413192
2274	0.00396988
2286	0.00502312
2298	0.0063194
2310	0.00745366
2322	0.00615737
2334	0.00615737
2346	0.0063194
2358	0.00680551
2370	0.00688653
2382	0.00761569
2394	0.00615737
2406	0.00656246
2418	0.0063194
2430	0.0058333
2442	0.00567126
2454	0.00575228
2466	0.00575228
2478	0.00591431
2490	0.00567126
2502	0.00575228
2514	0.00623839
2526	0.00664348
2538	0.00712958
2550	0.00769671
2562	0.00793976
2574	0.00907402
2586	0.00964114
2598	0.0101273
2610	0.0108564
2622	0.0115046
2634	0.0130439
2646	0.013449
2658	0.0131249
2670	0.0127198
2682	0.013287
2694	0.0138541
2706	0.0145022
2718	0.0153934
2730	0.0170948
2742	0.0153934
2754	0.0174999
2766	0.0187962
2778	0.0195253
2790	0.0214698
2802	0.0249535
2814	0.0311109
2826	0.0377544
2838	0.0564695
2850	0.131735
2862	0.28097
2874	0.358667
2886	0.285102
2898	0.217776
2910	0.292799
2922	0.327232
2934	0.476467
2946	0.600343
2958	0.756384
2970	0.774208
2982	0.346595
2994	0.0760759
3006	0.0605204
3018	0.0684602
3030	0.144617
3042	0.120798
3054	0.0757518
3066	0.132059
3078	0.126226
3090	0.0802888
3102	0.0490969
3114	0.0337035
3126	0.0162846
3138	0.0107754
3150	0.00956012
3162	0.0100462
3174	0.0103703
3186	0.00972216
3198	0.00907402
3210	0.00891198
3222	0.00866893
3234	0.00802078
3246	0.00672449
3258	0.0063194
3270	0.00599533
3282	0.00542821
3294	0.00542821
3306	0.00518515
3318	0.0049421
3330	0.00478006
3342	0.00567126
3354	0.0058333
3366	0.00688653
3378	0.00623839
3390	0.00664348
3402	0.00777773
3414	0.00850689
3426	0.00931707
3438	0.00964114
3450	0.00980318
3462	0.00964114
3474	0.00883096
3486	0.00883096
3498	0.00858791
3510	0.00850689
3522	0.00891198
3534	0.00939809
3546	0.00834485
3558	0.00874994
3570	0.00777773
3582	0.00964114
3594	0.00842587
3606	0.00826384
3618	0.00891198
3630	0.0146643
3642	0.0426155
3654	0.0687033
3666	0.0150693
3678	0.00469904
3690	0.0040509
3702	0.00518515
3714	0.00396988
3726	0.00396988
3738	0.00396988
3750	0.00396988
3762	0.00396988
3774	0.00429395
3786	0.00469904
3798	0.0040509
3810	0.00567126
3822	0.00396988
3834	0.00437497
3846	0.00445599
3858	0.0040509
3870	0.00429395
3882	0.00396988
3894	0.00559024
3906	0.00396988
3918	0.00437497
3930	0.0049421
3942	0.00437497
3954	0.00510413
3966	0.00413192
