Infrared Spectrum: Acetic acid, bromo-, pentachlorophenyl ester
Formula: C 8 H 2 Br Cl 5 O 2
CAS: 21219-23-8
Origin: Sadtler Research Labs Under US-EPA Contract
1/CM	ABSORBANCE
450	0.0100919
462	0.00980841
474	0.0248328
486	0.0271007
498	0.0199003
510	0.00396872
522	0.0042522
534	0.00323167
546	0.0117928
558	0.000737048
570	0.000680352
582	0.00345846
594	0.0122463
606	0.0125865
618	0.0028348
630	0
642	0.00413881
654	0.0119629
666	0.00771066
678	0.015478
690	0.0257967
702	0.0478514
714	0.172753
726	0.127226
738	0.0353783
750	0.0267605
762	0.0297654
774	0.0319765
786	0.0787507
798	0.137658
810	0.0467742
822	0.0255132
834	0.0164418
846	0.0200137
858	0.0480215
870	0.0608915
882	0.0579433
894	0.0571496
906	0.0480215
918	0.0272708
930	0.0171222
942	0.0122463
954	0.0121896
966	0.0174057
978	0.0637263
990	0.0826628
1002	0.0215445
1014	0.0180293
1026	0.0212043
1038	0.0295386
1050	0.0467175
1062	0.0968368
1074	0.289717
1086	0.542978
1098	0.349644
1110	0.175814
1122	0.112825
1134	0.103414
1146	0.0646334
1158	0.0567527
1170	0.06452
1182	0.102336
1194	0.17984
1206	0.283367
1218	0.204616
1230	0.173433
1242	0.239711
1254	0.147977
1266	0.101486
1278	0.0697928
1290	0.0480215
1302	0.054825
1314	0.0659374
1326	0.0675816
1338	0.0646334
1350	0.140946
1362	0.389842
1374	0.344201
1386	0.56696
1398	0.109934
1410	0.0500626
1422	0.0568661
1434	0.0302757
1446	0.0137771
1458	0.0138338
1470	0.0147977
1482	0.0122463
1494	0.010262
1506	0.0119629
1518	0.0156481
1530	0.0170655
1542	0.0225083
1554	0.02574
1566	0.0249462
1578	0.0269873
1590	0.0244927
1602	0.0225083
1614	0.0205806
1626	0.0203539
1638	0.0182561
1650	0.0151945
1662	0.011566
1674	0.0126432
1686	0.0161017
1698	0.0192199
1710	0.0202972
1722	0.0209208
1734	0.023869
1746	0.0284614
1758	0.0346413
1770	0.0523871
1782	0.0992747
1794	0.229675
1806	0.184035
1818	0.106362
1830	0.0344145
1842	0.0129267
1854	0.00878788
1866	0.00555621
1878	0.00334506
1890	0.00181427
1902	0.000623656
1914	0.000963832
1926	0.00113392
1938	0.0014174
1950	0.00266471
1962	0.00351515
1974	0.00317498
1986	0.00175758
1998	0.00130401
2010	0.000680352
2022	0.000113392
2034	0.000510264
2046	0.00119062
2058	0.000793744
2070	0.00102053
2082	0.000737048
2094	0.00119062
2106	0.00192766
2118	0.00153079
2130	0.0013607
2142	0.00158749
2154	0.00215445
2166	0.00221114
2178	0.00164418
2190	0.00170088
2202	0.00175758
2214	0.00164418
2226	0.00204106
2238	0.00249462
2250	0.0028348
2262	0.00272141
2274	0.00266471
2286	0.00175758
2298	0.00056696
2310	0.000453568
2322	0.00345846
2334	0.00379863
2346	0.00652004
2358	0.00317498
2370	0.00266471
2382	0.00238123
2394	0.0027781
2406	0.00255132
2418	0.00226784
2430	0.00215445
2442	0.00215445
2454	0.00255132
2466	0.00266471
2478	0.00232454
2490	0.00266471
2502	0.00311828
2514	0.00266471
2526	0.00328837
2538	0.00215445
2550	0.00215445
2562	0.00238123
2574	0.00221114
2586	0.00221114
2598	0.00300489
2610	0.00266471
2622	0.00306158
2634	0.00317498
2646	0.00306158
2658	0.0028915
2670	0.00249462
2682	0.00243793
2694	0.00238123
2706	0.00226784
2718	0.00226784
2730	0.0027781
2742	0.00306158
2754	0.00345846
2766	0.00323167
2778	0.00266471
2790	0.00294819
2802	0.00243793
2814	0.00204106
2826	0.00221114
2838	0.00175758
2850	0.0014174
2862	0.00113392
2874	0.00119062
2886	0.00124731
2898	0.000907136
2910	0.000680352
2922	0.000737048
2934	0.00102053
2946	0.00272141
2958	0.00476246
2970	0.00924145
2982	0.0106022
2994	0.00583969
3006	0.00323167
3018	0.00294819
3030	0.00238123
3042	0.00238123
3054	0.00226784
3066	0.00221114
3078	0.00192766
3090	0.00204106
3102	0.00164418
3114	0.00204106
3126	0.00153079
3138	0.00164418
3150	0.00158749
3162	0.0013607
3174	0.0014741
3186	0.0013607
3198	0.00102053
3210	0.0014174
3222	0.000680352
3234	0.00124731
3246	0.0014174
3258	0.00124731
3270	0.00119062
3282	0.00124731
3294	0.000680352
3306	0.000510264
3318	0.00102053
3330	0.000340176
3342	0.000963832
3354	0.0014174
3366	0.00164418
3378	0.00164418
3390	0.000793744
3402	0.0013607
3414	0.00130401
3426	0.0014174
3438	0.0014741
3450	0.0014174
3462	0.00255132
3474	0.00215445
3486	0.00153079
3498	0.00187097
3510	0.00170088
3522	0.00130401
3534	0.00181427
3546	0.00362854
3558	0.0100352
3570	0.0056696
3582	0.00266471
3594	0.00209775
3606	0.00181427
3618	0.00215445
3630	0.0028915
3642	0.0014741
3654	0.00107722
3666	0.00028348
3678	0.0027781
3690	0.000907136
3702	0.00158749
3714	0.00124731
3726	0.00175758
3738	0.00192766
3750	0.0014741
3762	0.00187097
3774	0.000113392
3786	0.000963832
3798	0.000737048
3810	5.6696e-05
3822	0.00158749
3834	0.00113392
3846	0.000453568
3858	0.0014741
3870	0.000963832
3882	0.00243793
3894	0.0028348
3906	0.0014174
3918	0.0013607
3930	0.00266471
3942	0.000907136
3954	0.00153079
3966	0.000510264
