Infrared Spectrum: Pentanedioic acid, 2,4-dimethyl-, dimethyl ester
Formula: C 9 H 16 O 4
CAS: 2121-68-8
Origin: Sadtler Research Labs Under US-EPA Contract
1/CM	ABSORBANCE
450	0.0993813
462	0.0111651
474	0.00957005
486	0.00907928
498	0.0106743
510	0.00932467
522	0.00846582
534	0.0153366
546	0.012392
558	0.00601196
570	0.0104289
582	0.00576657
594	0.00711619
606	0.0100608
618	0.0106743
630	0.00748427
642	0.0141097
654	0.00907928
666	0.00957005
678	0.00957005
690	0.0101835
702	0.0104289
714	0.0112878
726	0.0103062
738	0.0153366
750	0.0258882
762	0.0364398
774	0.023189
786	0.0165636
798	0.0224528
810	0.0358264
822	0.0694442
834	0.0593834
846	0.0392618
858	0.0266244
870	0.0267471
882	0.0256428
894	0.0260109
906	0.024784
918	0.0244159
930	0.0341087
942	0.0368079
954	0.0226982
966	0.0196309
978	0.0333725
990	0.0638004
1002	0.0613465
1014	0.0539849
1026	0.0694442
1038	0.0957005
1050	0.0861305
1062	0.0944736
1074	0.173733
1086	0.248085
1098	0.18723
1110	0.161955
1122	0.222442
1134	0.342191
1146	0.407586
1158	0.507213
1170	0.777996
1182	0.67199
1194	0.571013
1206	0.44194
1218	0.358018
1230	0.348448
1242	0.360104
1254	0.348939
1266	0.286734
1278	0.200603
1290	0.130668
1302	0.0948417
1314	0.102939
1326	0.118031
1338	0.119871
1350	0.112632
1362	0.124779
1374	0.130791
1386	0.132754
1398	0.0662542
1410	0.0402433
1422	0.0449056
1434	0.146005
1446	0.184653
1458	0.168089
1470	0.196431
1482	0.0814682
1494	0.0404887
1506	0.0325136
1518	0.0280967
1530	0.0265017
1542	0.0261336
1554	0.0230663
1566	0.0195082
1578	0.0206124
1590	0.015582
1602	0.0142324
1614	0.0148459
1626	0.0137416
1638	0.0161955
1650	0.0153366
1662	0.0143551
1674	0.0179132
1686	0.0253975
1698	0.0354583
1710	0.0629415
1722	0.124411
1734	0.255079
1746	0.689167
1758	1.22693
1770	0.516783
1782	0.192383
1794	0.0707939
1806	0.0322683
1818	0.0188947
1830	0.0142324
1842	0.0110424
1854	0.00834312
1866	0.00858851
1878	0.00687081
1890	0.00736158
1902	0.00711619
1914	0.00711619
1926	0.00809774
1938	0.00723889
1950	0.00760697
1962	0.00981544
1974	0.0120239
1986	0.0133735
1998	0.0125147
2010	0.0115331
2022	0.0110424
2034	0.0105516
2046	0.0103062
2058	0.0100608
2070	0.00993813
2082	0.0101835
2094	0.00809774
2106	0.00650273
2118	0.00625734
2130	0.00576657
2142	0.00515311
2154	0.00453964
2166	0.00515311
2178	0.00429426
2190	0.00368079
2202	0.00306733
2214	0.00294463
2226	0.00245386
2238	0.00233117
2250	0.00196309
2262	0.00269925
2274	0.00269925
2286	0.0034354
2298	0.00515311
2310	0.00674811
2322	0.00478503
2334	0.00269925
2346	0.00319002
2358	0.00417156
2370	0.000368079
2382	0.00380348
2394	0.00404887
2406	0.00404887
2418	0.00368079
2430	0.00294463
2442	0.00233117
2454	0.00245386
2466	0.00257655
2478	0.00233117
2490	0.00245386
2502	0.00233117
2514	0.00233117
2526	0.00257655
2538	0.00245386
2550	0.00294463
2562	0.00392618
2574	0.00441695
2586	0.00417156
2598	0.00319002
2610	0.00220847
2622	0.00134962
2634	0.000981544
2646	0.000122693
2658	0.00331271
2670	0.00552118
2682	0.00429426
2694	0.00503041
2706	0.00490772
2718	0.00441695
2730	0.00453964
2742	0.00515311
2754	0.00564388
2766	0.00552118
2778	0.00490772
2790	0.00588926
2802	0.00650273
2814	0.00957005
2826	0.0146005
2838	0.0262563
2850	0.0596288
2862	0.0446603
2874	0.0455191
2886	0.0921424
2898	0.0986452
2910	0.091529
2922	0.12527
2934	0.149195
2946	0.224896
2958	0.35581
2970	0.265262
2982	0.344154
2994	0.236184
3006	0.11116
3018	0.0720208
3030	0.0662542
3042	0.0422064
3054	0.0274832
3066	0.0218394
3078	0.0188947
3090	0.0175451
3102	0.0153366
3114	0.0134962
3126	0.0110424
3138	0.00895659
3150	0.00809774
3162	0.0069935
3174	0.00711619
3186	0.00638004
3198	0.00662542
3210	0.0052758
3222	0.00441695
3234	0.0034354
3246	0.00306733
3258	0.0035581
3270	0.00220847
3282	0.00282194
3294	0.00429426
3306	0.0034354
3318	0.00319002
3330	0.0034354
3342	0.00441695
3354	0.0034354
3366	0.00319002
3378	0.00196309
3390	0.0034354
3402	0.00245386
3414	0.00220847
3426	0.00220847
3438	0.00368079
3450	0.00368079
3462	0.0052758
3474	0.0088339
3486	0.0117785
3498	0.0119012
3510	0.00822043
3522	0.00539849
3534	0.00503041
3546	0.00319002
3558	0.00196309
3570	0.00331271
3582	0.00269925
3594	0.00245386
3606	0.00257655
3618	0.00269925
3630	0.00319002
3642	0.00122693
3654	0.00134962
3666	0.00134962
3678	0.00233117
3690	0.00245386
3702	0.000368079
3714	0.000490772
3726	0.000122693
3738	0.000122693
3750	0.00429426
3762	0.000122693
3774	0.000122693
3786	0.00196309
3798	0.00257655
3810	0.00306733
3822	0.00503041
3834	0.000858851
3846	0.00196309
3858	0.00220847
3870	0.000122693
3882	0.000122693
3894	0.000122693
3906	0.00134962
3918	0.000122693
3930	0.00257655
3942	0.00306733
3954	0
3966	0.00662542
