Infrared Spectrum: Benzene, 1-chloro-2-(trichloromethyl)-
Formula: C 7 H 4 Cl 4
CAS: 2136-89-2
Origin: Sadtler Research Labs Under US-EPA Contract
1/CM	ABSORBANCE
450	0.19322
462	0.0771764
474	0.0116156
486	0.0170883
498	0.0115039
510	0.00815322
522	0.0158597
534	0.0241246
546	0.024348
558	0.00603115
570	0.0131792
582	0.015748
594	0.0237895
606	0.0123974
618	0.0517115
630	0.152342
642	0.0385324
654	0.0212207
666	0.0186519
678	0.0435583
690	0.139945
702	0.350142
714	0.15681
726	0.174568
738	0.892275
750	0.696375
762	0.119953
774	0.135589
786	0.529289
798	0.886133
810	0.148433
822	0.0542804
834	0.0595297
846	0.0836543
858	0.151114
870	0.450884
882	0.114145
894	0.0306025
906	0.0266934
918	0.0156363
930	0.0116156
942	0.0117272
954	0.0120623
966	0.0118389
978	0.0137376
990	0.0116156
1002	0.0116156
1014	0.0194337
1026	0.0292623
1038	0.0740491
1050	0.173787
1062	0.204389
1074	0.0479142
1086	0.0271402
1098	0.0381973
1110	0.0275869
1122	0.0388674
1134	0.113028
1146	0.0586362
1158	0.0529401
1170	0.0899088
1182	0.167085
1194	0.0911374
1206	0.0299324
1218	0.0270285
1230	0.0197688
1242	0.0242363
1254	0.0306025
1266	0.078405
1278	0.106997
1290	0.0403194
1302	0.0208857
1314	0.0140727
1326	0.0122857
1338	0.0123974
1350	0.00994023
1362	0.00960517
1374	0.0125091
1386	0.0197688
1398	0.024348
1410	0.0319428
1422	0.0958283
1434	0.149215
1446	0.221142
1458	0.133467
1470	0.188641
1482	0.059418
1494	0.036522
1506	0.017535
1518	0.0110571
1530	0.00982854
1542	0.0111688
1554	0.0156363
1566	0.0422181
1578	0.0739375
1590	0.076953
1602	0.038644
1614	0.0154129
1626	0.00971686
1638	0.00737141
1650	0.00915842
1662	0.00792985
1674	0.0101636
1686	0.0180935
1698	0.0120623
1710	0.00960517
1722	0.0125091
1734	0.0170883
1746	0.019322
1758	0.0215558
1770	0.0227844
1782	0.0183168
1794	0.0221142
1806	0.0371921
1818	0.0190986
1830	0.0109454
1842	0.0128441
1854	0.00502596
1866	0.00424414
1878	0.00402077
1890	0.00826491
1902	0.00725972
1914	0.0128441
1926	0.0195454
1938	0.00770647
1950	0.013961
1962	0.0117272
1974	0.00413246
1986	0.00301558
1998	0.00323895
2010	0.00312726
2022	0.00335064
2034	0.00424414
2046	0.00547271
2058	0.00547271
2070	0.00234545
2082	0.00223376
2094	0.00178701
2106	0.00223376
2118	0.00234545
2130	0.00268051
2142	0.00312726
2154	0.0027922
2166	0.00245714
2178	0.00245714
2190	0.00234545
2202	0.00245714
2214	0.00290389
2226	0.00346233
2238	0.00480258
2250	0.00491427
2262	0.0027922
2274	0.00335064
2286	0.00379739
2298	0.00413246
2310	0.0036857
2322	0.00245714
2334	0.00335064
2346	0.00390908
2358	0.00312726
2370	0.00435583
2382	0.00379739
2394	0.0027922
2406	0.00301558
2418	0.0027922
2430	0.00335064
2442	0.00390908
2454	0.00390908
2466	0.00335064
2478	0.00268051
2490	0.00268051
2502	0.00268051
2514	0.00301558
2526	0.00323895
2538	0.00335064
2550	0.0036857
2562	0.00323895
2574	0.00323895
2586	0.00256882
2598	0.00335064
2610	0.00357402
2622	0.00446752
2634	0.00580778
2646	0.00692466
2658	0.00379739
2670	0.00178701
2682	0.00413246
2694	0.00312726
2706	0.00435583
2718	0.00290389
2730	0.00781816
2742	0.00323895
2754	0.00804154
2766	0.0046909
2778	0.00882335
2790	0.00301558
2802	0.00759478
2814	0.000446752
2826	0.00569609
2838	0.00167532
2850	0.00524934
2862	0.00603115
2874	0.00435583
2886	0.00357402
2898	0.00357402
2910	0.00636622
2922	0.0064779
2934	0.00815322
2946	0.0153013
2958	0.00781816
2970	0.00770647
2982	0.0132909
2994	0.00759478
3006	0.00580778
3018	0.00960517
3030	0.00994023
3042	0.00882335
3054	0.00982854
3066	0.0552856
3078	0.113252
3090	0.0518232
3102	0.0115039
3114	0.00893504
3126	0.00714803
3138	0.0111688
3150	0.0112805
3162	0.00457921
3174	0.00290389
3186	0.00178701
3198	0.00167532
3210	0.00178701
3222	0.00223376
3234	0.00167532
3246	0.00223376
3258	0.00223376
3270	0.00178701
3282	0.00234545
3294	0.00167532
3306	0.00212207
3318	0.00212207
3330	0.00256882
3342	0.00212207
3354	0.00201038
3366	0.00290389
3378	0.00223376
3390	0.00290389
3402	0.00223376
3414	0.00256882
3426	0.0027922
3438	0.00245714
3450	0.00335064
3462	0.00245714
3474	0.00256882
3486	0.0027922
3498	0.00402077
3510	0.00346233
3522	0.00346233
3534	0.00346233
3546	0.00335064
3558	0.00357402
3570	0.00614284
3582	0.00658959
3594	0.00390908
3606	0.00323895
3618	0.00301558
3630	0.0027922
3642	0.00145194
3654	0.00100519
3666	0.00100519
3678	0.00201038
3690	0.00256882
3702	0.00256882
3714	0.0027922
3726	0.00346233
3738	0.0036857
3750	0.00357402
3762	0.00335064
3774	0.00335064
3786	0.00256882
3798	0.00234545
3810	0.00245714
3822	0.000446752
3834	0.00290389
3846	0.00268051
3858	0.00268051
3870	0.00301558
3882	0.00312726
3894	0.00234545
3906	0.00212207
3918	0.00424414
3930	0.00245714
3942	0.00379739
3954	0.00524934
3966	0.00402077
