Infrared Spectrum: Heptanophenone, 2-phenyl-,
Formula: C 19 H 22 O
CAS: 21383-06-2
Origin: Sadtler Research Labs Under US-EPA Contract
1/CM	ABSORBANCE
450	0.00806353
462	0.00126785
474	0.0018257
486	0.00410783
498	0.00922995
510	0.0180035
522	0.0222634
534	0.0177499
546	0.0144535
558	0.0153663
570	0.0234806
582	0.0545683
594	0.0333698
606	0.00892566
618	0.00780996
630	0.00456426
642	0.0100921
654	0.0451862
666	0.0596904
678	0.0827145
690	0.217715
702	0.385325
714	0.0999066
726	0.0795703
738	0.0986387
750	0.145549
762	0.0638996
774	0.0373762
786	0.0177499
798	0.0106499
810	0.00715067
822	0.00765781
834	0.0201842
846	0.0129828
858	0.0132871
870	0.0137942
882	0.0103457
894	0.0126785
906	0.0133885
918	0.0160256
930	0.0212492
942	0.0344855
954	0.0818524
966	0.0814467
978	0.0604511
990	0.042549
1002	0.0489897
1014	0.0353984
1026	0.0539597
1038	0.027487
1050	0.0134899
1062	0.018612
1074	0.0319498
1086	0.0125771
1098	0.0144535
1110	0.0157721
1122	0.00882424
1134	0.00344855
1146	0.00770853
1158	0.0259656
1170	0.0680582
1182	0.16477
1194	0.116896
1206	0.137181
1218	0.158228
1230	0.13495
1242	0.124959
1254	0.115729
1266	0.116135
1278	0.113904
1290	0.0787081
1302	0.0582704
1314	0.053554
1326	0.0627332
1338	0.0772881
1350	0.0830188
1362	0.0501054
1374	0.0317977
1386	0.029617
1398	0.0079621
1410	0.00633925
1422	0.0100414
1434	0.023582
1446	0.116794
1458	0.0918938
1470	0.0548218
1482	0.0343841
1494	0.0814974
1506	0.0230242
1518	0.00152142
1530	0.00354998
1542	0.000557854
1554	0.00197785
1566	0.00867209
1578	0.0378834
1590	0.0566475
1602	0.083526
1614	0.0217563
1626	0.00867209
1638	0.0054264
1650	0.0103964
1662	0.027132
1674	0.0512719
1686	0.162183
1698	0.50714
1710	0.175572
1722	0.0506126
1734	0.0215027
1746	0.0192713
1758	0.0202856
1770	0.017192
1782	0.00755639
1794	0.0120192
1806	0.0182063
1818	0.00836781
1830	0.00197785
1842	0.00131856
1854	0.00268784
1866	0.00481783
1878	0.00806353
1890	0.00917923
1902	0.00755639
1914	0.0057814
1926	0.00451355
1938	0.0111064
1950	0.0144028
1962	0.0133378
1974	0.00715067
1986	0.00268784
1998	0.00147071
2010	0.00157213
2022	0.00162285
2034	0.0018257
2046	0.00141999
2058	0.00152142
2070	0.00106499
2082	0.000912852
2094	0.000659282
2106	0.000608568
2118	0.000456426
2130	0.000304284
2142	0.000354998
2154	0.000456426
2166	0.000709996
2178	0.000963566
2190	0.000709996
2202	0.000405712
2214	0.000304284
2226	0.00025357
2238	0.000304284
2250	0.000912852
2262	0.000811424
2274	0.000912852
2286	0.00136928
2298	0.00141999
2310	0.0025357
2322	0.00395569
2334	0.00263713
2346	0.00360069
2358	0.00238356
2370	0.00294141
2382	0.00344855
2394	0.00294141
2406	0.00268784
2418	0.00243427
2430	0.00202856
2442	0.0018257
2454	0.00167356
2466	0.00131856
2478	0.00141999
2490	0.00131856
2502	0.00121714
2514	0.00152142
2526	0.00177499
2538	0.00223142
2550	0.00238356
2562	0.00248499
2574	0.0032457
2586	0.00385426
2598	0.00431069
2610	0.00415855
2622	0.00420926
2634	0.00466569
2646	0.00476712
2658	0.00512211
2670	0.00588282
2682	0.00623782
2694	0.00603497
2706	0.00613639
2718	0.00649139
2730	0.00745496
2742	0.00877352
2754	0.00857067
2766	0.00877352
2778	0.0106499
2790	0.0132364
2802	0.0162792
2814	0.0202349
2826	0.0253063
2838	0.0350434
2850	0.0667903
2862	0.166595
2874	0.177398
2886	0.157467
2898	0.128763
2910	0.181962
2922	0.284404
2934	0.425541
2946	0.368234
2958	0.296271
2970	0.334662
2982	0.115831
2994	0.0590311
3006	0.0519819
3018	0.0597918
3030	0.13424
3042	0.104319
3054	0.0804324
3066	0.174963
3078	0.183433
3090	0.121409
3102	0.0629361
3114	0.0340291
3126	0.0140985
3138	0.00963566
3150	0.00907781
3162	0.00953423
3174	0.00583211
3186	0.00400641
3198	0.00360069
3210	0.00283998
3222	0.00258641
3234	0.00187642
3246	0.00152142
3258	0.00157213
3270	0.00152142
3282	0.00111571
3294	0.00141999
3306	0.00147071
3318	0.00131856
3330	0.00147071
3342	0.00177499
3354	0.00278927
3366	0.00441212
3378	0.00593354
3390	0.00354998
3402	0.00121714
3414	0.000963566
3426	0.00141999
3438	0.00141999
3450	0.00106499
3462	0.000963566
3474	0.00116642
3486	0.000912852
3498	0.00121714
3510	0.000912852
3522	0.000862138
3534	0.000659282
3546	0.000659282
3558	0.000963566
3570	0.00141999
3582	0.00425998
3594	0.00294141
3606	0.00131856
3618	0.00172428
3630	0.00167356
3642	0.00273856
3654	0.00283998
3666	0.00207927
3678	0.00177499
3690	0.00167356
3702	0.00162285
3714	0.00202856
3726	0.00177499
3738	0.00202856
3750	0.00050714
3762	0.00202856
3774	0.00167356
3786	0.00162285
3798	0.00050714
3810	0.00050714
3822	0.00101428
3834	0.000862138
3846	0.000608568
3858	0.000405712
3870	0.000354998
3882	0.000608568
3894	0.000659282
3906	0.0018257
3918	0.00116642
3930	0.00147071
3942	0.00147071
3954	0.00126785
3966	0.00116642
