Infrared Spectrum: Octane, 3,6-dimethyl-3,6-diphenyl
Formula: C 22 H 30
CAS: 21411-35-8
Origin: Sadtler Research Labs Under US-EPA Contract
1/CM	ABSORBANCE
450	0
462	0.0103538
474	0.00584416
486	0.00473975
498	0.0075928
510	0.00556806
522	0.00832908
534	0.0110441
546	0.0265978
558	0.0364455
570	0.0303712
582	0.0121025
594	0.00989365
606	0.00750077
618	0.00579814
630	0.00510789
642	0.00598221
654	0.00961755
666	0.0172104
678	0.0290827
690	0.0842111
702	0.256821
714	0.0431179
726	0.024297
738	0.0255855
750	0.062169
762	0.124844
774	0.0294509
786	0.0259076
798	0.0171183
810	0.00888128
822	0.00681052
834	0.0086512
846	0.00745475
858	0.00658043
870	0.00644238
882	0.00653441
894	0.00750077
906	0.0126087
918	0.0198793
930	0.0094795
942	0.00722467
954	0.00667246
966	0.00888128
978	0.00993967
990	0.0145414
1002	0.0316137
1014	0.0254934
1026	0.0358933
1038	0.0330402
1050	0.0133449
1062	0.0112742
1074	0.0185909
1086	0.0144493
1098	0.0106299
1110	0.00980162
1122	0.00727069
1134	0.00754679
1146	0.0100777
1158	0.013667
1170	0.0128848
1182	0.0123326
1194	0.0124706
1206	0.00929543
1218	0.0086512
1230	0.00888128
1242	0.010906
1254	0.0118264
1266	0.0131609
1278	0.016198
1290	0.0214439
1302	0.0265058
1314	0.0263217
1326	0.021674
1338	0.021582
1350	0.0175325
1362	0.0241589
1374	0.0449586
1386	0.0856837
1398	0.0212599
1410	0.0123786
1422	0.013621
1434	0.0235147
1446	0.0635495
1458	0.0721547
1470	0.0914358
1482	0.0556806
1494	0.0864199
1506	0.0382401
1518	0.0139432
1530	0.0127467
1542	0.0109981
1554	0.00782289
1566	0.00796094
1578	0.0143113
1590	0.0251253
1602	0.0458789
1614	0.0153697
1626	0.00814501
1638	0.00625831
1650	0.00699458
1662	0.00713263
1674	0.00740874
1686	0.00612026
1698	0.00635035
1710	0.00543001
1722	0.00621229
1734	0.00901933
1746	0.00773086
1758	0.00625831
1770	0.00621229
1782	0.00842111
1794	0.0155077
1806	0.00980162
1818	0.00635035
1830	0.00543001
1842	0.00510789
1854	0.00658043
1866	0.0094795
1878	0.0100777
1890	0.00777687
1902	0.00524594
1914	0.00506187
1926	0.00658043
1938	0.0144493
1950	0.0109981
1962	0.00635035
1974	0.00414153
1986	0.00368136
1998	0.00335924
2010	0.00331322
2022	0.00363534
2034	0.00308314
2046	0.00331322
2058	0.00303712
2070	0.00331322
2082	0.00335924
2094	0.0029911
2106	0.00303712
2118	0.00289907
2130	0.00276102
2142	0.00308314
2154	0.00312916
2166	0.00326721
2178	0.00303712
2190	0.00322119
2202	0.0029911
2214	0.00308314
2226	0.00317517
2238	0.00335924
2250	0.00322119
2262	0.00340526
2274	0.00335924
2286	0.00372738
2298	0.00395746
2310	0.00464772
2322	0.0051539
2334	0.00395746
2346	0.00492382
2358	0.00575212
2370	0.00446365
2382	0.00473975
2394	0.00400348
2406	0.00358933
2418	0.00381941
2430	0.00381941
2442	0.00400348
2454	0.00354331
2466	0.00335924
2478	0.00349729
2490	0.00368136
2502	0.00358933
2514	0.00368136
2526	0.00363534
2538	0.00409551
2550	0.00400348
2562	0.00418755
2574	0.00423356
2586	0.00469373
2598	0.00496984
2610	0.00506187
2622	0.00519992
2634	0.00566009
2646	0.00589018
2658	0.00556806
2670	0.0051539
2682	0.00506187
2694	0.00524594
2706	0.00506187
2718	0.00566009
2730	0.00662645
2742	0.00855916
2754	0.00786891
2766	0.00796094
2778	0.00837509
2790	0.00966357
2802	0.0105379
2814	0.0126087
2826	0.0156458
2838	0.0210298
2850	0.0314296
2862	0.0681512
2874	0.100087
2886	0.151718
2898	0.123924
2910	0.123141
2922	0.191017
2934	0.249274
2946	0.304817
2958	0.219639
2970	0.394688
2982	0.352352
2994	0.0884447
3006	0.0418755
3018	0.0521373
3030	0.0871562
3042	0.0876624
3054	0.0751458
3066	0.149509
3078	0.0799775
3090	0.0900553
3102	0.0497444
3114	0.0308314
3126	0.01629
3138	0.0116423
3150	0.00970959
3162	0.0101237
3174	0.00694857
3186	0.00630433
3198	0.00598221
3210	0.00543001
3222	0.00566009
3234	0.00524594
3246	0.00501585
3258	0.00501585
3270	0.00455568
3282	0.00473975
3294	0.00414153
3306	0.00335924
3318	0.00418755
3330	0.00395746
3342	0.00368136
3354	0.00400348
3366	0.00372738
3378	0.00377339
3390	0.00409551
3402	0.00409551
3414	0.00400348
3426	0.00427958
3438	0.00423356
3450	0.00358933
3462	0.00441763
3474	0.00418755
3486	0.00372738
3498	0.00386543
3510	0.00340526
3522	0.0040495
3534	0.00368136
3546	0.00377339
3558	0.00368136
3570	0.00358933
3582	0.00322119
3594	0.00372738
3606	0.00340526
3618	0.00363534
3630	0.00358933
3642	0.00469373
3654	0.00455568
3666	0.00441763
3678	0.00450967
3690	0.00441763
3702	0.00427958
3714	0.00409551
3726	0.00455568
3738	0.00312916
3750	0.00423356
3762	0.00492382
3774	0.00469373
3786	0.00409551
3798	0.00326721
3810	0.00317517
3822	0.00418755
3834	0.00473975
3846	0.00308314
3858	0.00423356
3870	0.00400348
3882	0.00464772
3894	0.0046017
3906	0.00519992
3918	0.00427958
3930	0.00496984
3942	0.00492382
3954	0.00317517
3966	0.00538399
