Infrared Spectrum: Octane, 3,6-diphenyl-,
Formula: C 20 H 26
CAS: 21411-33-6
Origin: Sadtler Research Labs Under US-EPA Contract
1/CM	ABSORBANCE
450	0.0133109
462	0.000976129
474	0.00665543
486	0.0133996
498	0.0167717
510	0.0281303
522	0.0443695
534	0.0992989
546	0.105244
558	0.0429497
570	0.0276866
582	0.0152631
594	0.0164167
606	0.0124235
618	0.013932
630	0.0113586
642	0.0133996
654	0.0252906
666	0.0488952
678	0.0552844
690	0.17384
702	0.774159
714	0.117402
726	0.0979679
738	0.115272
750	0.236223
762	0.228947
774	0.0626497
786	0.0330996
798	0.0293726
810	0.0233384
822	0.0199663
834	0.0226284
846	0.0236933
858	0.0182802
870	0.0263555
882	0.0289289
894	0.0415299
906	0.0382465
918	0.0156181
930	0.0119798
942	0.0112699
954	0.0125122
966	0.0143757
978	0.0160618
990	0.0150856
1002	0.0182802
1014	0.0197888
1026	0.068329
1038	0.040465
1050	0.0220073
1062	0.0348744
1074	0.0514686
1086	0.0508474
1098	0.0464105
1110	0.0366492
1122	0.0232496
1134	0.0152631
1146	0.0140208
1158	0.0189901
1170	0.0211199
1182	0.0231609
1194	0.0236046
1206	0.0166829
1218	0.0147307
1230	0.0153518
1242	0.0109149
1254	0.00408199
1266	0.0120685
1278	0.0198775
1290	0.0267104
1302	0.0417961
1314	0.0458781
1326	0.0525335
1338	0.042151
1350	0.042506
1362	0.07037
1374	0.0801313
1386	0.0991215
1398	0.0425947
1410	0.0321235
1422	0.0346082
1434	0.0470317
1446	0.126808
1458	0.210489
1470	0.132842
1482	0.090425
1494	0.217144
1506	0.0504038
1518	0.0141982
1530	0
1542	0.00789777
1554	0.0138433
1566	0.0160618
1578	0.0346969
1590	0.0731209
1602	0.118112
1614	0.0448132
1626	0.0190789
1638	0.0145532
1650	0.0153518
1662	0.0175703
1674	0.0121572
1686	0.0110924
1698	0.0136658
1710	0.0136658
1722	0.0118023
1734	0.0115361
1746	0.0116248
1758	0.00488065
1770	0.0101162
1782	0.0148194
1794	0.0352294
1806	0.0197888
1818	0.00967255
1830	0.00709912
1842	0.0101162
1854	0.0170379
1866	0.0233384
1878	0.0229834
1890	0.015973
1902	0.0110924
1914	0.0102937
1926	0.0170379
1938	0.0357618
1950	0.0256456
1962	0.0126009
1974	0.00621173
1986	0.00559056
1998	0.00390452
2010	0.00399326
2022	0.00354956
2034	0.00346082
2046	0.00310587
2058	0.00239595
2070	0.00239595
2082	0.00266217
2094	0.00212974
2106	0.00141982
2118	0.00141982
2130	0.000976129
2142	0.000709912
2154	0.000621173
2166	0.000532434
2178	0.000621173
2190	0.000532434
2202	0.000532434
2214	0.000354956
2226	0.000266217
2238	0.000266217
2250	0.00106487
2262	0.000621173
2274	0.000976129
2286	0.00088739
2298	0.000709912
2310	0.00266217
2322	0.00381578
2334	0.00585677
2346	0.00656669
2358	0.00434821
2370	0.00390452
2382	0.00328334
2394	0.00283965
2406	0.00292839
2418	0.00301713
2430	0.00301713
2442	0.00310587
2454	0.00283965
2466	0.00257343
2478	0.00257343
2490	0.00257343
2502	0.00337208
2514	0.0036383
2526	0.00390452
2538	0.00479191
2550	0.00576804
2562	0.00576804
2574	0.00674416
2586	0.00709912
2598	0.00736534
2610	0.0072766
2622	0.0072766
2634	0.0084302
2646	0.00816399
2658	0.00851894
2670	0.00985003
2682	0.0104712
2694	0.0106487
2706	0.0111811
2718	0.0120685
2730	0.0136658
2742	0.0165055
2754	0.0158843
2766	0.0157068
2778	0.0188127
2790	0.0233384
2802	0.0281303
2814	0.034342
2826	0.0391339
2838	0.054397
2850	0.104801
2862	0.251486
2874	0.36241
2886	0.464549
2898	0.255923
2910	0.304818
2922	0.565977
2934	0.88739
2946	0.650457
2958	0.424172
2970	0.755524
2982	0.337119
2994	0.10764
3006	0.0996539
3018	0.142249
3030	0.376165
3042	0.232585
3054	0.145709
3066	0.307569
3078	0.279972
3090	0.187772
3102	0.0902476
3114	0.0568817
3126	0.0270654
3138	0.0168604
3150	0.0132221
3162	0.0126009
3174	0.00834147
3186	0.00559056
3198	0.00496938
3210	0.00425947
3222	0.00283965
3234	0.00195226
3246	0.00141982
3258	0.00106487
3270	0.00133109
3282	0.00115361
3294	0.000976129
3306	0.00106487
3318	0.00124235
3330	0.00150856
3342	0.0015973
3354	0.00168604
3366	0.0015973
3378	0.00168604
3390	0.00186352
3402	0.00186352
3414	0.00186352
3426	0.00195226
3438	0.00283965
3450	0.00257343
3462	0.00221848
3474	0.00221848
3486	0.002041
3498	0.002041
3510	0.00150856
3522	0.00141982
3534	0.00141982
3546	0.00115361
3558	0.00106487
3570	0.000266217
3582	0.000621173
3594	8.8739e-05
3606	0.000443695
3618	0.00106487
3630	0.000976129
3642	0.00186352
3654	0.00283965
3666	0.002041
3678	0.00150856
3690	0.00141982
3702	0.00292839
3714	0.00230721
3726	0.00212974
3738	0.00141982
3750	0.00248469
3762	0.0015973
3774	0.00106487
3786	0.000709912
3798	0.00133109
3810	0.00106487
3822	0.00141982
3834	0.00133109
3846	0.00106487
3858	0.00133109
3870	0.000976129
3882	0.000621173
3894	0.00168604
3906	0.00168604
3918	0.00115361
3930	0.000709912
3942	0.000798651
3954	0.00088739
3966	0.00301713
