Infrared Spectrum: 3-Chloro-4-methylbenzonitrile
Formula: C 8 H 6 Cl N
CAS: 21423-81-4
Origin: Sadtler Research Labs Under US-EPA Contract
1/CM	ABSORBANCE
450	0.0760994
462	0.0315414
474	0.00441429
486	0.00550843
498	0.0037729
510	0.00456521
522	0.00750807
534	0.00558389
546	0.00814946
558	0.0162235
570	0.0148652
582	0.0554616
594	0.131674
606	0.0501418
618	0.00464067
630	0.0028674
642	0.00267876
654	0.00309378
666	0.00826265
678	0.0265989
690	0.0778727
702	0.0906628
714	0.0627056
726	0.0825888
738	0.0400682
750	0.0123374
762	0.00645166
774	0.00305605
786	0.00592345
798	0.0348616
810	0.175779
822	0.353483
834	0.155557
846	0.0668181
858	0.0808155
870	0.284514
882	0.332694
894	0.169667
906	0.0541788
918	0.0134315
930	0.00777217
942	0.00784763
954	0.0116583
966	0.0141861
978	0.0224865
990	0.0481799
1002	0.0681386
1014	0.0272781
1026	0.0209019
1038	0.0484818
1050	0.235052
1062	0.340806
1074	0.0660635
1086	0.014337
1098	0.00916815
1110	0.0142616
1122	0.0155443
1134	0.0131674
1146	0.0255425
1158	0.0251275
1170	0.013092
1182	0.0435015
1194	0.190796
1206	0.156538
1218	0.0883236
1230	0.0188645
1242	0.00984727
1254	0.00803628
1266	0.0119978
1278	0.014903
1290	0.013922
1302	0.00679122
1314	0.00633847
1326	0.00803628
1338	0.0129033
1350	0.0133183
1362	0.0155443
1374	0.0873426
1386	0.194003
1398	0.102397
1410	0.0478404
1422	0.0447466
1434	0.0638752
1446	0.0847016
1458	0.0878331
1470	0.174346
1482	0.297078
1494	0.357407
1506	0.134542
1518	0.0564426
1530	0.0644789
1542	0.11247
1554	0.137862
1566	0.136089
1578	0.0810042
1590	0.0516887
1602	0.048444
1614	0.0351257
1626	0.0332015
1638	0.0318433
1650	0.0167894
1662	0.00558389
1674	0.0046784
1686	0.00475385
1698	0.0049425
1710	0.00301832
1722	0.00490477
1734	0.00626301
1746	0.00573481
1758	0.0198455
1770	0.0392004
1782	0.0200718
1794	0.00426338
1806	0.0016978
1818	0.00166008
1830	0.00373517
1842	0.00486704
1854	0.0037729
1866	0.00362198
1878	0.00430111
1890	0.0131297
1902	0.0241466
1914	0.0140729
1926	0.00365971
1938	0.00252784
1950	0.00132051
1962	0.000415019
1974	0.000565935
1986	0.00109414
1998	0.00162235
2010	0.00128279
2022	0.000565935
2034	0.000150916
2046	0
2058	0.000339561
2070	0.000716851
2082	0.000792309
2094	0.000980954
2106	0.00162235
2118	0.00162235
2130	0.000716851
2142	0.000301832
2154	0.000188645
2166	0.000113187
2178	0.00105641
2190	0.00181099
2202	0.00154689
2214	0.00573481
2226	0.0502928
2238	0.134994
2250	0.0392004
2262	0.00245238
2274	0.00245238
2286	0.00237693
2298	0.00199964
2310	0.00271649
2322	0.00369744
2334	0.00535752
2346	0.00531979
2358	0.00528206
2370	0.00343334
2382	0.00516887
2394	0.00486704
2406	0.00275422
2418	0.00396154
2430	0.0035088
2442	0.00218828
2454	0.00230147
2466	0.00309378
2478	0.00418792
2490	0.00328242
2502	0.00282967
2514	0.00313151
2526	0.00490477
2538	0.00697986
2550	0.00648939
2562	0.00347107
2574	0.00215055
2586	0.00275422
2598	0.00430111
2610	0.00222601
2622	0.000867767
2634	0.00215055
2646	0.00415019
2658	0.00482931
2670	0.00316924
2682	0.00184872
2694	0.00177326
2706	0.00101868
2718	0.00147143
2730	0.0023392
2742	0.00460294
2754	0.00709305
2766	0.00448975
2778	0.00418792
2790	0.00614983
2802	0.00599891
2814	0.00554616
2826	0.00731943
2838	0.00924361
2850	0.0141106
2862	0.0250898
2874	0.0370876
2886	0.0342202
2898	0.0285231
2910	0.0300323
2922	0.0411623
2934	0.0944357
2946	0.109603
2958	0.0582913
2970	0.0721001
2982	0.0727792
2994	0.0805514
3006	0.0565558
3018	0.0349748
3030	0.0433506
3042	0.0561785
3054	0.0448598
3066	0.0505191
3078	0.05931
3090	0.0390495
3102	0.0182231
3114	0.0124128
3126	0.00818719
3138	0.00573481
3150	0.00464067
3162	0.00422565
3174	0.00354653
3186	0.00332015
3198	0.00301832
3210	0.00222601
3222	0.00203737
3234	0.00271649
3246	0.00207509
3258	0.00128279
3270	0.00147143
3282	0.00158462
3294	0.00158462
3306	0.0014337
3318	0.00199964
3330	0.00132051
3342	0.00162235
3354	0.00154689
3366	0.00177326
3378	0.00184872
3390	0.00192418
3402	0.00249011
3414	0.00381063
3426	0.00962089
3438	0.00848902
3450	0.00335788
3462	0.00207509
3474	0.00173553
3486	0.00154689
3498	0.00177326
3510	0.00207509
3522	0.00230147
3534	0.00184872
3546	0.0011696
3558	0.00215055
3570	0.00166008
3582	0.000980954
3594	0.00154689
3606	0.00120733
3618	0.0016978
3630	0.00279195
3642	0.00139597
3654	0.00120733
3666	0.00139597
3678	0.00218828
3690	0.00177326
3702	0.00241466
3714	0.00252784
3726	0.00452748
3738	0.0037729
3750	0.00316924
3762	0.00199964
3774	0.00181099
3786	0.00294286
3798	0.00264103
3810	0.00305605
3822	0.00396154
3834	0.00437656
3846	0.00445202
3858	0.00396154
3870	0.00173553
3882	0.00162235
3894	0.00196191
3906	0.00279195
3918	0.00230147
3930	0.0028674
3942	0.00305605
3954	0.00230147
3966	0.00365971
