Infrared Spectrum: Ethanone, 1-(2,5-dimethylphenyl)-
Formula: C 10 H 12 O
CAS: 2142-73-6
Origin: Sadtler Research Labs Under US-EPA Contract
1/CM	ABSORBANCE
450	0.0142656
462	0.0157287
474	0.0344751
486	0.025422
498	0.0120709
510	0.011888
522	0.0218556
534	0.019478
546	0.00777291
558	0.0120709
570	0.0160945
582	0.020301
594	0.0311831
606	0.105894
618	0.123635
630	0.0248733
642	0.00438941
654	0.00256049
666	0.00329206
678	0.00320061
690	0.00548676
702	0.0128024
714	0.0149971
726	0.0185635
738	0.00823014
750	0.00374929
762	0.00256049
774	0.00265193
786	0.00548676
798	0.0545933
810	0.204382
822	0.108912
834	0.0204839
846	0.00740713
858	0.00969328
870	0.0279825
882	0.0513927
894	0.0274338
906	0.0107906
918	0.0113393
930	0.0217641
942	0.0760831
954	0.122995
966	0.0611774
978	0.0303601
990	0.0274338
1002	0.024599
1014	0.0337436
1026	0.0306344
1038	0.033835
1050	0.0391389
1062	0.0520328
1074	0.0563307
1086	0.0312745
1098	0.0183806
1110	0.0155458
1122	0.0181063
1134	0.0171004
1146	0.0238674
1158	0.0308173
1170	0.0877882
1182	0.273149
1194	0.222488
1206	0.118605
1218	0.107449
1230	0.0741627
1242	0.163505
1254	0.324725
1266	0.23776
1278	0.162774
1290	0.298571
1302	0.180332
1314	0.0402362
1326	0.0372185
1338	0.0651096
1350	0.183624
1362	0.260255
1374	0.113942
1386	0.0967499
1398	0.0986702
1410	0.078735
1422	0.0773633
1434	0.0950124
1446	0.108546
1458	0.101871
1470	0.0829415
1482	0.0942808
1494	0.145856
1506	0.111747
1518	0.0458144
1530	0.0388646
1542	0.0438941
1554	0.0633721
1566	0.0877882
1578	0.0673957
1590	0.0434368
1602	0.032189
1614	0.0363041
1626	0.0356639
1638	0.0248733
1650	0.0334692
1662	0.0631892
1674	0.106443
1686	0.224774
1698	0.674231
1710	0.874772
1722	0.295005
1734	0.139638
1746	0.0714193
1758	0.0398705
1770	0.0207582
1782	0.00896171
1794	0.00731568
1806	0.00640122
1818	0.00704134
1830	0.0091446
1842	0.0079558
1854	0.0057611
1866	0.00566965
1878	0.00548676
1890	0.0108821
1902	0.01518
1914	0.00749857
1926	0.00365784
1938	0.00301772
1950	0.00182892
1962	0.0021947
1974	0.00210326
1986	0.00192037
1998	0.00173747
2010	0.0011888
2022	0.0011888
2034	0.00100591
2046	0.000548676
2058	0.000731568
2070	0.00091446
2082	0.00045723
2094	0.000274338
2106	9.1446e-05
2118	0.00045723
2130	0.00128024
2142	0.00100591
2154	0.000365784
2166	0.000274338
2178	0.000274338
2190	0.000182892
2202	0.00045723
2214	0.000548676
2226	0.00109735
2238	0.00173747
2250	0.00155458
2262	0.00091446
2274	0.0011888
2286	0.000731568
2298	0.00146314
2310	0.00128024
2322	0.00173747
2334	0.00201181
2346	0.00146314
2358	0.00109735
2370	0.00137169
2382	0.00109735
2394	0.0021947
2406	0.0021947
2418	0.00283483
2430	0.00256049
2442	0.0023776
2454	0.00201181
2466	0.00265193
2478	0.00228615
2490	0.00182892
2502	0.00173747
2514	0.00164603
2526	0.00210326
2538	0.00301772
2550	0.00365784
2562	0.00384073
2574	0.00365784
2586	0.00292627
2598	0.00246904
2610	0.00228615
2622	0.00265193
2634	0.00265193
2646	0.0033835
2658	0.00356639
2670	0.00365784
2682	0.0033835
2694	0.00274338
2706	0.00256049
2718	0.00310916
2730	0.00530387
2742	0.0119794
2754	0.0149971
2766	0.00804725
2778	0.00585254
2790	0.00704134
2802	0.00859592
2814	0.0107906
2826	0.0149057
2838	0.0214898
2850	0.033012
2862	0.0613603
2874	0.101871
2886	0.108912
2898	0.0997676
2910	0.101414
2922	0.149514
2934	0.267022
2946	0.238308
2958	0.132597
2970	0.127933
2982	0.153355
2994	0.143204
3006	0.157287
3018	0.182069
3030	0.18088
3042	0.153355
3054	0.148874
3066	0.104523
3078	0.0568794
3090	0.0348409
3102	0.0303601
3114	0.028714
3126	0.0210326
3138	0.0114307
3150	0.00832159
3162	0.00685845
3174	0.00594399
3186	0.00521242
3198	0.00420652
3210	0.00347495
3222	0.00246904
3234	0.00274338
3246	0.00246904
3258	0.00210326
3270	0.00210326
3282	0.00246904
3294	0.00201181
3306	0.00164603
3318	0.0023776
3330	0.00265193
3342	0.00301772
3354	0.00310916
3366	0.0057611
3378	0.00996761
3390	0.0130768
3402	0.0107906
3414	0.00603544
3426	0.00384073
3438	0.00356639
3450	0.00210326
3462	0.0021947
3474	0.00164603
3486	0.00109735
3498	0.00128024
3510	0.00109735
3522	0.00155458
3534	0.00164603
3546	0.00155458
3558	0.00210326
3570	0.00146314
3582	0.00192037
3594	0.00210326
3606	0.000823014
3618	0.00146314
3630	0.0021947
3642	0.00109735
3654	0.000365784
3666	0
3678	0.00173747
3690	0.00045723
3702	0.000548676
3714	0.00256049
3726	0.00365784
3738	0.00228615
3750	0.00173747
3762	0.00164603
3774	0.00100591
3786	0.00256049
3798	0.00164603
3810	0.000731568
3822	0.00201181
3834	0.00210326
3846	0.00246904
3858	0.0023776
3870	0.00265193
3882	0.00109735
3894	0.00274338
3906	0.00374929
3918	0.0023776
3930	0.00310916
3942	0.00182892
3954	0.00137169
3966	0.00246904
