Infrared Spectrum: p-Xylene, .alpha.,.alpha.,.alpha.',.alpha.',2,3,5,6-octachloro-,
Formula: C 8 H 2 Cl 8
CAS: 2142-31-6
Origin: Sadtler Research Labs Under US-EPA Contract
1/CM	ABSORBANCE
450	0.0260043
462	0.0115254
474	0.0166759
486	0.0373496
498	0.0500276
510	0.0125339
522	0.00342161
534	0.00432204
546	0.00875213
558	0.00511441
570	0.00298941
582	0.0118136
594	0.0440128
606	0.0243835
618	0.0258242
630	0.0829111
642	0.0543857
654	0.0430763
666	0.0321272
678	0.0306505
690	0.0776166
702	0.0135064
714	0.0120297
726	0.0144068
738	0.0182246
750	0.0485149
762	0.129013
774	0.237892
786	0.284462
798	0.0468581
810	0.0268687
822	0.0394026
834	0.0189449
846	0.0262564
858	0.0620213
870	0.0641103
882	0.0227627
894	0.00450213
906	0.0033856
918	0.008464
930	0.00947247
942	0.00561865
954	0.00475424
966	0.00633899
978	0.0033856
990	0.0033856
1002	0.00767162
1014	0.00601484
1026	0.00504238
1038	0.0050784
1050	0.00511441
1062	0.00471823
1074	0.00655509
1086	0.00795976
1098	0.00925637
1110	0.0138305
1122	0.0218263
1134	0.132723
1146	0.258746
1158	0.0311907
1170	0.0144788
1182	0.0141547
1194	0.0208899
1206	0.0267966
1218	0.0351166
1230	0.0952289
1242	0.0227267
1254	0.0264365
1266	0.158403
1278	0.133371
1290	0.0376738
1302	0.0119216
1314	0.00950849
1326	0.00972459
1338	0.0171081
1350	0.0345763
1362	0.0965976
1374	0.155738
1386	0.0606166
1398	0.0307225
1410	0.0111653
1422	0.00659111
1434	0.00489831
1446	0.00813984
1458	0.00425001
1470	0.00396187
1482	0.00367373
1494	0.00457416
1506	0.00497035
1518	0.0052945
1530	0.0036017
1542	0.00226907
1554	0.00331356
1566	0.00295339
1578	0.00309746
1590	0.00255721
1602	0.00273729
1614	0.002125
1626	0.0014767
1638	0.00036017
1650	0.00104449
1662	0.00111653
1674	0.00288136
1686	0.00345763
1698	0.00450213
1710	0.00500636
1722	0.00785171
1734	0.00976061
1746	0.00734747
1758	0.00669916
1770	0.0074195
1782	0.0059428
1794	0.00522246
1806	0.00540255
1818	0.00396187
1830	0.00385382
1842	0.00345763
1854	0.00425001
1866	0.00406992
1878	0.00406992
1890	0.00367373
1902	0.00349365
1914	0.00352967
1926	0.00370975
1938	0.00370975
1950	0.00320551
1962	0.00342161
1974	0.00370975
1986	0.00345763
1998	0.00352967
2010	0.00352967
2022	0.00345763
2034	0.0033856
2046	0.00327755
2058	0.0033856
2070	0.00342161
2082	0.00334958
2094	0.0031695
2106	0.00334958
2118	0.00334958
2130	0.00306144
2142	0.00313348
2154	0.00331356
2166	0.00324153
2178	0.00306144
2190	0.00320551
2202	0.00291738
2214	0.00277331
2226	0.00298941
2238	0.00295339
2250	0.00334958
2262	0.00255721
2274	0.00234111
2286	0.00277331
2298	0.00259322
2310	0.00162076
2322	7.2034e-05
2334	7.2034e-05
2346	7.2034e-05
2358	7.2034e-05
2370	7.2034e-05
2382	0.00255721
2394	0.00327755
2406	0.00345763
2418	0.0036017
2430	0.00392585
2442	0.00565467
2454	0.00370975
2466	0.00349365
2478	0.00324153
2490	0.00352967
2502	0.00356568
2514	0.0033856
2526	0.00313348
2538	0.00273729
2550	0.00396187
2562	0.00385382
2574	0.0033856
2586	0.00320551
2598	0.00356568
2610	0.00345763
2622	0.00327755
2634	0.00320551
2646	0.0040339
2658	0.0038178
2670	0.00352967
2682	0.00385382
2694	0.0033856
2706	0.00392585
2718	0.00324153
2730	0.00367373
2742	0.00356568
2754	0.00388984
2766	0.00313348
2778	0.00385382
2790	0.00291738
2802	0.00392585
2814	0.00291738
2826	0.00334958
2838	0.00324153
2850	0.00284534
2862	0.00309746
2874	0.00367373
2886	0.00399789
2898	0.00320551
2910	0.00367373
2922	0.00396187
2934	0.00439407
2946	0.00511441
2958	0.00327755
2970	0.00399789
2982	0.00558263
2994	0.00489831
3006	0.00497035
3018	0.00547458
3030	0.00648306
3042	0.00813984
3054	0.0120657
3066	0.0160996
3078	0.00461018
3090	0.00324153
3102	0.00327755
3114	0.00273729
3126	0.00270127
3138	0.00277331
3150	0.00266526
3162	0.00262924
3174	0.00244916
3186	0.00216102
3198	0.002125
3210	0.00223305
3222	0.00248517
3234	0.00306144
3246	0.00277331
3258	0.0016928
3270	0.00194492
3282	0.00158475
3294	0.00158475
3306	0.002125
3318	0.00237712
3330	0.00208899
3342	0.00288136
3354	0.00223305
3366	0.00208899
3378	0.00266526
3390	0.00306144
3402	0.00259322
3414	0.00298941
3426	0.00241314
3438	0.00248517
3450	0.00219704
3462	0.00259322
3474	0.00280933
3486	0.00266526
3498	0.00219704
3510	0.002125
3522	0.00259322
3534	0.00284534
3546	0.00208899
3558	0.00291738
3570	0.00349365
3582	0.00201695
3594	0.00144068
3606	0.002125
3618	0.00187288
3630	0.000864408
3642	0.00205297
3654	0.00277331
3666	0.00172882
3678	0.00140466
3690	0.00172882
3702	0.00187288
3714	0.00244916
3726	0.000648306
3738	0.00298941
3750	0.00115254
3762	0.00219704
3774	0.00216102
3786	0.00241314
3798	0.002125
3810	0.00309746
3822	0.00144068
3834	0.00194492
3846	0.00187288
3858	0.00100848
3870	0.00180085
3882	0.00162076
3894	0.00183687
3906	0.00320551
3918	0.00126059
3930	0.00136865
3942	0.0016928
3954	0.00392585
3966	0.00226907
