Infrared Spectrum: Ethanone, 1-(2-chlorophenyl)-
Formula: C 8 H 7 Cl O
CAS: 2142-68-9
Origin: Sadtler Research Labs Under US-EPA Contract
1/CM	ABSORBANCE
450	0.0469186
462	0.0473697
474	0.017414
486	0.000631596
498	0.00496254
510	0.00794006
522	0.0203013
534	0.0172335
546	0.00523322
558	0.0180456
570	0.045114
582	0.133447
594	0.214472
606	0.0574752
618	0.0119101
630	0.014256
642	0.0151583
654	0.0137147
666	0.0459261
678	0.0370837
690	0.00766938
702	0.00442117
714	0.0232788
726	0.0818368
738	0.176937
750	0.550932
762	0.338084
774	0.0332941
786	0.00505277
798	0.00775961
810	0.00857166
822	0.0105567
834	0.0137147
846	0.0067671
858	0.00893257
870	0.00144365
882	0.00234593
894	0.005143
906	0.00757915
918	0.0124515
930	0.0243616
942	0.0560316
954	0.0918521
966	0.100514
978	0.0485427
990	0.0355498
1002	0.0372642
1014	0.056212
1026	0.0969049
1038	0.215555
1050	0.20563
1062	0.0804834
1074	0.0455651
1086	0.11459
1098	0.199855
1110	0.0872505
1122	0.0557609
1134	0.0687537
1146	0.0359107
1158	0.0294143
1170	0.0314896
1182	0.0320309
1194	0.0351889
1206	0.0413244
1218	0.0901378
1230	0.358025
1242	0.447621
1254	0.149688
1266	0.284218
1278	0.541639
1290	0.271135
1302	0.0495352
1314	0.0248127
1326	0.0310384
1338	0.0563925
1350	0.165839
1362	0.339618
1374	0.162591
1386	0.0614453
1398	0.0597309
1410	0.0757915
1422	0.16214
1434	0.283045
1446	0.173148
1458	0.10683
1470	0.14635
1482	0.0704681
1494	0.0300459
1506	0.0264368
1518	0.0232788
1530	0.0203915
1542	0.0240006
1554	0.0343769
1566	0.0511593
1578	0.0735358
1590	0.160786
1602	0.133898
1614	0.0464674
1626	0.0301362
1638	0.0200306
1650	0.0230984
1662	0.0412342
1674	0.0837316
1686	0.15032
1698	0.33655
1710	0.798428
1722	0.768472
1734	0.291076
1746	0.127673
1758	0.0697462
1770	0.0408733
1782	0.0201208
1794	0.0181358
1806	0.0222863
1818	0.0163313
1830	0.0156094
1842	0.0128124
1854	0.00604528
1866	0.00478208
1878	0.00460163
1890	0.00794006
1902	0.00947394
1914	0.016241
1926	0.0180456
1938	0.00983485
1950	0.0133537
1962	0.0112785
1974	0.00171433
1986	0.00189479
1998	0.0016241
2010	0.00117296
2022	0.00216547
2034	0.00424072
2046	0.00442117
2058	0.00415049
2070	0.00478208
2082	0.00315798
2094	0.000360912
2106	0.00090228
2118	0.0016241
2130	0.0016241
2142	0.00108274
2154	0.000631596
2166	0.000270684
2178	0.00153388
2190	0.00108274
2202	0.00153388
2214	0.00144365
2226	0.00153388
2238	0.000992508
2250	0.00171433
2262	0.00279707
2274	0.00351889
2286	0.00424072
2298	0.00703778
2310	0.0101055
2322	0.00983485
2334	0.00649642
2346	0.00803029
2358	0.00532345
2370	0.0096544
2382	0.00893257
2394	0.00550391
2406	0.00469186
2418	0.00505277
2430	0.00487231
2442	0.00541368
2454	0.00433094
2466	0.00478208
2478	0.00478208
2490	0.00433094
2502	0.00478208
2514	0.00631596
2526	0.00433094
2538	0.005143
2550	0.00568436
2562	0.0067671
2574	0.00640619
2586	0.00685733
2598	0.00730847
2610	0.00631596
2622	0.00442117
2634	0.00622573
2646	0.00442117
2658	0.0016241
2670	0.00577459
2682	0.00730847
2694	0.00893257
2706	0.00848143
2718	0.00784984
2730	0.00766938
2742	0.00947394
2754	0.00794006
2766	0.00803029
2778	0.00812052
2790	0.00803029
2802	0.00667687
2814	0.00775961
2826	0.0106469
2838	0.0137147
2850	0.0137147
2862	0.0129026
2874	0.0145267
2886	0.012271
2898	0.0132635
2910	0.0167824
2922	0.0197599
2934	0.0274293
2946	0.0269782
2958	0.025715
2970	0.028512
2982	0.0333844
2994	0.0381664
3006	0.0468283
3018	0.0556707
3030	0.0470088
3042	0.0341964
3054	0.0377153
3066	0.089055
3078	0.149959
3090	0.0988899
3102	0.0364521
3114	0.0187674
3126	0.0171433
3138	0.0180456
3150	0.0147072
3162	0.00667687
3174	0.0110078
3186	0.00640619
3198	0.00604528
3210	0.00595505
3222	0.0061355
3234	0.00505277
3246	0.00496254
3258	0.00478208
3270	0.00694756
3282	0.00595505
3294	0.00649642
3306	0.00685733
3318	0.00505277
3330	0.00523322
3342	0.00424072
3354	0.00694756
3366	0.00541368
3378	0.00622573
3390	0.00992508
3402	0.0144365
3414	0.0161508
3426	0.0106469
3438	0.00992508
3450	0.00685733
3462	0.00703778
3474	0.000721824
3486	0.0028873
3498	0.00830098
3510	0.00415049
3522	0.00279707
3534	0.0038798
3546	0.00342866
3558	0.00532345
3570	0.00324821
3582	0.00685733
3594	0.00766938
3606	0.00496254
3618	0.00496254
3630	0.00378958
3642	0.00360912
3654	0.0096544
3666	0.00721824
3678	0.00866189
3690	0.0104664
3702	0.012271
3714	0.010286
3726	0.0105567
3738	0.0146169
3750	0.0155192
3762	0.0183163
3774	0.0141658
3786	0.0146169
3798	0.0167824
3810	0.016602
3822	0.0199404
3834	0.019399
3846	0.0172335
3858	0.0175945
3870	0.0172335
3882	0.0109176
3894	0.0137147
3906	0.0157899
3918	0.0141658
3930	0.0119101
3942	0.0103762
3954	0.0156094
3966	0.0161508
