Infrared Spectrum: Ethanone, 1-(3-bromophenyl)-
Formula: C 8 H 7 Br O
CAS: 2142-63-4
Origin: Sadtler Research Labs Under US-EPA Contract
1/CM	ABSORBANCE
450	0.0106337
462	0.010948
474	0.00759554
486	0.00675741
498	0.00660026
510	0.009848
522	0.00963847
534	0.00995277
546	0.00927179
558	0.0125195
570	0.0266106
582	0.0741743
594	0.0753791
606	0.0197484
618	0.00780507
630	0.00649549
642	0.0122576
654	0.0533259
666	0.0665788
678	0.0529068
690	0.0519116
702	0.0117338
714	0.00623358
726	0.00225247
738	0.00314298
750	0.00843366
762	0.0347823
774	0.105709
786	0.0964895
798	0.0352538
810	0.00560498
822	0.00146672
834	0.0034049
846	0.00220009
858	0.0034049
870	0.0104766
882	0.0169721
894	0.0125195
906	0.0149815
918	0.00869558
930	0.00508115
942	0.0171816
954	0.0342061
966	0.0205865
978	0.00717647
990	0.010529
1002	0.0176007
1014	0.0080146
1026	0.00874796
1038	0.00880034
1050	0.0193817
1062	0.0454161
1074	0.038711
1086	0.0306441
1098	0.0218437
1110	0.0126767
1122	0.00722885
1134	0.00728124
1146	0.0107909
1158	0.0110004
1170	0.0170769
1182	0.0108957
1194	0.0143006
1206	0.0207961
1218	0.0395492
1230	0.119905
1242	0.433207
1254	0.375481
1266	0.10178
1278	0.110738
1290	0.0409111
1302	0.0133053
1314	0.00764792
1326	0.00838128
1338	0.0145625
1350	0.0487162
1362	0.107647
1374	0.0570975
1386	0.0244629
1398	0.0310107
1410	0.0700885
1422	0.100575
1434	0.0314298
1446	0.0192769
1458	0.0176007
1470	0.0350966
1482	0.0208484
1494	0.00701932
1506	0.00743839
1518	0.00874796
1530	0.0117338
1542	0.0205341
1554	0.0411207
1566	0.0939227
1578	0.0768982
1590	0.0240438
1602	0.0121005
1614	0.00764792
1626	0.00644311
1638	0.00743839
1650	0.00780507
1662	0.0176007
1674	0.0298059
1686	0.0376634
1698	0.147668
1710	0.429436
1722	0.132162
1734	0.030906
1746	0.0299631
1758	0.0227866
1770	0.00853843
1782	0.00487162
1794	0.00534307
1806	0.00518592
1818	0.00429541
1830	0.004924
1842	0.00591928
1854	0.00398111
1866	0.00476685
1878	0.0055526
1890	0.00434779
1902	0.00419064
1914	0.002462
1926	0.00314298
1938	0.00466209
1950	0.00481924
1962	0.00419064
1974	0.00267153
1986	0.00335251
1998	0.0034049
2010	0.00335251
2022	0.0027763
2034	0.00130958
2046	0.000785745
2058	0.000366681
2070	0.000419064
2082	0
2094	0.000471447
2106	0.00104766
2118	0.00151911
2130	0.00157149
2142	0.00151911
2154	0.00157149
2166	0.00162387
2178	0.00209532
2190	0.0021477
2202	0.00230485
2214	0.0021477
2226	0.00225247
2238	0.00225247
2250	0.00230485
2262	0.00178102
2274	0.00188579
2286	0.00193817
2298	0.00204294
2310	0.00209532
2322	0.00167626
2334	0.00167626
2346	0.00330013
2358	0.00146672
2370	0.00366681
2382	0.00392873
2394	0.00251438
2406	0.00157149
2418	0.00172864
2430	0.00162387
2442	0.00162387
2454	0.00125719
2466	0.00172864
2478	0.00136196
2490	0.00230485
2502	0.00172864
2514	0.00183341
2526	0.00225247
2538	0.00183341
2550	0.00136196
2562	0.00136196
2574	0.00151911
2586	0.00193817
2598	0.00251438
2610	0.00303821
2622	0.00303821
2634	0.0030906
2646	0.00403349
2658	0.00303821
2670	0.00162387
2682	0.00162387
2694	0.00115243
2706	0.000680979
2718	0.000785745
2730	0.000785745
2742	0.000785745
2754	0.000890511
2766	0.000942894
2778	0.000890511
2790	0.000942894
2802	0.00136196
2814	0.00130958
2826	0.00209532
2838	0.00209532
2850	0.00225247
2862	0.00256677
2874	0.00188579
2886	0.00220009
2898	0.00230485
2910	0.00240962
2922	0.00330013
2934	0.00780507
2946	0.00691456
2958	0.004924
2970	0.00811936
2982	0.00927179
2994	0.00654788
3006	0.0106861
3018	0.0190674
3030	0.0107909
3042	0.00570975
3054	0.00576213
3066	0.0182817
3078	0.0321632
3090	0.0223152
3102	0.00963847
3114	0.00303821
3126	0.00251438
3138	0.00204294
3150	0.00225247
3162	0.00125719
3174	0.00130958
3186	0.00120481
3198	0.00110004
3210	0.00130958
3222	0.00141434
3234	0.00240962
3246	0.0021477
3258	0.00199055
3270	0.00110004
3282	0.00110004
3294	0.00110004
3306	0.000942894
3318	0.000419064
3330	0.000838128
3342	0.000628596
3354	0.000942894
3366	0.00240962
3378	0.00293345
3390	0.004924
3402	0.00790983
3414	0.00419064
3426	0.00167626
3438	0.000628596
3450	0.00172864
3462	0.00251438
3474	0.00261915
3486	0.00162387
3498	0.00377158
3510	0.00424302
3522	0.00272392
3534	0.00240962
3546	0.00272392
3558	0.00288107
3570	0.00230485
3582	0.00110004
3594	0.00151911
3606	0.00251438
3618	0.00157149
3630	0.00398111
3642	0.00335251
3654	0.00350966
3666	0.00382396
3678	0.00466209
3690	0.00413826
3702	0.00387634
3714	0.00314298
3726	0.00272392
3738	0.00288107
3750	0.00366681
3762	0.00324775
3774	0.00361443
3786	0.00288107
3798	0.0030906
3810	0.00356204
3822	0.0034049
3834	0.00188579
3846	0.00172864
3858	0.000628596
3870	0.000419064
3882	0.00204294
3894	0.00188579
3906	0.00193817
3918	0.002462
3930	0.0030906
3942	0.00324775
3954	0.00455732
3966	0.00434779
