Infrared Spectrum: Benzoic acid, 2,4-dimethoxy-, methyl ester
Formula: C 10 H 12 O 4
CAS: 2150-41-6
Origin: Sadtler Research Labs Under US-EPA Contract
1/CM	ABSORBANCE
450	0.0046851
462	0.00585637
474	0.00499744
486	0.00530978
498	0.000858935
510	0.00351382
522	0.00929212
534	0.0120251
546	0.0184281
558	0.0140553
570	0.0194432
582	0.0201459
594	0.0324053
606	0.046851
618	0.0488812
630	0.036778
642	0.0270174
654	0.0153047
666	0.0113223
678	0.0127279
690	0.0191308
702	0.0284229
714	0.0246749
726	0.017491
738	0.0134306
750	0.0133525
762	0.0402919
774	0.0628584
786	0.0318587
798	0.027564
810	0.0452112
822	0.0563774
834	0.0740246
846	0.0616871
858	0.0370123
870	0.0231132
882	0.0157732
894	0.0149923
906	0.017491
918	0.0391206
930	0.0503648
942	0.0334985
954	0.022957
966	0.0292038
978	0.0334204
990	0.0247529
1002	0.0313902
1014	0.0559869
1026	0.151641
1038	0.338342
1050	0.267519
1062	0.0926088
1074	0.117752
1086	0.281496
1098	0.28134
1110	0.162651
1122	0.276499
1134	0.476006
1146	0.398312
1158	0.383866
1170	0.366999
1182	0.205285
1194	0.230663
1206	0.374105
1218	0.393314
1230	0.333423
1242	0.596101
1254	0.727674
1266	0.737825
1278	0.730017
1290	0.472961
1302	0.313589
1314	0.238159
1326	0.176863
1338	0.0755082
1350	0.0419316
1362	0.0328738
1374	0.0323272
1386	0.0408385
1398	0.0819892
1410	0.149845
1422	0.139382
1434	0.247373
1446	0.182797
1458	0.1639
1470	0.223245
1482	0.136024
1494	0.186857
1506	0.251434
1518	0.0958103
1530	0.0473976
1542	0.0456797
1554	0.0623118
1566	0.133057
1578	0.274703
1590	0.283136
1602	0.466636
1614	0.656695
1626	0.21653
1638	0.0729314
1650	0.0424002
1662	0.033108
1674	0.0334204
1686	0.0448208
1698	0.0638735
1710	0.105024
1722	0.261272
1734	0.458827
1746	0.494747
1758	0.36411
1770	0.118221
1782	0.0557527
1794	0.0224104
1806	0.0131964
1818	0.00897977
1830	0.00843318
1842	0.0062468
1854	0.00710573
1866	0.00718382
1878	0.00866743
1890	0.0120251
1902	0.01101
1914	0.0093702
1926	0.00929212
1938	0.0102291
1950	0.00866743
1962	0.00538786
1974	0.00351382
1986	0.00390425
1998	0.00460701
2010	0.00585637
2022	0.00632488
2034	0.00663722
2046	0.00952637
2058	0.0112442
2070	0.0120251
2082	0.0104634
2094	0.00733999
2106	0.00562212
2118	0.0041385
2130	0.00398234
2142	0.00398234
2154	0.00296723
2166	0.00242063
2178	0.00296723
2190	0.00390425
2202	0.00476318
2214	0.00429467
2226	0.00343574
2238	0.00273297
2250	0.00171787
2262	0.00117127
2274	0.000234255
2286	7.8085e-05
2298	0.00062468
2310	0.00093702
2322	0.00187404
2334	0.00265489
2346	0.00242063
2358	0.00195212
2370	0.00366999
2382	0.00249872
2394	0.00195212
2406	0.00140553
2418	0.00234255
2430	0.00234255
2442	0.00249872
2454	0.00265489
2466	0.00265489
2478	0.00281106
2490	0.00343574
2502	0.00366999
2514	0.00366999
2526	0.00421659
2538	0.00476318
2550	0.00390425
2562	0.00335765
2574	0.00437276
2586	0.00499744
2598	0.00609063
2610	0.00593446
2622	0.00437276
2634	0.00335765
2646	0.00249872
2658	0.00265489
2670	0.0025768
2682	0.00218638
2694	0.0021083
2706	0.00304531
2718	0.00320149
2730	0.00320149
2742	0.00281106
2754	0.00382616
2766	0.00421659
2778	0.00429467
2790	0.00741807
2802	0.00976063
2814	0.0157732
2826	0.029438
2838	0.0760548
2850	0.12314
2862	0.0656695
2874	0.0475538
2886	0.0519265
2898	0.0691833
2910	0.0847222
2922	0.107757
2934	0.11541
2946	0.188653
2958	0.287899
2970	0.16921
2982	0.0789439
2994	0.0806618
3006	0.139147
3018	0.137195
3030	0.0548157
3042	0.0322491
3054	0.0245187
3066	0.0215515
3078	0.0217857
3090	0.0267832
3102	0.0244406
3114	0.013743
3126	0.0104634
3138	0.00765233
3150	0.00679339
3162	0.00523169
3174	0.00421659
3186	0.00382616
3198	0.00249872
3210	0.00203021
3222	0.00163978
3234	0.00163978
3246	0.000546595
3258	0.00046851
3270	0.00093702
3282	0.00062468
3294	0.00078085
3306	0.00078085
3318	0.00109319
3330	0.00171787
3342	0.00218638
3354	0.00140553
3366	0.00203021
3378	0.0010151
3390	0.00187404
3402	0.00148361
3414	0.0010151
3426	0.00195212
3438	0.0021083
3450	0.0025768
3462	0.00327957
3474	0.00452893
3486	0.00398234
3498	0.00398234
3510	0.00187404
3522	0.00195212
3534	0.00140553
3546	0.00148361
3558	0.00124936
3570	0.00163978
3582	0.0010151
3594	0.00218638
3606	0.0015617
3618	0.00171787
3630	0.00242063
3642	0.00163978
3654	0.00288914
3666	0.00195212
3678	0.0025768
3690	0.00226446
3702	0.00203021
3714	0.00171787
3726	0.000858935
3738	0.0010151
3750	0.00117127
3762	0.00234255
3774	0.00359191
3786	0.00234255
3798	0.00265489
3810	0.00288914
3822	0.00249872
3834	0.00273297
3846	0.00288914
3858	0.00382616
3870	0.00327957
3882	0.0031234
3894	0.00382616
3906	0.00359191
3918	0.00320149
3930	0.0031234
3942	0.00265489
3954	0.00335765
3966	0.00351382
