Infrared Spectrum: Benzoic acid, 3,5-dimethoxy-, methyl ester
Formula: C 10 H 12 O 4
CAS: 2150-37-0
Origin: Sadtler Research Labs Under US-EPA Contract
1/CM	ABSORBANCE
450	0.00346473
462	0.006352
474	0.0143209
486	0.00819986
498	0.0116646
510	0.0163997
522	0.0177856
534	0.0136279
546	0.00716044
558	0.00554357
570	0.013397
582	0.0121266
594	0.00843084
606	0.00600553
618	0.0154758
630	0.0116646
642	0.0102787
654	0.00450415
666	0.0219433
678	0.0608638
690	0.0329149
702	0.00866182
714	0.00138589
726	0.00542808
738	0.0077379
750	0.0677932
762	0.261818
774	0.155566
786	0.0232137
798	0.0148983
810	0.0172082
822	0.0184786
834	0.0354557
846	0.0930857
858	0.0949336
870	0.131313
882	0.171851
894	0.0651369
906	0.0230982
918	0.0360332
930	0.0717199
942	0.044464
954	0.0229827
966	0.0230982
978	0.0360332
990	0.0930857
1002	0.173236
1014	0.10937
1026	0.0761086
1038	0.182591
1050	0.515898
1062	0.770671
1074	0.379619
1086	0.168617
1098	0.30813
1110	0.307091
1122	0.186056
1134	0.215391
1146	0.572258
1158	1.09855
1170	0.515552
1182	0.343932
1194	0.632891
1206	0.829918
1218	0.648713
1230	1.03284
1242	0.95384
1254	0.412765
1266	0.200146
1278	0.193909
1290	0.370842
1302	0.696295
1314	0.651947
1326	0.963772
1338	0.865028
1350	0.586001
1362	0.242878
1374	0.103826
1386	0.082807
1398	0.0982828
1410	0.152448
1422	0.342777
1434	0.650445
1446	0.454804
1458	0.475245
1470	0.553433
1482	0.23768
1494	0.103595
1506	0.0798043
1518	0.0746072
1530	0.0754156
1542	0.0845394
1554	0.0800353
1566	0.111218
1578	0.243571
1590	0.656335
1602	1.14948
1614	0.628618
1626	0.225092
1638	0.0971279
1650	0.0733368
1662	0.0409993
1674	0.0479288
1686	0.0548582
1698	0.0858098
1710	0.0960885
1722	0.125654
1734	0.493262
1746	1.10744
1758	0.327994
1770	0.127387
1782	0.0944716
1794	0.0494301
1806	0.0174391
1818	0.00981674
1830	0.0109716
1842	0.00658299
1854	0.00831535
1866	0.00947026
1878	0.00323375
1890	0.00311826
1902	0.00138589
1914	0.00230982
1926	0.00358022
1938	0.00265629
1950	0.00531259
1962	0.00762241
1974	0.0102787
1986	0.0112026
1998	0.00947026
2010	0.00565906
2022	0.00519709
2034	0.00819986
2046	0.0114336
2058	0.0102787
2070	0.00796888
2082	0.0110871
2094	0.0152448
2106	0.0222898
2118	0.0212503
2130	0.0135124
2142	0.00819986
2154	0.00542808
2166	0.00404219
2178	0.00196335
2190	0.00230982
2202	0.00334924
2214	0.00369571
2226	0.00438866
2238	0.0038112
2250	0.0025408
2262	0.00196335
2274	0.00115491
2286	0.00138589
2298	0.00300277
2310	0.00704495
2322	0.00577455
2334	0.00219433
2346	0.0140899
2358	0.00288727
2370	0.00762241
2382	0.00935477
2394	0.00531259
2406	0.00438866
2418	0.0038112
2430	0.00369571
2442	0.00404219
2454	0.00369571
2466	0.00450415
2478	0.0050816
2490	0.00542808
2502	0.00531259
2514	0.00473513
2526	0.00438866
2538	0.00473513
2550	0.00519709
2562	0.00496611
2574	0.00531259
2586	0.00554357
2598	0.00716044
2610	0.00912379
2622	0.0107407
2634	0.0108562
2646	0.0118956
2658	0.0102787
2670	0.00692946
2682	0.00554357
2694	0.00404219
2706	0.00427317
2718	0.00415768
2730	0.00461964
2742	0.00612102
2754	0.00912379
2766	0.0113181
2778	0.0144364
2790	0.0172082
2802	0.0213658
2814	0.0272559
2826	0.0431936
2838	0.109601
2850	0.215968
2862	0.108908
2874	0.0751846
2886	0.0866182
2898	0.112373
2910	0.137896
2922	0.15984
2934	0.171158
2946	0.311941
2958	0.458615
2970	0.299353
2982	0.126578
2994	0.139629
3006	0.270018
3018	0.207306
3030	0.0886971
3042	0.0565906
3054	0.0400754
3066	0.0364952
3078	0.0352248
3090	0.039036
3102	0.0422697
3114	0.0292192
3126	0.0199799
3138	0.0167462
3150	0.0155913
3162	0.0150138
3174	0.0143209
3186	0.0135124
3198	0.012242
3210	0.0106252
3222	0.00993223
3234	0.00762241
3246	0.00739142
3258	0.00762241
3270	0.0064675
3282	0.00750691
3294	0.00623651
3306	0.00692946
3318	0.00716044
3330	0.00889281
3342	0.0100477
3354	0.00993223
3366	0.00877732
3378	0.00935477
3390	0.00739142
3402	0.00831535
3414	0.0077379
3426	0.00819986
3438	0.00866182
3450	0.00912379
3462	0.0144364
3474	0.0146674
3486	0.0090083
3498	0.00796888
3510	0.00727593
3522	0.00958575
3534	0.00912379
3546	0.0105097
3558	0.00796888
3570	0.0112026
3582	0.00669848
3594	0.0120111
3606	0.00831535
3618	0.00866182
3630	0.0136279
3642	0.006352
3654	0.0170927
3666	0.00473513
3678	0.00461964
3690	0.0148983
3702	0.00808437
3714	0.0125885
3726	0.00461964
3738	0.00796888
3750	0.0264474
3762	0.00704495
3774	0.00808437
3786	0.00947026
3798	0.0169772
3810	0.00392669
3822	0.0184786
3834	0.012704
3846	0.0140899
3858	0.0108562
3870	0.00692946
3882	0.00819986
3894	0.00716044
3906	0.0145519
3918	0.0151293
3930	0.0090083
3942	0.0108562
3954	0.0175546
3966	0.0137434
