Infrared Spectrum: Benzene, 1-iodo-2,4,6-tribromo-,
Formula: C 6 H 2 Br 3 I
CAS: 21521-51-7
Origin: Sadtler Research Labs Under US-EPA Contract
1/CM	ABSORBANCE
450	0
462	0.00546014
474	0.00651317
486	0.00308108
498	0.00709818
510	0.00452412
522	0.00986725
534	0.0273397
546	0.00631816
558	0.00487513
570	0.00534314
582	0.00604515
594	0.00514813
606	0.00553814
618	0.00351009
630	0.0076442
642	0.0147814
654	0.0078392
666	0.0106863
678	0.0356859
690	0.0106083
702	0.00897023
714	0.0174724
726	0.0586965
738	0.2842
750	0.037402
762	0.162127
774	0.0191105
786	0.0076052
798	0.0118953
810	0.0100233
822	0.00678617
834	0.0108813
846	0.0280027
858	0.125934
870	0.0445781
882	0.0079562
894	0.00659117
906	0.00452412
918	0.0040951
930	0.00315908
942	0.0038221
954	0.0039001
966	0.00565515
978	0.00822921
990	0.037129
1002	0.198125
1014	0.0429401
1026	0.0102183
1038	0.00842422
1050	0.0109983
1062	0.0359199
1074	0.0129873
1086	0.00951624
1098	0.0155614
1110	0.116847
1122	0.0622456
1134	0.0262867
1146	0.0140794
1158	0.039274
1170	0.0981655
1182	0.0225036
1194	0.040678
1206	0.00822921
1218	0.0226206
1230	0.0167704
1242	0.00339309
1254	0.00288607
1266	0.00249606
1278	0.00269107
1290	0.00308108
1302	0.00425111
1314	0.00526513
1326	0.0143914
1338	0.119655
1350	0.265207
1362	0.101052
1374	0.264115
1386	0.110958
1398	0.0972295
1410	0.0324098
1422	0.00908723
1434	0.00483612
1446	0.0077612
1458	0.0100623
1470	0.0116613
1482	0.0154444
1494	0.0251556
1506	0.0369339
1518	0.128391
1530	0.39001
1542	0.288529
1554	0.0593595
1566	0.0176285
1578	0.00900923
1590	0.00479712
1602	0.00366609
1614	0.00491413
1626	0.00491413
1638	0.00452412
1650	0.00507013
1662	0.00475812
1674	0.00522613
1686	0.00581115
1698	0.00729319
1710	0.0104523
1722	0.0199295
1734	0.0216066
1746	0.0133773
1758	0.0101013
1770	0.0102963
1782	0.00690318
1794	0.00534314
1806	0.00471912
1818	0.00421211
1830	0.00440711
1842	0.0039781
1854	0.00456312
1866	0.00456312
1878	0.00417311
1890	0.0038221
1902	0.00362709
1914	0.00362709
1926	0.00343209
1938	0.00319808
1950	0.00339309
1962	0.00323708
1974	0.00312008
1986	0.00312008
1998	0.00327608
2010	0.00343209
2022	0.00319808
2034	0.00284707
2046	0.00312008
2058	0.00292508
2070	0.00288607
2082	0.00347109
2094	0.00312008
2106	0.00366609
2118	0.0037831
2130	0.00347109
2142	0.00343209
2154	0.00300308
2166	0.00323708
2178	0.00331509
2190	0.00351009
2202	0.00351009
2214	0.0037051
2226	0.00432911
2238	0.0037831
2250	0.00323708
2262	0.00366609
2274	0.00421211
2286	0.00514813
2298	0.00577215
2310	0.00752719
2322	0.00627916
2334	0.00620116
2346	0.00721519
2358	0.00600615
2370	0.00573315
2382	0.00612316
2394	0.0037831
2406	0.00347109
2418	0.00358809
2430	0.00347109
2442	0.00335409
2454	0.00417311
2466	0.0039391
2478	0.00362709
2490	0.00354909
2502	0.0039001
2514	0.0038221
2526	0.00452412
2538	0.00471912
2550	0.00510913
2562	0.00471912
2574	0.00487513
2586	0.00460212
2598	0.00479712
2610	0.00460212
2622	0.00483612
2634	0.00534314
2646	0.00514813
2658	0.00507013
2670	0.00366609
2682	0.0039001
2694	0.0038221
2706	0.00429011
2718	0.00448512
2730	0.00526513
2742	0.00600615
2754	0.00588915
2766	0.00499213
2778	0.00479712
2790	0.00366609
2802	0.00354909
2814	0.00444611
2826	0.0039781
2838	0.00417311
2850	0.00448512
2862	0.00507013
2874	0.00561614
2886	0.00577215
2898	0.00510913
2910	0.00534314
2922	0.00612316
2934	0.00592815
2946	0.00538214
2958	0.00534314
2970	0.00510913
2982	0.00483612
2994	0.00499213
3006	0.0039781
3018	0.00503113
3030	0.00530414
3042	0.00526513
3054	0.00631816
3066	0.00553814
3078	0.00678617
3090	0.0111933
3102	0.0205925
3114	0.00686418
3126	0.00471912
3138	0.00499213
3150	0.00483612
3162	0.00432911
3174	0.00448512
3186	0.00440711
3198	0.00456312
3210	0.00444611
3222	0.00448512
3234	0.0040171
3246	0.00452412
3258	0.00425111
3270	0.00507013
3282	0.00495313
3294	0.00475812
3306	0.00475812
3318	0.00585015
3330	0.00448512
3342	0.00503113
3354	0.00444611
3366	0.00413411
3378	0.00452412
3390	0.00534314
3402	0.00487513
3414	0.00510913
3426	0.00468012
3438	0.0040951
3450	0.00452412
3462	0.00538214
3474	0.00503113
3486	0.00538214
3498	0.00507013
3510	0.00542114
3522	0.00471912
3534	0.00483612
3546	0.00479712
3558	0.00561614
3570	0.00452412
3582	0.00479712
3594	0.00534314
3606	0.00358809
3618	0.00514813
3630	0.00483612
3642	0.00546014
3654	0.00483612
3666	0.00487513
3678	0.00499213
3690	0.00479712
3702	0.00327608
3714	0.00592815
3726	0.00510913
3738	0.00522613
3750	0.0038221
3762	0.00608416
3774	0.00534314
3786	0.00429011
3798	0.0040951
3810	0.00682518
3822	0.00468012
3834	0.00444611
3846	0.00444611
3858	0.00600615
3870	0.00483612
3882	0.00526513
3894	0.00510913
3906	0.00546014
3918	0.0037441
3930	0.00464112
3942	0.0040951
3954	0.00631816
3966	0.00756619
