Infrared Spectrum: Dibutyl itaconate
Formula: C 13 H 22 O 4
CAS: 2155-60-4
Origin: Sadtler Research Labs Under US-EPA Contract
1/CM	ABSORBANCE
450	0
462	0.0968097
474	0.105496
486	0.0993774
498	0.0798188
510	0.105169
522	0.111943
534	0.099596
546	0.0828236
558	0.0861562
570	0.0863201
582	0.0893796
594	0.0873582
606	0.0912371
618	0.0846811
630	0.087686
642	0.0897074
654	0.0852275
666	0.0899259
678	0.075776
690	0.0789447
702	0.0760491
714	0.0832061
726	0.0836431
738	0.0704766
750	0.107026
762	0.0939688
774	0.0852275
786	0.0802012
798	0.09304
810	0.103475
822	0.104731
834	0.0916195
846	0.10271
858	0.0970828
870	0.0982301
882	0.0994321
894	0.103857
906	0.0944605
918	0.092002
930	0.10637
942	0.147728
954	0.141554
966	0.123744
978	0.110413
990	0.106207
1002	0.129098
1014	0.152645
1026	0.147509
1038	0.109648
1050	0.100962
1062	0.137511
1074	0.133687
1086	0.135927
1098	0.140407
1110	0.172039
1122	0.271745
1134	0.470663
1146	0.516992
1158	0.436955
1170	0.431874
1182	0.445532
1194	0.382813
1206	0.285676
1218	0.227546
1230	0.231535
1242	0.282671
1254	0.296712
1266	0.264861
1278	0.257977
1290	0.285457
1302	0.265844
1314	0.26355
1326	0.21367
1338	0.195149
1350	0.150951
1362	0.124181
1374	0.115002
1386	0.130901
1398	0.131502
1410	0.129535
1422	0.142319
1434	0.128497
1446	0.120739
1458	0.13243
1470	0.137839
1482	0.111834
1494	0.092439
1506	0.0849543
1518	0.0819495
1530	0.0782345
1542	0.0800373
1554	0.0789447
1566	0.0767047
1578	0.0773603
1590	0.0753389
1602	0.0792725
1614	0.0845719
1626	0.091401
1638	0.111069
1650	0.0974653
1662	0.0799281
1674	0.0850089
1686	0.0924937
1698	0.105332
1710	0.124891
1722	0.196242
1734	0.408928
1746	0.518413
1758	0.52841
1770	0.257595
1782	0.144887
1794	0.110523
1806	0.0926029
1818	0.08337
1830	0.0805837
1842	0.0758852
1854	0.0759399
1866	0.0758306
1878	0.0761584
1890	0.0781252
1902	0.0773603
1914	0.0750657
1926	0.0739184
1938	0.073536
1950	0.0733721
1962	0.0734268
1974	0.0736999
1986	0.0736999
1998	0.0732082
2010	0.0732082
2022	0.0728258
2034	0.0733721
2046	0.0729351
2058	0.0722248
2070	0.072498
2082	0.0719517
2094	0.0716785
2106	0.0713507
2118	0.0709136
2130	0.0711868
2142	0.0703673
2154	0.0701488
2166	0.0700395
2178	0.0699302
2190	0.0693293
2202	0.0695478
2214	0.0688376
2226	0.0690015
2238	0.0694385
2250	0.0694932
2262	0.0696024
2274	0.0701488
2286	0.0703127
2298	0.0711868
2310	0.071897
2322	0.0708044
2334	0.0704766
2346	0.0759945
2358	0.0708044
2370	0.0727712
2382	0.0715146
2394	0.0698756
2406	0.0698756
2418	0.069821
2430	0.069821
2442	0.0696024
2454	0.0697117
2466	0.0694932
2478	0.0694932
2490	0.0698756
2502	0.0693839
2514	0.0697117
2526	0.0694385
2538	0.0696571
2550	0.0697663
2562	0.0702034
2574	0.0703673
2586	0.0703127
2598	0.0709136
2610	0.0704219
2622	0.0703673
2634	0.070258
2646	0.0700395
2658	0.0705312
2670	0.0707497
2682	0.0708044
2694	0.07146
2706	0.0715692
2718	0.0722248
2730	0.0727165
2742	0.0736453
2754	0.0743009
2766	0.0743555
2778	0.0741916
2790	0.0750111
2802	0.0765408
2814	0.0786169
2826	0.0812939
2838	0.0861016
2850	0.0996506
2862	0.117242
2874	0.148984
2886	0.183403
2898	0.165593
2910	0.174989
2922	0.205584
2934	0.246286
2946	0.299498
2958	0.31485
2970	0.40341
2982	0.270106
2994	0.161167
3006	0.118062
3018	0.0978477
3030	0.0903083
3042	0.0853367
3054	0.0808022
3066	0.0786169
3078	0.0765955
3090	0.076213
3102	0.0770325
3114	0.0808022
3126	0.0744648
3138	0.0743009
3150	0.0743009
3162	0.0735907
3174	0.0743009
3186	0.0739184
3198	0.0737546
3210	0.0734268
3222	0.0733175
3234	0.0727712
3246	0.0725526
3258	0.0723887
3270	0.0723887
3282	0.0725526
3294	0.0727165
3306	0.0724434
3318	0.0726073
3330	0.0732082
3342	0.0728258
3354	0.0723341
3366	0.0728258
3378	0.0724434
3390	0.0728804
3402	0.0734268
3414	0.0734814
3426	0.072498
3438	0.073536
3450	0.0745194
3462	0.0738092
3474	0.0750657
3486	0.0746287
3498	0.0747926
3510	0.0721156
3522	0.0716785
3534	0.0720063
3546	0.0716785
3558	0.0704219
3570	0.0721702
3582	0.0709136
3594	0.0715692
3606	0.0701488
3618	0.0705858
3630	0.074137
3642	0.0697663
3654	0.0747926
3666	0.0706405
3678	0.0703127
3690	0.073536
3702	0.07146
3714	0.0723887
3726	0.0684551
3738	0.0703127
3750	0.0796549
3762	0.0694932
3774	0.0716785
3786	0.0705858
3798	0.0736999
3810	0.0701488
3822	0.073099
3834	0.0738638
3846	0.0739731
3858	0.0746833
3870	0.0724434
3882	0.073536
3894	0.0705858
3906	0.0747379
3918	0.0738092
3930	0.0705312
3942	0.0716785
3954	0.0729351
3966	0.0734268
