Infrared Spectrum: 2,2'-(tert-Butylimino)diethanol
Formula: C 8 H 19 N O 2
CAS: 2160-93-2
Origin: Sadtler Research Labs Under US-EPA Contract
1/CM	ABSORBANCE
450	0.0323787
462	0.0242258
474	0.0400657
486	0.0201493
498	0.0209646
510	0.0203823
522	0.0286516
534	0.0194505
546	0.0238764
558	0.00966701
570	0.00955054
582	0.0101329
594	0.00419292
606	0.00069882
618	0.00197999
630	0.0034941
642	0.0105988
654	0.0177034
666	0.0283022
678	0.0276034
690	0.0326116
702	0.0380857
714	0.0358728
726	0.0263222
738	0.0147917
750	0.0336598
762	0.0221293
774	0.0310975
786	0.0422786
798	0.0455398
810	0.0456562
822	0.0379692
834	0.0421621
846	0.060215
858	0.0802478
870	0.104474
882	0.0925936
894	0.089216
906	0.105871
918	0.109365
930	0.101445
942	0.105056
954	0.114606
966	0.146752
978	0.213839
990	0.302589
1002	0.378411
1014	0.487776
1026	0.601917
1038	0.575711
1050	0.440722
1062	0.501986
1074	0.582001
1086	0.339627
1098	0.181577
1110	0.174705
1122	0.205686
1134	0.221409
1146	0.198931
1158	0.155487
1170	0.160263
1182	0.243888
1194	0.40683
1206	0.487194
1218	0.411256
1230	0.267299
1242	0.206152
1254	0.215237
1266	0.221992
1278	0.192874
1290	0.162709
1302	0.14617
1314	0.138949
1326	0.143491
1338	0.169813
1350	0.222108
1362	0.340791
1374	0.354418
1386	0.294669
1398	0.36129
1410	0.216867
1422	0.111112
1434	0.0843243
1446	0.0977183
1458	0.135571
1470	0.181577
1482	0.193573
1494	0.0987666
1506	0.040881
1518	0.0242258
1530	0.0189846
1542	0.0129282
1554	0.0110647
1566	0.00838584
1578	0.00605644
1590	0.00966701
1602	0.00722114
1614	0.00489174
1626	0.00757055
1638	0.00407645
1650	0.00372704
1662	0.00733761
1674	0.00407645
1686	0.0069882
1698	0.00267881
1710	0.0110647
1722	0.0117635
1734	0.0118799
1746	0.0142093
1758	0.0143258
1770	0.015374
1782	0.0181693
1794	0.0109482
1806	0.00780349
1818	0.00500821
1830	0.00407645
1842	0.00279528
1854	0.00314469
1866	0.00419292
1878	0.00384351
1890	0.00256234
1902	0.00384351
1914	0.00430939
1926	0.00477527
1938	0.00442586
1950	0.00407645
1962	0.00209646
1974	0.00197999
1986	0.00163058
1998	0.00163058
2010	0.00163058
2022	0.00395998
2034	0.00430939
2046	0.00559056
2058	0.00559056
2070	0.00500821
2082	0.00454233
2094	0.00407645
2106	0.00384351
2118	0.00407645
2130	0.00372704
2142	0.00361057
2154	0.00302822
2166	0.0023294
2178	0.00163058
2190	0.0011647
2202	0.00069882
2214	0.00058235
2226	0.00023294
2238	0.00034941
2250	0.0011647
2262	0.00256234
2274	0.00221293
2286	0.00256234
2298	0.00314469
2310	0.00279528
2322	0.00081529
2334	0.00104823
2346	0.00430939
2358	0.00279528
2370	0.00314469
2382	0.00442586
2394	0.00209646
2406	0.00197999
2418	0.00186352
2430	0.00209646
2442	0.00128117
2454	0.00151411
2466	0.00151411
2478	0.00093176
2490	0.00034941
2502	0.00023294
2514	0.00081529
2526	0.00128117
2538	0.0011647
2550	0.00197999
2562	0.00244587
2574	0.00442586
2586	0.00524115
2598	0.00593997
2610	0.00687173
2622	0.00745408
2634	0.0093176
2646	0.0115305
2658	0.0150246
2670	0.0196834
2682	0.0242258
2694	0.0301657
2706	0.0357563
2718	0.0400657
2730	0.042861
2742	0.0443751
2754	0.0497327
2766	0.0568374
2778	0.0670867
2790	0.0837419
2802	0.119382
2814	0.18146
2826	0.256467
2838	0.280227
2850	0.279644
2862	0.341956
2874	0.489174
2886	0.609953
2898	0.585844
2910	0.549622
2922	0.609488
2934	0.708603
2946	0.723512
2958	0.733994
2970	1.00723
2982	1.12021
2994	0.650019
3006	0.257282
3018	0.0936419
3030	0.0499656
3042	0.0317963
3054	0.0218964
3066	0.015374
3078	0.0118799
3090	0.00838584
3102	0.0069882
3114	0.00535762
3126	0.00419292
3138	0.00326116
3150	0.00372704
3162	0.00384351
3174	0.00477527
3186	0.00407645
3198	0.00267881
3210	0.00302822
3222	0.00139764
3234	0.00104823
3246	0.0011647
3258	0.00069882
3270	0.00058235
3282	0.0011647
3294	0.00139764
3306	0.00151411
3318	0.0023294
3330	0.00267881
3342	0.00442586
3354	0.00524115
3366	0.00757055
3378	0.00873525
3390	0.0108317
3402	0.0129282
3414	0.0158399
3426	0.0186352
3438	0.0200328
3450	0.0208481
3462	0.0221293
3474	0.0220128
3486	0.0253905
3498	0.0291175
3510	0.038668
3522	0.0587009
3534	0.0783843
3546	0.0880513
3558	0.0809466
3570	0.0723279
3582	0.0550903
3594	0.0397163
3606	0.027021
3618	0.0188681
3630	0.017587
3642	0.0222458
3654	0.0528774
3666	0.0893325
3678	0.0704643
3690	0.0220128
3702	0.00011647
3714	0.00011647
3726	0.00011647
3738	0.00011647
3750	0.00011647
3762	0.00011647
3774	0.00011647
3786	0.00011647
3798	0.00011647
3810	0.00011647
3822	0.00011647
3834	0.00011647
3846	0.00011647
3858	0.00011647
3870	0.00011647
3882	0.00011647
3894	0.00011647
3906	0.00011647
3918	0.00011647
3930	0.00011647
3942	0.00011647
3954	0.00011647
3966	0.00011647
