Infrared Spectrum: N,N'-Bis-(2,6-diethylphenyl)-carbodiimide
Formula: C 21 H 26 N 2
CAS: 2162-75-6
Origin: Sadtler Research Labs Under US-EPA Contract
1/CM	ABSORBANCE
450	0.0086349
462	0.00359787
474	0.0105058
486	0.00604443
498	0.0113693
510	0.0212994
522	0.0307978
534	0.0264804
546	0.0295026
558	0.039001
570	0.0630348
582	0.0782898
594	0.0565586
606	0.0309417
618	0.0168381
630	0.010218
642	0.0116571
654	0.0159746
666	0.0149672
678	0.0086349
690	0.00532485
702	0.00590051
714	0.00748358
726	0.0212994
738	0.0843342
750	0.209828
762	0.0877881
774	0.0428867
786	0.0463406
798	0.0382814
810	0.0261925
822	0.0444697
834	0.00978622
846	0.00460528
858	0.0174137
870	0.0437502
882	0.0161185
894	0.00359787
906	0.0018709
918	0.00086349
930	0.00028783
942	0.00115132
954	0.00417353
966	0.00561269
978	0.00345396
990	0.00402962
1002	0.00518094
1014	0.00518094
1026	0.0105058
1038	0.0197164
1050	0.0212994
1062	0.0336761
1074	0.0289269
1086	0.025329
1098	0.0438941
1110	0.0628909
1122	0.0141037
1134	0.00978622
1146	0.0138158
1158	0.0313735
1170	0.122759
1182	0.360363
1194	0.0679279
1206	0.0236021
1218	0.0179894
1230	0.0260486
1242	0.0561268
1254	0.135424
1266	0.0910982
1278	0.0381375
1290	0.0273438
1302	0.0225947
1314	0.0292147
1326	0.0387131
1338	0.0346835
1350	0.0230264
1362	0.0210116
1374	0.0359787
1386	0.0329565
1398	0.025329
1410	0.0293587
1422	0.0476359
1434	0.116571
1446	0.366839
1458	0.249261
1470	0.111678
1482	0.0472041
1494	0.028783
1506	0.0247534
1518	0.022019
1530	0.0187089
1542	0.0171259
1554	0.016982
1566	0.0251851
1578	0.0692231
1590	0.136288
1602	0.0263364
1614	0.0138158
1626	0.010074
1638	0.0120889
1650	0.0136719
1662	0.00820316
1674	0.00791532
1686	0.00777141
1698	0.00935447
1710	0.00705183
1722	0.00431745
1734	0.00518094
1746	0.00374179
1758	0.00259047
1770	0.00345396
1782	0.00561269
1794	0.00892273
1806	0.00230264
1818	0.00172698
1830	0.00359787
1842	0.00633226
1854	0.0123767
1866	0.00546877
1878	0.00402962
1890	0.00546877
1902	0.00762749
1914	0.0221629
1926	0.0113693
1938	0.00762749
1950	0.00877881
1962	0.00993013
1974	0.0122328
1986	0.0149672
1998	0.0194285
2010	0.0243216
2022	0.0296465
2034	0.0382814
2046	0.0520972
2058	0.0719575
2070	0.103907
2082	0.151399
2094	0.196444
2106	0.229401
2118	0.258184
2130	0.339064
2142	0.531622
2154	0.877162
2166	1.31179
2178	1.41886
2190	1.15708
2202	0.910118
2214	0.697844
2226	0.531046
2238	0.406128
2250	0.304668
2262	0.216016
2274	0.157155
2286	0.124055
2298	0.10074
2310	0.074548
2322	0.0551194
2334	0.0483554
2346	0.0456211
2358	0.0444697
2370	0.0343957
2382	0.0233142
2394	0.0139598
2406	0.010074
2418	0.00791532
2430	0.00618834
2442	0.00489311
2454	0.00374179
2466	0.00273438
2478	0.0018709
2490	0.0010074
2502	0.000143915
2514	0
2526	0.000431745
2538	0.000719575
2550	0.00086349
2562	0.00129524
2574	0.00129524
2586	0.00158306
2598	0.00215872
2610	0.00230264
2622	0.00331004
2634	0.00402962
2646	0.00374179
2658	0.0038857
2670	0.00474919
2682	0.00662009
2694	0.00805924
2706	0.00993013
2718	0.0112254
2730	0.0132402
2742	0.0143915
2754	0.0139598
2766	0.0155428
2778	0.0171259
2790	0.0192846
2802	0.0214433
2814	0.0246095
2826	0.0296465
2838	0.0339639
2850	0.0394327
2862	0.0574221
2874	0.107792
2886	0.146074
2898	0.11139
2910	0.104482
2922	0.120169
2934	0.188385
2946	0.237028
2958	0.178167
2970	0.350865
2982	0.286103
2994	0.0903786
3006	0.054256
3018	0.055839
3030	0.0607321
3042	0.0516655
3054	0.071094
3066	0.0882199
3078	0.0708062
3090	0.0204359
3102	0.00877881
3114	0.0057566
3126	0.00546877
3138	0.00532485
3150	0.00561269
3162	0.00604443
3174	0.0057566
3186	0.00446137
3198	0.00316613
3210	0.00417353
3222	0.00561269
3234	0.00662009
3246	0.00719575
3258	0.00633226
3270	0.00662009
3282	0.00518094
3294	0.00474919
3306	0.00417353
3318	0.00345396
3330	0.00172698
3342	0.00172698
3354	0.000143915
3366	0.000431745
3378	0.0010074
3390	0.000431745
3402	0.00143915
3414	0.0018709
3426	0.00143915
3438	0.00129524
3450	0.00129524
3462	0.00129524
3474	0.00129524
3486	0.000719575
3498	0.000431745
3510	0.00143915
3522	0.00215872
3534	0.00201481
3546	0.00259047
3558	0.00331004
3570	0.00489311
3582	0.00489311
3594	0.00647617
3606	0.00446137
3618	0.00489311
3630	0.00532485
3642	0.00345396
3654	0.00546877
3666	0.00402962
3678	0.00489311
3690	0.00532485
3702	0.00546877
3714	0.00431745
3726	0.00474919
3738	0.00503702
3750	0.00345396
3762	0.00302221
3774	0.00302221
3786	0.00201481
3798	0.0028783
3810	0.00057566
3822	0.00273438
3834	0.0028783
3846	0.00129524
3858	0.00273438
3870	0.00273438
3882	0.00215872
3894	0.0018709
3906	0.0028783
3918	0.00115132
3930	0.00086349
3942	0.00172698
3954	0.0028783
3966	0.0010074
