Infrared Spectrum: 1,10-Dichlorodecane
Formula: C 10 H 20 Cl 2
CAS: 2162-98-3
Origin: Sadtler Research Labs Under US-EPA Contract
1/CM	ABSORBANCE
450	0.0140086
462	0.0230923
474	0.0106159
486	0.00897424
498	0.00787982
510	0.000766094
522	0.00175107
534	0.00525322
546	0.00569098
558	0.00667596
570	0.00689485
582	0.00383047
594	0.0033927
606	0.00558154
618	0.0105064
630	0.0177296
642	0.0310815
654	0.0714656
666	0.116556
678	0.034912
690	0.0244056
702	0.0325043
714	0.0581137
726	0.0968562
738	0.131768
750	0.116337
762	0.0796738
774	0.0365536
786	0.0331609
798	0.0272511
810	0.026485
822	0.02353
834	0.0203562
846	0.017073
858	0.0168541
870	0.0209034
882	0.0215601
894	0.0225451
906	0.0190429
918	0.0175107
930	0.0163069
942	0.0159785
954	0.017839
966	0.0187146
978	0.0190429
990	0.0190429
1002	0.016088
1014	0.0154313
1026	0.015103
1038	0.0163069
1050	0.0172918
1062	0.0159785
1074	0.0116009
1086	0.00875536
1098	0.00601931
1110	0.00448712
1122	0.00558154
1134	0.00601931
1146	0.00689485
1158	0.00689485
1170	0.00569098
1182	0.00623819
1194	0.00809871
1206	0.0109442
1218	0.0153219
1230	0.020794
1242	0.0306438
1254	0.0429013
1266	0.0589892
1278	0.0762811
1290	0.126515
1302	0.12356
1314	0.106815
1326	0.0770472
1338	0.0445429
1350	0.0495772
1362	0.0459656
1374	0.0335987
1386	0.0164163
1398	0.0121481
1410	0.0120386
1422	0.0168541
1434	0.0404935
1446	0.0920407
1458	0.136146
1470	0.0970751
1482	0.0313004
1494	0.0120386
1506	0.00820815
1518	0.00525322
1530	0.00317382
1542	0.00404935
1554	0.0041588
1566	0.00404935
1578	0.00393991
1590	0.0020794
1602	0.000875536
1614	0.00164163
1626	0.00218884
1638	0.00361159
1650	0.00383047
1662	0.00251717
1674	0.00273605
1686	0.00218884
1698	0.00175107
1710	0.0013133
1722	0.00218884
1734	0.0033927
1746	0.00350214
1758	0.00306438
1770	0.0020794
1782	0.000766094
1794	0.00142275
1806	0.00153219
1818	0.00175107
1830	0.00196996
1842	0.00142275
1854	0.000437768
1866	0.000328326
1878	0.000437768
1890	0.00120386
1902	0.0020794
1914	0.0020794
1926	0.00142275
1938	0.000984978
1950	0.000328326
1962	0.000656652
1974	0.000984978
1986	0.00164163
1998	0.0020794
2010	0.00175107
2022	0.00175107
2034	0.00164163
2046	0.00229828
2058	0.00262661
2070	0.00317382
2082	0.00306438
2094	0.00306438
2106	0.00218884
2118	0.0013133
2130	0.00153219
2142	0.0013133
2154	0.00229828
2166	0.00295493
2178	0.00273605
2190	0.00186051
2202	0.00196996
2214	0.00164163
2226	0.00218884
2238	0.00240772
2250	0.00262661
2262	0.00328326
2274	0.00229828
2286	0.00175107
2298	0.00175107
2310	0.00196996
2322	0.00251717
2334	0.00372103
2346	0.00317382
2358	0.00295493
2370	0.00175107
2382	0.00273605
2394	0.0033927
2406	0.0033927
2418	0.0033927
2430	0.00350214
2442	0.00317382
2454	0.00273605
2466	0.00218884
2478	0.00229828
2490	0.00361159
2502	0.00426824
2514	0.00503433
2526	0.00536266
2538	0.00481545
2550	0.00459656
2562	0.0041588
2574	0.00437768
2586	0.00481545
2598	0.00634764
2610	0.00645708
2622	0.00667596
2634	0.00733261
2646	0.00809871
2658	0.00984978
2670	0.0122575
2682	0.0132425
2694	0.0154313
2706	0.0137897
2718	0.0121481
2730	0.0120386
2742	0.0121481
2754	0.0126953
2766	0.0133519
2778	0.0138991
2790	0.0163069
2802	0.0209034
2814	0.0261566
2826	0.0371008
2838	0.0600837
2850	0.141509
2862	0.407671
2874	0.377684
2886	0.206189
2898	0.191414
2910	0.308626
2922	0.535281
2934	1.03685
2946	0.90421
2958	0.451229
2970	0.317163
2982	0.138554
2994	0.153547
3006	0.124545
3018	0.0425729
3030	0.0277983
3042	0.0201373
3054	0.0144463
3066	0.00897424
3078	0.0067854
3090	0.00634764
3102	0.00580043
3114	0.00623819
3126	0.00569098
3138	0.00503433
3150	0.00470601
3162	0.0041588
3174	0.00580043
3186	0.00744206
3198	0.0067854
3210	0.00733261
3222	0.00558154
3234	0.0041588
3246	0.00295493
3258	0.00393991
3270	0.00361159
3282	0.00590987
3294	0.0067854
3306	0.00623819
3318	0.00667596
3330	0.00481545
3342	0.00437768
3354	0.00328326
3366	0.00470601
3378	0.00569098
3390	0.00667596
3402	0.00372103
3414	0.00284549
3426	0.0020794
3438	0.00383047
3450	0.00459656
3462	0.00623819
3474	0.00634764
3486	0.00492489
3498	0.00306438
3510	0.00470601
3522	0.00383047
3534	0.00580043
3546	0.00514377
3558	0.00284549
3570	0.00240772
3582	0.00404935
3594	0.000984978
3606	0.00251717
3618	0.00601931
3630	0.00656652
3642	0.00897424
3654	0.00744206
3666	0.00601931
3678	0.00426824
3690	0.00437768
3702	0.00875536
3714	0.00612875
3726	0.00875536
3738	0.00864592
3750	0.0041588
3762	0.00372103
3774	0.00689485
3786	0.00492489
3798	0.0114914
3810	0.00941201
3822	0.00984978
3834	0.0067854
3846	0.0075515
3858	0.00470601
3870	0.00492489
3882	0.00689485
3894	0.011382
3906	0.0102875
3918	0.0140086
3930	0.0067854
3942	0.00645708
3954	0.00908369
3966	0.00404935
