Infrared Spectrum: Hexane, 1,6-dichloro-
Formula: C 6 H 12 Cl 2
CAS: 2163-00-0
Origin: Sadtler Research Labs Under US-EPA Contract
1/CM	ABSORBANCE
450	0.0235955
462	0.00328352
474	0.00511619
486	0.00427622
498	0.0062616
510	0.00740702
522	0.00519255
534	0.000534527
546	0.00221447
558	0.00076361
570	0.000839971
582	0.00542163
594	0.00267264
606	0.00771246
618	0.0104615
630	0.0164176
642	0.0479547
654	0.126377
666	0.204953
678	0.0805609
690	0.0420749
702	0.0444421
714	0.0673504
726	0.130119
738	0.254969
750	0.252068
762	0.129661
774	0.0555908
786	0.0358133
798	0.0369587
810	0.0345152
822	0.0397841
834	0.0319953
846	0.0289408
858	0.0316135
870	0.0334461
882	0.0313844
894	0.0297808
906	0.0402422
918	0.0421513
930	0.0353551
942	0.0319189
954	0.0297044
966	0.0275663
978	0.0254282
990	0.0255809
1002	0.0222974
1014	0.0251991
1026	0.0281772
1038	0.0361951
1050	0.0316898
1062	0.0256573
1074	0.0190139
1086	0.0169521
1098	0.0146613
1110	0.0146613
1122	0.0187084
1134	0.0141268
1146	0.0117596
1158	0.014585
1170	0.0168758
1182	0.0200066
1194	0.0193193
1206	0.0186321
1218	0.0188612
1230	0.0297044
1242	0.0501692
1254	0.0623106
1266	0.105607
1278	0.169521
1290	0.209076
1302	0.204113
1314	0.187848
1326	0.136686
1338	0.070023
1350	0.0616233
1362	0.0555144
1374	0.0348206
1386	0.0213811
1398	0.0130577
1410	0.0142031
1422	0.0246646
1434	0.0639905
1446	0.141268
1458	0.18907
1470	0.107058
1482	0.0422276
1494	0.0187084
1506	0.0114541
1518	0.00671977
1530	0.00343624
1542	0.00290172
1554	0.00244355
1566	0.00251991
1578	0.00282536
1590	0.00526891
1602	0.00817063
1614	0.00595616
1626	0.00236719
1638	0.00114541
1650	0.000992693
1662	0.00145086
1674	0.00106905
1686	0.00106905
1698	0.00183266
1710	0.00145086
1722	0.0013745
1734	0.00145086
1746	0.00213811
1758	0.00343624
1770	0.00152722
1782	0.00076361
1794	0.000381805
1806	0.000687249
1818	0.000458166
1830	0.000305444
1842	0.000610888
1854	0.000305444
1866	0.000229083
1878	0.00076361
1890	0.000610888
1902	0.000992693
1914	0.000839971
1926	0.000839971
1938	0.000839971
1950	0.000992693
1962	0.00114541
1974	0.00129814
1986	0.00152722
1998	0.00183266
2010	0.00282536
2022	0.00381805
2034	0.00503983
2046	0.00481074
2058	0.00381805
2070	0.00328352
2082	0.00190902
2094	0.00145086
2106	0.0017563
2118	0.00198539
2130	0.00198539
2142	0.00183266
2154	0.00183266
2166	0.00244355
2178	0.00206175
2190	0.002749
2202	0.00244355
2214	0.00221447
2226	0.00221447
2238	0.002749
2250	0.00221447
2262	0.00213811
2274	0.00244355
2286	0.00198539
2298	0.0013745
2310	0.000534527
2322	0.000916332
2334	0.00122178
2346	0.00160358
2358	0.00251991
2370	0.00213811
2382	0.00557435
2394	0.00404713
2406	0.00343624
2418	0.00290172
2430	0.00389441
2442	0.00343624
2454	0.00305444
2466	0.00419985
2478	0.00335988
2490	0.00435258
2502	0.00435258
2514	0.00503983
2526	0.00565071
2538	0.00435258
2550	0.00351261
2562	0.00328352
2574	0.00366533
2586	0.00389441
2598	0.00473438
2610	0.00526891
2622	0.00511619
2634	0.00458166
2646	0.00641432
2658	0.00557435
2670	0.00717793
2682	0.00985057
2694	0.0119887
2706	0.012905
2718	0.0129814
2730	0.0134395
2742	0.012905
2754	0.0130577
2766	0.0132105
2778	0.0125996
2790	0.014585
2802	0.019243
2814	0.0229847
2826	0.0316898
2838	0.0555908
2850	0.124621
2862	0.22977
2874	0.300175
2886	0.249166
2898	0.204037
2910	0.268714
2922	0.345304
2934	0.511161
2946	0.747574
2958	0.682056
2970	0.519942
2982	0.259169
2994	0.246646
3006	0.227785
3018	0.0656705
3030	0.0323007
3042	0.0232901
3054	0.0176394
3066	0.0143559
3078	0.0110723
3090	0.00969785
3102	0.00855243
3114	0.00633796
3126	0.00610888
3138	0.00519255
3150	0.00610888
3162	0.00565071
3174	0.00557435
3186	0.00412349
3198	0.00465802
3210	0.00419985
3222	0.00374169
3234	0.00297808
3246	0.00198539
3258	0.00282536
3270	0.00221447
3282	0.00183266
3294	0.00183266
3306	0.00198539
3318	0.00236719
3330	0.00282536
3342	0.0031308
3354	0.00389441
3366	0.00198539
3378	0.00366533
3390	0.00213811
3402	0.00267264
3414	0.00374169
3426	0.000687249
3438	0.000992693
3450	0.00305444
3462	0.00282536
3474	0.00213811
3486	0.0031308
3498	0.00419985
3510	0.00198539
3522	0.0013745
3534	0.00167994
3546	0.00114541
3558	0.0013745
3570	0.0017563
3582	0.00328352
3594	0.00343624
3606	0.002749
3618	0.00236719
3630	0.00511619
3642	0.00862879
3654	0.0090106
3666	0.00771246
3678	0.0072543
3690	0.0058798
3702	0.00419985
3714	0.00465802
3726	0
3738	0.00381805
3750	0.00618524
3762	0.00358897
3774	0.00503983
3786	0.00381805
3798	0.00297808
3810	0.00122178
3822	0.00473438
3834	0.00748338
3846	0.00794154
3858	0.00519255
3870	0.00435258
3882	0.00244355
3894	0.00717793
3906	0.00916332
3918	0.00839971
3930	0.00832335
3942	0.00664341
3954	0.00618524
3966	0.0104615
