Infrared Spectrum: Azoxybenzene, 4,4'-dichloro-, trans-,
Formula: C 12 H 8 Cl 2 N 2 O
CAS: 21650-66-8
Origin: Sadtler Research Labs Under US-EPA Contract
1/CM	ABSORBANCE
450	0.0285327
462	0.0176088
474	0.0147555
486	0.0163859
498	0.0251903
510	0.0527447
522	0.13174
534	0.0921199
546	0.0415762
558	0.00807068
570	0.0048098
582	0.00342392
594	0.00211957
606	0.00171196
618	0.0074185
630	0.0153261
642	0.0191577
654	0.0413317
666	0.081685
678	0.0242936
690	0.0137772
702	0.0178533
714	0.0408425
726	0.0183424
738	0.0163859
750	0.0153261
762	0.0130435
774	0.016712
786	0.0249457
798	0.0455708
810	0.0917938
822	0.18905
834	0.362365
846	0.206332
858	0.053886
870	0.0278805
882	0.0200544
894	0.0206251
906	0.0417393
918	0.0837231
930	0.0245381
942	0.0164674
954	0.0157337
966	0.0114131
978	0.0104348
990	0.0150816
1002	0.0483425
1014	0.346795
1026	0.012799
1038	0.0125544
1050	0.0183424
1062	0.0352175
1074	0.0945655
1086	0.504458
1098	0.365137
1110	0.103614
1122	0.037011
1134	0.0251903
1146	0.0258425
1158	0.0709241
1170	0.0271468
1182	0.0111685
1194	0.0147555
1206	0.0209512
1218	0.0255164
1230	0.0216849
1242	0.0140218
1254	0.0194838
1266	0.0502176
1278	0.0772013
1290	0.0696198
1302	0.0539676
1314	0.059185
1326	0.0797285
1338	0.0481795
1350	0.037011
1362	0.026087
1374	0.0254349
1386	0.0358697
1398	0.0921199
1410	0.0569024
1422	0.0472828
1434	0.0664404
1446	0.132473
1458	0.315653
1470	0.393344
1482	0.736714
1494	0.232908
1506	0.064973
1518	0.042636
1530	0.0385599
1542	0.0339132
1554	0.0436958
1566	0.0527447
1578	0.12799
1590	0.168424
1602	0.0527447
1614	0.0194838
1626	0.0201359
1638	0.0224185
1650	0.0244566
1662	0.013125
1674	0.0104348
1686	0.0105163
1698	0.00798916
1710	0.00122283
1722	0.00423914
1734	0.011087
1746	0.0105163
1758	0.0122283
1770	0.0210327
1782	0.0103533
1794	0.00562502
1806	0.00391306
1818	0.00301631
1830	0.00423914
1842	0.00285327
1854	0.00081522
1866	0.0033424
1878	0.00489132
1890	0.0132881
1902	0.0218479
1914	0.0140218
1926	0.00489132
1938	0.00211957
1950	0.00130435
1962	0.00114131
1974	0.000326088
1986	0.000163044
1998	0.000244566
2010	0.000163044
2022	0.0014674
2034	0.000489132
2046	0
2058	0
2070	0.000163044
2082	0.000489132
2094	0.000570654
2106	0.000489132
2118	0.00081522
2130	0.000570654
2142	8.1522e-05
2154	8.1522e-05
2166	0
2178	0.000163044
2190	0.000570654
2202	0.000652176
2214	0.00081522
2226	0.00138587
2238	0.00220109
2250	0.00342392
2262	0.00578806
2274	0.00660328
2286	0.00603263
2298	0.00529893
2310	0.00464675
2322	0.00399458
2334	0.00285327
2346	0.00513589
2358	0.00578806
2370	0.00725546
2382	0.00709241
2394	0.00456523
2406	0.00342392
2418	0.00228262
2430	0.00220109
2442	0.00179348
2454	0.00187501
2466	0.00203805
2478	0.00252718
2490	0.00375001
2502	0.00391306
2514	0.00309784
2526	0.00399458
2538	0.00611415
2550	0.0088859
2562	0.00782611
2574	0.00782611
2586	0.00692937
2598	0.00546197
2610	0.00423914
2622	0.00366849
2634	0.00366849
2646	0.00415762
2658	0.00489132
2670	0.00562502
2682	0.00627719
2694	0.00570654
2706	0.00578806
2718	0.00725546
2730	0.00823372
2742	0.00880438
2754	0.00847829
2766	0.00823372
2778	0.00717394
2790	0.00578806
2802	0.00440219
2814	0.00358697
2826	0.00252718
2838	0.00252718
2850	0.00269023
2862	0.00309784
2874	0.00252718
2886	0.00203805
2898	0.00220109
2910	0.00187501
2922	0.000978264
2934	0.00081522
2946	0.00130435
2958	0.00138587
2970	0.00203805
2982	0.00203805
2994	0.00309784
3006	0.00366849
3018	0.00562502
3030	0.00896742
3042	0.0113316
3054	0.015
3066	0.0211957
3078	0.0329349
3090	0.0397012
3102	0.0260055
3114	0.0133696
3126	0.0118207
3138	0.0088859
3150	0.00619567
3162	0.00440219
3174	0.00350545
3186	0.00326088
3198	0.0026087
3210	0.00163044
3222	0.00154892
3234	0.00130435
3246	0.000896742
3258	0.000896742
3270	0.000896742
3282	0.00081522
3294	0.00081522
3306	0.000570654
3318	0.000978264
3330	0.00105979
3342	0.00130435
3354	0.000489132
3366	0.00105979
3378	0.000896742
3390	0.00138587
3402	0.00138587
3414	0.00163044
3426	0.00228262
3438	0.00211957
3450	0.00138587
3462	0.00187501
3474	0.00154892
3486	0.00179348
3498	0.00081522
3510	0.00114131
3522	0.00114131
3534	0.000896742
3546	0.00138587
3558	0.000978264
3570	0.00244566
3582	0.00138587
3594	0.00163044
3606	0.00105979
3618	0.00130435
3630	0.00301631
3642	0.00122283
3654	0.00171196
3666	0.00114131
3678	0.00211957
3690	0.00203805
3702	0.00269023
3714	0.0033424
3726	0.00309784
3738	0.00391306
3750	0.0014674
3762	0.00154892
3774	0.00122283
3786	0.000978264
3798	0.00114131
3810	0.00122283
3822	0.00277175
3834	0.00130435
3846	0.00211957
3858	0.00277175
3870	0.00105979
3882	0.00236414
3894	0.00383153
3906	0.0026087
3918	0.00309784
3930	0.00211957
3942	0.00220109
3954	0.00236414
3966	0.00244566
