Infrared Spectrum: 2-(Dimethylaminomethyl)-3-hydroxypyridine
Formula: C 8 H 12 N 2 O
CAS: 2168-13-0
Origin: Sadtler Research Labs Under US-EPA Contract
1/CM	ABSORBANCE
450	0.0569956
462	0.0399807
474	0.0125726
486	0.00586719
498	0.00628628
510	0.00804643
522	0.00947132
534	0.0106448
546	0.0207028
558	0.0396454
570	0.0351193
582	0.0199484
594	0.0125726
606	0.018775
618	0.0501226
630	0.0626113
642	0.0305932
654	0.0259833
666	0.0304256
678	0.034365
690	0.0410703
702	0.0496197
714	0.0649582
726	0.106112
738	0.0960543
750	0.0734237
762	0.0792909
774	0.0837332
786	0.147434
798	0.2512
810	0.139723
822	0.0690652
834	0.121032
846	0.18708
858	0.0963896
870	0.0383044
882	0.0435848
894	0.0242231
906	0.0176854
918	0.0168472
930	0.014668
942	0.0182721
954	0.0528885
966	0.105526
978	0.0804643
990	0.0261509
1002	0.0492844
1014	0.183392
1026	0.243153
1038	0.122373
1050	0.0848228
1062	0.0377176
1074	0.0217086
1086	0.0331915
1098	0.0710768
1110	0.0680594
1122	0.0411541
1134	0.048111
1146	0.0826436
1158	0.135029
1170	0.151709
1182	0.118853
1194	0.0547325
1206	0.0507931
1218	0.0735913
1230	0.148943
1242	0.215996
1254	0.326886
1266	0.575823
1278	0.411877
1290	0.145087
1302	0.0781174
1314	0.0508769
1326	0.0562412
1338	0.0932883
1350	0.195461
1362	0.208369
1374	0.150032
1386	0.115416
1398	0.076022
1410	0.0637009
1422	0.113069
1434	0.347254
1446	0.80523
1458	0.600381
1470	0.323282
1482	0.204597
1494	0.101419
1506	0.0676403
1518	0.0470213
1530	0.0356222
1542	0.0305094
1554	0.0373824
1566	0.0834817
1578	0.154307
1590	0.0964734
1602	0.0383882
1614	0.019697
1626	0.0116506
1638	0.0145003
1650	0.0181883
1662	0.00905224
1674	0.0123211
1686	0.0147518
1698	0.0186912
1710	0.0173501
1722	0.0161767
1734	0.012824
1746	0.00771116
1758	0.00762735
1770	0.00762735
1782	0.00419085
1794	0.00528047
1806	0.00528047
1818	0.00980659
1830	0.0102257
1842	0.00452612
1854	0.00486139
1866	0.0101419
1878	0.00963895
1890	0.00578337
1902	0.00410703
1914	0.0106448
1926	0.00980659
1938	0.00301741
1950	0.000167634
1962	0.000502902
1974	0.00083817
1986	0.00226306
1998	0.0034365
2010	0.00335268
2022	0.0039394
2034	0.00335268
2046	0.00268214
2058	0.00217924
2070	0.00335268
2082	0.00419085
2094	0.00427467
2106	0.00452612
2118	0.00427467
2130	0.00410703
2142	0.00569956
2154	0.00653773
2166	0.0054481
2178	0.00511284
2190	0.00620246
2202	0.00846552
2214	0.00846552
2226	0.00611864
2238	0.00477757
2250	0.00486139
2262	0.00586719
2274	0.00645391
2286	0.00796261
2298	0.00972277
2310	0.0114829
2322	0.0131593
2334	0.0142489
2346	0.0147518
2358	0.0129916
2370	0.0150871
2382	0.016931
2394	0.0179368
2406	0.0200323
2418	0.0216248
2430	0.0223791
2442	0.0220439
2454	0.022882
2466	0.0244746
2478	0.0264862
2490	0.0291683
2502	0.0318505
2514	0.0346164
2526	0.0377176
2538	0.040316
2550	0.0415732
2562	0.0428305
2574	0.0466861
2586	0.052218
2598	0.0585881
2610	0.0635333
2622	0.0678918
2634	0.0713283
2646	0.0699034
2658	0.0683109
2670	0.0697357
2682	0.0762735
2694	0.0851581
2706	0.0965572
2718	0.11089
2730	0.125977
2742	0.13394
2754	0.141818
2766	0.168975
2778	0.221277
2790	0.322109
2802	0.375416
2814	0.282128
2826	0.278692
2838	0.405255
2850	0.404836
2862	0.334597
2874	0.343566
2886	0.298472
2898	0.283469
2910	0.293862
2922	0.283804
2934	0.256061
2946	0.284475
2958	0.383044
2970	0.330323
2982	0.324539
2994	0.327138
3006	0.19236
3018	0.170149
3030	0.183392
3042	0.200742
3054	0.21323
3066	0.256396
3078	0.263018
3090	0.195713
3102	0.159755
3114	0.151541
3126	0.148943
3138	0.148356
3150	0.148021
3162	0.147015
3174	0.144165
3186	0.142657
3198	0.141232
3210	0.139555
3222	0.135784
3234	0.130419
3246	0.124552
3258	0.119942
3270	0.113069
3282	0.106783
3294	0.101167
3306	0.0941265
3318	0.0882593
3330	0.0823083
3342	0.0749324
3354	0.0689814
3366	0.0625275
3378	0.0573308
3390	0.0519665
3402	0.0464346
3414	0.041238
3426	0.0380529
3438	0.0338621
3450	0.0300065
3462	0.0273243
3474	0.0240555
3486	0.0211219
3498	0.0183559
3510	0.0161767
3522	0.0148356
3534	0.012824
3546	0.0117344
3558	0.0104771
3570	0.0101419
3582	0.00829788
3594	0.0103095
3606	0.00704063
3618	0.00720826
3630	0.0138298
3642	0.0181045
3654	0.0188588
3666	0.010058
3678	0.00762735
3690	0.00620246
3702	0.00502902
3714	0.00569956
3726	0.0049452
3738	0.00662154
3750	0.00611864
3762	0.0054481
3774	0.00578337
3786	0.0034365
3798	0.00678918
3810	0.0054481
3822	0.00687299
3834	0.00762735
3846	0.00653773
3858	0.00863315
3870	0.0073759
3882	0.00804643
3894	0.00921987
3906	0.0113991
3918	0.00972277
3930	0.0103933
3942	0.0112315
3954	0.0134945
3966	0.00829788
