Infrared Spectrum: Butane, 1,1'-sulfinylbis-
Formula: C 8 H 18 O S
CAS: 2168-93-6
Origin: Sadtler Research Labs Under US-EPA Contract
1/CM	ABSORBANCE
450	0.0552238
462	0.00868088
474	0.0207006
486	0.0016694
498	0.0144236
510	0.0185637
522	0.014891
534	0.0148243
546	0.0225703
558	0.00313847
570	0.0114855
582	0.00634372
594	0.0114187
606	0.0328538
618	0.0221696
630	0.0186973
642	0.0231713
654	0.0149578
666	0.0141565
678	0.0180963
690	0.0261094
702	0.0206338
714	0.0254417
726	0.0235719
738	0.0200996
750	0.0302495
762	0.0214351
774	0.017295
786	0.0224367
798	0.0128878
810	0.0138894
822	0.0124203
834	0.008347
846	0.0107509
858	0.0157591
870	0.0224367
882	0.0393978
894	0.058429
906	0.0696474
918	0.0860075
930	0.0766588
942	0.0594974
954	0.0436715
966	0.037261
978	0.0383962
990	0.0432041
1002	0.0438718
1014	0.0355248
1026	0.0311844
1038	0.0428034
1050	0.0713835
1062	0.0809993
1074	0.0919506
1086	0.102568
1098	0.0744552
1110	0.0395314
1122	0.0355248
1134	0.0723852
1146	0.0984278
1158	0.065574
1170	0.0440722
1182	0.0237055
1194	0.0227706
1206	0.0129545
1218	0.0215686
1230	0.0241061
1242	0.0163601
1254	0.0156256
1266	0.0264433
1278	0.0330541
1290	0.0383294
1302	0.0394646
1314	0.0359255
1326	0.0453409
1338	0.0753901
1350	0.0774602
1362	0.0574941
1374	0.0486129
1386	0.055157
1398	0.0468768
1410	0.0469435
1422	0.0504159
1434	0.0630365
1446	0.0717174
1458	0.100097
1470	0.0930857
1482	0.0496146
1494	0.0293814
1506	0.020567
1518	0.0120865
1530	0.00994962
1542	0.00714503
1554	0.00828022
1566	0.00347235
1578	0.00868088
1590	0.00560918
1602	0.00934864
1614	0.0171614
1626	0.0263097
1638	0.0334548
1650	0.0264433
1662	0.0195654
1674	0.0050082
1686	0.0120197
1698	0.00427366
1710	0.00414011
1722	0.00654405
1734	0.00821345
1746	0.00794634
1758	0.00654405
1770	0.00494142
1782	0.00687793
1794	0.00247071
1806	0.00761246
1818	0.00954897
1830	0.00661082
1842	0.0114855
1854	0.00454077
1866	0.00247071
1878	0.00240394
1890	0.00227038
1902	0.00160262
1914	0.00220361
1926	0.00146907
1938	0.00180295
1950	0.00173618
1962	0.00200328
1974	0.00233716
1986	0.00253749
1998	0.00253749
2010	0.00247071
2022	0.0033388
2034	0.00227038
2046	0.0030717
2058	0.00260426
2070	0.0014023
2082	0.00146907
2094	0.00300492
2106	0.00253749
2118	0.0033388
2130	0.00220361
2142	0.00247071
2154	0.00260426
2166	0.00260426
2178	0.00247071
2190	0.00287137
2202	0.0019365
2214	0.00233716
2226	0.0016694
2238	0.00160262
2250	0.00220361
2262	0.00340558
2274	0.00227038
2286	0.00253749
2298	0.00340558
2310	0.00393978
2322	0.00494142
2334	0.00420689
2346	0.0030717
2358	0.00427366
2370	0.00353913
2382	0.0030717
2394	0.00300492
2406	0.00267104
2418	0.00253749
2430	0.00273782
2442	0.00313847
2454	0.00247071
2466	0.00280459
2478	0.00227038
2490	0.00240394
2502	0.00260426
2514	0.00186973
2526	0.00213683
2538	0.00313847
2550	0.00273782
2562	0.00300492
2574	0.00420689
2586	0.00407334
2598	0.0047411
2610	0.00520853
2622	0.00480787
2634	0.00594306
2646	0.00594306
2658	0.00614339
2670	0.00574274
2682	0.00587629
2694	0.00721181
2706	0.00828022
2718	0.00994962
2730	0.011619
2742	0.0142901
2754	0.015492
2766	0.0136223
2778	0.0142233
2790	0.0170279
2802	0.0221696
2814	0.0291143
2826	0.0389304
2838	0.0556912
2850	0.0860075
2862	0.138961
2874	0.223499
2886	0.277321
2898	0.257021
2910	0.278857
2922	0.337286
2934	0.442324
2946	0.500686
2958	0.519517
2970	0.66776
2982	0.4888
2994	0.264032
3006	0.157725
3018	0.10397
3030	0.0714503
3042	0.0510169
3054	0.045007
3066	0.0514843
3078	0.0647059
3090	0.059631
3102	0.0534876
3114	0.0345232
3126	0.0208341
3138	0.0150246
3150	0.0121532
3162	0.01222
3174	0.0108845
3186	0.0112851
3198	0.00994962
3210	0.0100164
3222	0.00821345
3234	0.00594306
3246	0.00547563
3258	0.00440722
3270	0.00560918
3282	0.00540886
3294	0.00507498
3306	0.00253749
3318	0.00240394
3330	0.00580951
3342	0.00460754
3354	0.00540886
3366	0.00600984
3378	0.00287137
3390	0.00587629
3402	0.00574274
3414	0.00407334
3426	0.00373946
3438	0.00574274
3450	0.00353913
3462	0.00414011
3474	0.00580951
3486	0.0016694
3498	0.0030717
3510	0.00440722
3522	0.00407334
3534	0.00367268
3546	0.00627694
3558	0.00267104
3570	0.0066776
3582	0.0016694
3594	0.0052753
3606	0.00547563
3618	0.00948219
3630	0.0129545
3642	0.00367268
3654	0.00420689
3666	0.00567596
3678	0.00634372
3690	0.00761246
3702	0.00721181
3714	0.00494142
3726	0.00894798
3738	0.00854733
3750	0.00714503
3762	0.00340558
3774	0.00407334
3786	0.00280459
3798	0.00487465
3810	0.00420689
3822	0.00661082
3834	0.00454077
3846	0.00554241
3858	0.0086141
3870	0.00661082
3882	0.00247071
3894	0.011619
3906	0.00854733
3918	0.00741214
3930	0.0131549
3942	0.0104171
3954	0.012821
3966	0.0147575
