Infrared Spectrum: Benzene, 2,4-dibromo-1-methoxy-
Formula: C 7 H 6 Br 2 O
CAS: 21702-84-1
Origin: Sadtler Research Labs Under US-EPA Contract
1/CM	ABSORBANCE
450	0.0251855
462	0.0311634
474	0.0149937
486	0.00607588
498	0.0220496
510	0.0115638
522	0.00460591
534	0.0377292
546	0.0451771
558	0.0409632
570	0.0270474
582	0.0113678
594	0.0223435
606	0.050861
618	0.163951
630	0.0435111
642	0.0258715
654	0.0218536
666	0.0413552
678	0.175612
690	0.0777124
702	0.0391992
714	0.0327313
726	0.0234215
738	0.0289094
750	0.0222455
762	0.0207756
774	0.0230295
786	0.0440991
798	0.121518
810	0.168361
822	0.0685986
834	0.0293994
846	0.0261655
858	0.0308694
870	0.0786924
882	0.0452751
894	0.0183256
906	0.0175416
918	0.0238135
930	0.0265575
942	0.0253815
954	0.0308694
966	0.0275374
978	0.0282234
990	0.0389052
1002	0.0684026
1014	0.11407
1026	0.128769
1038	0.09741
1050	0.277922
1062	0.315064
1074	0.0926081
1086	0.107308
1098	0.0624247
1110	0.0220496
1122	0.0346913
1134	0.0445891
1146	0.0421391
1158	0.0309674
1170	0.0387092
1182	0.0548789
1194	0.0415512
1206	0.0462551
1218	0.0519389
1230	0.11211
1242	0.257539
1254	0.361123
1266	0.432465
1278	0.38425
1290	0.342013
1302	0.0806524
1314	0.0368472
1326	0.0245975
1338	0.0293994
1350	0.0342013
1362	0.0440011
1374	0.0879042
1386	0.0624247
1398	0.0333193
1410	0.0530169
1422	0.104368
1434	0.125143
1446	0.225199
1458	0.152877
1470	0.479308
1482	0.9692
1494	0.157581
1506	0.0588968
1518	0.0371412
1530	0.0255775
1542	0.0300854
1554	0.048607
1566	0.0706566
1578	0.0933921
1590	0.0625227
1602	0.0240095
1614	0.0207756
1626	0.0232255
1638	0.0189136
1650	0.0176396
1662	0.0169537
1674	0.0151897
1686	0.0180316
1698	0.0183256
1710	0.0146017
1722	0.0183256
1734	0.0246955
1746	0.0187176
1758	0.0143077
1770	0.0148957
1782	0.0115638
1794	0.0154837
1806	0.0150917
1818	0.0116618
1830	0.0146997
1842	0.0155817
1854	0.0161697
1866	0.0166597
1878	0.0158757
1890	0.0139157
1902	0.0138177
1914	0.0128377
1926	0.0105838
1938	0.0134257
1950	0.0112698
1962	0.0099958
1974	0.0118578
1986	0.0105838
1998	0.0101918
2010	0.0123477
2022	0.0121518
2034	0.0126417
2046	0.0146017
2058	0.0145037
2070	0.0152877
2082	0.0178356
2094	0.0150917
2106	0.0112698
2118	0.0114658
2130	0.00940781
2142	0.00891782
2154	0.0107798
2166	0.00891782
2178	0.00891782
2190	0.0103878
2202	0.00832983
2214	0.00862382
2226	0.00930981
2238	0.00705586
2250	0.00823183
2262	0.0100938
2274	0.0097998
2286	0.0122498
2298	0.0138177
2310	0.0125437
2322	0.0124457
2334	0.0119558
2346	0.00950581
2358	0.0152877
2370	0.0155817
2382	0.0097998
2394	0.00921181
2406	0.00803584
2418	0.00548789
2430	0.00695786
2442	0.00587988
2454	0.00529189
2466	0.00725185
2478	0.00685986
2490	0.00548789
2502	0.00901582
2514	0.0097998
2526	0.0113678
2538	0.0123477
2550	0.0097018
2562	0.00607588
2574	0.00656587
2586	0.0048999
2598	0.00401792
2610	0.00656587
2622	0.00568388
2634	0.00440991
2646	0.00705586
2658	0.00450791
2670	0.00382192
2682	0.0049979
2694	0.00411592
2706	0.00450791
2718	0.00695786
2730	0.0049979
2742	0.00587988
2754	0.00725185
2766	0.00558589
2778	0.00734985
2790	0.0115638
2802	0.0117598
2814	0.0143077
2826	0.0207756
2838	0.0402772
2850	0.0719305
2862	0.0424331
2874	0.0252835
2886	0.0284194
2898	0.0379252
2910	0.0418451
2922	0.047725
2934	0.0628167
2946	0.118382
2958	0.095842
2970	0.0737925
2982	0.0397872
2994	0.0330253
3006	0.050077
3018	0.0842783
3030	0.0311634
3042	0.0195016
3054	0.0153857
3066	0.0239115
3078	0.0279294
3090	0.0181296
3102	0.0143077
3114	0.0103878
3126	0.00852583
3138	0.0097018
3150	0.00793784
3162	0.00578188
3174	0.00891782
3186	0.00597788
3198	0.00607588
3210	0.00872182
3222	0.00578188
3234	0.0049979
3246	0.00832983
3258	0.00401792
3270	0.00411592
3282	0.00881982
3294	0.00431191
3306	0.00519389
3318	0.00676186
3330	0.00519389
3342	0.00529189
3354	0.00813383
3366	0.00411592
3378	0.00627187
3390	0.00774184
3402	0.00558589
3414	0.0049979
3426	0.00715385
3438	0.00372392
3450	0.00656587
3462	0.00852583
3474	0.00362593
3486	0.00656587
3498	0.00754585
3510	0.00342993
3522	0.00685986
3534	0.00764384
3546	0.0048019
3558	0.00930981
3570	0.0097018
3582	0.00548789
3594	0.00862382
3606	0.00715385
3618	0.00685986
3630	0.0112698
3642	0.00862382
3654	0.00617387
3666	0.00911381
3678	0.00940781
3690	0.00764384
3702	0.0114658
3714	0.0104858
3726	0.00881982
3738	0.0146017
3750	0.0125437
3762	0.0096038
3774	0.0123477
3786	0.0111718
3798	0.0120538
3810	0.0142097
3822	0.0125437
3834	0.00911381
3846	0.0150917
3858	0.0129357
3870	0.0121518
3882	0.0195996
3894	0.0149937
3906	0.0124457
3918	0.0134257
3930	0.0097018
3942	0.0130337
3954	0
3966	0.00176396
