Infrared Spectrum: 2,4-Dimethylbenzonitrile
Formula: C 9 H 9 N
CAS: 21789-36-6
Origin: Sadtler Research Labs Under US-EPA Contract
1/CM	ABSORBANCE
450	0.00978133
462	0.0343539
474	0.0605965
486	0.0585289
498	0.0219483
510	0.013996
522	0.0147913
534	0.0118489
546	0.0170179
558	0.0849306
570	0.245965
582	0.0871572
594	0.0174155
606	0.0159841
618	0.0144732
630	0.0109742
642	0.00477138
654	0.0100199
666	0.00747516
678	0.00572566
690	0.00159046
702	0.00159046
714	0.00763421
726	0.0207555
738	0.0130418
750	0.0079523
762	0.0120875
774	0.0109742
786	0.0158251
798	0.074195
810	0.378211
822	0.472923
834	0.163897
846	0.013996
858	0.0205169
870	0.0496224
882	0.0497019
894	0.0248112
906	0.0170179
918	0.0184493
930	0.0239364
942	0.0130418
954	0.0260835
966	0.0201988
978	0.0150298
990	0.0174951
1002	0.0177336
1014	0.0234593
1026	0.0248907
1038	0.0387277
1050	0.0525647
1062	0.0378529
1074	0.0186084
1086	0.00834992
1098	0.0108151
1110	0.0318092
1122	0.0310935
1134	0.0117694
1146	0.0100199
1158	0.0174951
1170	0.0101789
1182	0.0069185
1194	0.012008
1206	0.0108151
1218	0.0128827
1230	0.0692645
1242	0.0913719
1254	0.0280716
1266	0.0185289
1278	0.0411134
1290	0.0387277
1302	0.0153479
1314	0.0079523
1326	0.00866801
1338	0.0166998
1350	0.0264812
1362	0.0351492
1374	0.0476343
1386	0.0929624
1398	0.0820677
1410	0.0772168
1422	0.109185
1434	0.133758
1446	0.152764
1458	0.162306
1470	0.148628
1482	0.144732
1494	0.315945
1506	0.287635
1518	0.144891
1530	0.130577
1542	0.103062
1554	0.0838968
1566	0.0730816
1578	0.0616303
1590	0.0497814
1602	0.175269
1614	0.570737
1626	0.295348
1638	0.0514514
1650	0.0124056
1662	0.00326044
1674	0.00461233
1686	0.00652089
1698	0.00938371
1710	0.00604375
1722	0.00365806
1734	0.00675946
1746	0.018847
1758	0.0251293
1770	0.022505
1782	0.00302187
1794	7.9523e-05
1806	0.000397615
1818	0.00135189
1830	0.0058847
1842	0.00262426
1854	0.0010338
1866	0.00302187
1878	0.00341949
1890	0.013837
1902	0.0353082
1914	0.0275945
1926	0.00739564
1938	0.00222664
1950	0.000715707
1962	0.000397615
1974	0
1986	0.000715707
1998	0.00174951
2010	0.00159046
2022	0.000636184
2034	7.9523e-05
2046	0.000954276
2058	0.000954276
2070	0.0031014
2082	0.00357854
2094	0.00333997
2106	0.00365806
2118	0.00429424
2130	0.00389663
2142	0.00262426
2154	0.0020676
2166	0.00341949
2178	0.0058847
2190	0.0048509
2202	0.00850896
2214	0.0590856
2226	0.264493
2238	0.262028
2250	0.0240955
2262	0.00461233
2274	0.00365806
2286	0.00270378
2298	0.00373758
2310	0.00850896
2322	0.013678
2334	0.00914515
2346	0.00596423
2358	0.00612327
2370	0.00278331
2382	0.00254474
2394	0.00819087
2406	0.00978133
2418	0.00946324
2430	0.00787278
2442	0.00667993
2454	0.00445329
2466	0.00365806
2478	0.00437376
2490	0.0041352
2502	0.0041352
2514	0.00453281
2526	0.00341949
2538	0.0031014
2550	0.0041352
2562	0.00429424
2574	0.00341949
2586	0.00143141
2598	0.00143141
2610	0.00421472
2622	0.00564613
2634	0.00389663
2646	0.00453281
2658	0.00429424
2670	0.00318092
2682	0.00333997
2694	0.00453281
2706	0.00612327
2718	0.00739564
2730	0.0102585
2742	0.0189265
2754	0.0220279
2766	0.0139165
2778	0.00858848
2790	0.00930419
2802	0.0130418
2814	0.0168589
2826	0.0209941
2838	0.029344
2850	0.0497019
2862	0.103539
2874	0.177098
2886	0.177893
2898	0.167634
2910	0.179563
2922	0.262903
2934	0.453599
2946	0.396263
2958	0.222664
2970	0.177257
2982	0.169225
2994	0.201432
3006	0.237217
3018	0.269901
3030	0.320875
3042	0.299563
3054	0.220676
3066	0.139006
3078	0.121988
3090	0.0843739
3102	0.048509
3114	0.0467595
3126	0.0355468
3138	0.0181312
3150	0.0107356
3162	0.00604375
3174	0.00469186
3186	0.0038171
3198	0.00326044
3210	0.00151094
3222	0.00135189
3234	0.000954276
3246	0.000556661
3258	0.000954276
3270	0.00143141
3282	0.00143141
3294	0.00135189
3306	0.00119285
3318	0.00127237
3330	0.00238569
3342	0.00445329
3354	0.00333997
3366	0.00238569
3378	0.00182903
3390	0.00143141
3402	0.0020676
3414	0.00405567
3426	0.00858848
3438	0.0100199
3450	0.005169
3462	0.00302187
3474	0.00365806
3486	0.00222664
3498	0.00182903
3510	0.00151094
3522	0.00174951
3534	0.00214712
3546	0.00238569
3558	0.00190855
3570	0.00174951
3582	0.00222664
3594	0.00246521
3606	0.00270378
3618	0.00198808
3630	0.00222664
3642	0.00326044
3654	0.00159046
3666	0.00182903
3678	0.00135189
3690	0.00151094
3702	0.00341949
3714	0.00341949
3726	0.00763421
3738	0.00723659
3750	0.00318092
3762	0.00429424
3774	0.0041352
3786	0.00357854
3798	0.00349901
3810	0.00333997
3822	0.00151094
3834	0.0041352
3846	0.00612327
3858	0.00437376
3870	0.00111332
3882	0.00341949
3894	0.00326044
3906	0.00461233
3918	0.00421472
3930	0.00333997
3942	0.00333997
3954	0.0048509
3966	0.00628232
