Infrared Spectrum: p-Cresyl glycidyl ether
Formula: C 10 H 12 O 2
CAS: 2186-24-5
Origin: Sadtler Research Labs Under US-EPA Contract
1/CM	ABSORBANCE
450	0.0122516
462	0.0224458
474	0.0272155
486	0.0472296
498	0.0503159
510	0.0504094
522	0.0336686
534	0.025158
546	0.0222587
558	0.0220717
570	0.0182372
582	0.00851068
594	0.0186113
606	0.00102876
618	0.00439563
630	0.00598554
642	0.00832364
654	0.00832364
666	0.00523734
678	0.00589201
690	0.0107553
702	0.017489
714	0.0274025
726	0.036942
738	0.0284313
750	0.0304888
762	0.0303018
774	0.0462009
786	0.0659344
798	0.114567
810	0.199019
822	0.213983
834	0.176106
846	0.163761
858	0.119898
870	0.0580784
882	0.0296471
894	0.0386254
906	0.0592007
918	0.0695819
930	0.0571432
942	0.044985
954	0.0442369
966	0.0608841
978	0.0639704
990	0.0661215
1002	0.0889413
1014	0.139164
1026	0.21604
1038	0.335845
1050	0.295162
1062	0.152912
1074	0.107272
1086	0.0866967
1098	0.0852939
1110	0.091747
1122	0.0839846
1134	0.0636898
1146	0.044798
1158	0.0634093
1170	0.163854
1182	0.135984
1194	0.0866967
1206	0.195933
1218	0.496706
1230	0.696006
1242	0.873327
1254	0.47108
1266	0.236522
1278	0.228386
1290	0.242134
1302	0.132711
1314	0.0765962
1326	0.0631287
1338	0.0594813
1350	0.0711718
1362	0.0645316
1374	0.0450786
1386	0.0525605
1398	0.0468555
1410	0.0512512
1422	0.0503159
1434	0.0441433
1446	0.0498483
1458	0.0756609
1470	0.0951139
1482	0.0863227
1494	0.12925
1506	0.601733
1518	0.763343
1530	0.125229
1542	0.0255321
1554	0.0250644
1566	0.0288054
1578	0.0452656
1590	0.0816465
1602	0.0999772
1614	0.169746
1626	0.0879126
1638	0.0274025
1650	0.0104747
1662	0.0126257
1674	0.00392801
1686	0.00046762
1698	0
1710	0.0120646
1722	0.0129998
1734	0.0111294
1746	0.0160861
1758	0.0179566
1770	0.0105682
1782	0.00635963
1794	0.00205753
1806	0.00673373
1818	0.00804306
1830	0.00579849
1842	0.00757544
1854	0.0138416
1866	0.0162732
1878	0.0173019
1890	0.0109423
1902	0.0104747
1914	0.00888478
1926	0.00879126
1938	0.0104747
1950	0.00963297
1962	0.00841716
1974	0.00879126
1986	0.0107553
1998	0.0100071
2010	0.00925888
2022	0.00879126
2034	0.0104747
2046	0.0111294
2058	0.0127193
2070	0.0130934
2082	0.0126257
2094	0.0108488
2106	0.00794954
2118	0.00682725
2130	0.0070143
2142	0.0043021
2154	0.00411506
2166	0.00346039
2178	0.00392801
2190	0.00374096
2202	0.00327334
2214	0.00411506
2226	0.00551792
2238	0.00570496
2250	0.00645316
2262	0.00832364
2274	0.00673373
2286	0.00991354
2298	0.0144962
2310	0.0202012
2322	0.0185178
2334	0.0129063
2346	0.0190789
2358	0.0165537
2370	0.00841716
2382	0.0123452
2394	0.00607906
2406	0.00439563
2418	0.00476972
2430	0.00654668
2442	0.00589201
2454	0.00551792
2466	0.00579849
2478	0.00682725
2490	0.0050503
2502	0.00383448
2514	0.00570496
2526	0.00645316
2538	0.0046762
2550	0.00542439
2562	0.00346039
2574	0.00327334
2586	0.00299277
2598	0.00317982
2610	0.00205753
2622	0.00252515
2634	0.00158991
2646	0.000748192
2658	0.00121581
2670	0.00158991
2682	0.00299277
2694	0.00280572
2706	0.00261867
2718	0.00317982
2730	0.00523734
2742	0.0130934
2754	0.0113164
2766	0.0070143
2778	0.00692078
2790	0.00888478
2802	0.011597
2814	0.0139351
2826	0.0180501
2838	0.0259997
2850	0.0346974
2862	0.0661215
2874	0.126164
2886	0.150387
2898	0.124761
2910	0.129157
2922	0.177789
2934	0.268133
2946	0.200048
2958	0.131682
2970	0.118682
2982	0.115783
2994	0.133833
3006	0.164322
3018	0.149638
3030	0.163667
3042	0.186206
3054	0.145991
3066	0.110078
3078	0.0727617
3090	0.0403088
3102	0.0319852
3114	0.0239421
3126	0.0171149
3138	0.0101006
3150	0.00729487
3162	0.0050503
3174	0.00402153
3186	0.0043021
3198	0.00317982
3210	0.00112229
3222	0.00046762
3234	0.00224458
3246	0.00374096
3258	0.001964
3270	0.00402153
3282	0.00327334
3294	0.00317982
3306	0.00364744
3318	0.00336686
3330	0.00392801
3342	0.0046762
3354	0.00280572
3366	0.00486325
3378	0.00589201
3390	0.00420858
3402	0.00486325
3414	0.00392801
3426	0.00757544
3438	0.00635963
3450	0.0043021
3462	0.00710782
3474	0.00589201
3486	0.00710782
3498	0.00776249
3510	0.0046762
3522	0.00682725
3534	0.00785602
3546	0.00785602
3558	0.0089783
3570	0.00654668
3582	0.013561
3594	0.0151509
3606	0.0205753
3618	0.0245033
3630	0.0279637
3642	0.0258126
3654	0.0178631
3666	0.0156185
3678	0.011784
3690	0.0113164
3702	0.0128128
3714	0.0105682
3726	0.0100071
3738	0.00757544
3750	0.00645316
3762	0.0120646
3774	0.0122516
3786	0.0102876
3798	0.0115035
3810	0.0129063
3822	0.0114099
3834	0.0113164
3846	0.0111294
3858	0.0100071
3870	0.00776249
3882	0.0104747
3894	0.0111294
3906	0.0104747
3918	0.0120646
3930	0.0101941
3942	0.0118775
3954	0.0124387
3966	0.0110358
