Infrared Spectrum: Benzene, octyl-
Formula: C 14 H 22
CAS: 2189-60-8
Origin: Sadtler Research Labs Under US-EPA Contract
1/CM	ABSORBANCE
450	0.0167394
462	0.0315004
474	0.0453484
486	0.0561529
498	0.0575225
510	0.0593486
522	0.00243482
534	0.0197829
546	0.0499137
558	0.0515877
570	0.0617835
582	0.0526529
594	0.048392
606	0.0418484
618	0.0389571
630	0.0381962
642	0.0398701
654	0.0410875
666	0.0534138
678	0.084762
690	0.191285
702	0.280765
714	0.160698
726	0.182916
738	0.223242
750	0.172568
762	0.0957187
774	0.0687836
786	0.0587399
798	0.0569138
810	0.0534138
822	0.0534138
834	0.0550877
846	0.054479
858	0.0528051
870	0.0520442
882	0.0511311
894	0.0508268
906	0.0532616
918	0.0429136
930	0.0368266
942	0.0496094
954	0.0445876
966	0.0488485
978	0.0794359
990	0.107436
1002	0.0957187
1014	0.119458
1026	0.127371
1038	0.118393
1050	0.0908491
1062	0.0887186
1074	0.112002
1086	0.102414
1098	0.0963274
1110	0.0928274
1122	0.0850664
1134	0.0832403
1146	0.0797402
1158	0.067414
1170	0.0610226
1182	0.0560008
1194	0.0534138
1206	0.051892
1218	0.0295221
1230	0.0362179
1242	0.0661966
1254	0.106828
1266	0.111697
1278	0.102567
1290	0.0929795
1302	0.0820229
1314	0.0765445
1326	0.0724358
1338	0.0829359
1350	0.0960231
1362	0.0922187
1374	0.0905447
1386	0.0931317
1398	0.0742619
1410	0.0680227
1422	0.0692401
1434	0.0753271
1446	0.143958
1458	0.194481
1470	0.161763
1482	0.092523
1494	0.139698
1506	0.0818707
1518	0.0313483
1530	0.0257177
1542	0.0237395
1554	0.0220655
1566	0.0238916
1578	0.0290656
1590	0.0479354
1602	0.0785228
1614	0.0529572
1626	0.0269352
1638	0.0249569
1650	0.0245003
1662	0.0181089
1674	0.0173481
1686	0.0178046
1698	0.0219133
1710	0.0292178
1722	0.0356092
1734	0.0331744
1746	0.0350005
1758	0.0305874
1770	0.0334787
1782	0.0375875
1794	0.0394136
1806	0.0254134
1818	0.0171959
1830	0.0144567
1842	0.0143045
1854	0.0159785
1866	0.0194785
1878	0.0188698
1890	0.0140002
1902	0.0115654
1914	0.0127828
1926	0.016435
1938	0.0231308
1950	0.0219133
1962	0.0140002
1974	0.00958709
1986	0.00958709
1998	0.00913056
2010	0.00913056
2022	0.00958709
2034	0.00943491
2046	0.00913056
2058	0.00836968
2070	0.00776098
2082	0.0076088
2094	0.00745662
2106	0.00684792
2118	0.00684792
2130	0.00654357
2142	0.00684792
2154	0.00669574
2166	0.00654357
2178	0.00669574
2190	0.00608704
2202	0.00623922
2214	0.00608704
2226	0.00608704
2238	0.00532616
2250	0.00517398
2262	0.00502181
2274	0.00456528
2286	0.00456528
2298	0.0044131
2310	0.00517398
2322	0.00578269
2334	0.00426093
2346	0.0031957
2358	0.00182611
2370	0.00121741
2382	0.00182611
2394	0.00136958
2406	0.00106523
2418	0.000913056
2430	0.000913056
2442	0.000152176
2454	0
2466	0.000152176
2478	0.000456528
2490	0.000456528
2502	0.00076088
2514	0.00106523
2526	0.00167394
2538	0.00228264
2550	0.00182611
2562	0.00228264
2574	0.00289134
2586	0.00273917
2598	0.00350005
2610	0.00395658
2622	0.00426093
2634	0.00517398
2646	0.00608704
2658	0.00669574
2670	0.00730445
2682	0.00836968
2694	0.0076088
2706	0.00563051
2718	0.00502181
2730	0.00593486
2742	0.0082175
2754	0.00791315
2766	0.00776098
2778	0.0105001
2790	0.015522
2802	0.0217612
2814	0.0299787
2826	0.0464137
2838	0.0762402
2850	0.189003
2862	0.547225
2874	0.476007
2886	0.327483
2898	0.286395
2910	0.440854
2922	0.850512
2934	1.52176
2946	1.04119
2958	0.506898
2970	0.552703
2982	0.212133
2994	0.0987622
3006	0.0846099
3018	0.09861
3030	0.217764
3042	0.181546
3054	0.0900882
3066	0.152633
3078	0.16298
3090	0.101654
3102	0.059653
3114	0.0389571
3126	0.015522
3138	0.0082175
3150	0.00715227
3162	0.00684792
3174	0.00563051
3186	0.00395658
3198	0.00289134
3210	0.00213046
3222	0.00167394
3234	0.00136958
3246	0.00152176
3258	0.00121741
3270	0.00121741
3282	0.00136958
3294	0.00167394
3306	0.00106523
3318	0.00106523
3330	0.00121741
3342	0.00136958
3354	0.00136958
3366	0.00182611
3378	0.00213046
3390	0.00167394
3402	0.00152176
3414	0.00197829
3426	0.00121741
3438	0.00106523
3450	0.00121741
3462	0.00076088
3474	0.00076088
3486	0.00152176
3498	0
3510	0.000456528
3522	0.000456528
3534	0.000456528
3546	0.000913056
3558	0.00106523
3570	0.0031957
3582	0.00532616
3594	0.000913056
3606	0.000913056
3618	0.00228264
3630	0.00197829
3642	0.00304352
3654	0.00213046
3666	0.00167394
3678	0.000456528
3690	0.000456528
3702	0.00076088
3714	0.000913056
3726	0.00121741
3738	0.000456528
3750	0
3762	0
3774	0
3786	0.000304352
3798	0.000304352
3810	0
3822	0
3834	0
3846	0
3858	0.000304352
3870	0
3882	0
3894	0
3906	0
3918	0
3930	0
3942	0
3954	0
3966	0
