Infrared Spectrum: Phosphine oxide, dimethylhexa-decyl-,
Formula: C 18 H 39 O P
CAS: 2190-97-8
Origin: Sadtler Research Labs Under US-EPA Contract
1/CM	ABSORBANCE
450	0.00537865
462	0.00620613
474	0.00797931
486	0.00366457
498	0.00401921
510	0.00348725
522	0.00413742
534	0.0059106
546	0.00437384
558	0.00667898
570	0.000354636
582	0.0020096
594	0.00088659
606	0.00212782
618	0.00242335
630	0.00236424
642	0.00147765
654	0.00177318
666	0.0049058
678	0.00602881
690	0.0110528
702	0.0208053
714	0.0306169
726	0.0491171
738	0.0438567
750	0.0257111
762	0.0176136
774	0.0152493
786	0.0114075
798	0.0106391
810	0.0140081
822	0.0159586
834	0.0199187
846	0.0399557
858	0.0531954
870	0.0364684
882	0.0294348
894	0.0315035
906	0.0315626
918	0.0462209
930	0.109287
942	0.0504174
954	0.0187957
966	0.0109346
978	0.00727004
990	0.00620613
1002	0.00573328
1014	0.00721093
1026	0.00727004
1038	0.00762467
1050	0.0105209
1062	0.00679719
1074	0.00927964
1086	0.0106391
1098	0.0110528
1110	0.0119985
1122	0.0137126
1134	0.0145992
1146	0.0203916
1158	0.0302623
1170	0.0533727
1182	0.0826302
1194	0.109819
1206	0.0999482
1218	0.0809161
1230	0.0658441
1242	0.0330403
1254	0.0184411
1266	0.0180864
1278	0.0315035
1290	0.0809752
1302	0.0743553
1314	0.0300258
1326	0.016727
1338	0.0161359
1350	0.0192686
1362	0.0174954
1374	0.0147174
1386	0.0125896
1398	0.013358
1410	0.0215737
1422	0.0271297
1434	0.0247654
1446	0.0357591
1458	0.0578648
1470	0.0385962
1482	0.00951607
1494	0.00313262
1506	0.00177318
1518	0.000709272
1530	0.000945696
1542	0.00159586
1554	0.00153676
1566	0.00171407
1578	0.00147765
1590	0.00153676
1602	0.00130033
1614	0.000945696
1626	0.000945696
1638	0.00088659
1650	0.000709272
1662	0.000650166
1674	0.00088659
1686	0.0010048
1698	0.00141854
1710	0.00171407
1722	0.00212782
1734	0.00325083
1746	0.00330994
1758	0.00218692
1770	0.00283709
1782	0.00260066
1794	0.00254156
1806	0.00242335
1818	0.00189139
1830	0.00177318
1842	0.00147765
1854	0.00130033
1866	0.00147765
1878	0.00159586
1890	0.00147765
1902	0.00153676
1914	0.00153676
1926	0.00183229
1938	0.00171407
1950	0.00206871
1962	0.00189139
1974	0.00183229
1986	0.00183229
1998	0.00183229
2010	0.00224603
2022	0.00271888
2034	0.00230513
2046	0.0020096
2058	0.00189139
2070	0.00189139
2082	0.00177318
2094	0.00130033
2106	0.00147765
2118	0.00147765
2130	0.00189139
2142	0.00147765
2154	0.00147765
2166	0.00135944
2178	0.00147765
2190	0.00153676
2202	0.00153676
2214	0.00130033
2226	0.00135944
2238	0.00135944
2250	0.00112301
2262	0.00112301
2274	0.00106391
2286	0.00141854
2298	0.00171407
2310	0.00212782
2322	0.00171407
2334	0.00165497
2346	0.00135944
2358	0.00189139
2370	0.000768378
2382	0.00147765
2394	0.00059106
2406	0.000413742
2418	0.000354636
2430	0.000354636
2442	0.000177318
2454	0.000118212
2466	0.000413742
2478	0.00029553
2490	0.00029553
2502	0.000472848
2514	0.00088659
2526	0.00118212
2538	0.00159586
2550	0.00153676
2562	0.0019505
2574	0.00230513
2586	0.00242335
2598	0.00277798
2610	0.00342815
2622	0.00366457
2634	0.00384189
2646	0.00455116
2658	0.00508312
2670	0.0059106
2682	0.00632434
2694	0.00561507
2706	0.00461027
2718	0.00484669
2730	0.00455116
2742	0.00443295
2754	0.0049649
2766	0.00585149
2778	0.00803842
2790	0.0115257
2802	0.0167861
2814	0.0241744
2826	0.0355227
2838	0.0660214
2850	0.182756
2862	0.244522
2874	0.154621
2886	0.128615
2898	0.1772
2910	0.27372
2922	0.484847
2934	0.560088
2946	0.287846
2958	0.155922
2970	0.105563
2982	0.0599335
2994	0.0378869
3006	0.0192686
3018	0.0118803
3030	0.00862948
3042	0.00650166
3054	0.0049649
3066	0.00449206
3078	0.00431474
3090	0.00407831
3102	0.00449206
3114	0.00466937
3126	0.00478759
3138	0.00437384
3150	0.00413742
3162	0.00366457
3174	0.00348725
3186	0.00271888
3198	0.00248245
3210	0.00236424
3222	0.00212782
3234	0.00147765
3246	0.00130033
3258	0.00141854
3270	0.00135944
3282	0.00130033
3294	0.00112301
3306	0.000650166
3318	0.00088659
3330	0.00106391
3342	0.00141854
3354	0.00118212
3366	0.00088659
3378	0.00106391
3390	0.00130033
3402	0.000945696
3414	0.000827484
3426	0.000709272
3438	0.000472848
3450	0.000768378
3462	0.000413742
3474	0.000827484
3486	0.000413742
3498	0.000354636
3510	0.000236424
3522	0.000650166
3534	0.000768378
3546	0.00029553
3558	0.000709272
3570	0.0010048
3582	0.000709272
3594	0.000827484
3606	0.00141854
3618	0.00118212
3630	0.00135944
3642	0.000531954
3654	0.000650166
3666	0.00135944
3678	0.00130033
3690	0.000768378
3702	0.00118212
3714	0.0010048
3726	0.00183229
3738	0.00242335
3750	0.0010048
3762	0.000531954
3774	0.000709272
3786	0.00059106
3798	0.000413742
3810	0.000413742
3822	0.00124123
3834	0.00124123
3846	0.000531954
3858	0.00159586
3870	0.000177318
3882	0.000236424
3894	0.000118212
3906	0.000472848
3918	0.00112301
3930	0.000650166
3942	0.000118212
3954	0.000118212
3966	0.00171407
