Infrared Spectrum: Phosphine oxide, dimethyltetra-decyl
Formula: C 16 H 35 O P
CAS: 2190-96-7
Origin: Sadtler Research Labs Under US-EPA Contract
1/CM	ABSORBANCE
450	0.00595496
462	0.00857692
474	0.00431068
486	0.00559944
498	0.0046662
510	0.00431068
522	0.0059994
534	0.00613272
546	0.00457732
558	0.00431068
570	0.00328856
582	0.00417736
594	0.003333
606	0.00382184
618	0.0039996
630	0.00457732
642	0.00368852
654	0.00386628
666	0.0062216
678	0.00595496
690	0.0112433
702	0.0200869
714	0.0270195
726	0.0428846
738	0.0341744
750	0.020709
762	0.0150207
774	0.0139986
786	0.01071
798	0.0100434
810	0.0107989
822	0.0130209
834	0.017376
846	0.0332411
858	0.0398627
870	0.0304414
882	0.0251975
894	0.0260418
906	0.0254641
918	0.0393294
930	0.0930574
942	0.0368852
954	0.0168428
966	0.0119099
978	0.00951016
990	0.00804364
1002	0.00808808
1014	0.00924352
1026	0.00924352
1038	0.0073326
1050	0.00817696
1062	0.0075548
1074	0.00817696
1086	0.00848804
1098	0.0079992
1110	0.00831028
1122	0.00942128
1134	0.009999
1146	0.0131987
1158	0.0187981
1170	0.0274195
1182	0.0383517
1194	0.0524836
1206	0.0649268
1218	0.0893244
1230	0.083725
1242	0.0407959
1254	0.0209312
1266	0.0174205
1278	0.0264418
1290	0.061105
1302	0.0616827
1314	0.0283972
1326	0.0155984
1338	0.014043
1350	0.015554
1362	0.013732
1374	0.0114655
1386	0.0107989
1398	0.00995456
1410	0.0152874
1422	0.0196425
1434	0.0180871
1446	0.0236865
1458	0.0386184
1470	0.0296415
1482	0.0100434
1494	0.0048884
1506	0.00342188
1518	0.002222
1530	0.0019998
1542	0.00137764
1554	0.00164428
1566	0.0013332
1578	0.00146652
1590	0.001111
1602	0.00084436
1614	0.00084436
1626	0.0004444
1638	0.00075548
1650	0.00053328
1662	0
1674	0.00048884
1686	0.00115544
1698	0.00102212
1710	0.00128876
1722	0.00217756
1734	0.00404404
1746	0.00248864
1758	0.00124432
1770	0.003333
1782	0.00324412
1794	0.00279972
1806	0.0028886
1818	0.00235532
1830	0.00182204
1842	0.00173316
1854	0.00151096
1866	0.00168872
1878	0.00164428
1890	0.00173316
1902	0.00182204
1914	0.00204424
1926	0.00213312
1938	0.00217756
1950	0.00217756
1962	0.00226644
1974	0.00226644
1986	0.00235532
1998	0.00248864
2010	0.00306636
2022	0.00302192
2034	0.00279972
2046	0.0028886
2058	0.00239976
2070	0.00279972
2082	0.00284416
2094	0.00257752
2106	0.00262196
2118	0.00248864
2130	0.0024442
2142	0.00248864
2154	0.00262196
2166	0.0026664
2178	0.00271084
2190	0.00248864
2202	0.00262196
2214	0.00231088
2226	0.00248864
2238	0.00262196
2250	0.00239976
2262	0.0024442
2274	0.00262196
2286	0.00315524
2298	0.00426624
2310	0.00453288
2322	0.0037774
2334	0.0031108
2346	0.00448844
2358	0.00346632
2370	0.00319968
2382	0.00426624
2394	0.0028886
2406	0.0031108
2418	0.00297748
2430	0.00306636
2442	0.00297748
2454	0.00297748
2466	0.00315524
2478	0.003333
2490	0.00319968
2502	0.0035552
2514	0.00373296
2526	0.00391072
2538	0.00417736
2550	0.00413292
2562	0.00417736
2574	0.00471064
2586	0.00479952
2598	0.0048884
2610	0.00524392
2622	0.00573276
2634	0.0059994
2646	0.0064438
2658	0.00662156
2670	0.00737704
2682	0.00817696
2694	0.00804364
2706	0.0079992
2718	0.00808808
2730	0.0084436
2742	0.00884356
2754	0.00875468
2766	0.00946572
2778	0.0105767
2790	0.0128432
2802	0.016265
2814	0.0209757
2826	0.0266196
2838	0.0410181
2850	0.0952794
2862	0.177404
2874	0.125943
2886	0.0939906
2898	0.112744
2910	0.171894
2922	0.306903
2934	0.4444
2946	0.253664
2958	0.129498
2970	0.101723
2982	0.0569721
2994	0.0425291
3006	0.0227977
3018	0.0155984
3030	0.0119544
3042	0.0101323
3054	0.00879912
3066	0.00791032
3078	0.0073326
3090	0.00697708
3102	0.00613272
3114	0.00608828
3126	0.00542168
3138	0.00528836
3150	0.00524392
3162	0.00519948
3174	0.00479952
3186	0.0046662
3198	0.00431068
3210	0.00382184
3222	0.00342188
3234	0.00315524
3246	0.00337744
3258	0.00319968
3270	0.00293304
3282	0.0028886
3294	0.00306636
3306	0.00293304
3318	0.00315524
3330	0.00302192
3342	0.003333
3354	0.00324412
3366	0.00293304
3378	0.00315524
3390	0.00328856
3402	0.0031108
3414	0.00315524
3426	0.003333
3438	0.003333
3450	0.00319968
3462	0.00315524
3474	0.0031108
3486	0.0031108
3498	0.00231088
3510	0.003333
3522	0.00324412
3534	0.00279972
3546	0.00324412
3558	0.00324412
3570	0.00386628
3582	0.00359964
3594	0.003333
3606	0.00431068
3618	0.0035552
3630	0.00439956
3642	0.00382184
3654	0.00359964
3666	0.004444
3678	0.0039996
3690	0.00448844
3702	0.0051106
3714	0.0037774
3726	0.00395516
3738	0.00484396
3750	0.0031108
3762	0.00391072
3774	0.00346632
3786	0.00408848
3798	0.00297748
3810	0.00391072
3822	0.0037774
3834	0.004444
3846	0.00359964
3858	0.00395516
3870	0.00368852
3882	0.003333
3894	0.00373296
3906	0.00391072
3918	0.00368852
3930	0.0039996
3942	0.00448844
3954	0.0042218
3966	0.00382184
