Infrared Spectrum: Acetamide, N-(2,6-dimethylphenyl)-
Formula: C 10 H 13 N O
CAS: 2198-53-0
Origin: Sadtler Research Labs Under US-EPA Contract
1/CM	ABSORBANCE
450	0.0441665
462	0.0491013
474	0.0508284
486	0.0394784
498	0.0412056
510	0.0701975
522	0.0361474
534	0.028005
546	0.0388616
558	0.0128305
570	0.00135707
582	0.00666198
594	0.0265246
606	0.0531725
618	0.0531725
630	0.0276349
642	0.00925275
654	0.00703209
666	0.00530491
678	0.0012337
690	0.00949949
702	0.0112267
714	0.00271414
726	0.00037011
738	0.00333099
750	0.0356539
762	0.189866
774	0.179627
786	0.0351605
798	0.0178887
810	0.0176419
822	0.0132006
834	0.0117202
846	0.00777231
858	0.0037011
870	0.00259077
882	0.00382447
894	0.00801905
906	0.0175185
918	0.0219599
930	0.014681
942	0.0128305
954	0.0191223
966	0.028005
978	0.0408355
990	0.058354
1002	0.0500882
1014	0.0368876
1026	0.0351605
1038	0.0400952
1050	0.0338034
1062	0.0286218
1074	0.0245506
1086	0.0299789
1098	0.0571203
1110	0.0302257
1122	0.0112267
1134	0.0074022
1146	0.00851253
1158	0.0143109
1170	0.0178887
1182	0.018012
1194	0.0338034
1206	0.0979558
1218	0.239955
1230	0.409712
1242	0.235267
1254	0.117572
1266	0.152732
1278	0.138545
1290	0.187769
1302	0.307315
1314	0.289426
1326	0.110663
1338	0.0588475
1350	0.0784633
1362	0.211703
1374	0.306698
1386	0.222189
1398	0.151252
1410	0.122013
1422	0.163342
1434	0.262778
1446	0.398362
1458	0.536166
1470	0.629064
1482	0.552327
1494	0.305217
1506	0.150018
1518	0.0994362
1530	0.0835215
1542	0.077353
1554	0.0602046
1566	0.0494714
1578	0.0439197
1590	0.0505817
1602	0.0535426
1614	0.0362708
1626	0.0282517
1638	0.0329398
1650	0.0537893
1662	0.055023
1674	0.0699508
1686	0.114857
1698	0.263888
1710	0.677425
1722	1.2337
1734	0.701235
1746	0.212443
1758	0.0803139
1770	0.0676068
1782	0.0532958
1794	0.0373811
1806	0.024674
1818	0.0149278
1830	0.0134473
1842	0.0159147
1854	0.0143109
1866	0.00925275
1878	0.00653861
1890	0.00678535
1902	0.00555165
1914	0.0086359
1926	0.0125837
1938	0.0086359
1950	0.00283751
1962	0.00160381
1974	0.00135707
1986	0.00086359
1998	0.00074022
2010	0.00074022
2022	0.00111033
2034	0.00074022
2046	0.00135707
2058	0.00160381
2070	0.00185055
2082	0.0012337
2094	0.00086359
2106	0.00086359
2118	0.00074022
2130	0.00049348
2142	0
2154	0.00061685
2166	0.00135707
2178	0.00160381
2190	0.0012337
2202	0.00111033
2214	0.00037011
2226	0.00024674
2238	0.00012337
2250	0
2262	0.00061685
2274	0.00061685
2286	0.00086359
2298	0.00148044
2310	0.00111033
2322	0.00061685
2334	0.00271414
2346	0.00296088
2358	0.00098696
2370	0.00271414
2382	0.00259077
2394	0.00222066
2406	0.0024674
2418	0.00222066
2430	0.0012337
2442	0.00098696
2454	0.00098696
2466	0.00074022
2478	0.00074022
2490	0.00061685
2502	0.00098696
2514	0.00086359
2526	0.00061685
2538	0.00061685
2550	0.00037011
2562	0.00086359
2574	0.00061685
2586	0.00049348
2598	0.00098696
2610	0.00049348
2622	0.00086359
2634	0.00185055
2646	0.00222066
2658	0.00271414
2670	0.00296088
2682	0.00333099
2694	0.00345436
2706	0.0037011
2718	0.00357773
2730	0.00629187
2742	0.0136941
2754	0.00937612
2766	0.00481143
2778	0.00407121
2790	0.00444132
2802	0.00641524
2814	0.00962286
2826	0.0144343
2838	0.0201093
2850	0.0325697
2862	0.0586008
2874	0.0771063
2886	0.0685937
2898	0.0636589
2910	0.0813008
2922	0.133486
2934	0.196158
2946	0.161615
2958	0.122506
2970	0.118065
2982	0.123987
2994	0.0952416
3006	0.0663731
3018	0.0824112
3030	0.113994
3042	0.127071
3054	0.139778
3066	0.13435
3078	0.105975
3090	0.0611915
3102	0.0283751
3114	0.0149278
3126	0.00949949
3138	0.00727883
3150	0.00518154
3162	0.00481143
3174	0.00407121
3186	0.00419458
3198	0.00333099
3210	0.00197392
3222	0.00172718
3234	0.00160381
3246	0.00160381
3258	0.00209729
3270	0.0024674
3282	0.0024674
3294	0.00222066
3306	0.00271414
3318	0.00345436
3330	0.00382447
3342	0.00468806
3354	0.0061685
3366	0.00727883
3378	0.00826579
3390	0.0159147
3402	0.0359007
3414	0.0474975
3426	0.0310892
3438	0.031336
3450	0.0515687
3462	0.0457703
3474	0.0150511
3486	0.0061685
3498	0.00505817
3510	0.0037011
3522	0.00222066
3534	0.00098696
3546	0.00098696
3558	0.00135707
3570	0.00172718
3582	0.00209729
3594	0.00222066
3606	0.00172718
3618	0.00098696
3630	0.0012337
3642	0.00111033
3654	0.00061685
3666	0.00024674
3678	0
3690	0.00098696
3702	0.00111033
3714	0.00012337
3726	0.00111033
3738	0.00148044
3750	0.00012337
3762	0.00098696
3774	0.00135707
3786	0.00061685
3798	0.00111033
3810	0.00086359
3822	0.00160381
3834	0.00148044
3846	0.0012337
3858	0.00172718
3870	0.00197392
3882	0.00172718
3894	0.00160381
3906	0.00172718
3918	0.00160381
3930	0.00209729
3942	0.00172718
3954	0.00197392
3966	0.00308425
