Infrared Spectrum: Cyclohexylamine, N,N-dimethyl-1-phenyl-,
Formula: C 14 H 21 N
CAS: 2201-17-4
Origin: Sadtler Research Labs Under US-EPA Contract
1/CM	ABSORBANCE
450	0.00813765
462	0.00900567
474	0.00466559
486	0.00596761
498	0.00412308
510	0.00575061
522	0.0158413
534	0.0193134
546	0.0298381
558	0.0384097
570	0.00813765
582	0.0168178
594	0.00802915
606	0.00227854
618	0.00726963
630	0.00575061
642	0.00455708
654	0.0122607
666	0.025281
678	0.0374332
690	0.1021
702	0.2412
714	0.0731303
726	0.02897
738	0.0341781
750	0.149299
762	0.104921
774	0.0205069
786	0.0109587
798	0.0208324
810	0.0121522
822	0.00716113
834	0.0205069
846	0.0208324
858	0.00737814
870	0.0121522
882	0.0217004
894	0.025715
906	0.0443773
918	0.0323336
930	0.0184453
942	0.0133457
954	0.0185538
966	0.0578316
978	0.122499
990	0.0919012
1002	0.0480664
1014	0.052298
1026	0.0508874
1038	0.0941797
1050	0.104921
1062	0.0620631
1074	0.0325506
1086	0.0339611
1098	0.0290785
1110	0.0215919
1122	0.0195304
1134	0.0326591
1146	0.0487174
1158	0.0412308
1170	0.0486089
1182	0.053383
1194	0.0505619
1206	0.0314656
1218	0.0202899
1230	0.0353717
1242	0.0463304
1254	0.0385182
1266	0.0481749
1278	0.0528405
1290	0.0603271
1302	0.0428583
1314	0.0211579
1326	0.0177943
1338	0.0264745
1350	0.0490429
1362	0.0329846
1374	0.0177943
1386	0.0136713
1398	0.0134542
1410	0.0177943
1422	0.0223514
1434	0.0509959
1446	0.121197
1458	0.179896
1470	0.125862
1482	0.080834
1494	0.0785554
1506	0.0372162
1518	0.0138883
1530	0.0108502
1542	0.0100907
1554	0.00705263
1566	0.00596761
1578	0.0118267
1590	0.0230024
1602	0.0307061
1614	0.0112842
1626	0.00672712
1638	0.00629312
1650	0.00737814
1662	0.00770364
1674	0.00998218
1686	0.0175773
1698	0.0144308
1710	0.00998218
1722	0.00857166
1734	0.00759514
1746	0.00640162
1758	0.00585911
1770	0.00575061
1782	0.00705263
1794	0.0130202
1806	0.0111757
1818	0.0055336
1830	0.00336356
1842	0.00325506
1854	0.00466559
1866	0.00575061
1878	0.00705263
1890	0.00607611
1902	0.00401457
1914	0.00238704
1926	0.00379757
1938	0.00987368
1950	0.0101992
1962	0.0052081
1974	0.000868016
1986	0.000759514
1998	0
2010	0.000217004
2022	0.00054251
2034	0.000651012
2046	0.000651012
2058	0.000759514
2070	0.00130202
2082	0.000976518
2094	0.000868016
2106	0.000759514
2118	0.000759514
2130	0.000759514
2142	0.000651012
2154	0.000651012
2166	0.000651012
2178	0.000868016
2190	0.000868016
2202	0.000976518
2214	0.00130202
2226	0.00108502
2238	0.00119352
2250	0.00151903
2262	0.00119352
2274	0.00151903
2286	0.00184453
2298	0.00141053
2310	0.00195304
2322	0.00130202
2334	0
2346	0.00130202
2358	0.000434008
2370	0.00119352
2382	0.00347206
2394	0.00303806
2406	0.00238704
2418	0.00238704
2430	0.00238704
2442	0.00227854
2454	0.00227854
2466	0.00282105
2478	0.00314656
2490	0.00434008
2502	0.00477409
2514	0.00434008
2526	0.00401457
2538	0.00412308
2550	0.00401457
2562	0.00390607
2574	0.0055336
2586	0.00672712
2598	0.00694413
2610	0.00770364
2622	0.00835465
2634	0.00889716
2646	0.00987368
2658	0.0117182
2670	0.0158413
2682	0.0152988
2694	0.0159498
2706	0.0175773
2718	0.0196389
2730	0.0206154
2742	0.0241959
2754	0.0332016
2766	0.0512129
2778	0.114253
2790	0.246408
2802	0.156134
2814	0.0977603
2826	0.173495
2838	0.180222
2850	0.15863
2862	0.338743
2874	0.368473
2886	0.231001
2898	0.184453
2910	0.22601
2922	0.412959
2934	0.859878
2946	1.05345
2958	0.569961
2970	0.252701
2982	0.161125
2994	0.190313
3006	0.0927692
3018	0.0678138
3030	0.0902737
3042	0.0986283
3054	0.0853911
3066	0.155266
3078	0.10427
3090	0.0959158
3102	0.0664032
3114	0.0298381
3126	0.0144308
3138	0.00965668
3150	0.00922267
3162	0.00792065
3174	0.0056421
3186	0.0054251
3198	0.00509959
3210	0.00455708
3222	0.00444858
3234	0.00423158
3246	0.00347206
3258	0.00325506
3270	0.00260405
3282	0.00292955
3294	0.00292955
3306	0.00227854
3318	0.00282105
3330	0.00249555
3342	0.00303806
3354	0.00249555
3366	0.00227854
3378	0.00238704
3390	0.00292955
3402	0.00358057
3414	0.00282105
3426	0.00358057
3438	0.00282105
3450	0.00379757
3462	0.00314656
3474	0.00314656
3486	0.00325506
3498	0.00206154
3510	0.00195304
3522	0.00238704
3534	0.00130202
3546	0.00238704
3558	0.00249555
3570	0.00314656
3582	0.00303806
3594	0.00238704
3606	0.000976518
3618	0.00292955
3630	0.00292955
3642	0.00249555
3654	0.00303806
3666	0.00249555
3678	0.00325506
3690	0.00249555
3702	0.00401457
3714	0.00412308
3726	0.00358057
3738	0.00379757
3750	0.00358057
3762	0.00401457
3774	0.00336356
3786	0.00325506
3798	0.00206154
3810	0.00249555
3822	0.00314656
3834	0.00314656
3846	0.00227854
3858	0.00379757
3870	0.00282105
3882	0.00412308
3894	0.00282105
3906	0.00206154
3918	0.00282105
3930	0.00271255
3942	0.00401457
3954	0.00325506
3966	0.00238704
