Infrared Spectrum: 1-Phenyl-1-cyclohexanecarbonitrile
Formula: C 13 H 15 N
CAS: 2201-23-2
Origin: Sadtler Research Labs Under US-EPA Contract
1/CM	ABSORBANCE
450	0.00617881
462	0.0138606
474	0
486	0.00918472
498	0.0165325
510	0.0414148
522	0.0604522
534	0.0427507
546	0.032564
558	0.0197054
570	0.0131926
582	0.0160315
594	0.0110217
606	0.00634581
618	0.0068468
630	0.00834975
642	0.0252162
654	0.0197054
666	0.0444207
678	0.103704
690	0.244982
702	0.258341
714	0.106042
726	0.0584483
738	0.0950202
750	0.24064
762	0.163321
774	0.0514345
786	0.0192044
798	0.00918472
810	0.0068468
822	0.00701379
834	0.0275542
846	0.0237133
858	0.00734778
870	0.00868374
882	0.0165325
894	0.0450887
906	0.0360709
918	0.0161985
930	0.0208744
942	0.0308941
954	0.0223773
966	0.0108547
978	0.00701379
990	0.0103537
1002	0.0427507
1014	0.0941852
1026	0.0407468
1038	0.0440867
1050	0.0202064
1062	0.0165325
1074	0.0232123
1086	0.0203734
1098	0.0140276
1110	0.0150295
1122	0.0108547
1134	0.0146956
1146	0.0275542
1158	0.0230453
1170	0.0111887
1182	0.0153635
1194	0.0247153
1206	0.0263852
1218	0.0178685
1230	0.0125246
1242	0.0101867
1254	0.0150295
1266	0.0365719
1278	0.03223
1290	0.0198724
1302	0.0155305
1314	0.0140276
1326	0.0185364
1338	0.0290571
1350	0.0419157
1362	0.0479276
1374	0.0183694
1386	0.0108547
1398	0.00818275
1410	0.0105207
1422	0.0220433
1434	0.0546074
1446	0.188871
1458	0.260011
1470	0.109048
1482	0.0708059
1494	0.140276
1506	0.123242
1518	0.0295581
1530	0.0106877
1542	0.0066798
1554	0.00567783
1566	0.00768177
1578	0.0177015
1590	0.0480946
1602	0.0870044
1614	0.0278882
1626	0.00918472
1638	0.0068468
1650	0.00751477
1662	0.00701379
1674	0.0068468
1686	0.00450886
1698	0.00467586
1710	0.00484286
1722	0.00734778
1734	0.00901773
1746	0.00968571
1758	0.00834975
1770	0.0068468
1782	0.0120236
1794	0.0267192
1806	0.0155305
1818	0.00634581
1830	0.00400788
1842	0.00400788
1854	0.00818275
1866	0.0101867
1878	0.0136936
1890	0.0106877
1902	0.00751477
1914	0.00400788
1926	0.00617881
1938	0.0140276
1950	0.0172005
1962	0.0168665
1974	0.00484286
1986	0.00233793
1998	0.00150296
2010	0.00066798
2022	0.000166995
2034	0.00033399
2046	0
2058	0.00033399
2070	0.00066798
2082	0.000834975
2094	0.00100197
2106	0.00100197
2118	0.00066798
2130	0.00066798
2142	0.00066798
2154	0.00033399
2166	0.000834975
2178	0.00150296
2190	0.00133596
2202	0.00217094
2214	0.00467586
2226	0.0098527
2238	0.0151965
2250	0.00834975
2262	0.00350689
2274	0.00166995
2286	0.00217094
2298	0.00233793
2310	0.00183694
2322	0.00350689
2334	0.00300591
2346	0.00500985
2358	0.00567783
2370	0.00484286
2382	0.00584482
2394	0.00367389
2406	0.00283892
2418	0.00350689
2430	0.00217094
2442	0.00100197
2454	0.000166995
2466	0.000500985
2478	0.00116896
2490	0.00283892
2502	0.00267192
2514	0.00183694
2526	0.00150296
2538	0.00133596
2550	0.000500985
2562	0.00033399
2574	0.000500985
2586	0.00233793
2598	0.00400788
2610	0.00567783
2622	0.00634581
2634	0.00634581
2646	0.00751477
2658	0.00968571
2670	0.0125246
2682	0.0121906
2694	0.00834975
2706	0.00517685
2718	0.00434187
2730	0.00384089
2742	0.00417487
2754	0.00534384
2766	0.00701379
2778	0.0100197
2790	0.0138606
2802	0.0182025
2814	0.0195384
2826	0.0218763
2838	0.0272202
2850	0.0699709
2862	0.309108
2874	0.378077
2886	0.208577
2898	0.129755
2910	0.158311
2922	0.19839
2934	0.587822
2946	1.62052
2958	0.995624
2970	0.176514
2982	0.0454226
2994	0.0260512
3006	0.0253832
3018	0.0405798
3030	0.0868374
3042	0.143282
3054	0.104372
3066	0.178351
3078	0.217928
3090	0.104372
3102	0.0873384
3114	0.0504325
3126	0.0205404
3138	0.00801576
3150	0.00567783
3162	0.0068468
3174	0.00734778
3186	0.00634581
3198	0.0068468
3210	0.00567783
3222	0.0031729
3234	0.00200394
3246	0.00116896
3258	0.00133596
3270	0.00166995
3282	0.00183694
3294	0.00116896
3306	0.00133596
3318	0.000834975
3330	0.00066798
3342	0.00233793
3354	0.00267192
3366	0.00200394
3378	0.00233793
3390	0.00233793
3402	0.00166995
3414	0.000500985
3426	0.00200394
3438	0.00233793
3450	0.00233793
3462	0.00300591
3474	0.00233793
3486	0.00267192
3498	0.000834975
3510	0.00116896
3522	0.00100197
3534	0.00116896
3546	0
3558	0.00033399
3570	0.00116896
3582	0.00217094
3594	0.00166995
3606	0.00133596
3618	0.00133596
3630	0.00150296
3642	0.00150296
3654	0.00267192
3666	0.00166995
3678	0.00200394
3690	0.0031729
3702	0.00283892
3714	0.00417487
3726	0.00417487
3738	0.00400788
3750	0.00283892
3762	0.00283892
3774	0.00166995
3786	0.00267192
3798	0.00100197
3810	0.00166995
3822	0.00183694
3834	0.00183694
3846	0.00250492
3858	0.00133596
3870	0.0031729
3882	0.00367389
3894	0.00200394
3906	0.00150296
3918	0.00183694
3930	0.00233793
3942	0.00267192
3954	0.00517685
3966	0.00517685
