Infrared Spectrum: 6-Tridecanone
Formula: C 13 H 26 O
CAS: 22026-12-6
Origin: Sadtler Research Labs Under US-EPA Contract
1/CM	ABSORBANCE
450	0.0145312
462	0.0112795
474	0.0128037
486	0.012194
498	0.00945038
510	0.0119908
522	0.00924715
534	0.0113811
546	0.00965362
558	0.0102633
570	0.00985685
582	0.0106698
594	0.0112795
606	0.00457277
618	0.00792613
630	0.00975523
642	0.00975523
654	0.00619864
666	0.00396306
678	0.000203234
690	0.00721481
702	0.0197137
714	0.0214412
726	0.0315013
738	0.0240832
750	0.0147345
762	0.0161571
774	0.0190024
786	0.0165636
798	0.0113811
810	0.00975523
822	0.00741804
834	0.0117876
846	0.0104666
858	0.0154458
870	0.0120924
882	0.0131086
894	0.0124989
906	0.0127021
918	0.0140231
930	0.0182911
942	0.0185959
954	0.0193072
966	0.0232703
978	0.0243881
990	0.0264204
1002	0.0327207
1014	0.0369886
1026	0.0350579
1038	0.0372934
1050	0.0544667
1062	0.0702173
1074	0.0594459
1086	0.0415614
1098	0.0339401
1110	0.04085
1122	0.0585314
1134	0.0786516
1146	0.0680834
1158	0.0543651
1170	0.0409517
1182	0.0404436
1194	0.0459309
1206	0.0521295
1218	0.0506053
1230	0.0418662
1242	0.0410533
1254	0.0392242
1266	0.0430856
1278	0.0453212
1290	0.0506053
1302	0.0576168
1314	0.0545683
1326	0.0540602
1338	0.0724529
1350	0.100906
1362	0.119806
1374	0.0974507
1386	0.0721481
1398	0.0461341
1410	0.0543651
1422	0.0649333
1434	0.06473
1446	0.081192
1458	0.124176
1470	0.118994
1482	0.0521295
1494	0.0253026
1506	0.0171733
1518	0.0120924
1530	0.00995847
1542	0.00579217
1554	0.00660511
1566	0.00335336
1578	0.00640187
1590	0.00579217
1602	0.00447115
1614	0.00497923
1626	0.00711319
1638	0.00660511
1650	0.00792613
1662	0.0109746
1674	0.0162587
1686	0.0268269
1698	0.0480648
1710	0.123363
1722	0.344786
1734	0.307493
1746	0.0834276
1758	0.0356676
1770	0.0236768
1782	0.0173765
1794	0.0117876
1806	0.00762128
1818	0.004776
1830	0.00274366
1842	0.00284528
1854	0.00233719
1866	0.00223557
1878	0.00162587
1890	0.00152425
1902	0.00111779
1914	0.00193072
1926	0.000711319
1938	0.000508085
1950	0.0012194
1962	0.000609702
1974	0.00111779
1986	0.000203234
1998	0.000609702
2010	0.000609702
2022	0.000914553
2034	0.00101617
2046	0.0012194
2058	0.00111779
2070	0.00101617
2082	0.000203234
2094	0.000406468
2106	0.000304851
2118	0.000304851
2130	0.000304851
2142	0.000508085
2154	0.000711319
2166	0.00111779
2178	0.0012194
2190	0.000711319
2202	0.000406468
2214	0.000508085
2226	0.000203234
2238	0.000812936
2250	0.000711319
2262	0.000812936
2274	0.0012194
2286	0.00182911
2298	0.00203234
2310	0.00233719
2322	0.0012194
2334	0.000203234
2346	0.000304851
2358	0.0012194
2370	0.00111779
2382	0.00162587
2394	0.000914553
2406	0.00132102
2418	0.00111779
2430	0.000508085
2442	0.000812936
2454	0.000609702
2466	0.000609702
2478	0.000508085
2490	0.000711319
2502	0.000406468
2514	0.000609702
2526	0.00142264
2538	0.00193072
2550	0.00182911
2562	0.00233719
2574	0.00284528
2586	0.0035566
2598	0.00345498
2610	0.00386145
2622	0.00436953
2634	0.00558893
2646	0.00640187
2658	0.00772289
2670	0.00934876
2682	0.0101617
2694	0.00975523
2706	0.00873906
2718	0.00985685
2730	0.0109746
2742	0.0141248
2754	0.0137183
2766	0.0136167
2778	0.015649
2790	0.0207299
2802	0.0287576
2814	0.0392242
2826	0.0511134
2838	0.075603
2850	0.150495
2862	0.362061
2874	0.415512
2886	0.378625
2898	0.336556
2910	0.420085
2922	0.657564
2934	1.00855
2946	0.88295
2958	0.665388
2970	0.73337
2982	0.300583
2994	0.115945
3006	0.0645268
3018	0.0428824
3030	0.0320094
3042	0.0241848
3054	0.0170717
3066	0.0145312
3078	0.0122957
3090	0.010873
3102	0.0100601
3114	0.00823098
3126	0.00660511
3138	0.00731642
3150	0.00619864
3162	0.00640187
3174	0.0059954
3186	0.00518247
3198	0.0041663
3210	0.00315013
3222	0.00233719
3234	0.00254042
3246	0.00172749
3258	0.0012194
3270	0.000812936
3282	0.000508085
3294	0.000711319
3306	0.00132102
3318	0.000406468
3330	0.00152425
3342	0.00142264
3354	0.00111779
3366	0.00162587
3378	0.00172749
3390	0.00152425
3402	0.00233719
3414	0.00345498
3426	0.00518247
3438	0.00731642
3450	0.00508085
3462	0.00233719
3474	0.000812936
3486	0.0012194
3498	0.00101617
3510	0.00132102
3522	0.0012194
3534	0.000508085
3546	0.00111779
3558	0.00182911
3570	0.00406468
3582	0.0035566
3594	0.00233719
3606	0.00172749
3618	0.00193072
3630	0.00264204
3642	0.00315013
3654	0.00243881
3666	0.00233719
3678	0.00193072
3690	0.00172749
3702	0.00101617
3714	0.000304851
3726	0.00182911
3738	0.0012194
3750	0.000406468
3762	0.00243881
3774	0.0012194
3786	0.00213396
3798	0.00182911
3810	0.000812936
3822	0.000203234
3834	0.00132102
3846	0.000203234
3858	0.000203234
3870	0.00111779
3882	0.00101617
3894	0.00274366
3906	0.0012194
3918	0.000203234
3930	0.000203234
3942	0.000914553
3954	0.00111779
3966	0.000203234
