Infrared Spectrum: Acetic acid, 3-chlorobutyl ester
Formula: C 6 H 11 Cl O 2
CAS: 2203-36-3
Origin: Sadtler Research Labs Under US-EPA Contract
1/CM	ABSORBANCE
450	0.00657491
462	0.0146109
474	0.00701323
486	0.0127115
498	0.00730545
510	0.00423716
522	0.0048216
534	0.0048216
546	0.00204553
558	0.00350662
570	0.00379883
582	0.00774378
594	0.0149031
606	0.0391572
618	0.0599047
630	0.0694018
642	0.0479238
654	0.0298062
666	0.0163642
678	0.0208936
690	0.0258613
702	0.0100815
714	0.00219163
726	0.00102276
738	0.000584436
750	0.00204553
762	0.00350662
774	0.0100815
786	0.0232313
798	0.036235
810	0.0319979
822	0.018702
834	0.0170948
846	0.025423
858	0.0236697
870	0.017387
882	0.0141726
894	0.0146109
906	0.0165103
918	0.0252769
930	0.0303907
942	0.0217702
954	0.0287835
966	0.0346278
978	0.0366734
990	0.0371117
1002	0.0558136
1014	0.0803599
1026	0.111481
1038	0.235966
1050	0.351684
1062	0.265042
1074	0.16408
1086	0.112796
1098	0.0954092
1110	0.0787528
1122	0.0648724
1134	0.0769994
1146	0.056252
1158	0.03755
1170	0.0400339
1182	0.052307
1194	0.0900031
1206	0.222232
1218	0.610443
1230	1.36568
1242	1.10108
1254	0.367756
1266	0.215511
1278	0.182782
1290	0.116011
1302	0.0746617
1314	0.0577131
1326	0.0385728
1338	0.0324362
1350	0.0419333
1362	0.144648
1374	0.267964
1386	0.165103
1398	0.116887
1410	0.0511382
1422	0.0436866
1434	0.0558136
1446	0.0746617
1458	0.0840127
1470	0.0701323
1482	0.0436866
1494	0.0219164
1506	0.0154876
1518	0.0124193
1530	0.0103737
1542	0.00891265
1554	0.00788989
1566	0.00672101
1578	0.00613658
1590	0.00525992
1602	0.00525992
1614	0.00511381
1626	0.00496771
1638	0.0064288
1650	0.00759767
1662	0.0100815
1674	0.0105198
1686	0.013442
1698	0.0179714
1710	0.0283451
1722	0.0518687
1734	0.092487
1746	0.22004
1758	0.62447
1770	0.825516
1782	0.313258
1794	0.112796
1806	0.0599047
1818	0.0303907
1830	0.0181175
1842	0.013442
1854	0.0100815
1866	0.00745156
1878	0.00613658
1890	0.00496771
1902	0.00438327
1914	0.00350662
1926	0.00277607
1938	0.00204553
1950	0.00146109
1962	0.00175331
1974	0.00189942
1986	0.00219163
1998	0.00306829
2010	0.00438327
2022	0.00525992
2034	0.00496771
2046	0.00379883
2058	0.00409105
2070	0.00452938
2082	0.00555214
2094	0.00452938
2106	0.0032144
2118	0.00248385
2130	0.00175331
2142	0.00189942
2154	0.00219163
2166	0.00233774
2178	0.00146109
2190	0.00116887
2202	0.00102276
2214	0.00102276
2226	0.000876654
2238	0.000584436
2250	0.000876654
2262	0.000730545
2274	0.000584436
2286	0.000292218
2298	0.000438327
2310	0
2322	0.00116887
2334	0.00233774
2346	0.00248385
2358	0.00189942
2370	0.00175331
2382	0.000292218
2394	0.000438327
2406	0.00102276
2418	0.000584436
2430	0.000730545
2442	0.00131498
2454	0.00233774
2466	0.00233774
2478	0.00204553
2490	0.00116887
2502	0.000876654
2514	0.000876654
2526	0.000584436
2538	0.000292218
2550	0.000730545
2562	0.00116887
2574	0.00116887
2586	0.00146109
2598	0.00175331
2610	0.00175331
2622	0.00175331
2634	0.0016072
2646	0.00131498
2658	0.00146109
2670	0.00146109
2682	0.00189942
2694	0.00189942
2706	0.00189942
2718	0.00277607
2730	0.00379883
2742	0.0048216
2754	0.00452938
2766	0.00350662
2778	0.00350662
2790	0.00379883
2802	0.00409105
2814	0.00525992
2826	0.00832821
2838	0.0127115
2850	0.0157798
2862	0.0211858
2874	0.0311212
2886	0.0382806
2898	0.0435405
2910	0.0606352
2922	0.079045
2934	0.11002
2946	0.121563
2958	0.116449
2970	0.149323
2982	0.213173
2994	0.177961
3006	0.0869349
3018	0.0293679
3030	0.0191403
3042	0.0162181
3054	0.0137342
3066	0.0124193
3078	0.0105198
3090	0.0081821
3102	0.00701323
3114	0.00555214
3126	0.00467549
3138	0.00379883
3150	0.00365273
3162	0.00262996
3174	0.00277607
3186	0.00277607
3198	0.00277607
3210	0.00306829
3222	0.00292218
3234	0.00219163
3246	0.0016072
3258	0.00189942
3270	0.00175331
3282	0.00204553
3294	0.00233774
3306	0.00146109
3318	0.00204553
3330	0.00204553
3342	0.00175331
3354	0.00175331
3366	0.00131498
3378	0.0016072
3390	0.00146109
3402	0.00175331
3414	0.0016072
3426	0.00233774
3438	0.00116887
3450	0.00175331
3462	0.00204553
3474	0.0016072
3486	0.00233774
3498	0.0048216
3510	0.00745156
3522	0.00540603
3534	0.0016072
3546	0.000438327
3558	0.00219163
3570	0.00306829
3582	0.00511381
3594	0.00292218
3606	0.00248385
3618	0.00292218
3630	0.0032144
3642	0.00292218
3654	0.00233774
3666	0.00379883
3678	0.00350662
3690	0.00262996
3702	0.00277607
3714	0.00233774
3726	0.00262996
3738	0.00336051
3750	0.00233774
3762	0.00277607
3774	0.00292218
3786	0.00248385
3798	0.00248385
3810	0.00306829
3822	0.00306829
3834	0.00204553
3846	0.00365273
3858	0.00409105
3870	0.00306829
3882	0.00336051
3894	0.00365273
3906	0.00438327
3918	0.00394494
3930	0.0032144
3942	0.00292218
3954	0.0048216
3966	0.00496771
