Infrared Spectrum: Methane-d3-, sulfinylbis-
Formula: C 2 D 6 O S
CAS: 2206-27-1
Origin: Sadtler Research Labs Under US-EPA Contract
1/CM	ABSORBANCE
450	0.000928674
462	0.00557204
474	0.0058816
486	0.00237328
498	0.00247646
510	0.00412744
522	0.00154779
534	0.00288921
546	0.00247646
558	0.004437
570	0.0138269
582	0.0437509
594	0.0731589
606	0.0933833
618	0.0696505
630	0.0198117
642	0.00804851
654	0.00835807
666	0.00835807
678	0.00825488
690	0.00732621
702	0.00784214
714	0.0132078
726	0.0433381
738	0.0889463
750	0.124752
762	0.10979
774	0.046021
786	0.0379724
798	0.0750162
810	0.0989554
822	0.0878113
834	0.0555141
846	0.0172321
858	0.00825488
870	0.00722302
882	0.00732621
894	0.00722302
906	0.00773895
918	0.00835807
930	0.00794532
942	0.00742939
954	0.00691346
966	0.00897718
978	0.0153747
990	0.0358055
1002	0.0768736
1014	0.165304
1026	0.171392
1038	0.132491
1050	0.14477
1062	0.185735
1074	0.474965
1086	0.884201
1098	1.03186
1110	0.783594
1122	0.309248
1134	0.0393139
1146	0.0120728
1158	0.0112473
1170	0.013311
1182	0.0152715
1194	0.0167161
1206	0.0148588
1218	0.00897718
1230	0.00505611
1242	0.00423063
1254	0.00546886
1266	0.00484974
1278	0.004437
1290	0.00412744
1302	0.00392107
1314	0.00546886
1326	0.00815169
1338	0.008874
1350	0.0108345
1362	0.00784214
1374	0.00464337
1386	0.00278602
1398	0.0014446
1410	0.00319877
1422	0.00474656
1434	0.00392107
1446	0.00185735
1458	0.00247646
1470	0.00309558
1482	0.00154779
1494	0.00206372
1506	0.00185735
1518	0.000619116
1530	0.000309558
1542	0.00154779
1554	0.000928674
1566	0.00309558
1578	0.00732621
1590	0.00949311
1602	0.0114536
1614	0.00949311
1626	0.00454018
1638	0.00196053
1650	0.00227009
1662	0.00113505
1674	0.00247646
1686	0.00227009
1698	0.0037147
1710	0.00464337
1722	0.00784214
1734	0.00794532
1746	0.008874
1758	0.00866762
1770	0.00526249
1782	0.00278602
1794	0.00247646
1806	0.00278602
1818	0.00237328
1830	0.00227009
1842	0.00247646
1854	0.00288921
1866	0.00175416
1878	0.00113505
1890	0.000825488
1902	0.00051593
1914	0.000825488
1926	0.000722302
1938	0.000619116
1950	0.000928674
1962	0.00113505
1974	0.00134142
1986	0.00206372
1998	0.00299239
2010	0.00288921
2022	0.00216691
2034	0.00237328
2046	0.00278602
2058	0.00319877
2070	0.00392107
2082	0.004437
2094	0.0058816
2106	0.0114536
2118	0.0218754
2130	0.0276538
2142	0.0245583
2154	0.0173352
2166	0.0163034
2178	0.0189862
2190	0.0168193
2202	0.010009
2214	0.004437
2226	0.00980267
2238	0.0252806
2250	0.0545854
2262	0.03271
2274	0.0285825
2286	0.0058816
2298	0.00299239
2310	0.00412744
2322	0.00330195
2334	0.00433381
2346	0.00350832
2358	0.00546886
2370	0.00505611
2382	0.00319877
2394	0.00206372
2406	0.00206372
2418	0.0014446
2430	0.00134142
2442	0.000722302
2454	0.000722302
2466	0.00051593
2478	0.000619116
2490	0.00113505
2502	0.00123823
2514	0.0014446
2526	0.00134142
2538	0.00113505
2550	0.00103186
2562	0.00103186
2574	0.00134142
2586	0.00113505
2598	0.000928674
2610	0.00113505
2622	0.000825488
2634	0.000103186
2646	0.000619116
2658	0.000412744
2670	0.000206372
2682	0.00051593
2694	0.000309558
2706	0.00051593
2718	0.00134142
2730	0.000619116
2742	0.00051593
2754	0.000619116
2766	0.00051593
2778	0.00051593
2790	0.00051593
2802	0.00113505
2814	0.0014446
2826	0.00103186
2838	0.00103186
2850	0.00103186
2862	0.00165098
2874	0.00154779
2886	0.00165098
2898	0.00123823
2910	0.00113505
2922	0.00165098
2934	0.00185735
2946	0.00268284
2958	0.00309558
2970	0.00402425
2982	0.00402425
2994	0.004437
3006	0.00381788
3018	0.00340514
3030	0.00216691
3042	0.00227009
3054	0.00319877
3066	0.00319877
3078	0.00309558
3090	0.00216691
3102	0.00165098
3114	0.00154779
3126	0.00134142
3138	0.00165098
3150	0.00185735
3162	0.00196053
3174	0.00185735
3186	0.00196053
3198	0.00185735
3210	0.00206372
3222	0.00247646
3234	0.00299239
3246	0.00505611
3258	0.00639753
3270	0.00639753
3282	0.00608797
3294	0.00536567
3306	0.00299239
3318	0.00247646
3330	0.00175416
3342	0.00227009
3354	0.00227009
3366	0.00165098
3378	0.00175416
3390	0.00216691
3402	0.00134142
3414	0.00206372
3426	0.00154779
3438	0.00185735
3450	0.00175416
3462	0.00165098
3474	0.00196053
3486	0.0014446
3498	0.00123823
3510	0.0014446
3522	0.00154779
3534	0.00216691
3546	0.00196053
3558	0.00216691
3570	0.00154779
3582	0.00237328
3594	0.00268284
3606	0.00257965
3618	0.00113505
3630	0.00165098
3642	0.00278602
3654	0.00123823
3666	0.00206372
3678	0.00216691
3690	0.00299239
3702	0.00340514
3714	0.00134142
3726	0.00165098
3738	0.00268284
3750	0.00134142
3762	0.00227009
3774	0.00433381
3786	0.00257965
3798	0.00299239
3810	0.00350832
3822	0.00247646
3834	0.00247646
3846	0.00268284
3858	0.000309558
3870	0.00185735
3882	0.000309558
3894	0.00247646
3906	0.00237328
3918	0.00227009
3930	0.00268284
3942	0.00216691
3954	0.0014446
3966	0.00237328
