Infrared Spectrum: 2,3-Epoxypropyl para-methoxyphenyl ether
Formula: C 10 H 12 O 3
CAS: 2211-94-1
Origin: Sadtler Research Labs Under US-EPA Contract
1/CM	ABSORBANCE
450	0.00345091
462	0.00549806
474	0.005849
486	0.00719427
498	0.00853954
510	0.011698
522	0.011815
534	0.00871501
546	0.0093584
558	0.00918293
570	0.00754521
582	0.00561504
594	0.00134527
606	0.00321695
618	0.0023396
630	0.00228111
642	0.00152074
654	0.00140376
666	5.849e-05
678	0.00339242
690	0.005849
702	0.0147395
714	0.0302393
726	0.0267884
738	0.0343336
750	0.0220507
762	0.0167866
774	0.0185998
786	0.0216998
798	0.0212319
810	0.0355619
822	0.067205
834	0.0842256
846	0.0663861
858	0.0405921
870	0.0197111
882	0.0136282
894	0.014681
906	0.0208224
918	0.0250337
930	0.0178979
942	0.0142131
954	0.0155583
966	0.0213488
978	0.0211734
990	0.0233375
1002	0.0312337
1014	0.0480203
1026	0.0886708
1038	0.159795
1050	0.179564
1062	0.0755691
1074	0.0375506
1086	0.0324035
1098	0.0331638
1110	0.0300054
1122	0.0220507
1134	0.0214073
1146	0.0183659
1158	0.0250922
1170	0.0393053
1182	0.0748087
1194	0.0890803
1206	0.198515
1218	0.348834
1230	0.452245
1242	0.304499
1254	0.136399
1266	0.0843426
1278	0.0687842
1290	0.0550391
1302	0.0394223
1314	0.0245073
1326	0.0187168
1338	0.0152074
1350	0.0221092
1362	0.0193602
1374	0.0134527
1386	0.0142716
1398	0.0121074
1410	0.0164942
1422	0.0204715
1434	0.0252677
1446	0.0511203
1458	0.049541
1470	0.0687258
1482	0.0565598
1494	0.110195
1506	0.540565
1518	0.242909
1530	0.0383109
1542	0.0108791
1554	0.0112301
1566	0.0115225
1578	0.0124584
1590	0.0163187
1602	0.0139206
1614	0.0128093
1626	0.0076037
1638	0.00567353
1650	0.00169621
1662	0.00637541
1674	0.00157923
1686	0.00035094
1698	0
1710	0.00625843
1722	0.00631692
1734	0.00286601
1746	0.00456222
1758	0.00403581
1770	0.00193017
1782	0.00280752
1794	0.00163772
1806	0.00438675
1818	0.00462071
1830	0.00362638
1842	0.0046792
1854	0.00736974
1866	0.00520561
1878	0.00590749
1890	0.0040943
1902	0.00415279
1914	0.00345091
1926	0.00368487
1938	0.00391883
1950	0.00426977
1962	0.00473769
1974	0.00503014
1986	0.00561504
1998	0.00567353
2010	0.00579051
2022	0.0052641
2034	0.00649239
2046	0.00719427
2058	0.00801313
2070	0.00807162
2082	0.00690182
2094	0.00508863
2106	0.00327544
2118	0.00210564
2130	0.00146225
2142	0.00076037
2154	0.00070188
2166	0.00052641
2178	0.00046792
2190	0.00035094
2202	0.00017547
2214	0.00011698
2226	0.00046792
2238	0.00099433
2250	0.00152074
2262	0.00157923
2274	0.00157923
2286	0.00157923
2298	0.00169621
2310	0.00163772
2322	0.00204715
2334	0.00081886
2346	0.0023396
2358	0.00181319
2370	0.00081886
2382	0.00122829
2394	0.0005849
2406	0.00070188
2418	0.00064339
2430	0.00064339
2442	0.00070188
2454	0.00163772
2466	0.00210564
2478	0.00274903
2490	0.00216413
2502	0.00216413
2514	0.0017547
2526	0.00163772
2538	0.00169621
2550	0.00169621
2562	0.00122829
2574	0.00128678
2586	0.00128678
2598	0.00122829
2610	0.00122829
2622	0.00081886
2634	0.00081886
2646	0.00128678
2658	0.00122829
2670	0.00076037
2682	0.00134527
2694	0.00140376
2706	0.00198866
2718	0.00187168
2730	0.0023396
2742	0.00286601
2754	0.00280752
2766	0.00391883
2778	0.00380185
2790	0.00479618
2802	0.0064339
2814	0.00959236
2826	0.0153244
2838	0.0340412
2850	0.0342751
2862	0.0244488
2874	0.0272563
2886	0.0311167
2898	0.0346846
2910	0.0457977
2922	0.058256
2934	0.0656258
2946	0.0697786
2958	0.0598353
2970	0.0455052
2982	0.0382525
2994	0.0460316
3006	0.075803
3018	0.0412939
3030	0.0234545
3042	0.0299469
3054	0.0494825
3066	0.0335733
3078	0.0198281
3090	0.0117565
3102	0.00941689
3114	0.00789615
3126	0.005849
3138	0.00327544
3150	0.00193017
3162	0.00152074
3174	0.00140376
3186	0.00122829
3198	0.00128678
3210	0.00064339
3222	0.00052641
3234	0.00046792
3246	0.00035094
3258	0.00064339
3270	0.00046792
3282	0.00040943
3294	5.849e-05
3306	0.0005849
3318	0.00046792
3330	0.00093584
3342	0.00140376
3354	0.00111131
3366	0.00076037
3378	0.00087735
3390	0.00122829
3402	0.00081886
3414	0.00099433
3426	0.00076037
3438	0.00122829
3450	0.0011698
3462	0.00152074
3474	0.00146225
3486	0.0011698
3498	0.00169621
3510	0.00099433
3522	0.0005849
3534	0.00076037
3546	0.00105282
3558	0.00111131
3570	0.00163772
3582	0.00187168
3594	0.00257356
3606	0.00204715
3618	0.00309997
3630	0.00286601
3642	0.0029245
3654	0.00298299
3666	0.00193017
3678	0.00134527
3690	0.00140376
3702	0.00087735
3714	0.00134527
3726	0.00087735
3738	0.00064339
3750	0.00076037
3762	0.00081886
3774	0.00140376
3786	0.00105282
3798	0.0011698
3810	0.00128678
3822	0.00122829
3834	0.00122829
3846	0.00128678
3858	0.0011698
3870	0.0011698
3882	0.00169621
3894	0.00140376
3906	0.00163772
3918	0.00105282
3930	0.00111131
3942	0.00105282
3954	0.00152074
3966	0.00210564
