Infrared Spectrum: 1-(2-Chlorophenoxy)-2,3-epoxypropane
Formula: C 9 H 9 Cl O 2
CAS: 2212-04-6
Origin: Sadtler Research Labs Under US-EPA Contract
1/CM	ABSORBANCE
450	0.0143466
462	0.0189882
474	0.0136082
486	0.010549
498	0.026478
510	0.0165619
522	0.0243682
534	0.0299592
546	0.0184607
558	0.0241572
570	0.0219419
582	0.0202541
594	0.0265835
606	0.0200431
618	0.0154015
630	0.00390313
642	0.0110764
654	0.010127
666	0.0234188
678	0.101059
690	0.13893
702	0.0767967
714	0.0804889
726	0.114562
738	0.295688
750	0.519011
762	0.243154
774	0.118043
786	0.0789065
798	0.0866073
810	0.106967
822	0.11836
834	0.157497
846	0.203596
858	0.181337
870	0.0869238
882	0.0534834
894	0.0566481
906	0.0886116
918	0.126799
930	0.0984222
942	0.0644544
954	0.0728936
966	0.0942026
978	0.0840755
990	0.0928312
1002	0.164037
1014	0.338623
1026	0.435779
1038	0.46943
1050	0.287144
1062	0.469958
1074	0.422382
1086	0.196633
1098	0.113718
1110	0.0778516
1122	0.0968398
1134	0.147791
1146	0.0642434
1158	0.0654038
1170	0.0544328
1182	0.0486309
1194	0.0582305
1206	0.0984222
1218	0.261299
1230	0.610049
1242	0.820185
1254	0.659312
1266	0.585048
1278	0.595702
1290	0.485254
1302	0.28535
1314	0.110975
1326	0.0611842
1338	0.0652983
1350	0.0832316
1362	0.0798559
1374	0.0626611
1386	0.0639269
1398	0.0599183
1410	0.0641379
1422	0.0789065
1434	0.10549
1446	0.279865
1458	0.267523
1470	0.444007
1482	1.03222
1494	0.578824
1506	0.188089
1518	0.0781681
1530	0.0373435
1542	0.0391368
1554	0.0360776
1566	0.0692014
1578	0.196106
1590	0.358033
1602	0.142306
1614	0.0373435
1626	0.0247902
1638	0.0199376
1650	0.0220474
1662	0.015507
1674	0.0235243
1686	0.0246847
1698	0.02152
1710	0.0114984
1722	0.0124478
1734	0.0197266
1746	0.0171949
1758	0.0182498
1770	0.0179333
1782	0.0131863
1794	0.0136082
1806	0.00959959
1818	0.00801724
1830	0.00991606
1842	0.00875567
1854	0.00822822
1866	0.0106545
1878	0.0108655
1890	0.0185662
1902	0.0140302
1914	0.010549
1926	0.0171949
1938	0.0132917
1950	0.00506352
1962	0.00327019
1974	0.00327019
1986	0.00369215
1998	0.00506352
2010	0.00590744
2022	0.00917763
2034	0.0112874
2046	0.0116039
2058	0.0104435
2070	0.0110764
2082	0.010338
2094	0.00991606
2106	0.00938861
2118	0.00643489
2130	0.00432509
2142	0.00242627
2154	0.00189882
2166	0.00189882
2178	0.00116039
2190	0.00063294
2202	0.00010549
2214	0.00063294
2226	0.0010549
2238	0.00232078
2250	0.00485254
2262	0.00675136
2274	0.00643489
2286	0.00611842
2298	0.00284823
2310	0.00073843
2322	0.00063294
2334	0.00021098
2346	0
2358	0
2370	0.00358666
2382	0.00084392
2394	0.00189882
2406	0.00253176
2418	0.00295372
2430	0.0031647
2442	0.00253176
2454	0.00242627
2466	0.00369215
2478	0.00474705
2490	0.00537999
2502	0.00664587
2514	0.00706783
2526	0.00875567
2538	0.0124478
2550	0.0121313
2562	0.00981057
2574	0.00759528
2586	0.00516901
2598	0.00295372
2610	0.00358666
2622	0.00337568
2634	0.00221529
2646	0.00221529
2658	0.00189882
2670	0.00200431
2682	0.00305921
2694	0.00358666
2706	0.00411411
2718	0.00495803
2730	0.0063294
2742	0.00886116
2754	0.00907214
2766	0.00822822
2778	0.00780626
2790	0.00748979
2802	0.00854469
2814	0.01076
2826	0.0147686
2838	0.0173004
2850	0.0219419
2862	0.0341788
2874	0.0602348
2886	0.0851304
2898	0.0745814
2910	0.0754254
2922	0.111081
2934	0.171949
2946	0.148952
2958	0.11203
2970	0.104435
2982	0.116039
2994	0.126483
3006	0.156969
3018	0.139458
3030	0.0965233
3042	0.0972618
3054	0.157391
3066	0.169417
3078	0.203807
3090	0.109182
3102	0.0450442
3114	0.0184607
3126	0.00822822
3138	0.00601293
3150	0.00654038
3162	0.00706783
3174	0.00506352
3186	0.00358666
3198	0.00274274
3210	0.00327019
3222	0.00253176
3234	0.00305921
3246	0.00274274
3258	0.00253176
3270	0.00284823
3282	0.00284823
3294	0.00337568
3306	0.00221529
3318	0.0031647
3330	0.00284823
3342	0.00253176
3354	0.00263725
3366	0.00327019
3378	0.0021098
3390	0.00168784
3402	0.00221529
3414	0.00242627
3426	0.0021098
3438	0.00242627
3450	0.00179333
3462	0.00147686
3474	0.00189882
3486	0.00221529
3498	0.0010549
3510	0.00179333
3522	0.00116039
3534	0.00242627
3546	0.00253176
3558	0.00137137
3570	0.00369215
3582	0.00696234
3594	0.0143466
3606	0.0162455
3618	0.0186717
3630	0.0170894
3642	0.00696234
3654	0.00601293
3666	0.00295372
3678	0.00179333
3690	0.00137137
3702	0.00137137
3714	0.00200431
3726	0.0010549
3738	0.00147686
3750	0.00685685
3762	0.00137137
3774	0.00369215
3786	0.00327019
3798	0.00274274
3810	0.00189882
3822	0.00485254
3834	0.00432509
3846	0.00232078
3858	0.00379764
3870	0.00643489
3882	0.00242627
3894	0.00253176
3906	0.0031647
3918	0.00337568
3930	0.00506352
3942	0.00084392
3954	0.00443058
3966	0.00369215
