Infrared Spectrum: 4-Picoline, 2-chloro-6-(2-thienyl)-.alpha.,.alpha.,.alpha.-trifluoro-,
Formula: C 10 H 5 Cl F 3 N S
CAS: 22123-15-5
Origin: Sadtler Research Labs Under US-EPA Contract
1/CM	ABSORBANCE
450	0.0145033
462	0.00736861
474	0.0102927
486	0.00526329
498	0.00304101
510	0.00385975
522	0.00304101
534	0.00432759
546	0.00456152
558	0.00444456
570	0.00187139
582	0.00690076
594	0.00924
606	0.0102927
618	0.00924
630	0.0357904
642	0.0348547
654	0.00935696
666	0.0150881
678	0.0371939
690	0.207841
702	0.405858
714	0.0974293
726	0.0230415
738	0.0281878
750	0.0240942
762	0.0284218
774	0.107488
786	0.14936
798	0.0222228
810	0.0160238
822	0.0423402
834	0.21369
846	0.155092
858	0.0625747
870	0.14129
882	0.0729843
894	0.0136846
906	0.00643291
918	0.00467848
930	0.00233924
942	0.00163747
954	0.0033919
966	0.0049124
978	0.00619899
990	0.00959088
1002	0.0112284
1014	0.0429251
1026	0.139302
1038	0.0168425
1050	0.0160238
1062	0.0163747
1074	0.0157899
1086	0.0414045
1098	0.13591
1110	0.0548552
1122	0.0454982
1134	0.0732182
1146	0.2972
1158	1.035
1170	0.72341
1182	0.836512
1194	0.316616
1206	0.119886
1218	0.177197
1230	0.137898
1242	0.187841
1254	0.285972
1266	0.13053
1278	0.0535686
1290	0.0833939
1302	0.100704
1314	0.409367
1326	0.982364
1338	0.362582
1350	0.245854
1362	0.259422
1374	0.0971954
1386	0.31954
1398	0.358956
1410	0.12164
1422	0.253808
1434	0.387378
1446	0.249012
1458	0.0481883
1470	0.0321646
1482	0.0258486
1494	0.0235094
1506	0.0219889
1518	0.0581301
1530	0.172519
1542	0.142343
1554	0.303166
1566	0.493346
1578	0.0697094
1590	0.0712299
1602	0.204216
1614	0.109009
1626	0.0236263
1638	0.0145033
1650	0.0178952
1662	0.0168425
1674	0.0136846
1686	0.0168425
1698	0.0156729
1710	0.0174273
1722	0.0195327
1734	0.0251468
1746	0.0221058
1758	0.0169595
1770	0.0106435
1782	0.00982481
1794	0.0125149
1806	0.00514633
1818	0.00374278
1830	0.000818734
1842	0.00116962
1854	0.00105266
1866	0.000350886
1878	0.00175443
1890	0.000818734
1902	0.000467848
1914	0.000701772
1926	0.00058481
1938	0.000818734
1950	0
1962	0.000467848
1974	0.000818734
1986	0.00257316
1998	0.00397671
2010	0.00304101
2022	0.00233924
2034	0.00222228
2046	0.00105266
2058	0
2070	0.000935696
2082	0.00222228
2094	0.00222228
2106	0.00163747
2118	0.00140354
2130	0.00140354
2142	0.00140354
2154	0.00116962
2166	0.0024562
2178	0.00292405
2190	0.00175443
2202	0.00187139
2214	0.00292405
2226	0.00280709
2238	0.00198835
2250	0.00233924
2262	0.00233924
2274	0.00198835
2286	0.00210532
2298	0.00350886
2310	0.00304101
2322	0.00233924
2334	0.00292405
2346	0.00222228
2358	0.00163747
2370	0.000935696
2382	0.00210532
2394	0.00233924
2406	0.00198835
2418	0.00198835
2430	0.00163747
2442	0.00210532
2454	0.00280709
2466	0.0024562
2478	0.00128658
2490	0.000701772
2502	0.00058481
2514	0.000701772
2526	0.00128658
2538	0.00198835
2550	0.00187139
2562	0.00187139
2574	0.00187139
2586	0.00222228
2598	0.00257316
2610	0.00198835
2622	0.00175443
2634	0.00152051
2646	0.00210532
2658	0.00397671
2670	0.00315797
2682	0.00257316
2694	0.00210532
2706	0.00187139
2718	0.00210532
2730	0.0024562
2742	0.00304101
2754	0.00304101
2766	0.00304101
2778	0.00327494
2790	0.00327494
2802	0.00374278
2814	0.00421063
2826	0.00456152
2838	0.00526329
2850	0.00514633
2862	0.00690076
2874	0.00783645
2886	0.00573114
2898	0.00514633
2910	0.00514633
2922	0.00514633
2934	0.00596506
2946	0.00701772
2958	0.00760253
2970	0.00783645
2982	0.00783645
2994	0.00725164
3006	0.00690076
3018	0.00760253
3030	0.00666683
3042	0.00619899
3054	0.00643291
3066	0.00690076
3078	0.0195327
3090	0.0345038
3102	0.0175443
3114	0.00912304
3126	0.00713468
3138	0.0058481
3150	0.00690076
3162	0.00748557
3174	0.0067838
3186	0.00456152
3198	0.00409367
3210	0.00421063
3222	0.00479544
3234	0.00467848
3246	0.00456152
3258	0.00409367
3270	0.00421063
3282	0.00374278
3294	0.00315797
3306	0.00292405
3318	0.00257316
3330	0.00292405
3342	0.00257316
3354	0.00257316
3366	0.0024562
3378	0.00163747
3390	0.00257316
3402	0.00198835
3414	0.00210532
3426	0.00198835
3438	0.00198835
3450	0.00163747
3462	0.00163747
3474	0.00198835
3486	0.000935696
3498	0.00128658
3510	0.000701772
3522	0.000818734
3534	0.000935696
3546	0.00105266
3558	0.00175443
3570	0.00163747
3582	0.00116962
3594	0.00257316
3606	0.000818734
3618	0.00175443
3630	0.00187139
3642	0.000818734
3654	0.000467848
3666	0.00140354
3678	0.00233924
3690	0.00116962
3702	0.00140354
3714	0.00163747
3726	0.00175443
3738	0.00269013
3750	0.00152051
3762	0.00210532
3774	0.000350886
3786	0.00163747
3798	0.00304101
3810	0.000467848
3822	0.00222228
3834	0.00327494
3846	0.00222228
3858	0.000233924
3870	0.00140354
3882	0.00233924
3894	0.0024562
3906	0.000350886
3918	0.00210532
3930	0.0024562
3942	0.00257316
3954	0.0024562
3966	0.00163747
