Infrared Spectrum: 4-Bromophenyl 2,3-epoxypropyl ether
Formula: C 9 H 9 Br O 2
CAS: 2212-06-8
Origin: Sadtler Research Labs Under US-EPA Contract
1/CM	ABSORBANCE
450	0
462	0.00479711
474	0.00507929
486	0.0192825
498	0.0331095
510	0.0301936
522	0.0186241
534	0.0102526
546	0.00846549
558	0.007713
570	0.00413868
582	0.0103467
594	0.0275599
606	0.038565
618	0.0268074
630	0.0440205
642	0.0488177
654	0.0152379
666	0.0113814
678	0.0072427
690	0.0060199
702	0.00470305
714	0.00300995
726	0.0021634
738	0.00395056
750	0.00846549
762	0.0157082
774	0.030852
786	0.0365897
798	0.0536148
810	0.102244
822	0.185488
834	0.156047
846	0.113155
858	0.0767538
870	0.0378125
882	0.0202231
894	0.0214459
906	0.038565
918	0.0541791
930	0.035461
942	0.0258668
954	0.0283124
966	0.0413868
978	0.0365897
990	0.0450552
1002	0.131121
1014	0.147017
1026	0.182855
1038	0.240984
1050	0.140621
1062	0.086348
1074	0.196682
1086	0.0644318
1098	0.0546494
1110	0.0489117
1122	0.0409165
1134	0.0392234
1146	0.0279361
1158	0.0532385
1170	0.179939
1182	0.0681002
1194	0.0653724
1206	0.137987
1218	0.349625
1230	0.650056
1242	0.647046
1254	0.289708
1266	0.224053
1278	0.281242
1290	0.194612
1302	0.108264
1314	0.0521098
1326	0.0384709
1338	0.0346144
1350	0.0425156
1362	0.0382828
1374	0.0271836
1386	0.0286886
1398	0.029253
1410	0.0349907
1422	0.043174
1434	0.0342382
1446	0.0442087
1458	0.0934966
1470	0.153696
1482	0.458359
1494	0.775063
1506	0.0945313
1518	0.0372482
1530	0.0186241
1542	0.00931204
1554	0.0144854
1566	0.0321689
1578	0.0976353
1590	0.130463
1602	0.0649962
1614	0.0265252
1626	0.0158963
1638	0.0109111
1650	0.00677239
1662	0.00536148
1674	0.00329214
1686	0.00253965
1698	0.00507929
1710	0.0120398
1722	0.0116636
1734	0.0142973
1746	0.015426
1758	0.00987641
1770	0.00489117
1782	0.00357432
1794	0.00225746
1806	0.00404462
1818	0.00413868
1830	0.00348026
1842	0.00498523
1854	0.00780706
1866	0.010817
1878	0.0114754
1890	0.00705458
1902	0.00451493
1914	0.00272777
1926	0.00272777
1938	0.00282183
1950	0.00282183
1962	0.00291589
1974	0.00300995
1986	0.00357432
1998	0.00460899
2010	0.00630209
2022	0.00743082
2034	0.00808925
2046	0.00865361
2058	0.00950016
2070	0.00997047
2082	0.00818331
2094	0.00573772
2106	0.00507929
2118	0.00395056
2130	0.00291589
2142	0.00206934
2154	0.00188122
2166	0.00178716
2178	0.00178716
2190	0.00178716
2202	0.0021634
2214	0.00235153
2226	0.00235153
2238	0.00272777
2250	0.00413868
2262	0.00536148
2274	0.00611397
2286	0.00583178
2298	0.00498523
2310	0.00442087
2322	0.00536148
2334	0.00451493
2346	0.00545554
2358	0.00611397
2370	0.00564366
2382	0.00536148
2394	0.00479711
2406	0.00460899
2418	0.00470305
2430	0.0038565
2442	0.00423275
2454	0.00423275
2466	0.00404462
2478	0.00442087
2490	0.00479711
2502	0.00545554
2514	0.00630209
2526	0.00630209
2538	0.00498523
2550	0.00442087
2562	0.00413868
2574	0.00376244
2586	0.00310401
2598	0.00300995
2610	0.0033862
2622	0.00348026
2634	0.00272777
2646	0.00319807
2658	0.00366838
2670	0.00432681
2682	0.0038565
2694	0.0038565
2706	0.00470305
2718	0.00498523
2730	0.00630209
2742	0.0072427
2754	0.00705458
2766	0.00790112
2778	0.00714864
2790	0.00846549
2802	0.00987641
2814	0.0118517
2826	0.0135448
2838	0.0142973
2850	0.0158963
2862	0.0224806
2874	0.0364957
2886	0.0471246
2898	0.0439265
2910	0.0451493
2922	0.0619862
2934	0.0874767
2946	0.0722388
2958	0.057095
2970	0.0532385
2982	0.0563425
2994	0.0590703
3006	0.075531
3018	0.0594466
3030	0.0382828
3042	0.0474067
3054	0.0752488
3066	0.057001
3078	0.0394116
3090	0.0281242
3102	0.0260549
3114	0.0111933
3126	0.00620803
3138	0.00451493
3150	0.00404462
3162	0.0033862
3174	0.00291589
3186	0.00282183
3198	0.00263371
3210	0.00310401
3222	0.00272777
3234	0.00319807
3246	0.00244559
3258	0.00263371
3270	0.00282183
3282	0.00263371
3294	0.00319807
3306	0.00272777
3318	0.00263371
3330	0.0033862
3342	0.00263371
3354	0.00300995
3366	0.00329214
3378	0.00282183
3390	0.00253965
3402	0.00348026
3414	0.00348026
3426	0.00291589
3438	0.00291589
3450	0.0033862
3462	0.00244559
3474	0.00282183
3486	0.00300995
3498	0.00348026
3510	0.00329214
3522	0.00263371
3534	0.00319807
3546	0.0033862
3558	0.00376244
3570	0.00376244
3582	0.00442087
3594	0.0055496
3606	0.00780706
3618	0.00959422
3630	0.00959422
3642	0.0120398
3654	0.0135448
3666	0.00846549
3678	0.00611397
3690	0.00498523
3702	0.00507929
3714	0.00432681
3726	0.00470305
3738	0.0033862
3750	0.00442087
3762	0.0038565
3774	0.00310401
3786	0.00404462
3798	0.00329214
3810	0.00413868
3822	0.0038565
3834	0.00282183
3846	0.00282183
3858	0.00470305
3870	0.00310401
3882	0.00507929
3894	0.00404462
3906	0.00348026
3918	0.00366838
3930	0.00432681
3942	0.00366838
3954	0.00357432
3966	0.0038565
