Infrared Spectrum: Propane, 1-(2,4-dichlorophenoxy)-
Formula: C 9 H 8 Cl 2 O 2
CAS: 2212-07-9
Origin: Sadtler Research Labs Under US-EPA Contract
1/CM	ABSORBANCE
450	0.0243114
462	0.0159233
474	0.0103786
486	0.022321
498	0.048765
510	0.052035
522	0.0342635
534	0.0210415
546	0.0146437
558	0.0122268
570	0.0025591
582	0.000426516
594	0.00113738
606	0.00312778
618	0.0152124
630	0.0635509
642	0.0961083
654	0.0773416
666	0.10933
678	0.0486228
690	0.0292874
702	0.0110894
714	0.00597122
726	0.00312778
738	0.00554471
750	0.0116581
762	0.0253066
774	0.047912
786	0.0530302
798	0.0759198
810	0.143309
822	0.299556
834	0.287045
846	0.200605
858	0.129092
870	0.0604231
882	0.0351165
894	0.0365382
906	0.0617026
918	0.0821754
930	0.0574375
942	0.0433625
954	0.0470589
966	0.0676739
978	0.0632665
990	0.0715125
1002	0.152266
1014	0.246384
1026	0.299983
1038	0.378604
1050	0.228186
1062	0.122979
1074	0.125538
1086	0.206007
1098	0.394669
1110	0.166341
1122	0.10606
1134	0.0858719
1146	0.0598544
1158	0.0944022
1170	0.244109
1182	0.0902792
1194	0.0949709
1206	0.214395
1218	0.527458
1230	0.890565
1242	0.944449
1254	0.425947
1266	0.336237
1278	0.38159
1290	0.279652
1302	0.152124
1314	0.0759198
1326	0.0548784
1338	0.0547362
1350	0.0663943
1362	0.0642617
1374	0.0456372
1386	0.045495
1398	0.0464902
1410	0.0510397
1422	0.0595701
1434	0.0551627
1446	0.0774837
1458	0.149849
1470	0.209419
1482	0.542813
1494	1.42172
1506	0.270127
1518	0.0720812
1530	0.0426516
1542	0.0318465
1554	0.0270127
1566	0.0359695
1578	0.0929805
1590	0.165062
1602	0.134779
1614	0.038813
1626	0.018198
1638	0.0129377
1650	0.00725077
1662	0.00440733
1674	0.00227475
1686	0.00469168
1698	0.00980987
1710	0.0145015
1722	0.0153546
1734	0.0295718
1746	0.0271549
1758	0.0126533
1770	0.00511819
1782	0.000853032
1794	0.00113738
1806	0.00184824
1818	0.00213258
1830	0.00326996
1842	0.00639774
1854	0.0105207
1866	0.0159233
1878	0.0149281
1890	0.00853032
1902	0.00426516
1914	0.00213258
1926	0.00213258
1938	0.00199041
1950	0.00156389
1962	0.00199041
1974	0.00213258
1986	0.0025591
1998	0.00326996
2010	0.00511819
2022	0.00767729
2034	0.0096677
2046	0.0106629
2058	0.0109472
2070	0.0112316
2082	0.00938335
2094	0.00625557
2106	0.00497602
2118	0.00341213
2130	0.00156389
2142	0.000284344
2154	0
2166	0.000142172
2178	0.000142172
2190	0.000142172
2202	0.000568688
2214	0.00113738
2226	0.00127955
2238	0.00227475
2250	0.00412299
2262	0.00582905
2274	0.00653991
2286	0.00881466
2298	0.00909901
2310	0.00952552
2322	0.00824598
2334	0.00554471
2346	0.00725077
2358	0.00639774
2370	0.00540254
2382	0.00796163
2394	0.00497602
2406	0.00469168
2418	0.00440733
2430	0.00426516
2442	0.00483385
2454	0.00440733
2466	0.0045495
2478	0.00483385
2490	0.00497602
2502	0.00639774
2514	0.00753512
2526	0.0071086
2538	0.00554471
2550	0.00412299
2562	0.0035543
2574	0.00383864
2586	0.00341213
2598	0.00284344
2610	0.0025591
2622	0.00298561
2634	0.00184824
2646	0.00241692
2658	0.00270127
2670	0.0035543
2682	0.00426516
2694	0.0045495
2706	0.00568688
2718	0.00625557
2730	0.0081038
2742	0.00924118
2754	0.00980987
2766	0.0100942
2778	0.0102364
2790	0.0115159
2802	0.0133642
2814	0.0183402
2826	0.0226053
2838	0.0251644
2850	0.0307092
2862	0.0450685
2874	0.0693799
2886	0.0850189
2898	0.081038
2910	0.0826019
2922	0.108904
2934	0.146295
2946	0.126107
2958	0.0999469
2970	0.0922696
2982	0.0918431
2994	0.0938335
3006	0.113738
3018	0.0898527
3030	0.0581483
3042	0.0747825
3054	0.12042
3066	0.0872936
3078	0.0526036
3090	0.0382443
3102	0.0385286
3114	0.0207571
3126	0.00767729
3138	0.00540254
3150	0.00383864
3162	0.00341213
3174	0.0025591
3186	0.00227475
3198	0.00184824
3210	0.00213258
3222	0.00213258
3234	0.0025591
3246	0.00199041
3258	0.00213258
3270	0.0025591
3282	0.00227475
3294	0.00227475
3306	0.00241692
3318	0.00298561
3330	0.00270127
3342	0.00227475
3354	0.0025591
3366	0.00341213
3378	0.00298561
3390	0.0025591
3402	0.0035543
3414	0.0035543
3426	0.0045495
3438	0.00426516
3450	0.00383864
3462	0.00426516
3474	0.00412299
3486	0.00426516
3498	0.00398082
3510	0.00483385
3522	0.00341213
3534	0.00469168
3546	0.00440733
3558	0.00440733
3570	0.00639774
3582	0.00668208
3594	0.00838815
3606	0.0113738
3618	0.0133642
3630	0.0160654
3642	0.0137907
3654	0.0113738
3666	0.00696643
3678	0.00398082
3690	0.00213258
3702	0.000995204
3714	0
3726	0
3738	0.00071086
3750	0
3762	0
3774	0
3786	0
3798	0
3810	0
3822	0
3834	0
3846	0
3858	0.000853032
3870	0
3882	0
3894	0.000142172
3906	0
3918	0.000853032
3930	0
3942	0
3954	0
3966	0
