Infrared Spectrum: Phthalimide, N-(2-bromo-1-isobutoxyethyl)-,
Formula: C 14 H 16 Br N O 3
CAS: 22158-93-6
Origin: Sadtler Research Labs Under US-EPA Contract
1/CM	ABSORBANCE
450	0
462	0.0024161
474	0.01103
486	0.0178582
498	0.0226904
510	0.0346658
522	0.0507382
534	0.0560956
546	0.0523139
558	0.0474817
570	0.0360315
582	0.0315144
594	0.0423343
606	0.0746891
618	0.0901312
630	0.0432798
642	0.0268923
654	0.0254216
666	0.0304639
678	0.0485322
690	0.0679661
702	0.0627137
714	0.210096
726	0.216714
738	0.0421242
750	0.0281529
762	0.0292033
774	0.0396031
786	0.043805
798	0.0255267
810	0.0202743
822	0.0203793
834	0.0220601
846	0.0317245
858	0.0400233
870	0.0660752
882	0.0497928
894	0.0454858
906	0.0378173
918	0.043805
930	0.054625
942	0.0586168
954	0.0585117
966	0.0454858
978	0.0505281
990	0.0490574
1002	0.0556754
1014	0.0690165
1026	0.0804668
1038	0.116183
1050	0.154631
1062	0.232681
1074	0.325439
1086	0.252535
1098	0.265876
1110	0.24119
1122	0.163665
1134	0.106834
1146	0.0796264
1158	0.0752144
1170	0.0762648
1182	0.0738487
1194	0.0581966
1206	0.0792062
1218	0.0850889
1230	0.0907615
1242	0.0802567
1254	0.0519988
1266	0.0455908
1278	0.0666004
1290	0.112717
1302	0.193709
1314	0.306635
1326	0.247808
1338	0.333317
1350	0.432167
1362	0.464732
1374	0.481645
1386	0.265876
1398	0.125217
1410	0.0689115
1422	0.0583016
1434	0.0758447
1446	0.0528391
1458	0.0492675
1470	0.0913918
1482	0.0455908
1494	0.0213247
1506	0.0116603
1518	0.0080887
1530	0.00882403
1542	0.00598774
1554	0.0103998
1566	0.0150219
1578	0.0185935
1590	0.0211146
1602	0.0248964
1614	0.0361365
1626	0.024056
1638	0.0260519
1650	0.0191187
1662	0.0156522
1674	0.0181733
1686	0.0243711
1698	0.0500028
1710	0.113662
1722	0.248123
1734	0.758447
1746	0.945747
1758	0.323338
1770	0.19602
1782	0.15316
1794	0.188876
1806	0.0742689
1818	0.0346658
1830	0.0182784
1842	0.0163875
1854	0.0147067
1866	0.0125007
1878	0.0138663
1890	0.00966442
1902	0.00934927
1914	0.00903413
1926	0.0080887
1938	0.0105048
1950	0.00945432
1962	0.00777355
1974	0.00966442
1986	0.00598774
1998	0.0052524
2010	0.00514735
2022	0.00556754
2034	0.00682812
2046	0.00724831
2058	0.00756346
2070	0.00798365
2082	0.00840384
2094	0.00819374
2106	0.00798365
2118	0.0076685
2130	0.00724831
2142	0.00493726
2154	0.00567259
2166	0.00819374
2178	0.00850889
2190	0.0078786
2202	0.00682812
2214	0.0052524
2226	0.00420192
2238	0.00409687
2250	0.00388678
2262	0.00472716
2274	0.00462211
2286	0.00483221
2298	0.00619783
2310	0.00724831
2322	0.00745841
2334	0.00598774
2346	0.00609278
2358	0.00535745
2370	0.00409687
2382	0.00388678
2394	0.00210096
2406	0.0024161
2418	0.00199591
2430	0.00231106
2442	0.00325649
2454	0.00315144
2466	0.00315144
2478	0.00252115
2490	0.00210096
2502	0.00273125
2514	0.00252115
2526	0.0026262
2538	0.0026262
2550	0.0024161
2562	0.00220601
2574	0.00220601
2586	0.00231106
2598	0.0026262
2610	0.0026262
2622	0.00304639
2634	0.00357163
2646	0.00462211
2658	0.00430697
2670	0.00493726
2682	0.00493726
2694	0.00588269
2706	0.00588269
2718	0.00640793
2730	0.00745841
2742	0.00850889
2754	0.00829879
2766	0.00903413
2778	0.0106098
2790	0.0112401
2802	0.0119755
2814	0.0138663
2826	0.0155471
2838	0.0195389
2850	0.0281529
2862	0.0445404
2874	0.0712225
2886	0.0972744
2898	0.0947533
2910	0.0909716
2922	0.100951
2934	0.110826
2946	0.122486
2958	0.139714
2970	0.185305
2982	0.125322
2994	0.0687014
3006	0.0266822
3018	0.0181733
3030	0.0136562
3042	0.015232
3054	0.0234257
3066	0.0326699
3078	0.0265771
3090	0.0390779
3102	0.0173329
3114	0.00934927
3126	0.00913918
3138	0.00577764
3150	0.00493726
3162	0.00472716
3174	0.00441202
3186	0.00388678
3198	0.00420192
3210	0.00420192
3222	0.00388678
3234	0.00336154
3246	0.0028363
3258	0.00231106
3270	0.00231106
3282	0.00189086
3294	0.0024161
3306	0.00210096
3318	0.0024161
3330	0.00325649
3342	0.0028363
3354	0.0028363
3366	0.0028363
3378	0.00273125
3390	0.00304639
3402	0.00273125
3414	0.00231106
3426	0.00325649
3438	0.00294134
3450	0.00357163
3462	0.00735336
3474	0.013236
3486	0.0107149
3498	0.00756346
3510	0.0116603
3522	0.00955937
3534	0.00703822
3546	0.00483221
3558	0.00357163
3570	0.0026262
3582	0.00336154
3594	0.00367668
3606	0.00367668
3618	0.00231106
3630	0.00420192
3642	0.00462211
3654	0.00483221
3666	0.00661802
3678	0.0076685
3690	0.00609278
3702	0.0028363
3714	0.0026262
3726	0.0028363
3738	0.00346658
3750	0.00378173
3762	0.00294134
3774	0.0026262
3786	0.00189086
3798	0.00325649
3810	0.00220601
3822	0.00420192
3834	0.00346658
3846	0.00357163
3858	0.00441202
3870	0.00451706
3882	0.00388678
3894	0.00273125
3906	0.00388678
3918	0.0054625
3930	0.00346658
3942	0.00493726
3954	0.00420192
3966	0.00304639
