Infrared Spectrum: Benzene, 1-nitro-2-phenoxy-
Formula: C 12 H 9 N O 3
CAS: 2216-12-8
Origin: Sadtler Research Labs Under US-EPA Contract
1/CM	ABSORBANCE
450	0.0295604
462	0.0315645
474	0.0265543
486	0.0641311
498	0.0437143
510	0.00864266
522	0.0122751
534	0.00538601
546	0.000751536
558	0.000751536
570	0.00551126
582	0.00300614
594	0.00350717
606	0.00450922
618	0.00713959
630	0.00576178
642	0.011273
654	0.0485993
666	0.093441
678	0.0678888
690	0.16158
702	0.0950693
714	0.0606239
726	0.0731495
738	0.250637
750	0.36938
762	0.187258
774	0.154065
786	0.103712
798	0.0817922
810	0.041585
822	0.031815
834	0.12463
846	0.198406
858	0.0320655
870	0.0576178
882	0.251765
894	0.0746526
906	0.0231724
918	0.010271
930	0.0062628
942	0.00889318
954	0.00475973
966	0.00338191
978	0.00726485
990	0.00450922
1002	0.00889318
1014	0.0204167
1026	0.0606239
1038	0.0422113
1050	0.0139034
1062	0.0239239
1074	0.045969
1086	0.0731495
1098	0.0485993
1110	0.020041
1122	0.0136529
1134	0.0216693
1146	0.037201
1158	0.154942
1170	0.13678
1182	0.0985765
1194	0.297107
1206	0.230221
1218	0.132521
1230	0.265793
1242	0.854997
1254	1.16375
1266	0.785731
1278	0.375517
1290	0.166215
1302	0.125005
1314	0.116989
1326	0.125131
1338	0.158449
1350	0.377522
1362	0.500147
1374	0.146424
1386	0.0566157
1398	0.0400819
1410	0.0349464
1422	0.0385788
1434	0.0450922
1446	0.0979502
1458	0.174482
1470	0.286711
1482	0.866646
1494	0.883305
1506	0.258027
1518	0.248007
1530	0.359735
1542	0.705317
1554	0.767444
1566	0.375893
1578	0.452049
1590	0.876667
1602	0.454554
1614	0.200284
1626	0.0909359
1638	0.0553632
1650	0.0359485
1662	0.0212935
1674	0.020542
1686	0.0196652
1698	0.0187884
1710	0.0160328
1722	0.0152812
1734	0.0162833
1746	0.0130266
1758	0.0121498
1770	0.0177864
1782	0.016158
1794	0.0145297
1806	0.0115236
1818	0.0101457
1830	0.0124003
1842	0.0147802
1854	0.0131519
1866	0.0131519
1878	0.0125256
1890	0.0134024
1902	0.0129014
1914	0.0211683
1926	0.0226713
1938	0.0192894
1950	0.0222956
1962	0.010772
1974	0.00576178
1986	0.00701434
1998	0.00851741
2010	0.00701434
2022	0.00663857
2034	0.00976997
2046	0.0137782
2058	0.00926894
2070	0.00688908
2082	0.00801638
2094	0.00563652
2106	0.00375768
2118	0.0031314
2130	0.00375768
2142	0.00463447
2154	0.00375768
2166	0.00300614
2178	0.00225461
2190	0.00187884
2202	0.00162833
2214	0.00212935
2226	0.00325666
2238	0.00400819
2250	0.00275563
2262	0.00237986
2274	0.00338191
2286	0.00400819
2298	0.00300614
2310	0.00450922
2322	0.00663857
2334	0.00526075
2346	0.00375768
2358	0.00789113
2370	0.00363242
2382	0.00814164
2394	0.00951946
2406	0.00839215
2418	0.00776587
2430	0.00864266
2442	0.0121498
2454	0.0106468
2466	0.00814164
2478	0.0073901
2490	0.00789113
2502	0.0062628
2514	0.0051355
2526	0.00438396
2538	0.00288089
2550	0.00350717
2562	0.00501024
2574	0.0042587
2586	0.00275563
2598	0.00250512
2610	0.00225461
2622	0.00388294
2634	0.00463447
2646	0.00288089
2658	0.00651331
2670	0.00663857
2682	0.00450922
2694	0.00488498
2706	0.00475973
2718	0.00400819
2730	0.00388294
2742	0.00338191
2754	0.00338191
2766	0.00225461
2778	0.00062628
2790	0
2802	0.00125256
2814	0.00338191
2826	0.0042587
2838	0.00613754
2850	0.00901843
2862	0.010772
2874	0.0124003
2886	0.0155317
2898	0.0176611
2910	0.0150307
2922	0.0117741
2934	0.0106468
2946	0.0093942
2958	0.00651331
2970	0.00501024
2982	0.00475973
2994	0.00563652
3006	0.00864266
3018	0.0190389
3030	0.0369505
3042	0.067012
3054	0.0786608
3066	0.0775335
3078	0.128137
3090	0.131268
3102	0.0587451
3114	0.0224208
3126	0.0093942
3138	0.00563652
3150	0.00475973
3162	0.00438396
3174	0.00576178
3186	0.00488498
3198	0.00538601
3210	0.00375768
3222	0.0051355
3234	0.00475973
3246	0.00501024
3258	0.00438396
3270	0.00438396
3282	0.00363242
3294	0.00388294
3306	0.00526075
3318	0.00638806
3330	0.00613754
3342	0.00688908
3354	0.00663857
3366	0.00889318
3378	0.0100205
3390	0.00901843
3402	0.0073901
3414	0.00638806
3426	0.00388294
3438	0.00400819
3450	0.00601229
3462	0.00563652
3474	0.00501024
3486	0.00576178
3498	0.00588703
3510	0.00576178
3522	0.00350717
3534	0.0042587
3546	0.00375768
3558	0.00237986
3570	0.00350717
3582	0.00350717
3594	0.00450922
3606	0.000876792
3618	0.00162833
3630	0.00062628
3642	0.00400819
3654	0.00350717
3666	0.00350717
3678	0.00150307
3690	0.00325666
3702	0.00350717
3714	0.00400819
3726	0.00300614
3738	0.00263038
3750	0.00250512
3762	0.00450922
3774	0.00275563
3786	0.0042587
3798	0.00325666
3810	0.0051355
3822	0.00713959
3834	0.00576178
3846	0.00651331
3858	0.00651331
3870	0.00375768
3882	0.00538601
3894	0.00713959
3906	0.00613754
3918	0.00651331
3930	0.0093942
3942	0.00413345
3954	0.0122751
3966	0.00538601
