Infrared Spectrum: Naphthalene, 1-methoxy-
Formula: C 11 H 10 O
CAS: 2216-69-5
Origin: Sadtler Research Labs Under US-EPA Contract
1/CM	ABSORBANCE
450	0.0312382
462	0.020414
474	0.0187999
486	0.0231676
498	0.0125333
510	0.00550704
522	0.00218383
534	0.0139575
546	0.0110141
558	0.0311433
570	0.085549
582	0.0501331
594	0.0440563
606	0.0363655
618	0.0134828
630	0.0102545
642	0.0123434
654	0.00721612
666	0.00408281
678	0.00493735
690	0.00977975
702	0.0444361
714	0.122959
726	0.0605775
738	0.0289594
750	0.121345
762	0.574916
774	0.63274
786	0.400115
798	0.253229
810	0.0583936
822	0.0133878
834	0.01861
846	0.0239271
858	0.0375998
870	0.0324726
882	0.0147171
894	0.00921005
906	0.009305
918	0.0104444
930	0.0138626
942	0.0171858
954	0.0338018
966	0.02801
978	0.0301938
990	0.0791875
1002	0.0977975
1014	0.193696
1026	0.177365
1038	0.0613371
1050	0.0803269
1062	0.166541
1074	0.178504
1086	0.144228
1098	0.495824
1110	0.747723
1122	0.151159
1134	0.048424
1146	0.0751996
1158	0.227213
1170	0.205754
1182	0.132454
1194	0.0765289
1206	0.0963732
1218	0.141854
1230	0.332132
1242	0.676512
1254	0.40059
1266	0.845426
1278	0.506743
1290	0.118212
1302	0.0808016
1314	0.0572542
1326	0.02801
1338	0.0323776
1350	0.0592482
1362	0.0631411
1374	0.0926702
1386	0.390525
1398	0.863751
1410	0.397646
1422	0.125143
1434	0.12951
1446	0.22256
1458	0.291968
1470	0.423852
1482	0.128466
1494	0.0902965
1506	0.24136
1518	0.219332
1530	0.0474745
1542	0.0178504
1554	0.0383594
1566	0.157995
1578	0.438
1590	0.528106
1602	0.235758
1614	0.0841248
1626	0.0865935
1638	0.0878278
1650	0.0352261
1662	0.0185151
1674	0.020509
1686	0.0263009
1698	0.0155716
1710	0.0320928
1722	0.0363655
1734	0.0158565
1746	0.0158565
1758	0.0194645
1770	0.013008
1782	0.00655148
1794	0.0141474
1806	0.0170908
1818	0.0273453
1830	0.0286746
1842	0.0152868
1854	0.00645653
1866	0.00151918
1878	0.00303837
1890	0.013008
1902	0.0338018
1914	0.02801
1926	0.0221231
1938	0.0202241
1950	0.024117
1962	0.014812
1974	0.0117737
1986	0.0108242
1998	0.00569694
2010	0.00256362
2022	0.00199393
2034	0.00199393
2046	0.00341816
2058	0.00674138
2070	0.00693128
2082	0.00797572
2094	0.0169009
2106	0.0173757
2118	0.00674138
2130	0.0048424
2142	0.00132929
2154	0.00161413
2166	0.00389291
2178	0.0046525
2190	0.00123434
2202	0.000189898
2214	0.00227878
2226	0.00313332
2238	0.00313332
2250	0.00313332
2262	0.00512725
2274	0.00370301
2286	0.00379796
2298	0.00322827
2310	0.00256362
2322	0.00237373
2334	0.00180403
2346	0.00104444
2358	0
2370	0.000569694
2382	0.000284847
2394	0
2406	0.00123434
2418	0.00360806
2430	0.00265857
2442	0.00142424
2454	0.00161413
2466	0.00237373
2478	0.00322827
2490	0.00379796
2502	0.00512725
2514	0.00474745
2526	0.00389291
2538	0.00408281
2550	0.00294342
2562	0.00218383
2574	0.00265857
2586	0.00408281
2598	0.0046525
2610	0.00550704
2622	0.00474745
2634	0.0048424
2646	0.00541209
2658	0.00522219
2670	0.00379796
2682	0.00265857
2694	0.00294342
2706	0.00322827
2718	0.00455755
2730	0.00522219
2742	0.00417776
2754	0.00341816
2766	0.0044626
2778	0.00721612
2790	0.011109
2802	0.0141474
2814	0.0225979
2826	0.0530765
2838	0.11109
2850	0.141759
2862	0.140619
2874	0.0702623
2886	0.0529815
2898	0.0776683
2910	0.113939
2922	0.151159
2934	0.143278
2946	0.29852
2958	0.302128
2970	0.162648
2982	0.0880177
2994	0.109571
3006	0.235379
3018	0.185151
3030	0.096753
3042	0.139195
3054	0.370681
3066	0.523454
3078	0.289594
3090	0.189233
3102	0.141189
3114	0.0529815
3126	0.0134828
3138	0.00721612
3150	0.00588684
3162	0.00560199
3174	0.00702623
3186	0.00626663
3198	0.00436765
3210	0.00474745
3222	0.00617169
3234	0.00531714
3246	0.00237373
3258	0.00104444
3270	0.000474745
3282	0.00104444
3294	0.000759592
3306	0.00104444
3318	0.000854541
3330	0.00132929
3342	0.000664643
3354	0.000664643
3366	0.00123434
3378	0.000664643
3390	0.00132929
3402	0.00094949
3414	0.00104444
3426	0.00151918
3438	0.000854541
3450	0.000759592
3462	0.000474745
3474	0.000664643
3486	0.00104444
3498	0.000474745
3510	0.00161413
3522	0.00180403
3534	0.00218383
3546	0.00142424
3558	0.00180403
3570	0.00123434
3582	0.00256362
3594	0.00246867
3606	0.00208888
3618	0.00237373
3630	0.00474745
3642	0.0119636
3654	0.0209837
3666	0.00769087
3678	0.00256362
3690	0.00218383
3702	0.00170908
3714	0.00123434
3726	0.00227878
3738	0.00237373
3750	0.00151918
3762	0.00132929
3774	0.000854541
3786	0
3798	0.000284847
3810	0.000664643
3822	0.00094949
3834	0.000664643
3846	0.00265857
3858	0.00313332
3870	0.00218383
3882	0.000474745
3894	0.00123434
3906	0.00142424
3918	0.00161413
3930	0.00170908
3942	0.00246867
3954	0.00332322
3966	0.00389291
