Infrared Spectrum: 2-Bromononane
Formula: C 9 H 19 Br
CAS: 2216-35-5
Origin: Sadtler Research Labs Under US-EPA Contract
1/CM	ABSORBANCE
450	0.0204975
462	0.0137808
474	0.0104224
486	0.0120437
498	0.0245507
510	0.0165601
522	0.0242032
534	0.0414582
546	0.0616083
558	0.0407634
570	0.0165601
582	0.02374
594	0.0176024
606	0.013665
618	0.0319622
630	0.0423846
642	0.0116963
654	0.00497961
666	0.00509542
678	0.0121595
690	0.00416898
702	0.00845377
714	0.0238558
726	0.0251297
738	0.0242032
750	0.0246665
762	0.0202659
774	0.0193394
786	0.0199185
798	0.0160969
810	0.0145914
822	0.0176024
834	0.0156337
846	0.0154021
858	0.0156337
870	0.0207291
882	0.0232768
894	0.0226978
906	0.0217713
918	0.0158653
930	0.0138966
942	0.0127385
954	0.0151705
966	0.0188762
978	0.0272142
990	0.0311515
1002	0.0299935
1014	0.0291829
1026	0.02374
1038	0.019571
1050	0.0160969
1062	0.0211923
1074	0.0226978
1086	0.0191078
1098	0.0185288
1110	0.0207291
1122	0.0312673
1134	0.0486381
1146	0.0551232
1158	0.0443533
1170	0.0592922
1182	0.0601028
1194	0.0668195
1206	0.0767787
1218	0.0815267
1230	0.0801371
1242	0.0640402
1254	0.0632295
1266	0.0529229
1278	0.0448165
1290	0.0471326
1302	0.0453956
1314	0.0375208
1326	0.0288354
1338	0.0311515
1350	0.0383315
1362	0.0420372
1374	0.0577867
1386	0.108162
1398	0.0340467
1410	0.0206133
1422	0.0255929
1434	0.0497961
1446	0.0958865
1458	0.148346
1470	0.131207
1482	0.050491
1494	0.0198027
1506	0.0128544
1518	0.0103066
1530	0.00752732
1542	0.0070641
1554	0.00625347
1566	0.00486381
1578	0.00440059
1590	0.00393737
1602	0.00382156
1614	0.00405318
1626	0.00370576
1638	0.00451639
1650	0.0046322
1662	0.00347415
1674	0.00370576
1686	0.004748
1698	0.00440059
1710	0.00324254
1722	0.00266351
1734	0.00289512
1746	0.00254771
1758	0.00254771
1770	0.00196868
1782	0.00196868
1794	0.00196868
1806	0.00173707
1818	0.00138966
1830	0.00115805
1842	0.00092644
1854	0.00092644
1866	0.00115805
1878	0.00127385
1890	0.00115805
1902	0.00115805
1914	0.00104225
1926	0.00092644
1938	0.000810635
1950	0.00115805
1962	0.00127385
1974	0.00150546
1986	0.00104225
1998	0.00138966
2010	0.00115805
2022	0.000810635
2034	0.00150546
2046	0.00138966
2058	0.00115805
2070	0.000810635
2082	0.000579025
2094	0
2106	0
2118	0.000115805
2130	0.000115805
2142	0.000347415
2154	0.00069483
2166	0.000810635
2178	0.00092644
2190	0.000810635
2202	0.00115805
2214	0.000810635
2226	0.000810635
2238	0.00069483
2250	0.000579025
2262	0.000579025
2274	0.00069483
2286	0.00046322
2298	0.00023161
2310	0.000115805
2322	0.00069483
2334	0.00023161
2346	0
2358	0.00196868
2370	0.00023161
2382	0
2394	0.00104225
2406	0.00115805
2418	0.00104225
2430	0.00185288
2442	0.00115805
2454	0.00150546
2466	0.00162127
2478	0.00150546
2490	0.00208449
2502	0.0024319
2514	0.00254771
2526	0.00289512
2538	0.00335834
2550	0.00393737
2562	0.00451639
2574	0.00486381
2586	0.00544284
2598	0.00590605
2610	0.00648508
2622	0.00636927
2634	0.00741152
2646	0.00729571
2658	0.00833796
2670	0.0092644
2682	0.010075
2694	0.0103066
2706	0.0101908
2718	0.0103066
2730	0.0115805
2742	0.0163285
2754	0.0150546
2766	0.0133176
2778	0.0137808
2790	0.017834
2802	0.0244349
2814	0.0318464
2826	0.04748
2838	0.0833796
2850	0.160043
2862	0.390031
2874	0.430679
2886	0.351005
2898	0.286965
2910	0.363512
2922	0.669353
2934	1.15805
2946	0.878381
2958	0.541967
2970	0.697841
2982	0.378451
2994	0.240759
3006	0.0953075
3018	0.0443533
3030	0.0303409
3042	0.0216555
3054	0.0171391
3066	0.0141282
3078	0.0122753
3090	0.0113489
3102	0.0103066
3114	0.00856957
3126	0.00799054
3138	0.00775893
3150	0.00787474
3162	0.00764313
3174	0.00764313
3186	0.00764313
3198	0.00752732
3210	0.0069483
3222	0.00532703
3234	0.00405318
3246	0.00347415
3258	0.0023161
3270	0.00312673
3282	0.0023161
3294	0.000579025
3306	0.00115805
3318	0
3330	0.00069483
3342	0.00104225
3354	0.00208449
3366	0.000347415
3378	0.00162127
3390	0.00138966
3402	0.000810635
3414	0.00162127
3426	0.00127385
3438	0.000810635
3450	0.00092644
3462	0.00127385
3474	0.00127385
3486	0.00138966
3498	0.00069483
3510	0.00104225
3522	0.00150546
3534	0.00173707
3546	0.00104225
3558	0.00185288
3570	0.00173707
3582	0.00173707
3594	0.00301093
3606	0.00301093
3618	0.00150546
3630	0.00289512
3642	0.00185288
3654	0.0024319
3666	0.0023161
3678	0.00138966
3690	0.00185288
3702	0.00173707
3714	0.00254771
3726	0.00127385
3738	0.00173707
3750	0.00254771
3762	0.0023161
3774	0.00301093
3786	0.00254771
3798	0.00428479
3810	0.00370576
3822	0.00277932
3834	0.00312673
3846	0.00220029
3858	0.00208449
3870	0.00301093
3882	0.00509542
3894	0.00185288
3906	0.00324254
3918	0.00138966
3930	0.004748
3942	0.00393737
3954	0.00301093
3966	0.0023161
