Infrared Spectrum: Ethyl N,N-dibutylcarbamate
Formula: C 11 H 23 N O 2
CAS: 2217-88-1
Origin: Sadtler Research Labs Under US-EPA Contract
1/CM	ABSORBANCE
450	0.0305735
462	0.0101415
474	0.00134225
486	0.00745695
498	0.00984317
510	0.00626384
522	0.00223709
534	0.00313192
546	0.00134225
558	0.00626384
570	0.00745695
582	0.00626384
594	0.00626384
606	0.00328106
618	0.0026845
630	0.0034302
642	0.00387761
654	0.00656212
666	0.00447417
678	0.00178967
690	0.000745695
702	0.00328106
714	0.00283364
726	0.00671126
738	0.0173001
750	0.0290821
762	0.027889
774	0.0768066
786	0.0426538
798	0.0195372
810	0.0123785
822	0.0105889
834	0.00969404
846	0.0105889
858	0.0101415
870	0.0105889
882	0.0228183
894	0.0346002
906	0.0263976
918	0.0104397
930	0.0144665
942	0.0295295
954	0.0193881
966	0.0120803
978	0.0116328
990	0.0125277
1002	0.0187915
1014	0.0445926
1026	0.0778506
1038	0.0451891
1050	0.0788945
1062	0.0964929
1074	0.101116
1086	0.160324
1098	0.206259
1110	0.165843
1122	0.081579
1134	0.0680074
1146	0.159579
1158	0.358232
1170	0.310358
1182	0.154508
1194	0.145261
1206	0.177774
1218	0.449207
1230	0.49887
1242	0.21998
1254	0.218339
1266	0.20611
1278	0.194179
1290	0.263976
1302	0.256817
1314	0.168527
1326	0.116328
1338	0.0841144
1350	0.0941067
1362	0.114688
1374	0.162263
1386	0.230867
1398	0.139743
1410	0.186125
1422	0.379708
1434	0.212523
1446	0.151376
1458	0.19582
1470	0.297085
1482	0.247123
1494	0.0981335
1506	0.0577168
1518	0.0393727
1530	0.0292312
1542	0.0354951
1554	0.0252045
1566	0.0158087
1578	0.012826
1590	0.0108871
1602	0.0095449
1614	0.0108871
1626	0.0168527
1638	0.0190898
1650	0.0260993
1662	0.0229674
1674	0.04504
1686	0.0630858
1698	0.10216
1710	0.38284
1722	1.49139
1734	0.431608
1746	0.107977
1758	0.065472
1770	0.0413115
1782	0.0255028
1794	0.0216252
1806	0.0149139
1818	0.0101415
1830	0.00984317
1842	0.00686039
1854	0.0026845
1866	0.00417589
1878	0.00193881
1890	0.00298278
1902	0.00238622
1914	0.00283364
1926	0.00223709
1938	0.00238622
1950	0.00283364
1962	0.0026845
1974	0.00253536
1986	0.00178967
1998	0.00208795
2010	0.00223709
2022	0.00283364
2034	0.00238622
2046	0.00253536
2058	0.00238622
2070	0.00238622
2082	0.00208795
2094	0.00208795
2106	0.00164053
2118	0.00119311
2130	0.000894834
2142	0.000745695
2154	0.000298278
2166	0.000596556
2178	0.000745695
2190	0.000745695
2202	0.000596556
2214	0.000596556
2226	0.000298278
2238	0.00119311
2250	0.00119311
2262	0.00134225
2274	0.00119311
2286	0.00149139
2298	0.00253536
2310	0.00298278
2322	0.00119311
2334	0.000149139
2346	0.000298278
2358	0.00178967
2370	0.000149139
2382	0.00253536
2394	0.00119311
2406	0.00104397
2418	0.000596556
2430	0
2442	0.000149139
2454	0.000596556
2466	0.000596556
2478	0.000596556
2490	0.000745695
2502	0.000596556
2514	0.00119311
2526	0.00104397
2538	0.000894834
2550	0.00119311
2562	0.00164053
2574	0.00193881
2586	0.00193881
2598	0.00193881
2610	0.00223709
2622	0.00253536
2634	0.0026845
2646	0.00298278
2658	0.00357934
2670	0.00432503
2682	0.00551814
2694	0.00581642
2706	0.00656212
2718	0.00760609
2730	0.00894834
2742	0.0104397
2754	0.0102906
2766	0.00939576
2778	0.0104397
2790	0.0125277
2802	0.0164053
2814	0.0208795
2826	0.0252045
2838	0.0341528
2850	0.0520495
2862	0.113495
2874	0.225051
2886	0.259353
2898	0.173449
2910	0.214313
2922	0.288286
2934	0.398052
2946	0.467103
2958	0.376427
2970	0.651588
2982	0.355995
2994	0.208795
3006	0.110959
3018	0.0575677
3030	0.037583
3042	0.0262485
3054	0.0180458
3066	0.0132734
3078	0.0114837
3090	0.0104397
3102	0.00909748
3114	0.00835178
3126	0.00715867
3138	0.00805351
3150	0.00790437
3162	0.00656212
3174	0.00626384
3186	0.00596556
3198	0.00581642
3210	0.00432503
3222	0.00283364
3234	0.00253536
3246	0.00193881
3258	0.00164053
3270	0.00164053
3282	0.00149139
3294	0.00164053
3306	0.00149139
3318	0.00193881
3330	0.00193881
3342	0.00238622
3354	0.00208795
3366	0.00164053
3378	0.00223709
3390	0.00223709
3402	0.00238622
3414	0.00328106
3426	0.00507073
3438	0.00283364
3450	0.000745695
3462	0.00178967
3474	0.00223709
3486	0.00149139
3498	0.00164053
3510	0.00104397
3522	0.000596556
3534	0.00149139
3546	0.000745695
3558	0.00134225
3570	0.00149139
3582	0.00193881
3594	0.00134225
3606	0.000894834
3618	0.000745695
3630	0.00119311
3642	0.00178967
3654	0.00134225
3666	0.00178967
3678	0.00119311
3690	0.00149139
3702	0.00164053
3714	0.00149139
3726	0.00119311
3738	0.00119311
3750	0.000596556
3762	0.00119311
3774	0.00134225
3786	0.00208795
3798	0.00178967
3810	0.00253536
3822	0.00178967
3834	0.00193881
3846	0.00223709
3858	0.00328106
3870	0.00134225
3882	0.00178967
3894	0.000894834
3906	0.00178967
3918	0.00253536
3930	0.00149139
3942	0.00134225
3954	0.00298278
3966	0.00193881
