Infrared Spectrum: Malonic acid, piperonyl-, diethyl ester
Formula: C 15 H 18 O 6
CAS: 22180-30-9
Origin: Sadtler Research Labs Under US-EPA Contract
1/CM	ABSORBANCE
450	0.0121728
462	0.0195709
474	0.00991664
486	0.0132222
498	0.0181543
510	0.0316913
522	0.00629628
534	0.0015216
546	0.00393517
558	0.00535184
570	0.00912961
582	0.0137469
594	0.0172623
606	0.0229814
618	0.0175771
630	0.0285956
642	0.021932
654	0.0129598
666	0.0142716
678	0.013537
690	0.0194135
702	0.0171049
714	0.0178395
726	0.0207253
738	0.016003
750	0.0190987
762	0.0243456
774	0.0332129
786	0.0487962
798	0.0893022
810	0.116429
822	0.0534659
834	0.0411357
846	0.0544628
858	0.0958084
870	0.0635924
882	0.0420801
894	0.0339474
906	0.0417129
918	0.0794905
930	0.104676
942	0.0996386
954	0.0687344
966	0.0475894
978	0.0497931
990	0.0589227
1002	0.0826387
1014	0.130123
1026	0.195185
1038	0.295138
1050	0.28711
1062	0.189413
1074	0.124824
1086	0.119997
1098	0.174564
1110	0.145811
1122	0.176611
1134	0.231756
1146	0.323052
1158	0.302012
1170	0.267487
1182	0.274675
1194	0.313765
1206	0.284277
1218	0.340419
1230	0.383024
1242	0.480249
1254	0.412774
1266	0.241987
1278	0.208407
1290	0.159978
1302	0.12645
1314	0.10987
1326	0.139358
1338	0.150796
1350	0.0973825
1362	0.119105
1374	0.132642
1386	0.0650091
1398	0.058398
1410	0.0464351
1422	0.0619659
1434	0.126555
1446	0.23653
1458	0.100793
1470	0.107666
1482	0.196601
1494	0.34766
1506	0.175824
1518	0.0358363
1530	0.0172623
1542	0.00865739
1554	0.0045648
1566	0.00550925
1578	0.00760801
1590	0.0128024
1602	0.0230864
1614	0.0216697
1626	0.017
1638	0.0156882
1650	0.0172623
1662	0.0227191
1674	0.0291203
1686	0.044074
1698	0.0682097
1710	0.105778
1722	0.184061
1734	0.273888
1746	0.379666
1758	0.374839
1770	0.226404
1782	0.0695739
1794	0.0273363
1806	0.0149012
1818	0.00876232
1830	0.00750307
1842	0.00771294
1854	0.00603393
1866	0.00508949
1878	0.00404011
1890	0.00215123
1902	0.000891973
1914	0.000577159
1926	0.000209876
1938	5.2469e-05
1950	0.000314814
1962	0.00052469
1974	0.00052469
1986	0.000944442
1998	0.00209876
2010	0.00320061
2022	0.0037253
2034	0.00393517
2046	0.00430246
2058	0.00330555
2070	0.00283333
2082	0.0022037
2094	0.00183642
2106	0.00120679
2118	0.000944442
2130	0.000944442
2142	0.000944442
2154	0.000682097
2166	0.000577159
2178	0.000682097
2190	0.00125926
2202	0.00131173
2214	0.00141666
2226	0.0015216
2238	0.00178395
2250	0.00209876
2262	0.00230864
2274	0.00293826
2286	0.00629628
2298	0.0124352
2310	0.016003
2322	0.011071
2334	0.00435493
2346	0.00755554
2358	0.00996911
2370	0.00886726
2382	0.0131173
2394	0.00362036
2406	0.00330555
2418	0.00272839
2430	0.00246604
2442	0.00267592
2454	0.00230864
2466	0.00225617
2478	0.00225617
2490	0.00173148
2502	0.00162654
2514	0.00230864
2526	0.00309567
2538	0.00414505
2550	0.00367283
2562	0.00341048
2574	0.00362036
2586	0.00393517
2598	0.00472221
2610	0.00477468
2622	0.00330555
2634	0.00278086
2646	0.00278086
2658	0.00330555
2670	0.00430246
2682	0.00519443
2694	0.00535184
2706	0.00577159
2718	0.00650616
2730	0.00787035
2742	0.00928701
2754	0.0120154
2766	0.0199907
2778	0.0310092
2790	0.0155308
2802	0.0149012
2814	0.0178919
2826	0.0227715
2838	0.0309042
2850	0.0417129
2862	0.0622282
2874	0.0929226
2886	0.102839
2898	0.0992189
2910	0.103049
2922	0.100793
2934	0.115065
2946	0.123774
2958	0.10966
2970	0.125453
2982	0.160398
2994	0.137311
3006	0.0868362
3018	0.0599196
3030	0.0406635
3042	0.030537
3054	0.0218271
3066	0.0190462
3078	0.0179444
3090	0.0122253
3102	0.0098117
3114	0.00839504
3126	0.00697838
3138	0.00598147
3150	0.00498455
3162	0.00435493
3174	0.00398764
3186	0.00367283
3198	0.00356789
3210	0.00346295
3222	0.00330555
3234	0.00272839
3246	0.0028858
3258	0.00251851
3270	0.00183642
3282	0.00241357
3294	0.00246604
3306	0.00225617
3318	0.00267592
3330	0.00241357
3342	0.00262345
3354	0.00267592
3366	0.00225617
3378	0.00241357
3390	0.00272839
3402	0.00278086
3414	0.00314814
3426	0.00362036
3438	0.00451233
3450	0.00514196
3462	0.00682097
3474	0.00624381
3486	0.00535184
3498	0.00435493
3510	0.00362036
3522	0.00309567
3534	0.00278086
3546	0.00262345
3558	0.0028858
3570	0.00246604
3582	0.00246604
3594	0.00230864
3606	0.00299073
3618	0.00241357
3630	0.00183642
3642	0.00356789
3654	0.00335802
3666	0.00503702
3678	0.00241357
3690	0.00424999
3702	0.00383024
3714	0.0022037
3726	0.00215123
3738	0.00341048
3750	0.00325308
3762	0.00293826
3774	0.00257098
3786	0.00314814
3798	0.00209876
3810	0.00398764
3822	0.00299073
3834	0.00346295
3846	0.00477468
3858	0.00314814
3870	0.00173148
3882	0.00246604
3894	0.0030432
3906	0.00377777
3918	0.000682097
3930	0.00257098
3942	0.00508949
3954	0.00356789
3966	0.00388271
