Infrared Spectrum: Phenol, 2-(1,1-dimethylethyl)-6-methyl-
Formula: C 11 H 16 O
CAS: 2219-82-1
Origin: Sadtler Research Labs Under US-EPA Contract
1/CM	ABSORBANCE
450	0.00420217
462	0.00517659
474	0.00876974
486	0.0164433
498	0.017235
510	0.00444577
522	0.0117539
534	0.00883064
546	0.00907425
558	0.0201582
570	0.0280754
582	0.00761262
594	0.00334955
606	0.00164433
618	0.00316685
630	0.0108404
642	0.0126065
654	0.00542019
666	0.0057856
678	0.00389766
690	0.00456757
702	0.00420217
714	0.00986596
726	0.0484772
738	0.186722
750	0.123568
762	0.0409864
774	0.123812
786	0.0828254
798	0.0212544
810	0.00846524
822	0.0216808
834	0.0616318
846	0.029537
858	0.00511568
870	0.011084
882	0.0375759
894	0.0439705
906	0.0124847
918	0.0119366
930	0.0190011
942	0.0138854
954	0.00998776
966	0.00864794
978	0.00931785
990	0.0119975
1002	0.0160779
1014	0.0169305
1026	0.0171132
1038	0.0136418
1050	0.010475
1062	0.0150425
1074	0.0408037
1086	0.0758826
1098	0.127709
1110	0.0715587
1122	0.0573078
1134	0.122655
1146	0.0938484
1158	0.057795
1170	0.115956
1182	0.162423
1194	0.333007
1206	0.423566
1218	0.19062
1230	0.115895
1242	0.0937266
1254	0.0819727
1266	0.166686
1278	0.146771
1290	0.0545673
1302	0.0711324
1314	0.104384
1326	0.093483
1338	0.0358098
1350	0.0235687
1362	0.0839216
1374	0.113459
1386	0.0672347
1398	0.0781969
1410	0.0527403
1422	0.146101
1434	0.322105
1446	0.243604
1458	0.194822
1470	0.165773
1482	0.151643
1494	0.108038
1506	0.0336783
1518	0.0186966
1530	0.0113885
1542	0.0142508
1554	0.014129
1566	0.0102923
1578	0.0174786
1590	0.0331301
1602	0.0316685
1614	0.0190011
1626	0.0144335
1638	0.0152252
1650	0.00736902
1662	0.0138245
1674	0.0170523
1686	0.0107186
1698	0.00876974
1710	0.00420217
1722	0.00274055
1734	0.00529839
1746	0.00237514
1758	0.00371496
1770	0.00548109
1782	0.00876974
1794	0.00870884
1806	0.00468938
1818	0.00499388
1830	0.00542019
1842	0.0139463
1854	0.0118757
1866	0.00237514
1878	0.00298415
1890	0.00383676
1902	0.0101705
1914	0.0111449
1926	0.00353226
1938	0.00158343
1950	0.00127892
1962	0.00109622
1974	0.00158343
1986	0.00182703
1998	0.00146162
2010	0.00158343
2022	0.00243604
2034	0.00310595
2046	0.00237514
2058	0.00207063
2070	0.00298415
2082	0.00255784
2094	0.00103532
2106	0.000791713
2118	0.000974416
2130	0.00103532
2142	0.00194883
2154	0.00200973
2166	0.00219244
2178	0.00158343
2190	0.00152253
2202	0.00140072
2214	0.00170523
2226	0.00194883
2238	0.00140072
2250	0.00133982
2262	0.00219244
2274	0.00207063
2286	0.00219244
2298	0.00182703
2310	0.000913515
2322	0.00213153
2334	0.000548109
2346	0.00146162
2358	0.00371496
2370	0.000304505
2382	0.00225334
2394	0.00475028
2406	0.00426307
2418	0.00438487
2430	0.00481118
2442	0.00468938
2454	0.00475028
2466	0.00334955
2478	0.00280145
2490	0.00200973
2502	0.00188793
2514	0.00274055
2526	0.00133982
2538	0.000304505
2550	0.00115712
2562	0.00176613
2574	0.00274055
2586	0.00334955
2598	0.00274055
2610	0.00188793
2622	0.00231424
2634	0.00328865
2646	0.00322775
2658	0.00261874
2670	0.00328865
2682	0.00322775
2694	0.00316685
2706	0.00468938
2718	0.00676001
2730	0.00870884
2742	0.0109013
2754	0.0110231
2766	0.00742992
2778	0.00718632
2790	0.00974416
2802	0.0101096
2814	0.0126674
2826	0.0179658
2838	0.0231424
2850	0.0390375
2862	0.0948229
2874	0.199938
2886	0.225029
2898	0.203653
2910	0.231607
2922	0.299268
2934	0.294883
2946	0.301277
2958	0.479839
2970	0.60901
2982	0.376734
2994	0.139159
3006	0.114372
3018	0.0886719
3030	0.0658949
3042	0.0814246
3054	0.0945184
3066	0.0940311
3078	0.0667475
3090	0.0655295
3102	0.0566379
3114	0.0193056
3126	0.0104141
3138	0.00816073
3150	0.00858704
3162	0.00767353
3174	0.00931785
3186	0.00943965
3198	0.00694271
3210	0.00651641
3222	0.00523749
3234	0.0057856
3246	0.00511568
3258	0.00316685
3270	0.00475028
3282	0.00468938
3294	0.0062119
3306	0.00542019
3318	0.00468938
3330	0.00377586
3342	0.00359316
3354	0.00450667
3366	0.00462848
3378	0.00426307
3390	0.0062728
3402	0.00438487
3414	0.00523749
3426	0.00365406
3438	0.00298415
3450	0.00401947
3462	0.00347136
3474	0.00341046
3486	0.000304505
3498	0.00267964
3510	0.000974416
3522	0.00231424
3534	0.00298415
3546	0.00200973
3558	0.00207063
3570	0.00347136
3582	0.00499388
3594	0.00511568
3606	0.00773443
3618	0.0162606
3630	0.05475
3642	0.169305
3654	0.190316
3666	0.121071
3678	0.128136
3690	0.0600484
3702	0.019671
3714	0.00785623
3726	0.00499388
3738	0.00304505
3750	0.00176613
3762	0.00225334
3774	0.00243604
3786	0.000487208
3798	0.00261874
3810	0.00328865
3822	0.00243604
3834	0.00103532
3846	0.00511568
3858	0.0060292
3870	0.00499388
3882	0.0063337
3894	0.00755172
3906	0.00121802
3918	0.00322775
3930	0.00261874
3942	0.00377586
3954	0.00529839
3966	0.00341046
