Infrared Spectrum: 3,8-Diazabicyclo[3.2.1]octan-2-one, 8-methyl-3-(3-methyl-2-butenyl)-,
Formula: C 12 H 20 N 2 O
CAS: 22315-31-7
Origin: Sadtler Research Labs Under US-EPA Contract
1/CM	ABSORBANCE
450	0.0218927
462	0.00898163
474	0.00799927
486	0.0116481
498	0.0279273
510	0.0625907
522	0.049399
534	0.028629
546	0.0127708
558	0.0120691
570	0.00771859
582	0.00392946
594	0.00252608
606	0.000561352
618	0.0011227
630	0.00477149
642	0.0144548
654	0.0040698
666	0.00154372
678	0.00926231
690	0.0127708
702	0.0119287
714	0.0242785
726	0.0276466
738	0.0381719
750	0.0164195
762	0.0168406
774	0.0227348
786	0.0234364
798	0.0263835
810	0.0268046
822	0.0155775
834	0.0273659
846	0.0287693
858	0.0283483
870	0.0304533
882	0.0259625
894	0.0225944
906	0.0137531
918	0.0305937
930	0.0218927
942	0.0356459
954	0.030313
966	0.0421014
978	0.0822381
990	0.0839221
1002	0.143846
1014	0.0684849
1026	0.0341021
1038	0.0289096
1050	0.0296113
1062	0.0246995
1074	0.0297517
1086	0.0345231
1098	0.0416804
1110	0.0660992
1122	0.0687656
1134	0.12055
1146	0.14118
1158	0.17444
1170	0.252187
1182	0.138093
1194	0.0767649
1206	0.0955702
1218	0.146232
1230	0.150302
1242	0.143004
1254	0.180194
1266	0.321655
1278	0.272115
1290	0.185246
1302	0.152968
1314	0.124901
1326	0.126164
1338	0.160968
1350	0.1496
1362	0.100061
1374	0.080133
1386	0.0874306
1398	0.0592226
1410	0.0923424
1422	0.17023
1434	0.234645
1446	0.230996
1458	0.180896
1470	0.206016
1482	0.2324
1494	0.184685
1506	0.0559949
1518	0.0317164
1530	0.0220331
1542	0.0181036
1554	0.0182439
1566	0.0183843
1578	0.0230154
1590	0.0230154
1602	0.0200683
1614	0.0225944
1626	0.0300323
1638	0.0478553
1650	0.0842028
1662	0.16195
1674	0.515181
1686	1.37096
1698	0.870797
1710	0.195912
1722	0.0753615
1734	0.0399963
1746	0.0249802
1758	0.0159985
1770	0.0154372
1782	0.0158582
1794	0.0151565
1806	0.00926231
1818	0.00463115
1830	0.00308744
1842	0.00252608
1854	0.00266642
1866	0.00266642
1878	0.00210507
1890	0.00154372
1902	0.000982366
1914	0.000561352
1926	0.000421014
1938	0.00126304
1950	0.00126304
1962	0.00182439
1974	0.00210507
1986	0.00168406
1998	0.00126304
2010	0.00126304
2022	0.00070169
2034	0.000842028
2046	0.00070169
2058	0.000561352
2070	0.000421014
2082	0
2094	0.000140338
2106	0.000421014
2118	0.00126304
2130	0.00168406
2142	0.00210507
2154	0.00224541
2166	0.00196473
2178	0.00182439
2190	0.00168406
2202	0.00196473
2214	0.00224541
2226	0.00154372
2238	0.000982366
2250	0.000842028
2262	0.00070169
2274	0.00070169
2286	0
2298	0.000561352
2310	0.0011227
2322	0.00210507
2334	0.00266642
2346	0.00350845
2358	0.00322777
2370	0.00364879
2382	0.00322777
2394	0.00154372
2406	0.00182439
2418	0.00182439
2430	0.00168406
2442	0.00126304
2454	0.00168406
2466	0.00140338
2478	0.00126304
2490	0.000842028
2502	0.000982366
2514	0.00140338
2526	0.00168406
2538	0.00168406
2550	0.00182439
2562	0.00182439
2574	0.00238575
2586	0.00238575
2598	0.00224541
2610	0.00210507
2622	0.00210507
2634	0.00238575
2646	0.00308744
2658	0.00392946
2670	0.00449082
2682	0.00519251
2694	0.0058942
2706	0.00673622
2718	0.00842028
2730	0.0129111
2742	0.0200683
2754	0.0224541
2766	0.0270852
2778	0.0297517
2790	0.0440661
2802	0.123217
2814	0.104271
2826	0.0717127
2838	0.0972542
2850	0.1743
2862	0.266923
2874	0.310708
2886	0.337092
2898	0.347898
2910	0.3239
2922	0.389298
2934	0.488517
2946	0.495393
2958	0.474202
2970	0.475465
2982	0.561071
2994	0.238715
3006	0.0993593
3018	0.0679236
3030	0.0512234
3042	0.0423821
3054	0.0366282
3066	0.0308744
3078	0.0244188
3090	0.019507
3102	0.0148758
3114	0.0123497
3126	0.00940265
3138	0.00870096
3150	0.00715724
3162	0.00575386
3174	0.00477149
3186	0.00378913
3198	0.00308744
3210	0.00210507
3222	0.00168406
3234	0.0011227
3246	0.0011227
3258	0.00154372
3270	0.00154372
3282	0.00210507
3294	0.00224541
3306	0.00196473
3318	0.00182439
3330	0.00350845
3342	0.00617487
3354	0.0102447
3366	0.00926231
3378	0.00463115
3390	0.00196473
3402	0.0011227
3414	0.0011227
3426	0.000982366
3438	0.000842028
3450	0.00126304
3462	0.00140338
3474	0.000842028
3486	0.00070169
3498	0.000982366
3510	0.000561352
3522	0.000842028
3534	0.000561352
3546	0.0011227
3558	0.000140338
3570	0.000982366
3582	0.000982366
3594	0.00168406
3606	0.000561352
3618	0.00154372
3630	0.00210507
3642	0.000982366
3654	0.0011227
3666	0.000842028
3678	0.00182439
3690	0.0011227
3702	0.00154372
3714	0.00140338
3726	0.00154372
3738	0.00224541
3750	0.00182439
3762	0.00126304
3774	0.00168406
3786	0.000982366
3798	0.00196473
3810	0.000982366
3822	0.00154372
3834	0.00210507
3846	0.00126304
3858	0.00252608
3870	0.00210507
3882	0.00140338
3894	0.00238575
3906	0.00224541
3918	0.00224541
3930	0.0029471
3942	0.0029471
3954	0.00364879
3966	0.00168406
