Infrared Spectrum: Malonic acid, allyl-1-methylbutyl-, diethyl ester
Formula: C 15 H 26 O 4
CAS: 22328-93-4
Origin: Sadtler Research Labs Under US-EPA Contract
1/CM	ABSORBANCE
450	0.0318376
462	0.0402126
474	0.0116354
486	0.0152795
498	0.0171335
510	0.00747993
522	0.015727
534	0.015727
546	0.0162385
558	0.0189236
570	0.0244856
582	0.0203301
594	0.0112519
606	0.0132976
618	0.0169417
630	0.00958965
642	0.0197547
654	0.0244216
666	0.0161745
678	0.0161745
690	0.0125305
702	0.0161745
714	0.0159188
726	0.0106125
738	0.013873
750	0.0199465
762	0.0193072
774	0.013937
786	0.0193072
798	0.0063931
810	0.0145763
822	0.0125305
834	0.0172614
846	0.0248052
858	0.0380389
870	0.0443681
882	0.0282575
894	0.0227594
906	0.031518
918	0.0958965
930	0.0405323
942	0.0171335
954	0.0158549
966	0.0264674
978	0.0345867
990	0.0572822
1002	0.0637392
1014	0.0758861
1026	0.115204
1038	0.170632
1050	0.181244
1062	0.147872
1074	0.10587
1086	0.0916771
1098	0.137516
1110	0.183929
1122	0.22606
1134	0.227147
1146	0.196844
1158	0.149662
1170	0.148831
1182	0.232965
1194	0.361274
1206	0.463244
1218	0.555369
1230	0.424246
1242	0.261797
1254	0.167307
1266	0.139881
1278	0.143397
1290	0.107596
1302	0.0982619
1314	0.0761418
1326	0.0505055
1338	0.0403405
1350	0.0363767
1362	0.0421945
1374	0.073201
1386	0.0707716
1398	0.0469254
1410	0.0334998
1422	0.0336277
1434	0.0489072
1446	0.0595198
1458	0.0636113
1470	0.0794662
1482	0.0471171
1494	0.0202661
1506	0.0124026
1518	0.00926999
1530	0.00786351
1542	0.00575379
1554	0.00696848
1566	0.00703241
1578	0.00568986
1590	0.00588165
1602	0.00562593
1614	0.00645703
1626	0.0106765
1638	0.0285132
1650	0.0155992
1662	0.0115715
1674	0.0132337
1686	0.0170696
1698	0.0294083
1710	0.0494826
1722	0.103121
1734	0.396948
1746	0.612779
1758	0.32803
1770	0.106637
1782	0.0427059
1794	0.0228873
1806	0.0153434
1818	0.0122748
1830	0.0122108
1842	0.0125305
1854	0.00684062
1866	0.00402765
1878	0.00434731
1890	0.00485876
1902	0.00517841
1914	0.00447517
1926	0.00377193
1938	0.00338834
1950	0.00294083
1962	0.00338834
1974	0.00319655
1986	0.00364407
1998	0.00358014
2010	0.00332441
2022	0.00300476
2034	0.00294083
2046	0.00338834
2058	0.00402765
2070	0.00479482
2082	0.00428338
2094	0.00383586
2106	0.00332441
2118	0.00306869
2130	0.00281296
2142	0.00306869
2154	0.00294083
2166	0.00262117
2178	0.00287689
2190	0.0026851
2202	0.00294083
2214	0.00255724
2226	0.0026851
2238	0.00274903
2250	0.00313262
2262	0.00281296
2274	0.0026851
2286	0.00236545
2298	0.00294083
2310	0.00294083
2322	0.00236545
2334	0.00210972
2346	0.00210972
2358	0.00242938
2370	0.0026851
2382	0.00294083
2394	0.00255724
2406	0.00287689
2418	0.00262117
2430	0.00217365
2442	0.00172614
2454	0.00153434
2466	0.00127862
2478	0.00147041
2490	0.00134255
2502	0.0010229
2514	0.000767172
2526	0.00127862
2538	0.00108683
2550	0.000958965
2562	0.00115076
2574	0.00147041
2586	0.00172614
2598	0.00121469
2610	0.00242938
2622	0.00179007
2634	0.00166221
2646	0.00159827
2658	0.00166221
2670	0.00140648
2682	0.00198186
2694	0.00249331
2706	0.0026851
2718	0.00332441
2730	0.00460303
2742	0.00588165
2754	0.00607344
2766	0.005562
2778	0.0063931
2790	0.00703241
2802	0.00786351
2814	0.0100372
2826	0.0130419
2838	0.016686
2850	0.0221841
2862	0.0359292
2874	0.0749911
2886	0.116738
2898	0.0854757
2910	0.0962801
2922	0.117313
2934	0.169034
2946	0.231622
2958	0.199529
2970	0.327455
2982	0.283214
2994	0.208863
3006	0.0997324
3018	0.0581133
3030	0.0357374
3042	0.0223119
3054	0.0168778
3066	0.0172614
3078	0.0273625
3090	0.0511448
3102	0.0104847
3114	0.00779958
3126	0.00607344
3138	0.00594558
3150	0.00588165
3162	0.00511448
3174	0.00473089
3186	0.00441124
3198	0.00434731
3210	0.00409158
3222	0.00262117
3234	0.00223758
3246	0.00217365
3258	0.00210972
3270	0.00179007
3282	0.00134255
3294	0.00166221
3306	0.00179007
3318	0.00217365
3330	0.00140648
3342	0.001854
3354	0.00179007
3366	0.00121469
3378	0.00121469
3390	0.00217365
3402	0.00345227
3414	0.00179007
3426	0.00223758
3438	0.00306869
3450	0.003708
3462	0.00543413
3474	0.00588165
3486	0.00479482
3498	0.00364407
3510	0.003708
3522	0.0026851
3534	0.00274903
3546	0.00287689
3558	0.00287689
3570	0.00281296
3582	0.0026851
3594	0.00217365
3606	0.00223758
3618	0.00274903
3630	0.00306869
3642	0.00338834
3654	0.00115076
3666	0.00179007
3678	0.00242938
3690	0.00147041
3702	0.00281296
3714	0.00153434
3726	0.00262117
3738	0.00287689
3750	0.00166221
3762	0.00326048
3774	0.00249331
3786	0.00274903
3798	0.00127862
3810	0.00549807
3822	0.000575379
3834	0.00287689
3846	0.00300476
3858	0.00294083
3870	0.00447517
3882	0.00294083
3894	0.000831103
3906	0.000895034
3918	0.001854
3930	0.00294083
3942	0.00287689
3954	0.00127862
3966	0.00179007
