Infrared Spectrum: Ethanone, 1-(2,4-dichlorophenyl)-
Formula: C 8 H 6 Cl 2 O
CAS: 2234-16-4
Origin: Sadtler Research Labs Under US-EPA Contract
1/CM	ABSORBANCE
450	0.0160696
462	0.0186868
474	0.0099977
486	0.0137141
498	0.0352799
510	0.0635456
522	0.0330814
534	0.0060719
546	0.00340236
558	0.0146563
570	0.0307783
582	0.036222
594	0.0269572
606	0.021304
618	0.0250204
630	0.029679
642	0.00711878
654	0.00711878
666	0.00209376
678	0.0215134
690	0.0118297
702	0.00167501
714	0.00486799
726	0.0060719
738	0.00512971
750	0.00863676
762	0.00376877
774	0.0070141
786	0.0284751
798	0.0776262
810	0.298727
822	0.39436
834	0.0927536
846	0.0224556
858	0.0380541
870	0.0931723
882	0.0379494
894	0.00847973
906	0.00397814
918	0.00638597
930	0.0127719
942	0.0358556
954	0.0748519
966	0.0796152
978	0.0392057
990	0.024497
1002	0.0246017
1014	0.0343377
1026	0.048994
1038	0.0789871
1050	0.057055
1062	0.0298361
1074	0.0442307
1086	0.144365
1098	0.293493
1110	0.179174
1122	0.0612948
1134	0.0573167
1146	0.0644878
1158	0.0183204
1170	0.0175352
1182	0.0233454
1194	0.0292603
1206	0.0361697
1218	0.115628
1230	0.334897
1242	0.150908
1254	0.120496
1266	0.354788
1278	0.133634
1290	0.0283704
1302	0.0183727
1314	0.0188438
1326	0.0262767
1338	0.0433408
1350	0.0955278
1362	0.256433
1374	0.270304
1386	0.128347
1398	0.0594628
1410	0.0423986
1422	0.0482088
1434	0.0631792
1446	0.0728105
1458	0.0990348
1470	0.147348
1482	0.0561651
1494	0.024497
1506	0.022822
1518	0.0280564
1530	0.0365361
1542	0.0708738
1554	0.12327
1566	0.116151
1578	0.299408
1590	0.461098
1602	0.0801387
1614	0.0284751
1626	0.0291033
1638	0.0283704
1650	0.0258056
1662	0.0354369
1674	0.0628651
1686	0.100867
1698	0.187706
1710	0.457015
1722	0.433879
1734	0.184617
1746	0.0899793
1758	0.045644
1770	0.0237118
1782	0.0138188
1794	0.00926489
1806	0.00565315
1818	0.00460627
1830	0.00403049
1842	0.00355939
1854	0.00455393
1866	0.00460627
1878	0.0052344
1890	0.00889848
1902	0.0086891
1914	0.00659534
1926	0.00455393
1938	0.0039258
1950	0.00298361
1962	0.00209376
1974	0.00198907
1986	0.0026172
1998	0.00183204
2010	0.000994536
2022	0.000471096
2034	0.00104688
2046	0.00157032
2058	0.00115157
2070	0.00151798
2082	0.000994536
2094	0.000994536
2106	0.000471096
2118	0.000314064
2130	0
2142	0
2154	0
2166	0.00026172
2178	0.000471096
2190	0.000942192
2202	0.000994536
2214	0.000942192
2226	0.000366408
2238	0.000418752
2250	0.000471096
2262	0.00104688
2274	0.00162266
2286	0.00188438
2298	0.00287892
2310	0.00282658
2322	0.00266954
2334	0.00157032
2346	0.00188438
2358	0.0017797
2370	0.00120391
2382	0.0013086
2394	0.000837504
2406	0.00125626
2418	0.000680472
2430	0.000575784
2442	0.000418752
2454	0.000314064
2466	0.000837504
2478	0.000575784
2490	0.00183204
2502	0.00282658
2514	0.00282658
2526	0.00324533
2538	0.00303595
2550	0.00183204
2562	0.00078516
2574	0.000732816
2586	0.000732816
2598	0.000837504
2610	0.000628128
2622	0.00125626
2634	0.0017797
2646	0.00188438
2658	0.00183204
2670	0.00120391
2682	0.00219845
2694	0.0026172
2706	0.00172735
2718	0.00109922
2730	0.00115157
2742	0.00078516
2754	0.000471096
2766	0.000628128
2778	0.00120391
2790	0.00125626
2802	0.00115157
2814	0.00183204
2826	0.0017797
2838	0.00282658
2850	0.00340236
2862	0.0026172
2874	0.00266954
2886	0.00240782
2898	0.00298361
2910	0.00418752
2922	0.00622894
2934	0.01005
2946	0.00957895
2958	0.0086891
2970	0.0101024
2982	0.0119344
2994	0.0146563
3006	0.0203095
3018	0.0226126
3030	0.0167501
3042	0.0124055
3054	0.0103118
3066	0.012929
3078	0.0155462
3090	0.0132954
3102	0.00947426
3114	0.00591487
3126	0.0043969
3138	0.0034547
3150	0.0039258
3162	0.00350705
3174	0.0030883
3186	0.00246017
3198	0.00235548
3210	0.0021461
3222	0.00219845
3234	0.00266954
3246	0.00293126
3258	0.00282658
3270	0.00225079
3282	0.00282658
3294	0.00340236
3306	0.00329767
3318	0.00423986
3330	0.00340236
3342	0.00335002
3354	0.00366408
3366	0.00492034
3378	0.00596722
3390	0.00853207
3402	0.00952661
3414	0.00957895
3426	0.00816566
3438	0.00659534
3450	0.00549612
3462	0.00481565
3474	0.00376877
3486	0.00324533
3498	0.00272189
3510	0.00240782
3522	0.00272189
3534	0.00287892
3546	0.00287892
3558	0.00230314
3570	0.00230314
3582	0.00188438
3594	0.00251251
3606	0.00251251
3618	0.00198907
3630	0.0017797
3642	0.00109922
3654	0.000575784
3666	0.00104688
3678	0.00115157
3690	0.000104688
3702	0.000209376
3714	0.000680472
3726	0.00026172
3738	5.2344e-05
3750	0.000366408
3762	0
3774	0
3786	0
3798	0
3810	0
3822	0
3834	0
3846	0
3858	0
3870	0
3882	0
3894	0.000104688
3906	0
3918	0
3930	0
3942	0
3954	0
3966	0
