Infrared Spectrum: Propiophenone, 4-tert-butyl-2-hydroxy-,
Formula: C 13 H 18 O 2
CAS: 22362-62-5
Origin: Sadtler Research Labs Under US-EPA Contract
1/CM	ABSORBANCE
450	0.0313063
462	0.0320667
474	0.0254759
486	0.00291516
498	0.00354889
510	0.00570357
522	0.0143223
534	0.0128013
546	0.0155898
558	0.0211666
570	0.0111536
582	0.0262364
594	0.0133083
606	0.00785825
618	0.0124211
630	0.0220538
642	0.0294051
654	0.032954
666	0.0460088
678	0.0415727
690	0.0737662
702	0.0859338
714	0.077822
726	0.0855536
738	0.0808639
750	0.0673021
762	0.0692033
774	0.0934118
786	0.163249
798	0.190372
810	0.0775686
822	0.0267434
834	0.0148293
846	0.0117874
858	0.0126746
870	0.0424599
882	0.0782023
894	0.0320667
906	0.0533601
918	0.120789
930	0.0830186
942	0.0695836
954	0.265153
966	0.201526
978	0.0334609
990	0.03194
1002	0.0808639
1014	0.139674
1026	0.0532333
1038	0.0211666
1050	0.0223073
1062	0.0413192
1074	0.0893559
1086	0.0896094
1098	0.115466
1110	0.0477832
1122	0.0330807
1134	0.0363761
1146	0.0522194
1158	0.132069
1170	0.087328
1182	0.13321
1194	0.387336
1206	0.458821
1218	0.491648
1230	0.26604
1242	0.201273
1254	0.192907
1266	0.169333
1278	0.263125
1290	0.351467
1302	0.239043
1314	0.201526
1326	0.2123
1338	0.364521
1350	0.498619
1362	0.502675
1374	0.380365
1386	0.266293
1398	0.220285
1410	0.202667
1422	0.155264
1434	0.0984816
1446	0.101524
1458	0.131689
1470	0.189739
1482	0.190119
1494	0.175163
1506	0.191893
1518	0.135872
1530	0.113818
1542	0.125225
1554	0.222566
1566	0.329159
1578	0.206469
1590	0.13904
1602	0.199625
1614	0.370732
1626	0.502294
1638	0.594185
1650	1.22994
1662	0.800274
1674	0.205329
1686	0.0680626
1698	0.0343482
1710	0.0268702
1722	0.023448
1734	0.0186317
1746	0.0181247
1758	0.0191386
1770	0.00988619
1782	0.00912571
1794	0.00646405
1806	0.00671754
1818	0.00621055
1830	0.00266167
1842	0.00253492
1854	0.00519659
1866	0.00557682
1878	0.0117874
1890	0.0100129
1902	0.00557682
1914	0.00291516
1926	0.00342214
1938	0.0032954
1950	0.0030419
1962	0.00253492
1974	0.00190119
1986	0.00215468
1998	0.00114071
2010	0.00126746
2022	0.000760476
2034	0.000887222
2046	0.000253492
2058	0.00063373
2070	0.00063373
2082	0.00101397
2094	0.000887222
2106	0.00063373
2118	0.000506984
2130	0.000506984
2142	0.000380238
2154	0.00063373
2166	0.00126746
2178	0.0016477
2190	0.00253492
2202	0.00177444
2214	0.00177444
2226	0.00152095
2238	0.00114071
2250	0.00139421
2262	0.00215468
2274	0.00291516
2286	0.00456286
2298	0.00608381
2310	0.00735127
2322	0.00811174
2334	0.00760476
2346	0.00773151
2358	0.00722452
2370	0.00697103
2382	0.00785825
2394	0.00684428
2406	0.0063373
2418	0.00659079
2430	0.00697103
2442	0.00735127
2454	0.00785825
2466	0.00747801
2478	0.00811174
2490	0.00811174
2502	0.00925246
2514	0.0105199
2526	0.0107734
2538	0.0111536
2550	0.0114071
2562	0.0125479
2574	0.0133083
2586	0.0141956
2598	0.0153363
2610	0.0171107
2622	0.0187584
2634	0.0193921
2646	0.0192654
2658	0.0190119
2670	0.0197724
2682	0.0214201
2694	0.0238282
2706	0.0259829
2718	0.0273771
2730	0.0275039
2742	0.0267434
2754	0.0283911
2766	0.0287713
2778	0.0290248
2790	0.030926
2802	0.0316865
2814	0.0363761
2826	0.0408122
2838	0.0452483
2850	0.0547543
2862	0.0806105
2874	0.150448
2886	0.195949
2898	0.19709
2910	0.223326
2922	0.25552
2934	0.238409
2946	0.301402
2958	0.482902
2970	0.807879
2982	0.563259
2994	0.295191
3006	0.137773
3018	0.0970874
3030	0.093792
3042	0.102664
3054	0.112043
3066	0.107861
3078	0.114578
3090	0.131309
3102	0.118254
3114	0.0975944
3126	0.0925246
3138	0.0901164
3150	0.088342
3162	0.086821
3174	0.0855536
3186	0.0840326
3198	0.080357
3210	0.0756674
3222	0.0727522
3234	0.071865
3246	0.069837
3258	0.0690766
3270	0.0692033
3282	0.0655277
3294	0.0622323
3306	0.0574159
3318	0.0523461
3330	0.04791
3342	0.0439809
3354	0.0408122
3366	0.038911
3378	0.0361226
3390	0.0335877
3402	0.031433
3414	0.0273771
3426	0.0252225
3438	0.022941
3450	0.0197724
3462	0.0183782
3474	0.0163502
3486	0.0153363
3498	0.0121676
3510	0.0114071
3522	0.0102664
3534	0.0100129
3546	0.007985
3558	0.00785825
3570	0.00659079
3582	0.00519659
3594	0.00494309
3606	0.00443611
3618	0.00430936
3630	0.00380238
3642	0.00430936
3654	0.00380238
3666	0.00405587
3678	0.0030419
3690	0.00266167
3702	0.00215468
3714	0.00240817
3726	0.00253492
3738	0.00291516
3750	0.00177444
3762	0.00253492
3774	0.00101397
3786	0.00253492
3798	0.00240817
3810	0.0016477
3822	0.00240817
3834	0.00291516
3846	0.0030419
3858	0.00392913
3870	0.0030419
3882	0.00190119
3894	0.00316865
3906	0.00392913
3918	0.0030419
3930	0.00354889
3942	0.00253492
3954	0.00291516
3966	0.00291516
