Infrared Spectrum: Cyclohexanecarboxylic acid, 2-hydroxy-, methyl ester
Formula: C 8 H 14 O 3
CAS: 2236-11-5
Origin: Sadtler Research Labs Under US-EPA Contract
1/CM	ABSORBANCE
450	0.021705
462	0.034728
474	0.0218658
486	0.0174444
498	0.0262872
510	0.023152
522	0.0232324
534	0.0216246
546	0.0267695
558	0.017766
570	0.0180071
582	0.0142289
594	0.00884279
606	0.00964668
618	0.00691345
630	0.00892318
642	0.0135054
654	0.0181679
666	0.0122995
678	0.0117368
690	0.010531
702	0.00844085
714	0.0117368
726	0.011576
738	0.00707423
750	0.0131838
762	0.0168817
774	0.0114152
786	0.00980746
798	0.00683307
810	0.00980746
822	0.0129426
834	0.0203384
846	0.0285381
858	0.0213031
870	0.0209815
882	0.0241167
894	0.0204992
906	0.0184091
918	0.0204188
930	0.0188914
942	0.02066
954	0.033683
966	0.0632661
978	0.111982
990	0.107962
1002	0.0758068
1014	0.0988785
1026	0.148157
1038	0.190602
1050	0.13851
1062	0.145986
1074	0.180313
1086	0.15081
1098	0.103621
1110	0.129748
1122	0.181438
1134	0.201696
1146	0.230475
1158	0.329113
1170	0.492302
1182	0.573817
1194	0.435387
1206	0.353551
1218	0.262711
1230	0.230395
1242	0.277583
1254	0.315044
1266	0.201374
1278	0.14671
1290	0.125407
1302	0.153141
1314	0.171148
1326	0.182724
1338	0.150327
1350	0.13425
1362	0.116564
1374	0.114152
1386	0.106596
1398	0.106998
1410	0.089071
1422	0.0618995
1434	0.118011
1446	0.178222
1458	0.139877
1470	0.0817556
1482	0.0421238
1494	0.0234736
1506	0.0167209
1518	0.0116564
1530	0.00940551
1542	0.00811929
1554	0.00723501
1566	0.0102898
1578	0.0117368
1590	0.00908396
1602	0.00924474
1614	0.0142289
1626	0.00996824
1638	0.00819968
1650	0.00811929
1662	0.0107721
1674	0.0184091
1686	0.0406768
1698	0.0645524
1710	0.0889102
1722	0.209494
1734	0.40307
1746	0.447445
1758	0.417701
1770	0.251135
1782	0.110615
1794	0.0489569
1806	0.0187306
1818	0.00836046
1830	0.00691345
1842	0.00385867
1854	0.00377828
1866	0.00305478
1878	0.00305478
1890	0.00305478
1902	0.00184895
1914	0.00209011
1926	0.0021705
1938	0.00401945
1950	0.00498412
1962	0.00353712
1974	0.00369789
1986	0.00297439
1998	0.00401945
2010	0.00418023
2022	0.00490373
2034	0.00538606
2046	0.00466256
2058	0.00538606
2070	0.00546645
2082	0.00506451
2094	0.00458217
2106	0.00361751
2118	0.00257245
2130	0.00297439
2142	0.00361751
2154	0.00385867
2166	0.00297439
2178	0.00321556
2190	0.002894
2202	0.00233128
2214	0.00321556
2226	0.00305478
2238	0.00329595
2250	0.00297439
2262	0.00313517
2274	0.00409984
2286	0.002894
2298	0.00192934
2310	0.00353712
2322	0.00474295
2334	0.00498412
2346	0.00675268
2358	0.00570762
2370	0.002894
2382	0.00345673
2394	0.00281362
2406	0.00281362
2418	0.00265284
2430	0.00249206
2442	0.00233128
2454	0.00184895
2466	0.0021705
2478	0.00265284
2490	0.0021705
2502	0.00241167
2514	0.00281362
2526	0.00297439
2538	0.00281362
2550	0.00273323
2562	0.00225089
2574	0.00353712
2586	0.00385867
2598	0.00466256
2610	0.0058684
2622	0.00538606
2634	0.0058684
2646	0.0080389
2658	0.010129
2670	0.0122191
2682	0.010531
2694	0.00828007
2706	0.00667229
2718	0.00570762
2730	0.00538606
2742	0.00546645
2754	0.00635073
2766	0.00755657
2778	0.010129
2790	0.0127819
2802	0.0139877
2814	0.0157562
2826	0.0209815
2838	0.0353712
2850	0.0872221
2862	0.191085
2874	0.243338
2886	0.188191
2898	0.151051
2910	0.184412
2922	0.25202
2934	0.431609
2946	0.786204
2958	0.609509
2970	0.243579
2982	0.072752
2994	0.0450178
3006	0.0406768
3018	0.0343261
3030	0.0319144
3042	0.023554
3054	0.0155151
3066	0.011978
3078	0.010531
3090	0.00924474
3102	0.00860162
3114	0.00602918
3126	0.00482334
3138	0.00418023
3150	0.00297439
3162	0.00329595
3174	0.00209011
3186	0.00297439
3198	0.00377828
3210	0.00393906
3222	0.00466256
3234	0.00594879
3246	0.00627034
3258	0.00627034
3270	0.00530567
3282	0.00393906
3294	0.00321556
3306	0.00305478
3318	0.00361751
3330	0.00361751
3342	0.00329595
3354	0.002894
3366	0.00273323
3378	0.00305478
3390	0.00393906
3402	0.00377828
3414	0.00369789
3426	0.00450178
3438	0.00643112
3450	0.00811929
3462	0.00699384
3474	0.00667229
3486	0.0065919
3498	0.00723501
3510	0.0073154
3522	0.00916435
3534	0.0161582
3546	0.0315929
3558	0.0522529
3570	0.1074
3582	0.108284
3594	0.0627034
3606	0.0536999
3618	0.0558704
3630	0.0466256
3642	0.0362554
3654	0.0224285
3666	0.0139877
3678	0.00892318
3690	0.00176856
3702	8.0389e-05
3714	8.0389e-05
3726	0.000884279
3738	0.00192934
3750	8.0389e-05
3762	8.0389e-05
3774	8.0389e-05
3786	8.0389e-05
3798	8.0389e-05
3810	8.0389e-05
3822	8.0389e-05
3834	8.0389e-05
3846	8.0389e-05
3858	8.0389e-05
3870	8.0389e-05
3882	8.0389e-05
3894	8.0389e-05
3906	8.0389e-05
3918	8.0389e-05
3930	8.0389e-05
3942	8.0389e-05
3954	8.0389e-05
3966	8.0389e-05
