Infrared Spectrum: Phosphorothioic acid, O-ethyl O-isopropyl O-(4-nitro-m-tolyl) ester
Formula: C 12 H 18 N O 5 P S
CAS: 22371-93-3
Origin: Sadtler Research Labs Under US-EPA Contract
1/CM	ABSORBANCE
450	0.00921825
462	0.0164454
474	0.0159291
486	0.0266223
498	0.0277285
510	0.0255161
522	0.013348
534	0.00339232
546	0.000516222
558	0.00774333
570	0.00457225
582	0.00715336
594	0.00567844
606	0.00707962
618	0.00988196
630	0.00707962
642	0.0180678
654	0.041814
666	0.0253686
678	0.0143067
690	0.0173303
702	0.0200589
714	0.0436576
726	0.0425514
738	0.0109144
750	0.0247787
762	0.0245574
774	0.0294984
786	0.0667401
798	0.112168
810	0.172197
822	0.379792
834	0.240412
846	0.143731
858	0.171017
870	0.231489
882	0.257005
894	0.182153
906	0.0648965
918	0.0584068
930	0.0664451
942	0.112758
954	0.243878
966	0.520573
978	0.336577
990	0.166371
1002	0.2382
1014	0.509364
1026	0.729348
1038	0.618065
1050	0.418656
1062	0.364305
1074	0.212757
1086	0.156931
1098	0.109292
1110	0.0717549
1122	0.0541296
1134	0.0533184
1146	0.0770646
1158	0.139822
1170	0.097566
1182	0.0466812
1194	0.0383479
1206	0.0344394
1218	0.0486724
1230	0.146091
1242	0.391149
1254	0.104867
1266	0.134218
1278	0.100442
1290	0.0589968
1302	0.0660027
1314	0.0496311
1326	0.0429939
1338	0.0926987
1350	0.264084
1362	0.176032
1374	0.0681413
1386	0.0646015
1398	0.0758109
1410	0.0445426
1422	0.0329645
1434	0.0373155
1446	0.0516222
1458	0.0659289
1470	0.0928462
1482	0.185914
1494	0.135766
1506	0.0893064
1518	0.13348
1530	0.209586
1542	0.228391
1554	0.13112
1566	0.105162
1578	0.152654
1590	0.168436
1602	0.082743
1614	0.114085
1626	0.0564157
1638	0.0205014
1650	0.0120206
1662	0.00663714
1674	0.00589968
1686	0.00530971
1698	0.00516222
1710	0.00376105
1722	0.00309733
1734	0.00390854
1746	0.004646
1758	0.00494098
1770	0.00597343
1782	0.00486724
1794	0.0036873
1806	0.00309733
1818	0.00324482
1830	0.00486724
1842	0.00582593
1854	0.00634216
1866	0.00752209
1878	0.00811206
1890	0.00877577
1902	0.0064159
1914	0.00435101
1926	0.00250736
1938	0.00213863
1950	0.00221238
1962	0.00228613
1974	0.00132743
1986	0.00110619
1998	0.000811206
2010	0.000221238
2022	0.00036873
2034	0.000147492
2046	0.000442476
2058	0.000516222
2070	0.000221238
2082	0.000221238
2094	0.00036873
2106	0.00073746
2118	0.00103244
2130	0.00103244
2142	0.00073746
2154	0.000589968
2166	0.000958698
2178	0.00103244
2190	0.000884952
2202	0.00132743
2214	0.00140117
2226	0.000811206
2238	0.000589968
2250	0.000442476
2262	0.000884952
2274	0.000811206
2286	0.00103244
2298	0.00169616
2310	0.00199114
2322	0.00162241
2334	0.0017699
2346	0.0027286
2358	0.00213863
2370	0.00309733
2382	0.00331857
2394	0.00302359
2406	0.00309733
2418	0.00346606
2430	0.00339232
2442	0.00250736
2454	0.00169616
2466	0.00154867
2478	0.0017699
2490	0.0017699
2502	0.00206489
2514	0.00184365
2526	0.00132743
2538	0.00199114
2550	0.00243362
2562	0.00265486
2574	0.00250736
2586	0.00265486
2598	0.00250736
2610	0.00221238
2622	0.00235987
2634	0.00228613
2646	0.00243362
2658	0.00206489
2670	0.00221238
2682	0.00221238
2694	0.00228613
2706	0.00294984
2718	0.00376105
2730	0.00523597
2742	0.00619466
2754	0.00626841
2766	0.00575219
2778	0.0054572
2790	0.00582593
2802	0.00626841
2814	0.00811206
2826	0.0101769
2838	0.013053
2850	0.0171828
2862	0.0262536
2874	0.0443213
2886	0.0723448
2898	0.0709437
2910	0.0691737
2922	0.0733035
2934	0.0918875
2946	0.128687
2958	0.135398
2970	0.180825
2982	0.174778
2994	0.102286
3006	0.0487461
3018	0.0271385
3030	0.0176253
3042	0.0127581
3054	0.0106932
3066	0.0101032
3078	0.0103982
3090	0.00951323
3102	0.00707962
3114	0.00619466
3126	0.00516222
3138	0.00486724
3150	0.00405603
3162	0.00361355
3174	0.00383479
3186	0.00412978
3198	0.00383479
3210	0.00287609
3222	0.00199114
3234	0.00213863
3246	0.00154867
3258	0.0017699
3270	0.00184365
3282	0.00162241
3294	0.00154867
3306	0.00147492
3318	0.0017699
3330	0.00154867
3342	0.00162241
3354	0.00117994
3366	0.00199114
3378	0.00199114
3390	0.00199114
3402	0.0019174
3414	0.00147492
3426	0.00117994
3438	0.00206489
3450	0.00162241
3462	0.00154867
3474	0.00213863
3486	0.00184365
3498	0.00235987
3510	0.00154867
3522	0.00154867
3534	0.00103244
3546	0.000884952
3558	0.00213863
3570	0.000589968
3582	0.0019174
3594	0.000884952
3606	0.00154867
3618	0.00125368
3630	0.00103244
3642	0.00722711
3654	0.00744835
3666	0.00206489
3678	0.000958698
3690	0.00199114
3702	0.000958698
3714	0.00125368
3726	0.00140117
3738	0
3750	0.00213863
3762	0.00140117
3774	0.00125368
3786	0.00184365
3798	0.0017699
3810	0.00147492
3822	0.00147492
3834	0.00147492
3846	0.0019174
3858	0.00162241
3870	0.00103244
3882	0.00258111
3894	0.00132743
3906	0.000811206
3918	0.00125368
3930	0.00140117
3942	0.00250736
3954	0.00206489
3966	0.00154867
