Infrared Spectrum: 5-Benzyloxy-2-nitrotoluene
Formula: C 14 H 13 N O 3
CAS: 22424-58-4
Origin: Sadtler Research Labs Under US-EPA Contract
1/CM	ABSORBANCE
450	0.000938976
462	0.00428408
474	0.00827473
486	0.0137032
498	0.0137032
510	0.0116785
522	0.0133804
534	0.0135565
546	0.0165788
558	0.01608
570	0.017283
582	0.0183981
594	0.0212737
606	0.0248829
618	0.027201
630	0.0238265
642	0.024208
654	0.0418431
666	0.0219486
678	0.0306047
690	0.0642025
702	0.0593609
714	0.0414617
726	0.0531402
738	0.0806932
750	0.0701591
762	0.0338031
774	0.0136738
786	0.0118839
798	0.0177525
810	0.0323066
822	0.0423126
834	0.0940737
846	0.0455697
858	0.0272596
870	0.0299005
882	0.0137912
894	0.0107102
906	0.0168135
918	0.0144661
930	0.0193664
942	0.0229169
954	0.0199239
966	0.019073
978	0.0279345
990	0.0459218
1002	0.0566026
1014	0.0555463
1026	0.0924598
1038	0.085124
1050	0.0561918
1062	0.0361506
1074	0.0772014
1086	0.0945725
1098	0.0267021
1110	0.0138792
1122	0.00956582
1134	0.0112384
1146	0.0251763
1158	0.0649361
1170	0.0951593
1182	0.0358865
1194	0.0288148
1206	0.033275
1218	0.0510568
1230	0.136973
1242	0.266434
1254	0.259891
1266	0.121744
1278	0.11969
1290	0.190319
1302	0.0968319
1314	0.107982
1326	0.132689
1338	0.166081
1350	0.274152
1362	0.117519
1374	0.0614149
1386	0.0559571
1398	0.0330696
1410	0.0311916
1422	0.0282573
1434	0.0318665
1446	0.0463326
1458	0.06878
1470	0.0740324
1482	0.109567
1494	0.158687
1506	0.128786
1518	0.146862
1530	0.194926
1542	0.159567
1554	0.0943671
1566	0.100529
1578	0.175178
1590	0.188969
1602	0.137912
1614	0.126175
1626	0.053727
1638	0.0162267
1650	0.00633809
1662	0.00149649
1674	0.00120306
1686	0.0031397
1698	0.0029343
1710	0.00220073
1722	0.00416671
1734	0.00630875
1746	0.0031397
1758	0.00167255
1770	0.00357985
1782	0.0031397
1794	0.00357985
1806	0.00575123
1818	0.00363853
1830	0.00164321
1842	0.00152584
1854	0.000528174
1866	0.00246481
1878	0.00240613
1890	0.00267021
1902	0.00149649
1914	0.000733575
1926	0.000909633
1938	0.00181927
1950	0.00325707
1962	0.00343313
1974	0.00176058
1986	0.00199532
1998	0.00234744
2010	0.00296364
2022	0.00372656
2034	0.00495897
2046	0.00592729
2058	0.00536977
2070	0.00613269
2082	0.00469488
2094	0.00299299
2106	0.0025235
2118	0.00208335
2130	0.00140846
2142	0.00132044
2154	0.00173124
2166	0.00228875
2178	0.00205401
2190	0.00220073
2202	0.00223007
2214	0.0021127
2226	0.0019073
2238	0.00193664
2250	0.00143781
2262	0.00152584
2274	0.00208335
2286	0.00360919
2298	0.00507634
2310	0.00742378
2322	0.00715969
2334	0.00569254
2346	0.00698363
2358	0.00589794
2370	0.00378525
2382	0.00472422
2394	0.00240613
2406	0.00331576
2418	0.00372656
2430	0.0037559
2442	0.00287561
2454	0.00264087
2466	0.00223007
2478	0.00240613
2490	0.00308101
2502	0.00287561
2514	0.00337445
2526	0.0029343
2538	0.0035505
2550	0.00331576
2562	0.00381459
2574	0.00428408
2586	0.00460685
2598	0.00410802
2610	0.00401999
2622	0.00363853
2634	0.00328642
2646	0.00308101
2658	0.00349182
2670	0.00340379
2682	0.00325707
2694	0.00319839
2706	0.00340379
2718	0.00378525
2730	0.00492962
2742	0.00448948
2754	0.00457751
2766	0.00378525
2778	0.00381459
2790	0.00443079
2802	0.00551648
2814	0.0064848
2826	0.00827473
2838	0.0096245
2850	0.0118252
2862	0.0160213
2874	0.0227115
2886	0.0271716
2898	0.0246775
2910	0.0227702
2922	0.0255284
2934	0.0332163
2946	0.0388795
2958	0.0345954
2970	0.026262
2982	0.0230049
2994	0.0212443
3006	0.0153757
3018	0.0187502
3030	0.0296951
3042	0.0360039
3054	0.0266434
3066	0.0309275
3078	0.0431929
3090	0.0273183
3102	0.0174884
3114	0.0118546
3126	0.00680758
3138	0.00404933
3150	0.00299299
3162	0.00316904
3174	0.00316904
3186	0.00340379
3198	0.00387328
3210	0.00360919
3222	0.00261153
3234	0.00284627
3246	0.00275824
3258	0.00275824
3270	0.00237678
3282	0.00261153
3294	0.00287561
3306	0.00299299
3318	0.00269956
3330	0.0027289
3342	0.00290496
3354	0.00378525
3366	0.00302233
3378	0.00255284
3390	0.00343313
3402	0.00340379
3414	0.00360919
3426	0.00302233
3438	0.0035505
3450	0.00349182
3462	0.00281693
3474	0.00281693
3486	0.00278758
3498	0.00187795
3510	0.00290496
3522	0.00369722
3534	0.00176058
3546	0.00396131
3558	0.00287561
3570	0.00425473
3582	0.00155518
3594	0.00328642
3606	0.00299299
3618	0.00249416
3630	0.00425473
3642	0.00419605
3654	0.00522305
3666	0.00176058
3678	0.00407868
3690	0.00193664
3702	0.00287561
3714	0.00302233
3726	0.00352116
3738	0.0027289
3750	0.000674889
3762	0.0019073
3774	0.0019073
3786	0.00176058
3798	0.00319839
3810	0.000997662
3822	0.00325707
3834	0.00220073
3846	0.00258218
3858	0.00308101
3870	0.00319839
3882	0.0037559
3894	0.00346247
3906	0.00325707
3918	0.00407868
3930	0.00311036
3942	0.00308101
3954	0.00481225
3966	0.00170189
