Infrared Spectrum: Nonanenitrile
Formula: C 9 H 17 N
CAS: 2243-27-8
Origin: Sadtler Research Labs Under US-EPA Contract
1/CM	ABSORBANCE
450	0.0318714
462	0.00103767
474	0.00933906
486	0.0302408
498	0.0137862
510	0.0237182
522	0.0115626
534	0.0123038
546	0.0142309
558	0.020457
570	0.013638
582	0.0134897
594	0.0094873
606	0.0124521
618	0.00785667
630	0.00667075
642	0.00815314
654	0.0134897
666	0.0177887
678	0.0128968
690	0.00652252
702	0.0209017
714	0.0308337
726	0.0342432
738	0.0376527
750	0.0195675
762	0.017344
774	0.0206052
786	0.0209017
798	0.013045
810	0.00993201
822	0.00770843
834	0.0179369
846	0.0140827
858	0.00978377
870	0.0120074
882	0.00592956
894	0.0115626
906	0.013638
918	0.0126003
930	0.0117109
942	0.0139345
954	0.0123038
966	0.0109697
978	0.00830138
990	0.00726371
1002	0.0060778
1014	0.0087461
1026	0.0120074
1038	0.0112662
1050	0.00889434
1062	0.0115626
1074	0.0106732
1086	0.00963553
1098	0.00785667
1110	0.010525
1122	0.0127486
1134	0.00830138
1146	0.00830138
1158	0.00844962
1170	0.00859786
1182	0.0108214
1194	0.0121556
1206	0.0106732
1218	0.010525
1230	0.0108214
1242	0.0142309
1254	0.0163063
1266	0.0182334
1278	0.0210499
1290	0.024163
1302	0.0299443
1314	0.0321679
1326	0.0363186
1338	0.0435823
1350	0.0521801
1362	0.0501048
1374	0.0458059
1386	0.0536625
1398	0.0302408
1410	0.0244594
1422	0.0375045
1434	0.0933906
1446	0.123038
1458	0.163804
1470	0.164101
1482	0.0754537
1494	0.0306855
1506	0.0191228
1518	0.013045
1530	0.00770843
1542	0.00830138
1554	0.00696723
1566	0.0053366
1578	0.00489189
1590	0.00548484
1602	0.0053366
1614	0.0053366
1626	0.00415069
1638	0.00415069
1650	0.00429893
1662	0.00192711
1674	0.00429893
1686	0.00489189
1698	0.00237182
1710	0.0034095
1722	0.00415069
1734	0.00592956
1746	0.00681899
1758	0.00622604
1770	0.00281654
1782	0.00207535
1794	0.0034095
1806	0.00222358
1818	0.00222358
1830	0.00103767
1842	0.000889434
1854	0.00133415
1866	0.00222358
1878	0.00192711
1890	0.000741195
1902	0.00118591
1914	0.00192711
1926	0.00163063
1938	0.00177887
1950	0.000592956
1962	0.000741195
1974	0.00133415
1986	0.00103767
1998	0.00103767
2010	0.00133415
2022	0.00207535
2034	0.0034095
2046	0.00311302
2058	0.00252006
2070	0.00148239
2082	0.00133415
2094	0.00163063
2106	0.00133415
2118	0.00192711
2130	0.00133415
2142	0.00192711
2154	0.00222358
2166	0.00222358
2178	0.00207535
2190	0.00133415
2202	0.00192711
2214	0.0026683
2226	0.00355774
2238	0.00711547
2250	0.0211982
2262	0.0171957
2274	0.00652252
2286	0.00459541
2298	0.00415069
2310	0.00370597
2322	0.00444717
2334	0.00459541
2346	0.00459541
2358	0.00474365
2370	0.00385421
2382	0.00296478
2394	0.00237182
2406	0.0026683
2418	0.00207535
2430	0.00133415
2442	0.00118591
2454	0.00103767
2466	0.00103767
2478	0.00103767
2490	0.000592956
2502	0.00118591
2514	0.00148239
2526	0.00237182
2538	0.0026683
2550	0.00237182
2562	0.00311302
2574	0.00444717
2586	0.00489189
2598	0.00592956
2610	0.00667075
2622	0.00741195
2634	0.00859786
2646	0.0100803
2658	0.0112662
2670	0.0120074
2682	0.0139345
2694	0.0142309
2706	0.013045
2718	0.0121556
2730	0.0128968
2742	0.0158616
2754	0.017344
2766	0.017344
2778	0.0177887
2790	0.0231253
2802	0.0305372
2814	0.0413587
2826	0.0569238
2838	0.0871645
2850	0.19612
2862	0.49749
2874	0.596958
2886	0.456428
2898	0.326422
2910	0.439677
2922	0.848224
2934	1.44918
2946	1.34245
2958	0.953325
2970	0.871349
2982	0.376379
2994	0.134601
3006	0.0772325
3018	0.0514389
3030	0.0378009
3042	0.0292031
3054	0.022977
3066	0.0182334
3078	0.0154169
3090	0.0127486
3102	0.0112662
3114	0.0112662
3126	0.00993201
3138	0.00844962
3150	0.00815314
3162	0.00889434
3174	0.00815314
3186	0.00904258
3198	0.00696723
3210	0.00518836
3222	0.00444717
3234	0.00385421
3246	0.0034095
3258	0.00222358
3270	0.00133415
3282	0.00163063
3294	0.00252006
3306	0.00207535
3318	0.00207535
3330	0.00148239
3342	0.00163063
3354	0.00192711
3366	0.00222358
3378	0.00163063
3390	0.00103767
3402	0.00163063
3414	0.00148239
3426	0.00192711
3438	0.00148239
3450	0.000889434
3462	0.00103767
3474	0.00207535
3486	0.00118591
3498	0.000741195
3510	0.00103767
3522	0.00148239
3534	0.00207535
3546	0.00148239
3558	0.00252006
3570	0.00192711
3582	0.00177887
3594	0.00296478
3606	0.00296478
3618	0.00192711
3630	0.00355774
3642	0.0026683
3654	0.00385421
3666	0.0034095
3678	0.00370597
3690	0.000889434
3702	0.00148239
3714	0.00311302
3726	0.00252006
3738	0.00177887
3750	0.00237182
3762	0.00192711
3774	0.00415069
3786	0.00355774
3798	0.00311302
3810	0.00148239
3822	0.00281654
3834	0.00355774
3846	0.00326126
3858	0.00459541
3870	0.000889434
3882	0.00103767
3894	0.00133415
3906	0.00504013
3918	0.00518836
3930	0.00474365
3942	0.00355774
3954	0.00385421
3966	0.0094873
