Infrared Spectrum: 2-Cyclohexen-1-one, 2-methyl-5-(1-methylethenyl)-, (S)-
Formula: C 10 H 14 O
CAS: 2244-16-8
Origin: Sadtler Research Labs Under US-EPA Contract
1/CM	ABSORBANCE
450	0
462	0.0268483
474	0.0452537
486	0.0489685
498	0.0427208
510	0.0533588
522	0.0435651
534	0.0398503
546	0.0320828
558	0.0393437
570	0.0562294
582	0.0300565
594	0.0249908
606	0.0229646
618	0.0231334
630	0.026004
642	0.0249908
654	0.0234711
666	0.0254974
678	0.0363043
690	0.0450848
702	0.0471111
714	0.0371485
726	0.0266794
738	0.0229646
750	0.0190808
762	0.0175611
774	0.0192497
786	0.0239777
798	0.0445782
810	0.0444094
822	0.0261728
834	0.0241466
846	0.0285368
858	0.0324205
870	0.042552
882	0.0991191
894	0.288745
906	0.244505
918	0.0798694
930	0.0444094
942	0.037824
954	0.0420454
966	0.0423831
978	0.0334337
990	0.0479554
1002	0.0572425
1014	0.0521768
1026	0.0618017
1038	0.0707511
1050	0.0818956
1062	0.0722708
1074	0.054372
1086	0.0714265
1098	0.149607
1110	0.249402
1122	0.147412
1134	0.0721019
1146	0.0707511
1158	0.0493062
1170	0.040188
1182	0.0381617
1194	0.0420454
1206	0.0585934
1218	0.0552162
1230	0.0817268
1242	0.138969
1254	0.105536
1266	0.0771676
1278	0.050826
1290	0.0481242
1302	0.048462
1314	0.0516702
1326	0.0663608
1338	0.0775054
1350	0.129513
1362	0.220021
1374	0.240621
1386	0.187938
1398	0.10334
1410	0.0810514
1422	0.107562
1434	0.151971
1446	0.190302
1458	0.166662
1470	0.0959108
1482	0.0489685
1494	0.0315763
1506	0.0207694
1518	0.0199251
1530	0.0209383
1542	0.018912
1554	0.0270171
1566	0.0303943
1578	0.0332648
1590	0.03546
1602	0.040188
1614	0.0452537
1626	0.05319
1638	0.114654
1650	0.181015
1662	0.132553
1674	0.148763
1686	0.553682
1698	1.68857
1710	0.696873
1722	0.115329
1734	0.0661919
1746	0.043734
1758	0.0368108
1770	0.0374863
1782	0.037824
1794	0.0447471
1806	0.0482931
1818	0.0300565
1830	0.0197563
1842	0.018912
1854	0.0194186
1866	0.0173923
1878	0.0190808
1890	0.016548
1902	0.0192497
1914	0.0182366
1926	0.0182366
1938	0.0204317
1950	0.0194186
1962	0.0178988
1974	0.0180677
1986	0.0175611
1998	0.01773
2010	0.0184054
2022	0.0175611
2034	0.0187431
2046	0.0192497
2058	0.0194186
2070	0.0199251
2082	0.018912
2094	0.01773
2106	0.0180677
2118	0.0173923
2130	0.0172234
2142	0.0178988
2154	0.0168857
2166	0.016548
2178	0.0168857
2190	0.0163791
2202	0.0168857
2214	0.0182366
2226	0.0185743
2238	0.0184054
2250	0.0178988
2262	0.0173923
2274	0.0175611
2286	0.0167168
2298	0.0162103
2310	0.0167168
2322	0.0162103
2334	0.0163791
2346	0.018912
2358	0.0163791
2370	0.0187431
2382	0.0187431
2394	0.0184054
2406	0.0185743
2418	0.018912
2430	0.0184054
2442	0.0182366
2454	0.0178988
2466	0.0182366
2478	0.0190808
2490	0.0195874
2502	0.0184054
2514	0.0178988
2526	0.0180677
2538	0.0175611
2550	0.0182366
2562	0.0185743
2574	0.018912
2586	0.018912
2598	0.0192497
2610	0.0199251
2622	0.0204317
2634	0.0192497
2646	0.0192497
2658	0.0192497
2670	0.0197563
2682	0.0209383
2694	0.0206006
2706	0.0211071
2718	0.0226268
2730	0.0246531
2742	0.0285368
2754	0.0273548
2766	0.0253286
2778	0.0246531
2790	0.0268483
2802	0.0302254
2814	0.0374863
2826	0.0499817
2838	0.0845974
2850	0.118538
2862	0.141671
2874	0.158726
2886	0.1876
2898	0.277263
2910	0.261222
2922	0.25109
2934	0.423662
2946	0.311035
2958	0.213266
2970	0.294318
2982	0.390397
2994	0.253792
3006	0.152309
3018	0.129513
3030	0.123772
3042	0.0791939
3054	0.0553851
3066	0.057918
3078	0.106549
3090	0.147581
3102	0.0901696
3114	0.0344468
3126	0.0275237
3138	0.0243154
3150	0.0214448
3162	0.0209383
3174	0.0199251
3186	0.0192497
3198	0.0190808
3210	0.0192497
3222	0.0190808
3234	0.0194186
3246	0.0185743
3258	0.0187431
3270	0.0195874
3282	0.0199251
3294	0.0195874
3306	0.0182366
3318	0.0175611
3330	0.0185743
3342	0.0190808
3354	0.0217826
3366	0.0325894
3378	0.0412011
3390	0.02955
3402	0.0192497
3414	0.0172234
3426	0.0172234
3438	0.0173923
3450	0.01773
3462	0.0173923
3474	0.0175611
3486	0.0170546
3498	0.0160414
3510	0.0172234
3522	0.0178988
3534	0.0172234
3546	0.01773
3558	0.0182366
3570	0.0195874
3582	0.0192497
3594	0.0184054
3606	0.0182366
3618	0.0160414
3630	0.01773
3642	0.0182366
3654	0.018912
3666	0.0175611
3678	0.0172234
3690	0.016548
3702	0.0168857
3714	0.0168857
3726	0.0170546
3738	0.0175611
3750	0.016548
3762	0.0173923
3774	0.0178988
3786	0.0172234
3798	0.016548
3810	0.0175611
3822	0.0173923
3834	0.0175611
3846	0.0170546
3858	0.0180677
3870	0.0170546
3882	0.0182366
3894	0.01773
3906	0.0172234
3918	0.0182366
3930	0.0170546
3942	0.01773
3954	0.0173923
3966	0.0184054
