Infrared Spectrum: Undecanenitrile
Formula: C 11 H 21 N
CAS: 2244-07-7
Origin: Sadtler Research Labs Under US-EPA Contract
1/CM	ABSORBANCE
450	0.0394838
462	0.0308238
474	0.0271543
486	0.014678
498	0.00645832
510	0.00631154
522	0.0101278
534	0.0182007
546	0.0132102
558	0.0196685
570	0.0115956
582	0.0132102
594	0.0121827
606	0.0151183
618	0.00910036
630	0.00851324
642	0.0149716
654	0.0184943
666	0.00866002
678	0.0124763
690	0.0179072
702	0.0211363
714	0.0369886
726	0.0402177
738	0.029356
750	0.0201089
762	0.0179072
774	0.0164394
786	0.0124763
798	0.0118892
810	0.0115956
822	0.0095407
834	0.0115956
846	0.0114488
858	0.00983426
870	0.0139441
882	0.0123295
894	0.0115956
906	0.0108617
918	0.0121827
930	0.0104214
942	0.0104214
954	0.0101278
966	0.0080729
978	0.00821968
990	0.0121827
1002	0.012036
1014	0.0121827
1026	0.0129166
1038	0.0140909
1050	0.0136505
1062	0.0124763
1074	0.0143844
1086	0.0110085
1098	0.0104214
1110	0.0127699
1122	0.0113021
1134	0.0132102
1146	0.0115956
1158	0.0121827
1170	0.0121827
1182	0.0123295
1194	0.0140909
1206	0.0143844
1218	0.0130634
1230	0.0145312
1242	0.0148248
1254	0.0168797
1266	0.0195217
1278	0.0195217
1290	0.0226041
1302	0.0278882
1314	0.0317045
1326	0.0317045
1338	0.0387499
1350	0.0510794
1362	0.0481438
1374	0.042713
1386	0.0408048
1398	0.0234848
1410	0.0215767
1422	0.0322916
1434	0.0695737
1446	0.0971684
1458	0.139881
1470	0.131808
1482	0.0566571
1494	0.0259801
1506	0.0180539
1518	0.0114488
1530	0.00866002
1542	0.00777934
1554	0.00748578
1566	0.00645832
1578	0.00763256
1590	0.00499052
1602	0.0044034
1614	0.00631154
1626	0.00499052
1638	0.00572442
1650	0.00484374
1662	0.00308238
1674	0.0051373
1686	0.00601798
1698	0.0080729
1710	0.00763256
1722	0.00998104
1734	0.0118892
1746	0.0114488
1758	0.0115956
1770	0.0088068
1782	0.0044034
1794	0.00381628
1806	0.00249526
1818	0.00205492
1830	0.00249526
1842	0.0014678
1854	0.0014678
1866	0.00176136
1878	0.00205492
1890	0.00176136
1902	0.0014678
1914	0.00132102
1926	0.0014678
1938	0.0014678
1950	0.0014678
1962	0.0014678
1974	0.00117424
1986	0.00132102
1998	0.00161458
2010	0.00176136
2022	0.00264204
2034	0.00278882
2046	0.00264204
2058	0.00249526
2070	0.00205492
2082	0.00161458
2094	0.0014678
2106	0.00132102
2118	0.00176136
2130	0.00205492
2142	0.00190814
2154	0.00205492
2166	0.0022017
2178	0.0022017
2190	0.00205492
2202	0.00190814
2214	0.00205492
2226	0.00264204
2238	0.00645832
2250	0.0148248
2262	0.0115956
2274	0.00484374
2286	0.00396306
2298	0.00352272
2310	0.00352272
2322	0.00396306
2334	0.00249526
2346	0.00337594
2358	0.00469696
2370	0.00543086
2382	0.00308238
2394	0.00337594
2406	0.00352272
2418	0.00352272
2430	0.0036695
2442	0.00337594
2454	0.0029356
2466	0.00308238
2478	0.00322916
2490	0.00322916
2502	0.00410984
2514	0.00381628
2526	0.00455018
2538	0.00557764
2550	0.00557764
2562	0.0058712
2574	0.0066051
2586	0.00763256
2598	0.0088068
2610	0.00968748
2622	0.0104214
2634	0.0108617
2646	0.0121827
2658	0.0132102
2670	0.0145312
2682	0.0167329
2694	0.0168797
2706	0.0151183
2718	0.0151183
2730	0.0167329
2742	0.0198153
2754	0.020696
2766	0.0245123
2778	0.0286221
2790	0.0327319
2802	0.0377225
2814	0.0474099
2826	0.06473
2838	0.0942328
2850	0.201529
2862	0.516812
2874	0.516372
2886	0.361519
2898	0.296936
2910	0.435496
2922	0.842224
2934	1.4678
2946	1.15472
2958	0.720103
2970	0.614715
2982	0.256278
2994	0.11258
3006	0.0672252
3018	0.0460889
3030	0.0350804
3042	0.0278882
3054	0.0230445
3066	0.0184943
3078	0.0161458
3090	0.0143844
3102	0.0124763
3114	0.0118892
3126	0.0107149
3138	0.0105682
3150	0.00983426
3162	0.00998104
3174	0.0095407
3186	0.00924714
3198	0.00821968
3210	0.00645832
3222	0.0058712
3234	0.00572442
3246	0.00484374
3258	0.00469696
3270	0.00337594
3282	0.00455018
3294	0.00425662
3306	0.00381628
3318	0.00352272
3330	0.00308238
3342	0.00396306
3354	0.00322916
3366	0.00352272
3378	0.00337594
3390	0.00308238
3402	0.00322916
3414	0.00381628
3426	0.00381628
3438	0.00425662
3450	0.00381628
3462	0.00381628
3474	0.00322916
3486	0.00410984
3498	0.00308238
3510	0.00249526
3522	0.00264204
3534	0.00381628
3546	0.00190814
3558	0.0036695
3570	0.0036695
3582	0.00352272
3594	0.0036695
3606	0.00308238
3618	0.00616476
3630	0.00455018
3642	0.00484374
3654	0.0058712
3666	0.00469696
3678	0.00792612
3690	0.00557764
3702	0.00469696
3714	0.00484374
3726	0.0051373
3738	0.00704544
3750	0.00601798
3762	0.00557764
3774	0.00410984
3786	0.00381628
3798	0.0058712
3810	0.00410984
3822	0.00763256
3834	0.00337594
3846	0.00499052
3858	0.0066051
3870	0.0088068
3882	0.0044034
3894	0.0044034
3906	0.00689866
3918	0.00410984
3930	0.0058712
3942	0.00410984
3954	0.00278882
3966	0.007339
