Infrared Spectrum: Ether, 4-chloro-m-tolyl p-nitro-
Formula: C 13 H 10 Cl N O 3
CAS: 22532-72-5
Origin: Sadtler Research Labs Under US-EPA Contract
1/CM	ABSORBANCE
450	0.00065856
462	0.00460992
474	0.0009408
486	0.00357504
498	0.00639744
510	0.00879648
522	0.00620928
534	0.00225792
546	0.00489216
558	0.0077616
570	0.0116659
582	0.00385728
594	0.00192864
606	0.0004704
618	0.00522144
630	0.00206976
642	0.00508032
654	0.0274714
666	0.0381965
678	0.00842016
690	0.010537
702	0.0072912
714	0.00197568
726	0.0044688
738	0.0114307
750	0.0169344
762	0.0108662
774	0.003528
786	0.00324576
798	0.0113366
810	0.0277066
822	0.0252134
834	0.0207446
846	0.0481219
858	0.113555
870	0.0421949
882	0.0469459
894	0.0098784
906	0.00296352
918	0.00131712
930	0.00239904
942	0.0115718
954	0.0344803
966	0.00818496
978	0.00526848
990	0.00813792
1002	0.0174048
1014	0.0224851
1026	0.0204624
1038	0.0241786
1050	0.0622339
1062	0.062375
1074	0.01764
1086	0.0172166
1098	0.0244138
1110	0.0467107
1122	0.0545194
1134	0.0336806
1146	0.0464755
1158	0.07644
1170	0.0746054
1182	0.0171696
1194	0.0160406
1206	0.0304349
1218	0.0765341
1230	0.112896
1242	0.431122
1254	0.201331
1266	0.168027
1278	0.173954
1290	0.108615
1302	0.0528259
1314	0.0417245
1326	0.0452995
1338	0.100572
1350	0.28685
1362	0.115907
1374	0.045817
1386	0.0300586
1398	0.0291648
1410	0.0460051
1422	0.0268598
1434	0.0239904
1446	0.0292118
1458	0.0416774
1470	0.15495
1482	0.260413
1494	0.232001
1506	0.0828845
1518	0.0631277
1530	0.128984
1542	0.184726
1554	0.0995837
1566	0.0734765
1578	0.134252
1590	0.158007
1602	0.105087
1614	0.0741821
1626	0.0302467
1638	0.011807
1650	0.00747936
1662	0.00526848
1674	0.0049392
1686	0.00418656
1698	0.00409248
1710	0.00249312
1722	0.00239904
1734	0.00333984
1746	0.00277536
1758	0.00348096
1770	0.00526848
1782	0.002352
1794	0.00174048
1806	0.0016464
1818	0.00112896
1830	0.00056448
1842	0.00042336
1854	0.00103488
1866	0.00315168
1878	0.00395136
1890	0.0028224
1902	0.00413952
1914	0.00489216
1926	0.00197568
1938	0.00075264
1950	0.00084672
1962	0.00150528
1974	0.00206976
1986	0.0014112
1998	0.00122304
2010	0.00145824
2022	0.00225792
2034	0.00159936
2046	0.00169344
2058	0.0016464
2070	0.00127008
2082	0.00103488
2094	0.00150528
2106	0.00174048
2118	0.00112896
2130	0.00075264
2142	0.00028224
2154	0.00018816
2166	0.00065856
2178	0.00042336
2190	0.00037632
2202	0.0002352
2214	0.00051744
2226	0.00051744
2238	0.00042336
2250	0.00018816
2262	0.0002352
2274	0.00103488
2286	0.00216384
2298	0.004704
2310	0.00578592
2322	0.0039984
2334	0.00131712
2346	0.0042336
2358	0.00413952
2370	0.00169344
2382	0.00602112
2394	0.003528
2406	0.00310464
2418	0.00286944
2430	0.00249312
2442	0.00310464
2454	0.00512736
2466	0.00460992
2478	0.00221088
2490	0.00192864
2502	0.00206976
2514	0.00150528
2526	0.00145824
2538	0.00155232
2550	0.00127008
2562	0.00150528
2574	0.00169344
2586	0.00155232
2598	0.00192864
2610	0.00254016
2622	0.0018816
2634	0.00197568
2646	0.00169344
2658	0.00098784
2670	0.00089376
2682	0.00075264
2694	0.0014112
2706	0.0018816
2718	0.0018816
2730	0.00192864
2742	0.0021168
2754	0.00197568
2766	0.00159936
2778	0.0016464
2790	0.00183456
2802	0.00127008
2814	0.00169344
2826	0.00254016
2838	0.00385728
2850	0.00442176
2862	0.00691488
2874	0.00804384
2886	0.00710304
2898	0.00639744
2910	0.0063504
2922	0.00804384
2934	0.012983
2946	0.0132182
2958	0.008232
2970	0.0104899
2982	0.00865536
2994	0.00931392
3006	0.00550368
3018	0.0044688
3030	0.00559776
3042	0.00630336
3054	0.00503328
3066	0.00559776
3078	0.00903168
3090	0.0112426
3102	0.00522144
3114	0.00286944
3126	0.00221088
3138	0.0014112
3150	0.00127008
3162	0.001176
3174	0.0007056
3186	0.00131712
3198	0.00174048
3210	0.00155232
3222	0.00197568
3234	0.00145824
3246	0.00174048
3258	0.00155232
3270	0.00174048
3282	0.00131712
3294	0.00145824
3306	0.0021168
3318	0.00150528
3330	0.00112896
3342	0.00174048
3354	0.00174048
3366	0.00145824
3378	0.00103488
3390	0.00178752
3402	0.00202272
3414	0.00051744
3426	0.00254016
3438	0.00131712
3450	0.002352
3462	0.00112896
3474	0.00192864
3486	0.001176
3498	0.00197568
3510	0.00244608
3522	0.001176
3534	0.00159936
3546	0.00028224
3558	0.00098784
3570	0.00065856
3582	0.00174048
3594	0.00155232
3606	0.00122304
3618	0.00159936
3630	0.00169344
3642	0.001176
3654	0.00183456
3666	0.00183456
3678	0.00239904
3690	0.00263424
3702	0.0030576
3714	0.00197568
3726	0.00112896
3738	0.00145824
3750	0.00225792
3762	0.00061152
3774	0.0016464
3786	0.002352
3798	0.00202272
3810	0.0004704
3822	0.00028224
3834	0.00037632
3846	0.00409248
3858	0.001176
3870	0.00145824
3882	0.00014112
3894	0.001176
3906	0.00098784
3918	0.00131712
3930	0.00089376
3942	4.704e-05
3954	0.00277536
3966	0.00333984
