Infrared Spectrum: Cyclobutaneacetic acid, 3-carboxy-2,2-dimethyl-, dimethyl ester
Formula: C 11 H 18 O 4
CAS: 22571-83-1
Origin: Sadtler Research Labs Under US-EPA Contract
1/CM	ABSORBANCE
450	0.0035135
462	0.008602
474	0.00666353
486	0.00848085
498	0.00375581
510	0.00339234
522	0.00169617
534	0.0024231
546	0.0024231
558	0.000605775
570	0.000605775
582	0.00472504
594	0.00751161
606	0.008602
618	0.0105405
630	0.0132059
642	0.0111463
654	0.00823854
666	0.00690583
678	0.0116309
690	0.0035135
702	0.0112674
714	0.00763276
726	0.00496735
738	0.00702699
750	0.0110251
762	0.0236252
774	0.0185367
786	0.0155078
798	0.0142963
810	0.0168405
822	0.0180521
834	0.0205963
846	0.0205963
858	0.020354
870	0.027381
882	0.027381
894	0.0222925
906	0.0186579
918	0.0126001
930	0.0130847
942	0.0159925
954	0.0139328
966	0.00896547
978	0.0174463
990	0.0527024
1002	0.098499
1014	0.131938
1026	0.150596
1038	0.141751
1050	0.0911086
1062	0.0924413
1074	0.102618
1086	0.0926836
1098	0.104436
1110	0.140782
1122	0.214808
1134	0.279626
1146	0.35559
1158	0.570277
1170	0.997106
1182	0.859716
1194	0.684768
1206	0.498311
1218	0.381032
1230	0.465841
1242	0.479168
1254	0.403688
1266	0.298041
1278	0.223894
1290	0.185004
1302	0.158471
1314	0.213475
1326	0.20669
1338	0.155684
1350	0.144053
1362	0.122972
1374	0.188759
1386	0.169738
1398	0.0846873
1410	0.0474928
1422	0.0627583
1434	0.206569
1446	0.208992
1458	0.11534
1470	0.128667
1482	0.0596083
1494	0.0255637
1506	0.0141751
1518	0.010177
1530	0.0102982
1542	0.008602
1554	0.0096924
1566	0.0100559
1578	0.00957125
1590	0.0072693
1602	0.00508851
1614	0.0035135
1626	0.00375581
1638	0.00375581
1650	0.00557313
1662	0.00654237
1674	0.00993471
1686	0.0164771
1698	0.0353773
1710	0.0770546
1722	0.133392
1734	0.278293
1746	0.888914
1758	1.15691
1770	0.523753
1782	0.205358
1794	0.0782661
1806	0.0306522
1818	0.0147809
1830	0.00823854
1842	0.00557313
1854	0.00436158
1866	0.00363465
1878	0.00315003
1890	0.00254426
1902	0.0024231
1914	0.00205964
1926	0.0024231
1938	0.00339234
1950	0.00411927
1962	0.00460389
1974	0.00569429
1986	0.00666353
1998	0.00872316
2010	0.00920778
2022	0.00896547
2034	0.00908663
2046	0.00932894
2058	0.00920778
2070	0.00908663
2082	0.00775392
2094	0.00630006
2106	0.00581544
2118	0.00545198
2130	0.00448273
2142	0.00315003
2154	0.00218079
2166	0.00157501
2178	0.00096924
2190	0.000848085
2202	0.000848085
2214	0.00024231
2226	0
2238	0.000121155
2250	0.00048462
2262	0.000605775
2274	0.000363465
2286	0.00048462
2298	0.00096924
2310	0.0010904
2322	0.00096924
2334	0.00121155
2346	0.00121155
2358	0.00096924
2370	0.00218079
2382	0.00218079
2394	0.00145386
2406	0.00145386
2418	0.0010904
2430	0.000605775
2442	0.00072693
2454	0.00048462
2466	0.000121155
2478	0.000121155
2490	0.000363465
2502	0.000605775
2514	0.000605775
2526	0.00096924
2538	0.000605775
2550	0.000121155
2562	0.000605775
2574	0.000848085
2586	0.00157501
2598	0.00254426
2610	0.00278656
2622	0.00230195
2634	0.00157501
2646	0.00193848
2658	0.00218079
2670	0.00205964
2682	0.00157501
2694	0.00218079
2706	0.00205964
2718	0.00230195
2730	0.00399812
2742	0.00508851
2754	0.00339234
2766	0.00363465
2778	0.00387696
2790	0.00411927
2802	0.00520967
2814	0.00908663
2826	0.0153867
2838	0.0284714
2850	0.0705122
2862	0.0542774
2874	0.0882008
2886	0.107343
2898	0.112311
2910	0.132422
2922	0.175311
2934	0.211052
2946	0.257818
2958	0.586633
2970	0.487285
2982	0.279383
2994	0.191546
3006	0.108313
3018	0.0725718
3030	0.0685737
3042	0.041435
3054	0.0262906
3066	0.0202329
3078	0.0181733
3090	0.0163559
3102	0.0145386
3114	0.0119943
3126	0.00908663
3138	0.00763276
3150	0.00654237
3162	0.00569429
3174	0.00545198
3186	0.0048462
3198	0.00411927
3210	0.00327119
3222	0.00290772
3234	0.00254426
3246	0.00205964
3258	0.00193848
3270	0.00169617
3282	0.00133271
3294	0.00096924
3306	0.00169617
3318	0.00169617
3330	0.00157501
3342	0.0024231
3354	0.00145386
3366	0.00169617
3378	0.00193848
3390	0.00205964
3402	0.00193848
3414	0.00218079
3426	0.00193848
3438	0.00205964
3450	0.00327119
3462	0.00460389
3474	0.00666353
3486	0.00993471
3498	0.0083597
3510	0.00545198
3522	0.00205964
3534	0.00181733
3546	0.00072693
3558	0.00133271
3570	0.00072693
3582	0.0010904
3594	0.00181733
3606	0.00133271
3618	0.0010904
3630	0.00048462
3642	0.00133271
3654	0.00181733
3666	0.00205964
3678	0.0010904
3690	0.00193848
3702	0.00096924
3714	0.00133271
3726	0.00181733
3738	0.00121155
3750	0.00205964
3762	0.0024231
3774	0.00145386
3786	0.00169617
3798	0.00218079
3810	0.00254426
3822	0.00024231
3834	0.0024231
3846	0.00169617
3858	0.0024231
3870	0.00048462
3882	0.0010904
3894	0.00230195
3906	0.00121155
3918	0.00096924
3930	0
3942	0.00169617
3954	0.000848085
3966	0.000363465
