Infrared Spectrum: Benzene, 1-(1-cyclohexen-1-yl)-2-methyl-
Formula: C 13 H 16
CAS: 22618-51-5
Origin: Sadtler Research Labs Under US-EPA Contract
1/CM	ABSORBANCE
450	0.0731218
462	0.0175525
474	0.0118095
486	0.0055812
498	0.0168245
510	0.0167436
522	0.0112433
534	0.0300091
546	0.0184422
558	0.0123757
570	0.0162583
582	0.0114051
594	0.00752249
606	0.00816959
618	0.00711806
630	0.00283104
642	0.00881668
654	0.0232146
666	0.0122948
678	0.00857402
690	0.00897846
702	0.00930201
714	0.038664
726	0.114293
738	0.0997337
750	0.235139
762	0.127559
774	0.0224057
786	0.0212733
798	0.0262074
810	0.0228101
822	0.0118904
834	0.0228101
846	0.0394729
858	0.0227292
870	0.00905934
882	0.00816959
894	0.01003
906	0.0220822
918	0.0462674
930	0.0354285
942	0.0109197
954	0.00922112
966	0.0105153
978	0.0126184
990	0.0140743
1002	0.0342152
1014	0.0280678
1026	0.012861
1038	0.0220822
1050	0.0355903
1062	0.0215968
1074	0.0224057
1086	0.0153685
1098	0.010758
1110	0.0186849
1122	0.0279869
1134	0.0373698
1146	0.0284722
1158	0.0115668
1170	0.0140743
1182	0.0118904
1194	0.00922112
1206	0.00792693
1218	0.00825047
1230	0.0104344
1242	0.0210306
1254	0.0127801
1266	0.0208688
1278	0.0224866
1290	0.0136699
1302	0.0135081
1314	0.0122948
1326	0.0139935
1338	0.0306562
1350	0.045782
1362	0.0175525
1374	0.0179569
1386	0.0270971
1398	0.0159347
1410	0.0165818
1422	0.0216777
1434	0.0431128
1446	0.098035
1458	0.106286
1470	0.0666509
1482	0.0820194
1494	0.072313
1506	0.0267736
1518	0.0153685
1530	0.0108389
1542	0.00978733
1554	0.0087358
1566	0.00857402
1578	0.0154494
1590	0.0149641
1602	0.025075
1614	0.0181187
1626	0.00784604
1638	0.00930201
1650	0.00978733
1662	0.0122948
1674	0.00970644
1686	0.0139126
1698	0.0159347
1710	0.0131037
1722	0.0225675
1734	0.0208688
1746	0.00986821
1758	0.00833136
1770	0.01003
1782	0.00905934
1794	0.0127801
1806	0.0099491
1818	0.00768427
1830	0.0101918
1842	0.00663273
1854	0.00590475
1866	0.0055812
1878	0.00776515
1890	0.00833136
1902	0.0116477
1914	0.0147214
1926	0.00760338
1938	0.0134272
1950	0.0104344
1962	0.00444879
1974	0.00396346
1986	0.00469145
1998	0.00396346
2010	0.00323548
2022	0.00299282
2034	0.00161774
2046	0.000566209
2058	0.00153685
2070	0.000404435
2082	0.000647096
2094	0.00210306
2106	0.0037208
2118	0.00323548
2130	0.00339725
2142	0.00347814
2154	0.00355903
2166	0.00339725
2178	0.00428701
2190	0.0043679
2202	0.00420612
2214	0.00396346
2226	0.00396346
2238	0.0043679
2250	0.00420612
2262	0.00412524
2274	0.00477233
2286	0.0043679
2298	0.00339725
2310	0.00404435
2322	0.00550032
2334	0.00315459
2346	0.000161774
2358	0.00517677
2370	0.000161774
2382	0.000161774
2394	0.00339725
2406	0.00388258
2418	0.00347814
2430	0.00283104
2442	0.0025075
2454	0.00194129
2466	0.00210306
2478	0.00266927
2490	0.00291193
2502	0.00275016
2514	0.0037208
2526	0.00347814
2538	0.00323548
2550	0.00275016
2562	0.00242661
2574	0.00266927
2586	0.00315459
2598	0.00396346
2610	0.00509588
2622	0.00606652
2634	0.00541943
2646	0.00800781
2658	0.00711806
2670	0.00768427
2682	0.00825047
2694	0.00614741
2706	0.00444879
2718	0.00388258
2730	0.00363992
2742	0.00533854
2754	0.00469145
2766	0.00533854
2778	0.00614741
2790	0.0102726
2802	0.0140743
2814	0.0172289
2826	0.0260456
2838	0.0895419
2850	0.228991
2862	0.222439
2874	0.234411
2886	0.176738
2898	0.178437
2910	0.200357
2922	0.417539
2934	0.646853
2946	0.787839
2958	0.223733
2970	0.0906743
2982	0.0719894
2994	0.0648714
3006	0.0748205
3018	0.135567
3030	0.175687
3042	0.0906743
3054	0.0825047
3066	0.158053
3078	0.122706
3090	0.047966
3102	0.0300091
3114	0.0155303
3126	0.0105962
3138	0.0099491
3150	0.00946378
3162	0.00606652
3174	0.00452967
3186	0.00412524
3198	0.00582386
3210	0.00630919
3222	0.00614741
3234	0.00541943
3246	0.00177951
3258	0.00242661
3270	0.00315459
3282	0.00396346
3294	0.00242661
3306	0.0037208
3318	0.00452967
3330	0.00307371
3342	0.00258838
3354	0.00428701
3366	0.00275016
3378	0.0037208
3390	0.00347814
3402	0.00469145
3414	0.00412524
3426	0.00388258
3438	0.00347814
3450	0.00299282
3462	0.00331637
3474	0.00461056
3486	0.00275016
3498	0.00380169
3510	0.00412524
3522	0.00218395
3534	0.00299282
3546	0.00477233
3558	0.00355903
3570	0.0037208
3582	0.00396346
3594	0.00444879
3606	0.00428701
3618	0.00574298
3630	0.00469145
3642	0.00452967
3654	0.00630919
3666	0.00477233
3678	0.00962555
3690	0.00404435
3702	0.00517677
3714	0.00283104
3726	0.00711806
3738	0.00404435
3750	0.00477233
3762	0.00679451
3774	0.00428701
3786	0.0037208
3798	0.00768427
3810	0.00347814
3822	0.00816959
3834	0.00533854
3846	0.00347814
3858	0.00760338
3870	0.00541943
3882	0.00784604
3894	0.00598564
3906	0
3918	0.00849314
3930	0.00258838
3942	0.00541943
3954	0.00501499
3966	0.00355903
