Infrared Spectrum: 4,4,6-Trimethyl-2-vinyl-1,3-dioxane
Formula: C 9 H 16 O 2
CAS: 22634-89-5
Origin: Sadtler Research Labs Under US-EPA Contract
1/CM	ABSORBANCE
450	0.0133562
462	0.00900221
474	0.0122971
486	0.0194165
498	0.0184163
510	0.00994362
522	0.00506007
534	0.00806081
546	0.00235352
558	0.0092964
570	0.00470704
582	0.0104143
594	0.00570729
606	0.0118264
618	0.00994362
630	0.0132385
642	0.00682521
654	0.00853151
666	0.00894338
678	0.0140623
690	0.0158274
702	0.0220643
714	0.0280069
726	0.0161804
738	0.0162981
750	0.00894338
762	0.00923757
774	0.0138269
786	0.0184163
798	0.012003
810	0.0137093
822	0.0140034
834	0.0155921
846	0.0238294
858	0.0518363
870	0.0430106
882	0.0703114
894	0.0955529
906	0.064663
918	0.067193
930	0.141035
942	0.109498
954	0.0632508
966	0.0758422
978	0.141858
990	0.265889
1002	0.311606
1014	0.336965
1026	0.306605
1038	0.176161
1050	0.144094
1062	0.193518
1074	0.284011
1086	0.259181
1098	0.288365
1110	0.196166
1122	0.121559
1134	0.132386
1146	0.145683
1158	0.259829
1170	0.453994
1182	0.332199
1194	0.182927
1206	0.165747
1218	0.18834
1230	0.14074
1242	0.0625448
1254	0.0520716
1266	0.101966
1278	0.0814906
1290	0.0504242
1302	0.0712528
1314	0.141741
1326	0.159451
1338	0.0862565
1350	0.115381
1362	0.160216
1374	0.290777
1386	0.226114
1398	0.0761364
1410	0.0598382
1422	0.108438
1434	0.128267
1446	0.100436
1458	0.0681344
1470	0.0549547
1482	0.0320667
1494	0.0158274
1506	0.0125913
1518	0.0103555
1530	0.00900221
1542	0.0113557
1554	0.00994362
1566	0.00894338
1578	0.00970827
1590	0.00917873
1602	0.00964943
1614	0.00864919
1626	0.00923757
1638	0.0114734
1650	0.0118264
1662	0.0107674
1674	0.00935524
1686	0.0107085
1698	0.010179
1710	0.00906105
1722	0.00888454
1734	0.00823732
1746	0.00800197
1758	0.00735475
1770	0.00906105
1782	0.00870802
1794	0.00829616
1806	0.00717824
1818	0.0071194
1830	0.00700172
1842	0.00747243
1854	0.0102967
1866	0.0159451
1878	0.0139446
1890	0.00823732
1902	0.00682521
1914	0.00717824
1926	0.00664869
1938	0.00688405
1950	0.0075901
1962	0.00841383
1974	0.00688405
1986	0.00594264
1998	0.00570729
2010	0.00576612
2022	0.00617799
2034	0.00600148
2046	0.00570729
2058	0.00600148
2070	0.00594264
2082	0.0058838
2094	0.00488355
2106	0.00535426
2118	0.00564845
2130	0.00523658
2142	0.00511891
2154	0.0054131
2166	0.0046482
2178	0.00394215
2190	0.00288306
2202	0.00335377
2214	0.00305958
2226	0.00270655
2238	0.00317725
2250	0.00305958
2262	0.00276539
2274	0.00300074
2286	0.00241236
2298	0.00382447
2310	0.00400098
2322	0.00370679
2334	0.00511891
2346	0.00364796
2358	0.00629567
2370	0.00317725
2382	0.00217701
2394	0.00200049
2406	0.00141211
2418	0.00229468
2430	0.00223584
2442	0.00229468
2454	0.00270655
2466	0.00152979
2478	0.00241236
2490	0.000941408
2502	0.00105908
2514	0.00088257
2526	0.000764894
2538	0.000823732
2550	0.00135327
2562	0.00229468
2574	0.00235352
2586	0.00511891
2598	0.00729591
2610	0.00935524
2622	0.0139446
2634	0.012003
2646	0.00800197
2658	0.00941408
2670	0.0119441
2682	0.0104143
2694	0.0108262
2706	0.0144741
2718	0.0151802
2730	0.0145918
2742	0.0147095
2754	0.0159451
2766	0.0189458
2778	0.0201226
2790	0.020711
2802	0.0242413
2814	0.0314195
2826	0.0497181
2838	0.0869626
2850	0.124795
2862	0.155509
2874	0.157333
2886	0.104026
2898	0.0797255
2910	0.111733
2922	0.170336
2934	0.181045
2946	0.306369
2958	0.129385
2970	0.149449
2982	0.565198
2994	0.331023
3006	0.0552489
3018	0.0234764
3030	0.0212405
3042	0.0313607
3054	0.0202403
3066	0.0121206
3078	0.0156509
3090	0.0358323
3102	0.0511302
3114	0.0247708
3126	0.00811964
3138	0.00706056
3150	0.00611915
3162	0.0058838
3174	0.00558961
3186	0.00594264
3198	0.0063545
3210	0.00600148
3222	0.00329493
3234	0.00217701
3246	0.00223584
3258	0.00235352
3270	0.00105908
3282	0.00164746
3294	0.00258887
3306	0.00241236
3318	0.00164746
3330	0.00164746
3342	0.00182398
3354	0.000764894
3366	0.00135327
3378	0.00176514
3390	0.00135327
3402	0.00176514
3414	0.00217701
3426	0.00135327
3438	0.00241236
3450	0.00194165
3462	0.00117676
3474	0.000411866
3486	0.00100025
3498	0.00200049
3510	0.0012356
3522	5.8838e-05
3534	0.00141211
3546	0.00105908
3558	0.00111792
3570	0.00323609
3582	0.00311841
3594	0.00264771
3606	5.8838e-05
3618	0.00100025
3630	0.00229468
3642	0.00117676
3654	0.0012356
3666	0.00241236
3678	0.00182398
3690	0.00276539
3702	0.00129444
3714	0.00217701
3726	0.00205933
3738	0.00152979
3750	0.00229468
3762	0.00188282
3774	0.00129444
3786	0.000529542
3798	0.0017063
3810	0.000941408
3822	0.00205933
3834	0.00217701
3846	0.00194165
3858	0.000647218
3870	0.00164746
3882	0.000823732
3894	0.00253003
3906	0.0017063
3918	0.00129444
3930	5.8838e-05
3942	0.000235352
3954	5.8838e-05
3966	5.8838e-05
