Infrared Spectrum: Benzylamine, N,N-dioctyl-,
Formula: C 23 H 41 N
CAS: 22643-20-5
Origin: Sadtler Research Labs Under US-EPA Contract
1/CM	ABSORBANCE
450	0
462	0.0428909
474	0.0481582
486	0.0388777
498	0.0366203
510	0.0423893
522	0.0430163
534	0.0351154
546	0.0329834
558	0.0307259
570	0.0418876
582	0.0317292
594	0.0354916
606	0.0367457
618	0.037749
630	0.0344883
642	0.0359932
654	0.0333596
666	0.0388777
678	0.0506664
690	0.0988247
702	0.166422
714	0.117636
726	0.150244
738	0.168805
750	0.0835244
762	0.0588182
774	0.052673
786	0.0426401
798	0.0412605
810	0.0438942
822	0.0486599
834	0.0436434
846	0.0460262
858	0.0418876
870	0.0437688
882	0.0436434
894	0.0497886
906	0.0573133
918	0.0510427
930	0.0479074
942	0.0551813
954	0.0630822
966	0.0650888
978	0.0606994
990	0.0527985
1002	0.05631
1014	0.0699799
1026	0.109485
1038	0.0842769
1050	0.0846531
1062	0.0915508
1074	0.105095
1086	0.107478
1098	0.123907
1110	0.107478
1122	0.0880392
1134	0.0930557
1146	0.109108
1158	0.0918016
1170	0.0786333
1182	0.0811416
1194	0.0859072
1206	0.0777554
1218	0.0713594
1230	0.0703561
1242	0.0787587
1254	0.0828973
1266	0.0859072
1278	0.0845277
1290	0.0900458
1302	0.0923032
1314	0.0905475
1326	0.0872868
1338	0.100957
1350	0.124032
1362	0.136323
1374	0.122277
1386	0.098323
1398	0.0707324
1410	0.0634585
1422	0.0650888
1434	0.0835244
1446	0.141841
1458	0.20254
1470	0.170184
1482	0.0986992
1494	0.115379
1506	0.069102
1518	0.0501648
1530	0.0421384
1542	0.0267128
1554	0.0322309
1566	0.0352408
1578	0.0405081
1590	0.0385015
1602	0.0486599
1614	0.0386269
1626	0.0372474
1638	0.039881
1650	0.0416368
1662	0.0393794
1674	0.0485344
1686	0.0527985
1698	0.0828973
1710	0.0920524
1722	0.0594453
1734	0.0511681
1746	0.050541
1758	0.0534255
1770	0.0538017
1782	0.0465279
1794	0.043518
1806	0.0366203
1818	0.0294718
1830	0.0294718
1842	0.0254586
1854	0.0263365
1866	0.0284685
1878	0.0284685
1890	0.0257095
1902	0.024957
1914	0.0247062
1926	0.0267128
1938	0.0316038
1950	0.0293464
1962	0.0260857
1974	0.0247062
1986	0.0244553
1998	0.0239537
2010	0.0242045
2022	0.0243299
2034	0.0247062
2046	0.0243299
2058	0.0238283
2070	0.023452
2082	0.023452
2094	0.0233266
2106	0.0230758
2118	0.0233266
2130	0.0232012
2142	0.023452
2154	0.0239537
2166	0.0247062
2178	0.0245808
2190	0.0247062
2202	0.0243299
2214	0.0243299
2226	0.0247062
2238	0.024957
2250	0.025584
2262	0.0260857
2274	0.0262111
2286	0.0260857
2298	0.0264619
2310	0.0287193
2322	0.0294718
2334	0.0311022
2346	0.037122
2358	0.0311022
2370	0.031353
2382	0.0280923
2394	0.0264619
2406	0.0267128
2418	0.0269636
2430	0.0265873
2442	0.0269636
2454	0.0267128
2466	0.0265873
2478	0.0272144
2490	0.0277161
2502	0.0283431
2514	0.0288448
2526	0.0293464
2538	0.0304751
2550	0.0311022
2562	0.0327325
2574	0.0339867
2586	0.0357424
2598	0.037122
2610	0.0383761
2622	0.0405081
2634	0.042013
2646	0.0442704
2658	0.0480328
2670	0.0519206
2682	0.0558083
2694	0.0593199
2706	0.0657159
2718	0.0709832
2730	0.0768776
2742	0.083399
2754	0.0896696
2766	0.099828
2778	0.122904
2790	0.182976
2802	0.243926
2814	0.225992
2826	0.206804
2838	0.215959
2850	0.338989
2862	0.553945
2874	0.450856
2886	0.385391
2898	0.410473
2910	0.577397
2922	0.913125
2934	1.25412
2946	0.901211
2958	0.626433
2970	0.524222
2982	0.23753
2994	0.137075
3006	0.104468
3018	0.102587
3030	0.136072
3042	0.102336
3054	0.0862835
3066	0.117511
3078	0.101333
3090	0.0820194
3102	0.0565608
3114	0.0474057
3126	0.0400064
3138	0.0372474
3150	0.0366203
3162	0.0363695
3174	0.035617
3186	0.0346137
3198	0.0331088
3210	0.0323563
3222	0.0321055
3234	0.0308514
3246	0.0297226
3258	0.0302243
3270	0.0300989
3282	0.0298481
3294	0.0294718
3306	0.0300989
3318	0.0298481
3330	0.0293464
3342	0.0300989
3354	0.0300989
3366	0.0302243
3378	0.0307259
3390	0.031353
3402	0.0312276
3414	0.0312276
3426	0.0311022
3438	0.0317292
3450	0.0314784
3462	0.0318546
3474	0.0331088
3486	0.0318546
3498	0.031353
3510	0.0294718
3522	0.0319801
3534	0.0307259
3546	0.0329834
3558	0.0294718
3570	0.0366203
3582	0.0405081
3594	0.0359932
3606	0.0366203
3618	0.0319801
3630	0.0378744
3642	0.0369965
3654	0.0361187
3666	0.0405081
3678	0.0245808
3690	0.0322309
3702	0.0385015
3714	0.0351154
3726	0.031353
3738	0.0290956
3750	0.0412605
3762	0.0339867
3774	0.0314784
3786	0.0351154
3798	0.0366203
3810	0.0383761
3822	0.027089
3834	0.0367457
3846	0.0406335
3858	0.025584
3870	0.0300989
3882	0.0406335
3894	0.0324817
3906	0.0309768
3918	0.0411351
3930	0.0332342
3942	0.0361187
3954	0.039881
3966	0.0400064
