Infrared Spectrum: Pyridine, 2-(p-chloroanilino)-,
Formula: C 11 H 9 Cl N 2
CAS: 22681-77-2
Origin: Sadtler Research Labs Under US-EPA Contract
1/CM	ABSORBANCE
450	0.0797587
462	0.0736727
474	0.0595788
486	0.0681205
498	0.0833889
510	0.0326722
522	0.0160158
534	0.00523183
546	0.00330993
558	0.00309639
570	0.00202867
582	0.00565892
594	0.0127059
606	0.025305
618	0.0185783
630	0.0155887
642	0.0138804
654	0.0144142
666	0.0139871
678	0.0179377
690	0.024344
702	0.0258388
714	0.0432427
726	0.0613939
738	0.0837092
750	0.0779436
762	0.155246
774	0.133038
786	0.0645971
798	0.0888343
810	0.110509
822	0.117876
834	0.0746336
846	0.040253
858	0.0208205
870	0.0124923
882	0.0158023
894	0.0190054
906	0.00982302
918	0.0127059
930	0.0153752
942	0.0164429
954	0.0205002
966	0.0218883
978	0.035128
990	0.0698289
1002	0.0329925
1014	0.0893682
1026	0.0257321
1038	0.0274404
1050	0.0358754
1062	0.0316045
1074	0.0440968
1086	0.145957
1098	0.203401
1110	0.0759149
1122	0.0538131
1134	0.0483677
1146	0.108053
1158	0.0524251
1170	0.043563
1182	0.0445239
1194	0.0314977
1206	0.0395056
1218	0.0715372
1230	0.10816
1242	0.0791181
1254	0.075381
1266	0.0760217
1278	0.104423
1290	0.119478
1302	0.228706
1314	0.441716
1326	0.323092
1338	0.193151
1350	0.0837092
1362	0.0606465
1374	0.048688
1386	0.066519
1398	0.090863
1410	0.0901156
1422	0.244188
1434	0.267677
1446	0.651523
1458	0.195606
1470	0.294797
1482	0.530657
1494	0.728826
1506	1.06772
1518	0.411499
1530	0.143181
1542	0.104637
1554	0.107199
1566	0.198169
1578	0.475349
1590	0.605504
1602	0.478232
1614	0.245362
1626	0.0555214
1638	0.0289352
1650	0.0198596
1662	0.0119585
1674	0.0139871
1686	0.0147345
1698	0.0138804
1710	0.00939594
1722	0.0034167
1734	0.0026693
1746	0.00811467
1758	0.0125991
1770	0.0101433
1782	0.00587246
1794	0.00768758
1806	0.0080079
1818	0.00790113
1830	0.00907562
1842	0.00843499
1854	0.00832822
1866	0.0124923
1878	0.0164429
1890	0.0137736
1902	0.0122788
1914	0.0103569
1926	0.00928916
1938	0.00907562
1950	0.00832822
1962	0.00619278
1974	0.00448442
1986	0.00373702
1998	0.0034167
2010	0.00245576
2022	0.00320316
2034	0.00363025
2046	0.00288284
2058	0.00288284
2070	0.00309639
2082	0.00277607
2094	0.00352348
2106	0.00395056
2118	0.00405734
2130	0.00373702
2142	0.00277607
2154	0.00202867
2166	0.00160158
2178	0.00117449
2190	0.000960948
2202	0.00128126
2214	0.000640632
2226	0
2238	0.00053386
2250	0.00106772
2262	0.00117449
2274	0.00224221
2286	0.00352348
2298	0.00523183
2310	0.00704695
2322	0.00694018
2334	0.00555214
2346	0.00565892
2358	0.00565892
2370	0.006086
2382	0.00555214
2394	0.00309639
2406	0.00277607
2418	0.00234898
2430	0.00213544
2442	0.00234898
2454	0.00277607
2466	0.00405734
2478	0.00565892
2490	0.00736727
2502	0.00640632
2514	0.00395056
2526	0.00416411
2538	0.00523183
2550	0.00587246
2562	0.00576569
2574	0.00373702
2586	0.00224221
2598	0.00213544
2610	0.00224221
2622	0.0026693
2634	0.00202867
2646	0.00181512
2658	0.00149481
2670	0.00213544
2682	0.00245576
2694	0.00298962
2706	0.00384379
2718	0.00469797
2730	0.00576569
2742	0.00555214
2754	0.00448442
2766	0.00363025
2778	0.00352348
2790	0.00469797
2802	0.00619278
2814	0.00640632
2826	0.00640632
2838	0.00704695
2850	0.00683341
2862	0.00576569
2874	0.00565892
2886	0.00544537
2898	0.006086
2910	0.00651309
2922	0.00629955
2934	0.00736727
2946	0.00886208
2958	0.00907562
2970	0.0104637
2982	0.0115314
2994	0.0170835
3006	0.0298962
3018	0.0492219
3030	0.0590449
3042	0.0530657
3054	0.0566959
3066	0.0531725
3078	0.0535995
3090	0.075381
3102	0.0366228
3114	0.0155887
3126	0.0080079
3138	0.00544537
3150	0.0045912
3162	0.00469797
3174	0.00544537
3186	0.00512506
3198	0.00501828
3210	0.00416411
3222	0.00309639
3234	0.00384379
3246	0.00384379
3258	0.00405734
3270	0.00491151
3282	0.00512506
3294	0.00501828
3306	0.0053386
3318	0.00619278
3330	0.00672664
3342	0.00843499
3354	0.0102501
3366	0.0129194
3378	0.0155887
3390	0.0207138
3402	0.0273336
3414	0.0367296
3426	0.0460187
3438	0.0396124
3450	0.0213544
3462	0.0166564
3474	0.0101433
3486	0.00256253
3498	0.00053386
3510	0.000747404
3522	0.000427088
3534	0.00053386
3546	0.000960948
3558	0.00128126
3570	0.00202867
3582	0.00202867
3594	0.000854176
3606	0.00149481
3618	0.00149481
3630	0.00170835
3642	0.000960948
3654	0.00245576
3666	0.00128126
3678	0.00256253
3690	0.00181512
3702	0.00170835
3714	0.00224221
3726	0.00288284
3738	0.0026693
3750	0.00106772
3762	0.00181512
3774	0.00117449
3786	0.00149481
3798	0.00138804
3810	0.00213544
3822	0.00117449
3834	0.00106772
3846	0.00160158
3858	0.00224221
3870	0.00320316
3882	0.00128126
3894	0.000213544
3906	0.00213544
3918	0.00224221
3930	0.00170835
3942	0.00149481
3954	0.00202867
3966	0.00213544
