Infrared Spectrum: 1,1,1,3-Tetrachlorotetrafluoropropane
Formula: C 3 Cl 4 F 4
CAS: 2268-46-4
Origin: Sadtler Research Labs Under US-EPA Contract
1/CM	ABSORBANCE
450	0.00410828
462	0.00394394
474	0.00525859
486	0.00887387
498	0.0116675
510	0.00509426
522	0.00443694
534	0.00788789
546	0.00706623
558	0.00985986
570	0.00427261
582	0.00805222
594	0.0520929
606	0.069019
618	0.0716483
630	0.0177477
642	0.0350025
654	0.0420687
666	0.0272789
678	0.181914
690	0.0359885
702	0.0747706
714	0.483955
726	0.749349
738	0.211165
750	0.0843018
762	0.221354
774	0.243374
786	0.0399324
798	0.0272789
810	0.0374675
822	0.0555439
834	0.134423
846	0.639083
858	1.22788
870	0.114374
882	0.0407541
894	0.0299082
906	0.0382891
918	0.0711553
930	0.31683
942	0.532104
954	0.161044
966	0.344602
978	0.308778
990	0.0580088
1002	0.0236637
1014	0.0142968
1026	0.0131465
1038	0.0144611
1050	0.0205414
1062	0.045191
1074	0.140832
1086	0.37221
1098	0.467686
1110	0.76644
1122	0.32176
1134	0.201305
1146	0.210837
1158	0.471959
1170	0.951312
1182	1.58711
1194	0.743269
1206	0.0824942
1218	0.0555439
1230	0.094819
1242	0.175834
1254	0.0890674
1266	0.0387821
1278	0.0198841
1290	0.0100242
1302	0.00854521
1314	0.00788789
1326	0.00608025
1338	0.00509426
1350	0.00591592
1362	0.00706623
1374	0.00838088
1386	0.00772356
1398	0.00542292
1410	0.00558725
1422	0.00640891
1434	0.00542292
1446	0.00640891
1458	0.00608025
1470	0.0047656
1482	0.00443694
1494	0.00410828
1506	0.00377961
1518	0.00361528
1530	0.00295796
1542	0.00312229
1554	0.00377961
1566	0.00295796
1578	0.00230063
1590	0.00230063
1602	0.00164331
1614	0.0021363
1626	0.0026293
1638	0.0026293
1650	0.00345095
1662	0.00295796
1674	0.00246496
1686	0.0026293
1698	0.00377961
1710	0.00427261
1722	0.00427261
1734	0.00279363
1746	0.00164331
1758	0.00115032
1770	0.000821655
1782	0.00295796
1794	0.00279363
1806	0.0021363
1818	0.00197197
1830	0.00197197
1842	0.00246496
1854	0.00312229
1866	0.00230063
1878	0.00115032
1890	0.00115032
1902	0.000985986
1914	0.000985986
1926	0.00115032
1938	0.00115032
1950	0.000657324
1962	0.000985986
1974	0.000985986
1986	0.000657324
1998	0.00115032
2010	0.00147898
2022	0.00230063
2034	0.00230063
2046	0.00164331
2058	0.000985986
2070	0.000821655
2082	0.000821655
2094	0.000985986
2106	0.00115032
2118	0.00131465
2130	0.00115032
2142	0.000985986
2154	0.000985986
2166	0.000985986
2178	0.00147898
2190	0.00197197
2202	0.00197197
2214	0.00197197
2226	0.00197197
2238	0.00230063
2250	0.00345095
2262	0.00361528
2274	0.00427261
2286	0.00492993
2298	0.00377961
2310	0.00328662
2322	0.00509426
2334	0.00575159
2346	0.00838088
2358	0.00706623
2370	0.00410828
2382	0.00345095
2394	0.00312229
2406	0.00377961
2418	0.00410828
2430	0.00492993
2442	0.00443694
2454	0.00164331
2466	0.000985986
2478	0.000657324
2490	0.000328662
2502	0.000821655
2514	0.000657324
2526	0.000657324
2538	0.000657324
2550	0.000657324
2562	0.000657324
2574	0.000164331
2586	0.000328662
2598	0.000328662
2610	0.000328662
2622	0.000164331
2634	0.000164331
2646	0.000492993
2658	0.000492993
2670	0.000492993
2682	0
2694	0.000164331
2706	0.000164331
2718	0.000328662
2730	0.000492993
2742	0.000492993
2754	0.000492993
2766	0.000328662
2778	0.000164331
2790	0.000657324
2802	0.000492993
2814	0.000328662
2826	0.000492993
2838	0.000164331
2850	0.000492993
2862	0.000492993
2874	0.000821655
2886	0.000821655
2898	0.000657324
2910	0.00115032
2922	0.000657324
2934	0.000657324
2946	0.00115032
2958	0.000985986
2970	0.000821655
2982	0.000985986
2994	0.000492993
3006	0.000328662
3018	0.000821655
3030	0.000821655
3042	0.000657324
3054	0.000328662
3066	0.000164331
3078	0.000328662
3090	0.000985986
3102	0
3114	0.000328662
3126	0.000492993
3138	0.000328662
3150	0.000821655
3162	0.000821655
3174	0.000492993
3186	0.000657324
3198	0.000492993
3210	0.000821655
3222	0.000492993
3234	0.000492993
3246	0.000492993
3258	0.000821655
3270	0.000821655
3282	0.000821655
3294	0.000657324
3306	0.000821655
3318	0.000328662
3330	0.000985986
3342	0.000492993
3354	0.00115032
3366	0.000657324
3378	0.000821655
3390	0.000821655
3402	0.00115032
3414	0.000821655
3426	0.000164331
3438	0.000657324
3450	0.000328662
3462	0.000821655
3474	0.00131465
3486	0.000985986
3498	0.000985986
3510	0.000821655
3522	0.000164331
3534	0.000492993
3546	0.000492993
3558	0
3570	0.000492993
3582	0.000985986
3594	0.000657324
3606	0.000657324
3618	0.000985986
3630	0.000492993
3642	0.00164331
3654	0.000657324
3666	0.000985986
3678	0.000328662
3690	0.00115032
3702	0.000821655
3714	0.00147898
3726	0.00147898
3738	0.000821655
3750	0.00131465
3762	0.00131465
3774	0.000985986
3786	0.000985986
3798	0.00197197
3810	0.000821655
3822	0.00131465
3834	0.00180764
3846	0.00164331
3858	0
3870	0.00115032
3882	0.00131465
3894	0.00131465
3906	0.00197197
3918	0.00180764
3930	0.000985986
3942	0.000985986
3954	0.0021363
3966	0
