Infrared Spectrum: 1H-Isoindole-1,3(2H)-dione, 2-(2-chlorophenyl)-
Formula: C 14 H 8 Cl N O 2
CAS: 22698-95-9
Origin: Sadtler Research Labs Under US-EPA Contract
1/CM	ABSORBANCE
450	0
462	0.0153848
474	0.010472
486	0.012185
498	0.0137041
510	0.0147384
522	0.0232388
534	0.0198128
546	0.0179058
558	0.0124436
570	0.0143505
582	0.0142536
594	0.0134132
606	0.0159666
618	0.0246932
630	0.0403366
642	0.0131223
654	0.0127345
666	0.0155787
678	0.0318685
690	0.029606
702	0.0290566
714	0.133744
726	0.0717849
738	0.0196835
750	0.0619917
762	0.0324503
774	0.0123143
786	0.0205885
798	0.0113447
810	0.00736919
822	0.0129284
834	0.0128961
846	0.0235297
858	0.0360056
870	0.0186169
882	0.0553659
894	0.0212672
906	0.0111831
918	0.0104074
930	0.0102134
942	0.0115709
954	0.0122497
966	0.0124436
978	0.0125729
990	0.0120881
1002	0.0133486
1014	0.0154494
1026	0.0202006
1038	0.0220106
1050	0.0351006
1062	0.0557214
1074	0.0633492
1086	0.0691346
1098	0.0614099
1110	0.054267
1122	0.0361026
1134	0.0227217
1146	0.0142859
1158	0.0174857
1170	0.0158696
1182	0.0154494
1194	0.0130254
1206	0.0222045
1218	0.0525863
1230	0.0213319
1242	0.014803
1254	0.0224631
1266	0.0410153
1278	0.0184876
1290	0.0177765
1302	0.0155141
1314	0.0180028
1326	0.0239175
1338	0.0301878
1350	0.0449585
1362	0.132904
1374	0.32321
1386	0.110926
1398	0.0222692
1410	0.0239175
1422	0.0296707
1434	0.0208794
1446	0.0351329
1458	0.0277961
1470	0.0504854
1482	0.152652
1494	0.0498713
1506	0.0262123
1518	0.0210733
1530	0.0130577
1542	0.0185199
1554	0.0157726
1566	0.0141243
1578	0.018229
1590	0.023562
1602	0.0198128
1614	0.0150293
1626	0.0146737
1638	0.0144475
1650	0.0166453
1662	0.0170008
1674	0.0223015
1686	0.0310282
1698	0.0414678
1710	0.0808348
1722	0.169815
1734	0.168489
1746	0.215516
1758	0.255918
1770	0.0590181
1782	0.0351652
1794	0.0409184
1806	0.0283778
1818	0.00904988
1830	0.00853274
1842	0.00866203
1854	0.00678741
1866	0.00727222
1878	0.00778936
1890	0.00791865
1902	0.00843578
1914	0.0101488
1926	0.00859739
1938	0.00959934
1950	0.00995487
1962	0.00843578
1974	0.00943773
1986	0.00804793
1998	0.00801561
2010	0.00795097
2022	0.00837114
2034	0.00837114
2046	0.0083065
2058	0.00843578
2070	0.00853274
2082	0.00872667
2094	0.00850042
2106	0.00856507
2118	0.00840346
2130	0.0084681
2142	0.00856507
2154	0.00843578
2166	0.00940541
2178	0.00947005
2190	0.0090822
2202	0.00914684
2214	0.00917916
2226	0.00917916
2238	0.00959934
2250	0.00937309
2262	0.00956702
2274	0.0090822
2286	0.00976094
2298	0.010569
2310	0.0105366
2322	0.010472
2334	0.00924381
2346	0.00924381
2358	0.00976094
2370	0.00985791
2382	0.0106013
2394	0.00862971
2406	0.00859739
2418	0.00872667
2430	0.00947005
2442	0.00937309
2454	0.00943773
2466	0.00904988
2478	0.00895292
2490	0.00888827
2502	0.00895292
2514	0.00840346
2526	0.00837114
2538	0.00882363
2550	0.00875899
2562	0.00879131
2574	0.00833882
2586	0.00824185
2598	0.00811257
2610	0.00840346
2622	0.00850042
2634	0.00879131
2646	0.00850042
2658	0.0083065
2670	0.00875899
2682	0.00869435
2694	0.00856507
2706	0.00817721
2718	0.00811257
2730	0.00733687
2742	0.00749847
2754	0.00791865
2766	0.00817721
2778	0.00824185
2790	0.00782168
2802	0.00782168
2814	0.00795097
2826	0.00795097
2838	0.00795097
2850	0.007854
2862	0.00801561
2874	0.00756311
2886	0.00788632
2898	0.0076924
2910	0.00833882
2922	0.00833882
2934	0.00804793
2946	0.00820953
2958	0.00795097
2970	0.0084681
2982	0.00875899
2994	0.00853274
3006	0.00947005
3018	0.0101811
3030	0.0115386
3042	0.0127022
3054	0.0156434
3066	0.0204592
3078	0.0246932
3090	0.0241761
3102	0.0139304
3114	0.00963166
3126	0.00914684
3138	0.00843578
3150	0.00869435
3162	0.00914684
3174	0.00833882
3186	0.0076924
3198	0.00824185
3210	0.00901756
3222	0.00850042
3234	0.00808025
3246	0.00811257
3258	0.00798329
3270	0.00795097
3282	0.0084681
3294	0.00820953
3306	0.00869435
3318	0.0089206
3330	0.00882363
3342	0.00911452
3354	0.00875899
3366	0.0090822
3378	0.0089206
3390	0.00885595
3402	0.00850042
3414	0.00859739
3426	0.0089206
3438	0.00866203
3450	0.00869435
3462	0.00888827
3474	0.00963166
3486	0.00959934
3498	0.00972862
3510	0.00979326
3522	0.0115063
3534	0.0110861
3546	0.00995487
3558	0.00963166
3570	0.00837114
3582	0.0084681
3594	0.00866203
3606	0.00820953
3618	0.00833882
3630	0.00866203
3642	0.0084681
3654	0.00840346
3666	0.00950237
3678	0.00714294
3690	0.00850042
3702	0.00817721
3714	0.0089206
3726	0.00872667
3738	0.00862971
3750	0.00856507
3762	0.00924381
3774	0.00885595
3786	0.00966398
3798	0.00972862
3810	0.00963166
3822	0.00947005
3834	0.00801561
3846	0.00904988
3858	0.00866203
3870	0.00911452
3882	0.00940541
3894	0.00843578
3906	0.00753079
3918	0.0089206
3930	0.00959934
3942	0.0106336
3954	0.0102458
3966	0.0104074
