Infrared Spectrum: Benzoic acid, 2-hydroxy-5-methyl-, methyl ester
Formula: C 9 H 10 O 3
CAS: 22717-57-3
Origin: Sadtler Research Labs Under US-EPA Contract
1/CM	ABSORBANCE
450	0.06936
462	0.0544344
474	0.0656725
486	0.0363482
498	0.0254613
510	0.0272172
522	0.0600535
534	0.166288
546	0.0944701
558	0.0312559
570	0.0393333
582	0.027744
594	0.0398601
606	0.0314315
618	0.040738
630	0.0361726
642	0.0345922
654	0.0447767
666	0.0663749
678	0.153294
690	0.183848
702	0.179985
714	0.105181
726	0.0379285
738	0.0133452
750	0.0549612
762	0.128184
774	0.123268
786	0.0762082
798	0.12397
810	0.0851636
822	0.224586
834	0.140827
846	0.0358214
858	0.0307291
870	0.0226518
882	0.0321339
894	0.0454791
906	0.0384553
918	0.0200178
930	0.0235297
942	0.0231785
954	0.0307291
966	0.0488154
978	0.0651457
990	0.0667261
1002	0.0870951
1014	0.0612827
1026	0.0391577
1038	0.0398601
1050	0.0454791
1062	0.0739255
1074	0.178756
1086	0.458654
1098	0.364008
1110	0.0944701
1122	0.078491
1134	0.105533
1146	0.12397
1158	0.153119
1170	0.178229
1182	0.331875
1194	0.759273
1206	1.55121
1218	1.39668
1230	0.66094
1242	0.484467
1254	0.461464
1266	0.278845
1278	0.318354
1290	0.857606
1302	0.86024
1314	0.39386
1326	0.631264
1338	0.637059
1350	0.384202
1362	0.188413
1374	0.238985
1386	0.300092
1398	0.247413
1410	0.127482
1422	0.135559
1434	0.303428
1446	0.57402
1458	0.191223
1470	0.167342
1482	0.356985
1494	0.647419
1506	0.421779
1518	0.130116
1530	0.0881487
1542	0.0739255
1554	0.057244
1566	0.0688332
1578	0.120458
1590	0.206149
1602	0.234946
1614	0.195086
1626	0.173663
1638	0.0993868
1650	0.0907826
1662	0.105708
1674	0.221425
1686	0.79527
1698	1.30801
1710	0.6051
1722	0.184024
1734	0.0972796
1746	0.137666
1758	0.131345
1770	0.064619
1782	0.0395089
1794	0.0272172
1806	0.0191399
1818	0.0131696
1830	0.0143988
1842	0.0189643
1854	0.0201934
1866	0.0161547
1878	0.0114137
1890	0.00860415
1902	0.012994
1914	0.0163303
1926	0.00930653
1938	0.00930653
1950	0.00930653
1962	0.00807737
1974	0.0105357
1986	0.00965772
1998	0.00807737
2010	0.00755058
2022	0.00825296
2034	0.00737499
2046	0.0103601
2058	0.015628
2070	0.0140476
2082	0.00667261
2094	0.00649701
2106	0.00860415
2118	0.00667261
2130	0.00491666
2142	0.00298511
2154	0.00280952
2166	0.00298511
2178	0.00368749
2190	0.0035119
2202	0.00245833
2214	0.00210714
2226	0.00245833
2238	0.00245833
2250	0.00228273
2262	0.00175595
2274	0.00228273
2286	0.00193154
2298	0.00245833
2310	0.000877975
2322	0.000877975
2334	0.00298511
2346	0.00421428
2358	0.00491666
2370	0.00456547
2382	0.00421428
2394	0.00474107
2406	0.00421428
2418	0.00456547
2430	0.0035119
2442	0.00158035
2454	0.00105357
2466	0.00158035
2478	0.00245833
2490	0.00509225
2502	0.0068482
2514	0.00579463
2526	0.00579463
2538	0.00649701
2550	0.00597023
2562	0.00597023
2574	0.00719939
2586	0.00983332
2598	0.00895534
2610	0.00667261
2622	0.00667261
2634	0.00649701
2646	0.00597023
2658	0.00667261
2670	0.00632142
2682	0.00737499
2694	0.00895534
2706	0.00930653
2718	0.0105357
2730	0.0115893
2742	0.0140476
2754	0.0152768
2766	0.0124672
2778	0.0140476
2790	0.013872
2802	0.0128184
2814	0.01475
2826	0.0179107
2838	0.0247589
2850	0.0409136
2862	0.0718184
2874	0.084988
2886	0.0877975
2898	0.0763838
2910	0.0879731
2922	0.122916
2934	0.170152
2946	0.142232
2958	0.218265
2970	0.238634
2982	0.0863927
2994	0.0793689
3006	0.104303
3018	0.109044
3030	0.133979
3042	0.132574
3054	0.0762082
3066	0.0788422
3078	0.0672529
3090	0.0503958
3102	0.048991
3114	0.0486398
3126	0.0447767
3138	0.0368749
3150	0.0319583
3162	0.0293244
3174	0.0305535
3186	0.035119
3198	0.0414404
3210	0.0539077
3222	0.0744523
3234	0.107464
3246	0.163128
3258	0.229151
3270	0.262339
3282	0.251452
3294	0.214753
3306	0.177878
3318	0.147149
3330	0.125375
3342	0.111678
3354	0.101318
3366	0.0942945
3378	0.0869195
3390	0.0760326
3402	0.0660237
3414	0.0586487
3426	0.0519761
3438	0.0421428
3450	0.0349434
3462	0.0302023
3474	0.0303779
3486	0.0528541
3498	0.0737499
3510	0.0523273
3522	0.0347678
3534	0.027744
3546	0.0191399
3558	0.013872
3570	0.0112381
3582	0.00983332
3594	0.00842856
3606	0.00790177
3618	0.00772618
3630	0.00632142
3642	0.00298511
3654	0.00228273
3666	0.00175595
3678	0.00421428
3690	0.000526785
3702	0.00122916
3714	0.00175595
3726	0.00298511
3738	0.00474107
3750	0.000175595
3762	0.00280952
3774	0.00228273
3786	0.000526785
3798	0.00158035
3810	0.0035119
3822	0.00421428
3834	0.00280952
3846	0.000526785
3858	0.00544344
3870	0.00614582
3882	0.000526785
3894	0.00245833
3906	0.00210714
3918	0.00386309
3930	0.00456547
3942	0.00667261
3954	0.00316071
3966	0.00245833
