Infrared Spectrum: 1,3-Benzodioxan, 6-amino-,
Formula: C 8 H 9 N O 2
CAS: 22791-64-6
Origin: Sadtler Research Labs Under US-EPA Contract
1/CM	ABSORBANCE
450	0.0523717
462	0.0533438
474	0.0549234
486	0.046053
498	0.0171332
510	0.00473897
522	0.00777677
534	0.00558955
546	0.014703
558	0.0266111
570	0.00789828
582	0.0283123
594	0.0275832
606	0.0160396
618	0.0217506
630	0.0419216
642	0.0983032
654	0.140346
666	0.113857
678	0.109725
690	0.109968
702	0.113735
714	0.0664671
726	0.0419216
738	0.04581
750	0.081413
762	0.0918631
774	0.122849
786	0.0818991
798	0.102435
810	0.199644
822	0.0980602
834	0.0714491
846	0.126859
858	0.0696264
870	0.0228443
882	0.00789828
894	0.000729072
906	0.00315931
918	0.0345094
930	0.0844508
942	0.0691403
954	0.176678
966	0.218843
978	0.11009
990	0.170967
1002	0.394428
1014	0.723725
1026	0.767348
1038	0.209851
1050	0.0567461
1062	0.0848154
1074	0.2395
1086	0.295153
1098	0.138645
1110	0.0617281
1122	0.0481188
1134	0.0720566
1146	0.0866381
1158	0.0436228
1170	0.0302565
1182	0.0297704
1194	0.0239379
1206	0.0737578
1218	0.463811
1230	0.860791
1242	1.07927
1254	0.438294
1266	0.201467
1278	0.234275
1290	0.222367
1302	0.118596
1314	0.0539513
1326	0.0328082
1338	0.0386408
1350	0.133906
1362	0.0962375
1374	0.0257605
1386	0.020657
1398	0.0521286
1410	0.0674392
1422	0.0416786
1434	0.060756
1446	0.175828
1458	0.269271
1470	0.16234
1482	0.223582
1494	0.624086
1506	1.21512
1518	0.547898
1530	0.105958
1542	0.0393699
1554	0.0294059
1566	0.0269757
1578	0.0323222
1590	0.0421647
1602	0.0735148
1614	0.173641
1626	0.214833
1638	0.158209
1650	0.0597839
1662	0.0307425
1674	0.0190774
1686	0.014703
1698	0.00899189
1710	0.00838433
1722	0.00984247
1734	0.01045
1746	0.00680467
1758	0.0070477
1770	0.0106931
1782	0.0111791
1794	0.00729072
1806	0.00716921
1818	0.00644014
1830	0.0081413
1842	0.0167687
1854	0.0217506
1866	0.0127588
1878	0.00692618
1890	0.00473897
1902	0.00498199
1914	0.00498199
1926	0.00716921
1938	0.00899189
1950	0.00984247
1962	0.00935642
1974	0.00947794
1986	0.0122727
1998	0.0139739
2010	0.0150675
2022	0.0179838
2034	0.0174977
2046	0.0121512
2058	0.00631862
2070	0.0040099
2082	0.00425292
2094	0.00498199
2106	0.00473897
2118	0.00157966
2130	0
2142	0.000364536
2154	0.00109361
2166	0.00230873
2178	0.00182268
2190	0.00133663
2202	0.000972096
2214	0.000729072
2226	0.000972096
2238	0.00230873
2250	0.00437443
2262	0.00473897
2274	0.00340234
2286	0.00315931
2298	0.00340234
2310	0.00425292
2322	0.00315931
2334	0.00109361
2346	0.00157966
2358	0.00157966
2370	0.00145814
2382	0.00291629
2394	0.00230873
2406	0.00230873
2418	0.00230873
2430	0.00267326
2442	0.00279478
2454	0.00279478
2466	0.00425292
2478	0.00583258
2490	0.00449594
2502	0.00157966
2514	0.00182268
2526	0.00145814
2538	0.00255175
2550	0.00315931
2562	0.00315931
2574	0.00376687
2586	0.0040099
2598	0.00413141
2610	0.00388838
2622	0.00425292
2634	0.00437443
2646	0.00486048
2658	0.00498199
2670	0.00631862
2682	0.0100855
2694	0.0131233
2706	0.0115436
2718	0.00996398
2730	0.0100855
2742	0.0143384
2754	0.0230873
2766	0.0387623
2778	0.0862735
2790	0.108146
2802	0.0478757
2814	0.0302565
2826	0.040342
2838	0.125036
2850	0.336831
2862	0.476692
2874	0.212646
2886	0.0755805
2898	0.0509135
2910	0.0582042
2922	0.0574752
2934	0.0443519
2946	0.060513
2958	0.11094
2970	0.0993968
2982	0.0432583
2994	0.0373042
3006	0.11896
3018	0.338168
3030	0.207299
3042	0.0710845
3054	0.0430152
3066	0.0363321
3078	0.0296489
3090	0.0172547
3102	0.0105715
3114	0.00789828
3126	0.00668316
3138	0.00546804
3150	0.00340234
3162	0.00243024
3174	0.00218722
3186	0.00291629
3198	0.00364536
3210	0.00546804
3222	0.00522502
3234	0.00437443
3246	0.0040099
3258	0.00498199
3270	0.0060756
3282	0.00449594
3294	0.00388838
3306	0.00328082
3318	0.0040099
3330	0.00498199
3342	0.00522502
3354	0.0070477
3366	0.00984247
3378	0.0133663
3390	0.0235733
3402	0.0413141
3414	0.0264896
3426	0.0133663
3438	0.0117867
3450	0.0134878
3462	0.0183483
3474	0.030135
3486	0.0359676
3498	0.0205355
3510	0.00838433
3522	0.00631862
3534	0.00413141
3546	0.00315931
3558	0.00218722
3570	0.00243024
3582	0.0020657
3594	0.00243024
3606	0.00194419
3618	0.0020657
3630	0.00388838
3642	0.00230873
3654	0.00243024
3666	0.00060756
3678	0.00315931
3690	0.00157966
3702	0.000972096
3714	0.0020657
3726	0.00194419
3738	0.00243024
3750	0.00157966
3762	0.0020657
3774	0.0030378
3786	0.00133663
3798	0.00291629
3810	0.00121512
3822	0.00243024
3834	0.00255175
3846	0.0020657
3858	0.0030378
3870	0.00364536
3882	0.00230873
3894	0.00498199
3906	0.00449594
3918	0.00461746
3930	0.00449594
3942	0.00279478
3954	0.00413141
3966	0.00145814
