Infrared Spectrum: 3,4-Xylenol, 6-bromo-,
Formula: C 8 H 9 Br O
CAS: 22802-39-7
Origin: Sadtler Research Labs Under US-EPA Contract
1/CM	ABSORBANCE
450	0.0183881
462	0.0569002
474	0.0271964
486	0.00122159
498	0.00244317
510	0.00192882
522	0.0074581
534	0.0124087
546	0.0246246
558	0.00777957
570	0.00096441
582	0.0021217
594	0.0103513
606	0.00990128
618	0.00379335
630	0.00707234
642	0.00970839
654	0.00231458
666	0.00115729
678	0.00797246
690	0.0204455
702	0.0186453
714	0.0115086
726	0.0754169
738	0.0572217
750	0.0227601
762	0.0806247
774	0.108207
786	0.0255247
798	0.0177451
810	0.00630081
822	0.00366476
834	0.00707234
846	0.0219885
858	0.0707234
870	0.1653
882	0.0558715
894	0.00675087
906	0.00244317
918	0.00289323
930	0.00443629
942	0.0110586
954	0.0234673
966	0.0619794
978	0.115086
990	0.059472
1002	0.0696304
1014	0.0775386
1026	0.0396694
1038	0.0197383
1050	0.0140804
1062	0.0105442
1074	0.0111229
1086	0.0137589
1098	0.00983698
1110	0.0142733
1122	0.0590219
1134	0.156299
1146	0.226443
1158	0.0550357
1170	0.0633296
1182	0.112965
1194	0.274021
1206	0.438678
1218	0.260905
1230	0.091619
1242	0.0447486
1254	0.0771528
1266	0.13656
1278	0.237566
1290	0.211656
1302	0.303146
1314	0.250361
1326	0.0623652
1338	0.021217
1350	0.0148519
1362	0.0198668
1374	0.0347188
1386	0.0409553
1398	0.034333
1410	0.0191596
1422	0.02231
1434	0.0352974
1446	0.075674
1458	0.173015
1470	0.18761
1482	0.280579
1494	0.64294
1506	0.30096
1518	0.070852
1530	0.0432056
1542	0.0517567
1554	0.0700162
1566	0.0906545
1578	0.115215
1590	0.0924548
1602	0.0696304
1614	0.0677016
1626	0.0207027
1638	0.00681516
1650	0.00842251
1662	0.00514352
1674	0.00597934
1686	0.00630081
1698	0.00983698
1710	0.0192239
1722	0.0322113
1734	0.0176166
1746	0.00694375
1758	0.00398623
1770	0.00315041
1782	0.00141447
1794	0.00231458
1806	0.000835822
1818	0.000128588
1830	0.00115729
1842	0.000835822
1854	0.000707234
1866	0.0021217
1878	0.00199311
1890	0.00173594
1902	0.00122159
1914	0.00192882
1926	0.00128588
1938	0.000192882
1950	0.000514352
1962	0.00064294
1974	0.00115729
1986	0.00147876
1998	0.00180023
2010	0.00205741
2022	0.00186453
2034	0.00199311
2046	0.00250747
2058	0.00192882
2070	0.000835822
2082	0.00032147
2094	0.000257176
2106	0.000578646
2118	0.000771528
2130	0.000835822
2142	0.00141447
2154	0.00192882
2166	0.00135017
2178	0.000900116
2190	0.00135017
2202	0.00160735
2214	0.00231458
2226	0.00225029
2238	0.00096441
2250	0.00128588
2262	0.00122159
2274	0.00115729
2286	0.0021217
2298	0.00231458
2310	0.002186
2322	0.00186453
2334	0.0010287
2346	0.00308611
2358	0.00231458
2370	0.000707234
2382	0.00308611
2394	0.00360046
2406	0.00443629
2418	0.00334329
2430	0.00289323
2442	0.00353617
2454	0.00405052
2466	0.00469346
2478	0.00488634
2490	0.00437199
2502	0.0032147
2514	0.00289323
2526	0.00205741
2538	0.00167164
2550	0.00141447
2562	0.00315041
2574	0.00334329
2586	0.00340758
2598	0.00231458
2610	0.00154306
2622	0.00064294
2634	0.000450058
2646	0.000192882
2658	0.000707234
2670	0.00180023
2682	0.00231458
2694	0.00302182
2706	0.00398623
2718	0.0054007
2730	0.00623652
2742	0.0108014
2754	0.00842251
2766	0.00649369
2778	0.00797246
2790	0.00655799
2802	0.00758669
2814	0.00912975
2826	0.0118301
2838	0.0164593
2850	0.0238531
2862	0.0477704
2874	0.0956695
2886	0.0960552
2898	0.0802389
2910	0.0799817
2922	0.105764
2934	0.206191
2946	0.176744
2958	0.126338
2970	0.101585
2982	0.109814
2994	0.0693089
3006	0.0411482
3018	0.0388979
3030	0.0492492
3042	0.0601792
3054	0.0432056
3066	0.0311826
3078	0.0238531
3090	0.0180666
3102	0.0151091
3114	0.0125373
3126	0.00816534
3138	0.00572217
3150	0.00488634
3162	0.00565787
3174	0.0053364
3186	0.00488634
3198	0.0054007
3210	0.0054007
3222	0.00456487
3234	0.00347188
3246	0.00372905
3258	0.00360046
3270	0.00385764
3282	0.00360046
3294	0.00495064
3306	0.00591505
3318	0.00552928
3330	0.00475776
3342	0.00488634
3354	0.0053364
3366	0.00546499
3378	0.00906545
3390	0.00784387
3402	0.00610793
3414	0.00572217
3426	0.00469346
3438	0.00507923
3450	0.00417911
3462	0.00443629
3474	0.00597934
3486	0.00417911
3498	0.00578646
3510	0.00732952
3522	0.0085511
3534	0.0137589
3546	0.0388979
3558	0.433084
3570	0.409296
3582	0.0644226
3594	0.0187738
3606	0.0106728
3618	0.00482205
3630	0.00340758
3642	0.0183238
3654	0.0224386
3666	0.0113157
3678	0.00237888
3690	0.000835822
3702	0.00405052
3714	0.000385764
3726	0.000900116
3738	0.00147876
3750	0
3762	0.00456487
3774	0.00681516
3786	0.0053364
3798	0.00482205
3810	0.00469346
3822	0.00437199
3834	0.00469346
3846	0.00527211
3858	0.00385764
3870	0.00334329
3882	0.00231458
3894	0.00687946
3906	0.00347188
3918	0.0074581
3930	0.00681516
3942	0.00797246
3954	0.00906545
3966	0.00816534
