Infrared Spectrum: Cyclopropanecarboxylic acid, 2-nitro-, trans-,
Formula: C 4 H 5 N O 4
CAS: 22882-43-5
Origin: Sadtler Research Labs Under US-EPA Contract
1/CM	ABSORBANCE
450	0.00935659
462	0.00537735
474	0.00871131
486	0.042266
498	0.0551716
510	0.0254886
522	0.0280698
534	0.0486112
546	0.0806603
558	0.129164
570	0.211868
582	0.292635
594	0.215524
606	0.0968998
618	0.152071
630	0.111956
642	0.0303283
654	0.037749
666	0.0569999
678	0.0386094
690	0.00795848
702	0.0034415
714	0.00258113
726	0.00656037
738	0.0200037
750	0.0462452
762	0.0436641
774	0.0167773
786	0.0115075
798	0.0232302
810	0.0400075
822	0.0307584
834	0.0108622
846	0.018283
858	0.0578603
870	0.0679697
882	0.0310811
894	0.0350603
906	0.0319415
918	0.0243056
930	0.033232
942	0.0830263
954	0.162181
966	0.135509
978	0.0386094
990	0.0207566
1002	0.0262415
1014	0.0505471
1026	0.0582905
1038	0.0355981
1050	0.0447396
1062	0.0644207
1074	0.0780791
1086	0.1026
1098	0.116151
1110	0.208211
1122	0.442556
1134	0.96061
1146	0.993197
1158	0.453526
1170	0.254886
1182	0.188745
1194	0.1197
1206	0.0962546
1218	0.0776489
1230	0.0654961
1242	0.0608716
1254	0.0685074
1266	0.0773263
1278	0.0792621
1290	0.10873
1302	0.145188
1314	0.126045
1326	0.0893716
1338	0.124324
1350	0.278547
1362	0.580861
1374	0.516226
1386	0.20079
1398	0.230473
1410	0.294356
1422	0.267469
1434	0.222192
1446	0.197349
1458	0.129271
1470	0.0749603
1482	0.0505471
1494	0.0490414
1506	0.0636678
1518	0.0870055
1530	0.125938
1542	0.211222
1554	0.45202
1566	0.895436
1578	0.909202
1590	0.342215
1602	0.105611
1614	0.0870055
1626	0.070981
1638	0.0463528
1650	0.0289301
1662	0.0222622
1674	0.0253811
1686	0.0312962
1698	0.0409754
1710	0.0610867
1722	0.0947489
1734	0.130132
1746	0.173688
1758	0.354152
1770	0.798214
1782	1.04041
1794	0.591724
1806	0.158847
1818	0.0764659
1830	0.0546339
1842	0.0317264
1854	0.018283
1866	0.0120453
1878	0.00795848
1890	0.00580754
1902	0.00580754
1914	0.00559244
1926	0.0052698
1938	0.00516226
1950	0.00591509
1962	0.00505471
1974	0.00311886
1986	0.0018283
1998	0.00172075
2010	0.00236603
2022	0.00172075
2034	0.00150566
2046	0.000645282
2058	0.000107547
2070	0.000107547
2082	0.000322641
2094	0.00139811
2106	0.00236603
2118	0.00387169
2130	0.00408679
2142	0.00193585
2154	0.000537735
2166	0.000322641
2178	0
2190	0.000537735
2202	0.000860376
2214	0.000322641
2226	0.000107547
2238	0.000645282
2250	0.00172075
2262	0.00290377
2274	0.00258113
2286	0.00193585
2298	0.0018283
2310	0.00204339
2322	0.00129056
2334	0
2346	0.000107547
2358	0.00129056
2370	0.000860376
2382	0.00397924
2394	0.0036566
2406	0.00376414
2418	0.00451697
2430	0.00602263
2442	0.00591509
2454	0.00494716
2466	0.00430188
2478	0.00430188
2490	0.00387169
2502	0.00376414
2514	0.00419433
2526	0.00505471
2538	0.00537735
2550	0.00462452
2562	0.00397924
2574	0.0036566
2586	0.00376414
2598	0.00354905
2610	0.00354905
2622	0.00387169
2634	0.00397924
2646	0.00354905
2658	0.00376414
2670	0.0036566
2682	0.00397924
2694	0.00462452
2706	0.00591509
2718	0.00666791
2730	0.00677546
2742	0.0054849
2754	0.00451697
2766	0.00462452
2778	0.00516226
2790	0.00591509
2802	0.00613018
2814	0.00645282
2826	0.00774338
2838	0.0091415
2850	0.00946414
2862	0.00989432
2874	0.0112924
2886	0.0146264
2898	0.0192509
2910	0.0245207
2922	0.0281773
2934	0.0260264
2946	0.0211868
2958	0.0167773
2970	0.0150566
2982	0.0151641
2994	0.0157019
3006	0.0148415
3018	0.0139811
3030	0.0153792
3042	0.0141962
3054	0.0124755
3066	0.0134434
3078	0.0177453
3090	0.0212943
3102	0.0234452
3114	0.0289301
3126	0.0223698
3138	0.0116151
3150	0.00967923
3162	0.00903395
3174	0.00806603
3186	0.00785093
3198	0.0073132
3210	0.00677546
3222	0.00666791
3234	0.00602263
3246	0.00559244
3258	0.00516226
3270	0.00494716
3282	0.00462452
3294	0.00430188
3306	0.00419433
3318	0.00408679
3330	0.00387169
3342	0.00419433
3354	0.00419433
3366	0.00408679
3378	0.00397924
3390	0.00451697
3402	0.00387169
3414	0.00376414
3426	0.00311886
3438	0.00301132
3450	0.0036566
3462	0.00301132
3474	0.00247358
3486	0.00279622
3498	0.00301132
3510	0.00397924
3522	0.00785093
3534	0.010217
3546	0.0104321
3558	0.0288226
3570	0.319737
3582	0.468905
3594	0.115828
3606	0.0144113
3618	0.00613018
3630	0.0073132
3642	0.00419433
3654	0.00397924
3666	0.00215094
3678	0.00354905
3690	0.00440943
3702	0.00354905
3714	0.00440943
3726	0.00354905
3738	0.00537735
3750	0.00699056
3762	0.00397924
3774	0.00311886
3786	0.00268868
3798	0.00279622
3810	0.00408679
3822	0.00333396
3834	0.00408679
3846	0.00301132
3858	0.00419433
3870	0.00462452
3882	0.00419433
3894	0.00258113
3906	0.0052698
3918	0.00290377
3930	0.0034415
3942	0.00376414
3954	0.00301132
3966	0.00376414
