Infrared Spectrum: Pyridine, 2-pentyl-
Formula: C 10 H 15 N
CAS: 2294-76-0
Origin: Sadtler Research Labs Under US-EPA Contract
1/CM	ABSORBANCE
450	0.0347173
462	0.0390122
474	0.0377953
486	0.038869
498	0.0374374
510	0.0443808
522	0.0363637
534	0.0228347
546	0.0193271
558	0.0190408
570	0.0288475
582	0.0304223
594	0.026199
606	0.0297781
618	0.0179671
630	0.0241947
642	0.0115963
654	0.00386543
666	0.0114531
678	0.00658554
690	0.00816035
702	0.0153185
714	0.0358626
726	0.0651396
738	0.176235
750	0.256979
762	0.141661
774	0.0671439
786	0.033214
798	0.0159628
810	0.0183966
822	0.0115963
834	0.0154617
846	0.00952041
858	0.0112384
870	0.0055834
882	0.00894775
894	0.0125984
906	0.0108089
918	0.0115247
930	0.00544023
942	0.01131
954	0.0136006
966	0.0201861
978	0.0260558
990	0.0352899
1002	0.0223336
1014	0.0115963
1026	0.0148175
1038	0.0198282
1050	0.0443808
1062	0.0249105
1074	0.0226199
1086	0.013529
1098	0.0148891
1110	0.0170365
1122	0.0117394
1134	0.0202577
1146	0.0465999
1158	0.0204725
1170	0.00866142
1182	0.0154617
1194	0.0161775
1206	0.0254832
1218	0.0463136
1230	0.0329277
1242	0.0224052
1254	0.0162491
1266	0.0194703
1278	0.0226915
1290	0.0274159
1302	0.0361489
1314	0.0278454
1326	0.0213314
1338	0.0279886
1350	0.0340014
1362	0.0320687
1374	0.0386543
1386	0.0434503
1398	0.0293486
1410	0.0275591
1422	0.0666428
1434	0.24796
1446	0.15655
1458	0.14252
1470	0.278024
1482	0.201646
1494	0.0456693
1506	0.0334288
1518	0.0216893
1530	0.0138869
1542	0.0359342
1554	0.0435934
1566	0.123193
1578	0.238225
1590	0.377667
1602	0.246815
1614	0.0572656
1626	0.0271296
1638	0.0185397
1650	0.0134574
1662	0.0071582
1674	0.0108089
1686	0.0188976
1698	0.0206872
1710	0.0191124
1722	0.013529
1734	0.0186829
1746	0.00722978
1758	0.0125268
1770	0.0108805
1782	0.00730136
1794	0.00959199
1806	0.00293486
1818	0.00536865
1830	0.00665713
1842	0.0100215
1854	0.00644238
1866	0.0106657
1878	0.00322119
1890	0.00314961
1902	0.00751611
1914	0.00816035
1926	0.00816035
1938	0.0100931
1950	0.0100215
1962	0.00758769
1974	0.00930566
1986	0.00372226
1998	0.00171797
2010	0.00314961
2022	0.00136006
2034	0.0043665
2046	0.00207588
2058	0.00408017
2070	0.00264853
2082	0.00207588
2094	0.00286328
2106	0.00128848
2118	0.00372226
2130	0.00264853
2142	0.00429492
2154	0.0020043
2166	0.00300644
2178	0.00450967
2190	0.00429492
2202	0.00615605
2214	0.00243379
2226	0.00450967
2238	0.00193271
2250	0.0043665
2262	0.00350752
2274	0.00272012
2286	0.0051539
2298	0.00314961
2310	0.00680029
2322	0.00572656
2334	0.00816035
2346	0.00830351
2358	0.00536865
2370	0.00730136
2382	0.00479599
2394	0.00551181
2406	0.00236221
2418	0.00687187
2430	0.00136006
2442	0.00450967
2454	0.00207588
2466	0.00372226
2478	0.00408017
2490	0.00229062
2502	0.00365068
2514	0.00164639
2526	0.00493916
2538	0.00286328
2550	0.00429492
2562	0.00479599
2574	0.00501074
2586	0.00665713
2598	0.00493916
2610	0.00644238
2622	0.00443808
2634	0.00672871
2646	0.00866142
2658	0.00887617
2670	0.0122405
2682	0.0108805
2694	0.0123121
2706	0.00823193
2718	0.0091625
2730	0.00880459
2742	0.0117394
2754	0.011811
2766	0.01131
2778	0.0137437
2790	0.0176092
2802	0.0221904
2814	0.0247674
2826	0.0374374
2838	0.0531854
2850	0.115462
2862	0.254904
2874	0.311954
2886	0.286042
2898	0.216106
2910	0.288404
2922	0.487974
2934	0.695705
2946	0.661203
2958	0.527416
2970	0.600859
2982	0.266285
2994	0.105226
3006	0.109163
3018	0.1801
3030	0.0967073
3042	0.0638511
3054	0.0818898
3066	0.133787
3078	0.21947
3090	0.118397
3102	0.0433071
3114	0.0140301
3126	0.0138153
3138	0.0163923
3150	0.0140301
3162	0.01131
3174	0.00751611
3186	0.00622763
3198	0.00601289
3210	0.00586972
3222	0.00286328
3234	0.00257695
3246	0.00293486
3258	0.00329277
3270	0.00465283
3282	0.00214746
3294	0.00365068
3306	0.00329277
3318	0.00322119
3330	0.00479599
3342	0.0035791
3354	0.00171797
3366	0.00386543
3378	0.00350752
3390	0.00307803
3402	0.00329277
3414	0.00236221
3426	0.00322119
3438	0.0027917
3450	0.0035791
3462	0.00293486
3474	0.00243379
3486	0.00336435
3498	0.00178955
3510	0.00293486
3522	0.00221904
3534	0.00314961
3546	0.00615605
3558	0.00272012
3570	0.00629922
3582	0.00336435
3594	0.00486758
3606	0.00472441
3618	0.00608447
3630	0.00808877
3642	0.00443808
3654	0.00579814
3666	0.00293486
3678	0.00887617
3690	0.00608447
3702	0.000143164
3714	0.00186113
3726	0.000143164
3738	0.00536865
3750	0.0043665
3762	0.000143164
3774	0.000143164
3786	0.000143164
3798	0.000143164
3810	0.000143164
3822	0.000143164
3834	0.000143164
3846	0.000143164
3858	0.000143164
3870	0.000143164
3882	0.000143164
3894	0.000143164
3906	0.000143164
3918	0.000143164
3930	0.000143164
3942	0.000143164
3954	0.000143164
3966	0.000143164
