Infrared Spectrum: 2,4-Thiazolidinedione
Formula: C 3 H 3 N O 2 S
CAS: 2295-31-0
Origin: Sadtler Research Labs Under US-EPA Contract
1/CM	ABSORBANCE
450	0
462	0.00643004
474	0.0234696
486	0.0643004
498	0.0924318
510	0.0242734
522	0.0112526
534	0.0136638
546	0.0234696
558	0.0162359
570	0.0270062
582	0.0437243
594	0.0861625
606	0.0890561
618	0.0969329
630	0.0466178
642	0.0401878
654	0.0578704
666	0.122975
678	0.16059
690	0.12619
702	0.0482253
714	0.0208976
726	0.0102881
738	0.0088413
750	0.00643004
762	0.00900206
774	0.0268454
786	0.0339185
798	0.0181649
810	0.00208976
822	0.00160751
834	0.00192901
846	0.00434028
858	0.00932356
870	0.0258809
882	0.0307034
894	0.0260417
906	0.00916281
918	0.00594779
930	0.00176826
942	0.000643004
954	0.00128601
966	0.00289352
978	0.00321502
990	0.00273277
1002	0.00675154
1014	0.00514403
1026	0.00241127
1038	0.00916281
1050	0.0172004
1062	0.0212191
1074	0.0263632
1086	0.0657472
1098	0.166538
1110	0.304784
1122	0.313786
1134	0.198367
1146	0.0916281
1158	0.0626929
1170	0.0318287
1182	0.0353652
1194	0.0638181
1206	0.11124
1218	0.120081
1230	0.0724987
1242	0.0498328
1254	0.0702482
1266	0.0892168
1278	0.101916
1290	0.132459
1302	0.215567
1314	0.226498
1326	0.171682
1338	0.108185
1350	0.155768
1362	0.138085
1374	0.0549768
1386	0.0157536
1398	0.0126993
1410	0.0202546
1422	0.0188079
1434	0.0157536
1446	0.00980581
1458	0.00626929
1470	0.0101273
1482	0.00948431
1494	0.00868055
1506	0.00466178
1518	0.0135031
1530	0.0122171
1542	0.0118956
1554	0.0114133
1566	0.0133423
1578	0.0125386
1590	0.0143068
1602	0.0199331
1614	0.0225051
1626	0.0229874
1638	0.0300604
1650	0.0382587
1662	0.0586741
1674	0.0916281
1686	0.167985
1698	0.298997
1710	0.317322
1722	0.356224
1734	0.709394
1746	1.35513
1758	1.481
1770	1.09745
1782	0.448656
1794	0.396733
1806	0.274563
1818	0.157857
1830	0.0599601
1842	0.0258809
1854	0.0136638
1866	0.0075553
1878	0.00417953
1890	0.00498328
1902	0.00514403
1914	0.00401877
1926	0.00321502
1938	0.00192901
1950	0.000803755
1962	0.00208976
1974	0.000964506
1986	0.00176826
1998	0.00241127
2010	0.00257202
2022	0.00514403
2034	0.0117348
2046	0.0168789
2058	0.0114133
2070	0.0205761
2082	0.0114133
2094	0.00208976
2106	0.00160751
2118	0.000803755
2130	0.00128601
2142	0.000803755
2154	0.00128601
2166	0.00192901
2178	0.00192901
2190	0.00257202
2202	0.00434028
2214	0.00562628
2226	0.00771605
2238	0.00964506
2250	0.00948431
2262	0.0081983
2274	0.00916281
2286	0.0128601
2298	0.0135031
2310	0.0139853
2322	0.0122171
2334	0.0106096
2346	0.0128601
2358	0.0102881
2370	0.0106096
2382	0.0104488
2394	0.00514403
2406	0.00659079
2418	0.00659079
2430	0.00562628
2442	0.00434028
2454	0.00353652
2466	0.00273277
2478	0.00160751
2490	0.000643004
2502	0.00128601
2514	0.00160751
2526	0.00112526
2538	0.00192901
2550	0.00305427
2562	0.00176826
2574	0.00225051
2586	0.00225051
2598	0.00192901
2610	0.00369727
2622	0.00385802
2634	0.00498328
2646	0.00562628
2658	0.00514403
2670	0.00643004
2682	0.00707304
2694	0.00659079
2706	0.0075553
2718	0.00803755
2730	0.00723379
2742	0.00707304
2754	0.00707304
2766	0.00610854
2778	0.00578704
2790	0.00434028
2802	0.00289352
2814	0.00450103
2826	0.00417953
2838	0.00321502
2850	0.00434028
2862	0.00289352
2874	0.00305427
2886	0.00401877
2898	0.00289352
2910	0.00337577
2922	0.00385802
2934	0.00466178
2946	0.0138246
2958	0.0176826
2970	0.0155928
2982	0.00739455
2994	0.00514403
3006	0.00417953
3018	0.00369727
3030	0.00305427
3042	0.00321502
3054	0.00176826
3066	0.00353652
3078	0.00337577
3090	0.00289352
3102	0.00289352
3114	0.00401877
3126	0.00401877
3138	0.00530478
3150	0.00385802
3162	0.00482253
3174	0.00192901
3186	0.00208976
3198	0.00257202
3210	0.00225051
3222	0.00241127
3234	0.00225051
3246	0.00257202
3258	0.00353652
3270	0.000643004
3282	0.00192901
3294	0.00273277
3306	0.00321502
3318	0.00305427
3330	0.00208976
3342	0.00273277
3354	0.00305427
3366	0.00208976
3378	0.00289352
3390	0.00337577
3402	0.00578704
3414	0.0112526
3426	0.0583526
3438	0.16059
3450	0.156571
3462	0.0954861
3474	0.0199331
3486	0.0102881
3498	0.0135031
3510	0.0149498
3522	0.0141461
3534	0.00868055
3546	0.0088413
3558	0.00659079
3570	0.00723379
3582	0.00546553
3594	0.00192901
3606	0.00578704
3618	0.00273277
3630	0.00289352
3642	0.00257202
3654	0.00401877
3666	0.00257202
3678	0.00337577
3690	0.00160751
3702	0.00739455
3714	0.00225051
3726	0.00466178
3738	0.00594779
3750	0.00401877
3762	0.00530478
3774	0.00450103
3786	0.00192901
3798	0.00450103
3810	0.00257202
3822	0.00273277
3834	0.00546553
3846	0.00482253
3858	0.00176826
3870	0.00434028
3882	0.00835905
3894	0.00144676
3906	0.0078768
3918	0.00289352
3930	0.00401877
3942	0.00578704
3954	0.00626929
3966	0.0081983
