Infrared Spectrum: Piperidine, 1-trichloroacetyl-,
Formula: C 7 H 10 Cl 3 N O
CAS: 2296-53-9
Origin: Sadtler Research Labs Under US-EPA Contract
1/CM	ABSORBANCE
450	0.00887109
462	0.027599
474	0.0256276
486	0.0157708
498	0.0115465
510	0.00830785
522	0.00788542
534	0.00408352
546	0.00971596
558	0.00689974
570	0
582	0.00211217
594	0.00830785
606	0.00605487
618	0.0152076
630	0.0221073
642	0.110255
654	0.153766
666	0.29514
678	0.14419
690	0.02605
702	0.0235154
714	0.0229522
726	0.0264725
738	0.0250644
750	0.0284438
762	0.0877253
774	0.235154
786	0.0529449
798	0.120253
810	0.364841
822	0.186011
834	0.358223
846	0.433698
858	0.153202
870	0.0325273
882	0.0281622
894	0.0585774
906	0.086458
918	0.025346
930	0.0239379
942	0.091668
954	0.0934985
966	0.0270357
978	0.0153484
990	0.0177422
1002	0.0233746
1014	0.0702647
1026	0.0906823
1038	0.0460452
1050	0.0132362
1062	0.0111241
1074	0.0142219
1086	0.0154892
1098	0.0147852
1110	0.0264725
1122	0.0699831
1134	0.191081
1146	0.0680117
1158	0.0177422
1170	0.0222481
1182	0.0270357
1194	0.0343579
1206	0.056606
1218	0.144895
1230	0.475941
1242	0.477772
1254	0.258811
1266	0.122224
1278	0.0889926
1290	0.0802623
1302	0.0284438
1314	0.0195727
1326	0.0221073
1338	0.0249235
1350	0.072236
1362	0.0753339
1374	0.0592814
1386	0.0751931
1398	0.182632
1410	0.300209
1422	0.41849
1434	0.220088
1446	0.127575
1458	0.141937
1470	0.0956107
1482	0.0521001
1494	0.0204176
1506	0.0145035
1518	0.0105608
1530	0.00704055
1542	0.00168973
1554	0.00647731
1566	0.00704055
1578	0.00844866
1590	0.0108424
1602	0.0163341
1614	0.0190095
1626	0.013377
1638	0.017883
1650	0.0316825
1662	0.0642098
1674	0.0877253
1686	0.251629
1698	1.23266
1710	0.889081
1722	0.180238
1734	0.0597039
1746	0.0350619
1758	0.0435106
1770	0.0321049
1782	0.0183054
1794	0.0116873
1806	0.0143627
1818	0.0115465
1830	0.00366109
1842	0.00394271
1854	0.00591406
1866	0.00309784
1878	0.00535082
1890	0.0038019
1902	0.00535082
1914	0.00323865
1926	0.00366109
1938	0.00394271
1950	0.00295703
1962	0.00323865
1974	0.0038019
1986	0.00394271
1998	0.00464676
2010	0.00535082
2022	0.0038019
2034	0.00352027
2046	0.00281622
2058	0.00366109
2070	0.00352027
2082	0.0025346
2094	0.00239379
2106	0.0025346
2118	0.00281622
2130	0.00267541
2142	0.00225298
2154	0.0025346
2166	0.00281622
2178	0.00309784
2190	0.0038019
2202	0.00337946
2214	0.00225298
2226	0.00225298
2238	0.00309784
2250	0.00281622
2262	0.00323865
2274	0.00323865
2286	0.00323865
2298	0.00464676
2310	0.00577325
2322	0.00535082
2334	0.00309784
2346	0.00577325
2358	0.00535082
2370	0.0038019
2382	0.00450595
2394	0.00211217
2406	0.00140811
2418	0.000985677
2430	0.000563244
2442	0
2454	0.00112649
2466	0.00211217
2478	0.00239379
2490	0.00197135
2502	0.0012673
2514	0.00168973
2526	0.00154892
2538	0.00112649
2550	0.000844866
2562	0.000985677
2574	0.0012673
2586	0.00168973
2598	0.00225298
2610	0.00239379
2622	0.0025346
2634	0.00450595
2646	0.00549163
2658	0.00661812
2670	0.00675893
2682	0.00844866
2694	0.00633649
2706	0.00929353
2718	0.00633649
2730	0.00788542
2742	0.00563244
2754	0.0038019
2766	0.0038019
2778	0.00605487
2790	0.00704055
2802	0.0121097
2814	0.0171789
2826	0.0185871
2838	0.0183054
2850	0.038723
2862	0.167565
2874	0.364278
2886	0.133348
2898	0.0689974
2910	0.0739258
2922	0.102651
2934	0.226424
2946	0.673358
2958	0.449891
2970	0.0475941
2982	0.0187279
2994	0.0164749
3006	0.0229522
3018	0.033513
3030	0.0108424
3042	0.00999758
3054	0.0173198
3066	0.0125322
3078	0.00450595
3090	0.00323865
3102	0.00394271
3114	0.00464676
3126	0.00492838
3138	0.00337946
3150	0.00239379
3162	0.00225298
3174	0.00211217
3186	0.00197135
3198	0.00239379
3210	0.00183054
3222	0.00183054
3234	0.00211217
3246	0.00183054
3258	0.00183054
3270	0.00154892
3282	0.000985677
3294	0.00211217
3306	0.00168973
3318	0.00211217
3330	0.00309784
3342	0.00225298
3354	0.00197135
3366	0.00337946
3378	0.00858947
3390	0.00999758
3402	0.00436514
3414	0.00197135
3426	0.00267541
3438	0.000844866
3450	0.0012673
3462	0.00183054
3474	0.00154892
3486	0.00154892
3498	0.0025346
3510	0.00183054
3522	0.0012673
3534	0.00112649
3546	0.000985677
3558	0.00168973
3570	0.0012673
3582	0.000844866
3594	0.000844866
3606	0.000985677
3618	0.000844866
3630	0.00239379
3642	0.00140811
3654	0.000985677
3666	0.000985677
3678	0.00154892
3690	0.00112649
3702	0.00168973
3714	0.00140811
3726	0.00225298
3738	0.00154892
3750	0.00168973
3762	0.00168973
3774	0.000844866
3786	0.00183054
3798	0.0012673
3810	0.000563244
3822	0.00168973
3834	0.00140811
3846	0.00225298
3858	0.00183054
3870	0.00168973
3882	0.00211217
3894	0.00239379
3906	0.00239379
3918	0.000281622
3930	0.00168973
3942	0.00154892
3954	0.00197135
3966	0.00211217
