Infrared Spectrum: 2-Butene-1,4-diamine, trans-N,N-diethyl
Formula: C 8 H 18 N 2
CAS: 23028-85-5
Origin: Sadtler Research Labs Under US-EPA Contract
1/CM	ABSORBANCE
450	0.0069506
462	0.00929877
474	0.00479028
486	0.0093927
498	0.00742023
510	0.0186915
522	0.0159676
534	0.00976841
546	0.00901699
558	0.0119287
570	0.0195368
582	0.015498
594	0.0170947
606	0.0273328
618	0.0455546
630	0.0504388
642	0.0576712
654	0.0805894
666	0.116282
678	0.190578
690	0.258769
702	0.280842
714	0.271543
726	0.217253
738	0.146996
750	0.092612
762	0.0647157
774	0.0537262
786	0.0420793
798	0.0367255
810	0.0256421
822	0.0168129
834	0.0114591
846	0.011553
858	0.0131498
870	0.0155919
882	0.0150283
894	0.0152162
906	0.0174704
918	0.0216032
930	0.0315595
942	0.0550412
954	0.122199
966	0.252288
978	0.250597
990	0.131122
1002	0.0928938
1014	0.0663125
1026	0.0522234
1038	0.0623675
1050	0.0812469
1062	0.0857554
1074	0.0807772
1086	0.0857554
1098	0.124735
1110	0.227209
1122	0.353447
1134	0.539141
1146	0.486542
1158	0.248249
1170	0.120602
1182	0.0629311
1194	0.0481846
1206	0.0535384
1218	0.0548534
1230	0.0563562
1242	0.0517538
1254	0.0592679
1266	0.0811529
1278	0.096463
1290	0.105762
1302	0.104635
1314	0.110834
1326	0.168223
1338	0.204479
1350	0.220916
1362	0.196589
1374	0.217817
1386	0.203822
1398	0.101629
1410	0.0647157
1422	0.070821
1434	0.140797
1446	0.346591
1458	0.416378
1470	0.272388
1482	0.110458
1494	0.0574833
1506	0.034753
1518	0.0221668
1530	0.014089
1542	0.0168129
1554	0.0105198
1566	0.00704452
1578	0.00648096
1590	0.00356923
1602	0.00572955
1614	0.00572955
1626	0.00657489
1638	0.00713845
1650	0.00788987
1662	0.0125862
1674	0.0172826
1686	0.0143708
1698	0.0145587
1710	0.0200065
1722	0.0145587
1734	0.0162494
1746	0.0121166
1758	0.00892306
1770	0.0093927
1782	0.00760809
1794	0.00929877
1806	0.0069506
1818	0.00807772
1830	0.0101441
1842	0.00892306
1854	0.00864128
1866	0.00751416
1878	0.00544777
1890	0.00535384
1902	0.00469635
1914	0.0045085
1926	0.00619918
1938	0.00516598
1950	0.00544777
1962	0.00366315
1974	0.00366315
1986	0.00394493
1998	0.00281781
2010	0.0045085
2022	0.00479028
2034	0.00319352
2046	0.00216032
2058	0.00366315
2070	0.00366315
2082	0.000845343
2094	0.00131498
2106	0.00309959
2118	0.00413279
2130	0.00422671
2142	0.00403886
2154	0.00291174
2166	0.00216032
2178	0.00150283
2190	0.00234818
2202	0.00535384
2214	0.00291174
2226	0.000751416
2238	0.00469635
2250	0.0048842
2262	0.0059174
2274	0.00572955
2286	0.0048842
2298	0.00685667
2310	0.00920485
2322	0.00920485
2334	0.00948663
2346	0.010332
2358	0.00572955
2370	0.00948663
2382	0.00666882
2394	0.00563562
2406	0.00469635
2418	0.00704452
2430	0.00751416
2442	0.00638704
2454	0.00742023
2466	0.00413279
2478	0.00713845
2490	0.00920485
2502	0.00760809
2514	0.00535384
2526	0.00742023
2538	0.00995626
2550	0.0083595
2562	0.0120227
2574	0.0160615
2586	0.0177522
2598	0.0226364
2610	0.0227303
2622	0.0251724
2634	0.0263935
2646	0.0287417
2658	0.0306202
2670	0.0362558
2682	0.0498752
2694	0.0637764
2706	0.0685667
2718	0.074578
2730	0.0897003
2742	0.10811
2754	0.122857
2766	0.151692
2778	0.207673
2790	0.307987
2802	0.464939
2814	0.642649
2826	0.682755
2838	0.534069
2850	0.409991
2862	0.351099
2874	0.415533
2886	0.505797
2898	0.501946
2910	0.525428
2922	0.551633
2934	0.580375
2946	0.564877
2958	0.574458
2970	0.905268
2982	0.76109
2994	0.354105
3006	0.202131
3018	0.150847
3030	0.121729
3042	0.0907335
3054	0.0568258
3066	0.0384161
3078	0.0293992
3090	0.023106
3102	0.0247967
3114	0.0228243
3126	0.0225425
3138	0.0159676
3150	0.0175643
3162	0.0104259
3174	0.0144648
3186	0.012868
3198	0.015404
3210	0.0105198
3222	0.0110834
3234	0.00911092
3246	0.00713845
3258	0.0108016
3270	0.00535384
3282	0.00676274
3294	0.00788987
3306	0.00629311
3318	0.00873521
3330	0.00638704
3342	0.00760809
3354	0.00929877
3366	0.00770201
3378	0.010238
3390	0.00882914
3402	0.00929877
3414	0.0079838
3426	0.0100502
3438	0.0100502
3450	0.00958055
3462	0.00648096
3474	0.00911092
3486	0.00882914
3498	0.0106138
3510	0.00676274
3522	0.0079838
3534	0.00751416
3546	0.00619918
3558	0.00760809
3570	0.0108016
3582	0.00864128
3594	0.00666882
3606	0.00554169
3618	0.0069506
3630	0.00995626
3642	0.00986233
3654	0.0045085
3666	0.00356923
3678	0.00497813
3690	0.00441457
3702	0.00309959
3714	0.00234818
3726	0.00497813
3738	0.00479028
3750	0.0024421
3762	0.00093927
3774	0.00422671
3786	0.00291174
3798	0.00093927
3810	0.00187854
3822	0.00281781
3834	0.00366315
3846	0.00112712
3858	0.00253603
3870	0.00403886
3882	0.00112712
3894	0.00216032
3906	0.00169069
3918	0.00328744
3930	0.000845343
3942	0.000187854
3954	0.00291174
3966	0.00206639
