Infrared Spectrum: Formamide, N-(2-phenylethyl)-
Formula: C 9 H 11 N O
CAS: 23069-99-0
Origin: Sadtler Research Labs Under US-EPA Contract
1/CM	ABSORBANCE
450	0
462	0.0371662
474	0.0340655
486	0.0424457
498	0.0313838
510	0.035993
522	0.0334789
534	0.0450855
546	0.0380042
558	0.0447503
570	0.032599
582	0.0349873
594	0.0295402
606	0.0268166
618	0.0291631
630	0.027948
642	0.0341912
654	0.0323476
666	0.0363282
678	0.036831
690	0.0513287
702	0.0537171
714	0.0371243
726	0.0284508
738	0.0284089
750	0.0414401
762	0.0517477
774	0.0393031
786	0.0315515
798	0.0343169
810	0.0441218
822	0.0474738
834	0.034275
846	0.0333951
858	0.0338979
870	0.0312581
882	0.0306715
894	0.0323476
906	0.0318029
918	0.0317191
930	0.0290793
942	0.0323895
954	0.0305039
966	0.0297916
978	0.0317191
990	0.0332694
1002	0.0353225
1014	0.0375852
1026	0.0431161
1038	0.0403926
1050	0.0318448
1062	0.0333113
1074	0.0362025
1086	0.0391355
1098	0.0368729
1110	0.0346102
1122	0.0526277
1134	0.061385
1146	0.0382137
1158	0.0329342
1170	0.0333532
1182	0.0325152
1194	0.0321381
1206	0.0362444
1218	0.0401412
1230	0.044038
1242	0.0714831
1254	0.120088
1266	0.10006
1278	0.0632286
1290	0.0552674
1302	0.0483119
1314	0.043577
1326	0.0421524
1338	0.0551836
1350	0.0882435
1362	0.0747095
1374	0.0496946
1386	0.0475157
1398	0.0375014
1410	0.0336046
1422	0.031761
1434	0.031761
1446	0.0354063
1458	0.0394288
1470	0.0359511
1482	0.0363701
1494	0.0822936
1506	0.0773073
1518	0.0419848
1530	0.0322219
1542	0.0286603
1554	0.0291631
1566	0.0305458
1578	0.0350292
1590	0.0557702
1602	0.0748352
1614	0.0467196
1626	0.0314257
1638	0.0295402
1650	0.0293726
1662	0.0346102
1674	0.038088
1686	0.0415658
1698	0.12784
1710	0.41901
1722	0.145857
1734	0.0434094
1746	0.0328504
1758	0.0305877
1770	0.028367
1782	0.0289536
1794	0.0282413
1806	0.0271937
1818	0.0261462
1830	0.0255596
1842	0.0253501
1854	0.0250149
1866	0.0252244
1878	0.0257691
1890	0.0251825
1902	0.0247635
1914	0.0248892
1926	0.025392
1938	0.0263557
1950	0.0263138
1962	0.0261881
1974	0.025392
1986	0.0250149
1998	0.0252663
2010	0.0250568
2022	0.0244702
2034	0.024135
2046	0.0237579
2058	0.023716
2070	0.0234227
2082	0.0236741
2094	0.0234227
2106	0.0236322
2118	0.0242188
2130	0.0240093
2142	0.0241769
2154	0.0240931
2166	0.0244702
2178	0.0243864
2190	0.0240512
2202	0.0239255
2214	0.0239255
2226	0.0240512
2238	0.0239255
2250	0.0243864
2262	0.0244702
2274	0.0245959
2286	0.0250149
2298	0.0258529
2310	0.0271099
2322	0.0267328
2334	0.0252244
2346	0.0273195
2358	0.0266909
2370	0.0259786
2382	0.0255177
2394	0.0245121
2406	0.0242607
2418	0.0245121
2430	0.0241769
2442	0.0242188
2454	0.024554
2466	0.0243864
2478	0.0244283
2490	0.0244702
2502	0.0244283
2514	0.0244283
2526	0.0243864
2538	0.0244283
2550	0.0246378
2562	0.0245121
2574	0.024135
2586	0.024554
2598	0.0248054
2610	0.0248473
2622	0.0248054
2634	0.0248054
2646	0.0244702
2658	0.0246797
2670	0.0243864
2682	0.0247216
2694	0.0243026
2706	0.0244283
2718	0.0245959
2730	0.0249311
2742	0.0258948
2754	0.0274033
2766	0.0273614
2778	0.0274871
2790	0.0281994
2802	0.0288279
2814	0.028367
2826	0.0288279
2838	0.030462
2850	0.0337722
2862	0.0461749
2874	0.0517058
2886	0.0404345
2898	0.0348616
2910	0.0323057
2922	0.0328504
2934	0.036831
2946	0.0422362
2958	0.0375433
2970	0.0394288
2982	0.0530886
2994	0.0463006
3006	0.0349035
3018	0.030462
3030	0.0314677
3042	0.0370824
3054	0.0388422
3066	0.0352387
3078	0.0394288
3090	0.0354901
3102	0.0326828
3114	0.0297078
3126	0.0274871
3138	0.0264814
3150	0.0260624
3162	0.0261462
3174	0.025811
3186	0.0253082
3198	0.0252663
3210	0.0256015
3222	0.024973
3234	0.0257272
3246	0.0250987
3258	0.025811
3270	0.0252244
3282	0.0255596
3294	0.0250987
3306	0.0253501
3318	0.025811
3330	0.0259786
3342	0.0256434
3354	0.0260205
3366	0.0255596
3378	0.0266071
3390	0.0272776
3402	0.0301268
3414	0.0287441
3426	0.0263976
3438	0.0269842
3450	0.0263138
3462	0.0278223
3474	0.0258529
3486	0.0273195
3498	0.0269004
3510	0.0266071
3522	0.0274033
3534	0.0267747
3546	0.0273195
3558	0.027068
3570	0.0276547
3582	0.0276128
3594	0.0266909
3606	0.027068
3618	0.0271099
3630	0.0253082
3642	0.0268585
3654	0.0251825
3666	0.0262719
3678	0.0239255
3690	0.0243026
3702	0.0240931
3714	0.0236322
3726	0.0254758
3738	0.0243445
3750	0.0234227
3762	0.0248054
3774	0.0243445
3786	0.0233808
3798	0.0235903
3810	0.0234646
3822	0.0234227
3834	0.0233389
3846	0.023297
3858	0.025811
3870	0.0242188
3882	0.0251825
3894	0.024973
3906	0.0247635
3918	0.0243026
3930	0.0251825
3942	0.0275709
3954	0.024135
3966	0.0281994
