Infrared Spectrum: 1,3-Dithienyl-2-propen-1-one
Formula: C 11 H 8 O S 2
CAS: 2309-48-0
Origin: Sadtler Research Labs Under US-EPA Contract
1/CM	ABSORBANCE
450	0.0101994
462	0.00452752
474	0.00631863
486	0.00870677
498	0.0075127
510	0.00492555
522	0.000945307
534	0.0016916
546	0.00218913
558	0.00771172
570	0.029205
582	0.0515939
594	0.0284587
606	0.00791073
618	0.00383098
630	0.00577135
642	0.00238814
654	0.0104481
666	0.0162195
678	0.0318917
690	0.0808486
702	0.185678
714	0.191052
726	0.0604499
738	0.0231351
750	0.0260706
762	0.00925406
774	0.00388073
786	0.00781122
798	0.0155229
810	0.0470663
822	0.0837343
834	0.0266676
846	0.0327872
858	0.0937347
870	0.0211948
882	0.00801023
894	0.00363197
906	0.00368172
918	0.00507481
930	0.00810974
942	0.0214435
954	0.0446284
966	0.0970184
978	0.0748285
990	0.0234834
1002	0.0374143
1014	0.0429866
1026	0.0278119
1038	0.0971179
1050	0.0607982
1062	0.066271
1074	0.0196027
1086	0.037862
1098	0.00756246
1110	0.00691567
1122	0.00960233
1134	0.0108462
1146	0.0137318
1158	0.0260706
1170	0.0641814
1182	0.0371655
1194	0.0651764
1206	0.132691
1218	0.061644
1230	0.139706
1242	0.111049
1254	0.0681119
1266	0.0921923
1278	0.11279
1290	0.126223
1302	0.0805501
1314	0.0873165
1326	0.033633
1338	0.015921
1350	0.057216
1362	0.113586
1374	0.0467678
1386	0.0231351
1398	0.0394541
1410	0.126024
1422	0.165976
1434	0.0416433
1446	0.0150752
1458	0.0104979
1470	0.00850776
1482	0.0065674
1494	0.00950282
1506	0.0341306
1518	0.1309
1530	0.0352251
1542	0.0181101
1554	0.0185579
1566	0.0232844
1578	0.0384093
1590	0.099307
1602	0.397924
1614	0.251949
1626	0.0726891
1638	0.05035
1650	0.0989587
1662	0.192096
1674	0.210306
1686	0.0575642
1698	0.0168663
1710	0.0131348
1722	0.0118412
1734	0.00810974
1746	0.00527382
1758	0.00606987
1770	0.00547283
1782	0.00736344
1794	0.0129358
1806	0.00786097
1818	0.00895554
1830	0.00676641
1842	0.00388073
1854	0.00388073
1866	0.00417925
1878	0.00442802
1890	0.00427876
1902	0.00462703
1914	0.00422901
1926	0.00422901
1938	0.0041295
1950	0.00363197
1962	0.00233839
1974	0.00233839
1986	0.00238814
1998	0.00263691
2010	0.00323395
2022	0.00313444
2034	0.00308469
2046	0.0025374
2058	0.00263691
2070	0.0024379
2082	0.0032837
2094	0.00358222
2106	0.00348271
2118	0.00258716
2130	0.00258716
2142	0.00273642
2154	0.00273642
2166	0.00467678
2178	0.00308469
2190	0.0025374
2202	0.00218913
2214	0.00258716
2226	0.00278617
2238	0.00288567
2250	0.00278617
2262	0.00298518
2274	0.00378123
2286	0.00432851
2298	0.00248765
2310	0.00154234
2322	0.000398024
2334	0.000149259
2346	0.000248765
2358	0.000149259
2370	0.000149259
2382	0.00318419
2394	0.00298518
2406	0.00293543
2418	0.00323395
2430	0.0032837
2442	0.0033832
2454	0.00427876
2466	0.00477629
2478	0.00383098
2490	0.00323395
2502	0.00308469
2514	0.00318419
2526	0.00298518
2538	0.0032837
2550	0.00333345
2562	0.00353246
2574	0.00447777
2586	0.00422901
2598	0.00388073
2610	0.00393049
2622	0.00422901
2634	0.00417925
2646	0.00393049
2658	0.00398024
2670	0.00353246
2682	0.00358222
2694	0.00288567
2706	0.00313444
2718	0.00308469
2730	0.00308469
2742	0.00313444
2754	0.0033832
2766	0.00288567
2778	0.00298518
2790	0.00313444
2802	0.00383098
2814	0.00457728
2826	0.00512456
2838	0.00502505
2850	0.00393049
2862	0.0041295
2874	0.00407975
2886	0.00457728
2898	0.00472654
2910	0.00522406
2922	0.00472654
2934	0.00467678
2946	0.00492555
2958	0.00482604
2970	0.00542308
2982	0.0049753
2994	0.00427876
3006	0.00437826
3018	0.00606987
3030	0.00701517
3042	0.00820925
3054	0.00900529
3066	0.00781122
3078	0.0192544
3090	0.0285085
3102	0.0149259
3114	0.00855752
3126	0.00567184
3138	0.00348271
3150	0.00343296
3162	0.00258716
3174	0.00283592
3186	0.00278617
3198	0.00238814
3210	0.00258716
3222	0.00283592
3234	0.00333345
3246	0.00363197
3258	0.00442802
3270	0.00492555
3282	0.00358222
3294	0.00407975
3306	0.00348271
3318	0.00437826
3330	0.00477629
3342	0.00398024
3354	0.00248765
3366	0.00358222
3378	0.00273642
3390	0.00228864
3402	0.00263691
3414	0.00278617
3426	0.0024379
3438	0.00228864
3450	0.00223888
3462	0.00258716
3474	0.00223888
3486	0.00238814
3498	0.00199012
3510	0.00218913
3522	0.00228864
3534	0.00203987
3546	0.00189061
3558	0.00194037
3570	0.00174136
3582	0.00223888
3594	0.00119407
3606	0.000796048
3618	0.00099506
3630	0.00189061
3642	0.00104481
3654	0.00129358
3666	0.00238814
3678	0.000348271
3690	0.0024379
3702	0.00199012
3714	0.00184086
3726	0.00228864
3738	0.00263691
3750	0.00218913
3762	0.00179111
3774	0.00278617
3786	0.00248765
3798	0.00154234
3810	0.00263691
3822	0.00154234
3834	0.00293543
3846	0.00323395
3858	0.0015921
3870	0.00049753
3882	0.0016916
3894	0.000298518
3906	0.00233839
3918	0.00233839
3930	0.00263691
3942	0.00472654
3954	0.00278617
3966	0.00203987
