Infrared Spectrum: Phthalimide, N-(1-formylethyl)-,
Formula: C 11 H 9 N O 3
CAS: 23101-87-3
Origin: Sadtler Research Labs Under US-EPA Contract
1/CM	ABSORBANCE
450	0.0224888
462	0.00992151
474	0.0105829
486	0.0146618
498	0.0146618
510	0.0217171
522	0.0379222
534	0.0504895
546	0.0477335
558	0.0425523
570	0.022158
582	0.0217171
594	0.0227092
606	0.025355
618	0.0302055
630	0.0263471
642	0.0347253
654	0.017969
666	0.00981127
678	0.00970103
690	0.0142208
702	0.0501587
714	0.237565
726	0.188398
738	0.0281109
750	0.012898
762	0.00529147
774	0.00529147
786	0.0181894
798	0.0105829
810	0.00551195
822	0.00672458
834	0.00782697
846	0.0100317
858	0.00959079
870	0.0300952
882	0.058096
894	0.0257959
906	0.0330717
918	0.0464106
930	0.0389144
942	0.034615
954	0.0148823
966	0.00881912
978	0.00760649
990	0.0111341
1002	0.0311976
1014	0.0681277
1026	0.131515
1038	0.0938134
1050	0.040568
1062	0.0491666
1074	0.0716554
1086	0.0738601
1098	0.0468516
1110	0.0400168
1122	0.0500485
1134	0.0642693
1146	0.0736397
1158	0.0761751
1170	0.0758444
1182	0.0617338
1194	0.0523635
1206	0.049828
1218	0.02767
1230	0.0176382
1242	0.0177485
1254	0.0217171
1266	0.0246935
1278	0.0271188
1290	0.0482847
1302	0.0537966
1314	0.0584267
1326	0.108034
1338	0.151909
1350	0.186855
1362	0.282653
1374	0.598488
1386	0.612708
1398	0.139783
1410	0.0457492
1422	0.0400168
1434	0.0246935
1446	0.0265676
1458	0.0411191
1470	0.0458594
1482	0.0112444
1494	0.00143311
1506	0.00308669
1518	0.00672458
1530	0.00948055
1542	0.00727577
1554	0.00562219
1566	0.00584267
1578	0.0105829
1590	0.0169768
1602	0.0222683
1614	0.0286621
1626	0.0163154
1638	0.0146618
1650	0.0176382
1662	0.0232604
1674	0.0341741
1686	0.0590881
1698	0.117515
1710	0.247817
1722	0.4242
1734	0.942433
1746	0.955662
1758	0.483508
1770	0.34593
1782	0.291362
1794	0.264794
1806	0.0815769
1818	0.0385836
1830	0.0186304
1842	0.012457
1854	0.00749625
1866	0.00639386
1878	0.00617338
1890	0.00264574
1902	0.00308669
1914	0.00352765
1926	0.00209454
1938	0.00463004
1950	0.00275597
1962	0.000992151
1974	0.00407884
1986	0.00154335
1998	0.000551195
2010	0.000330717
2022	0
2034	0.000440956
2046	0.000881912
2058	0.000771673
2070	0.00176382
2082	0.0025355
2094	0.0025355
2106	0.00286621
2118	0.00242526
2130	0.00176382
2142	0.000110239
2154	0.00143311
2166	0.00319693
2178	0.0039686
2190	0.00363789
2202	0.00275597
2214	0.0019843
2226	0.00110239
2238	0.00132287
2250	0.00187406
2262	0.0019843
2274	0.00209454
2286	0.00319693
2298	0.00529147
2310	0.00727577
2322	0.00760649
2334	0.00606314
2346	0.00837816
2358	0.00661434
2370	0.00826793
2382	0.00760649
2394	0.00418908
2406	0.00374813
2418	0.00275597
2430	0.00308669
2442	0.00374813
2454	0.00374813
2466	0.00407884
2478	0.00374813
2490	0.0039686
2502	0.00374813
2514	0.00352765
2526	0.00418908
2538	0.00407884
2550	0.00463004
2562	0.00418908
2574	0.00429932
2586	0.00429932
2598	0.0039686
2610	0.00418908
2622	0.00474028
2634	0.00573243
2646	0.00606314
2658	0.0070553
2670	0.00870888
2682	0.0117956
2694	0.0186304
2706	0.0241423
2718	0.0187406
2730	0.0182997
2742	0.0178587
2754	0.014772
2766	0.0156539
2778	0.0164256
2790	0.0192918
2802	0.0356072
2814	0.0593086
2826	0.040127
2838	0.0203942
2850	0.0146618
2862	0.0130082
2874	0.012898
2886	0.0174178
2898	0.0217171
2910	0.0277802
2922	0.0271188
2934	0.0238116
2946	0.0324103
2958	0.0295441
2970	0.0167563
2982	0.019843
2994	0.0324103
3006	0.0309772
3018	0.015213
3030	0.0116853
3042	0.0145515
3054	0.0190713
3066	0.0275598
3078	0.0255754
3090	0.0362686
3102	0.0192918
3114	0.0102522
3126	0.00914984
3138	0.0084884
3150	0.00815769
3162	0.00782697
3174	0.00771673
3186	0.00881912
3198	0.00815769
3210	0.00815769
3222	0.0084884
3234	0.0084884
3246	0.00749625
3258	0.00738601
3270	0.00694506
3282	0.00716553
3294	0.00639386
3306	0.00639386
3318	0.00595291
3330	0.00617338
3342	0.00562219
3354	0.00595291
3366	0.00551195
3378	0.00496075
3390	0.00418908
3402	0.00418908
3414	0.00330717
3426	0.00418908
3438	0.00518123
3450	0.00694506
3462	0.0146618
3474	0.0238116
3486	0.0207249
3498	0.0112444
3510	0.0131184
3522	0.00970103
3534	0.0070553
3546	0.00595291
3558	0.00562219
3570	0.0149925
3582	0.0363789
3594	0.00948055
3606	0.0039686
3618	0.00385836
3630	0.00584267
3642	0.00231502
3654	0.00429932
3666	0.000992151
3678	0.00440956
3690	0.00352765
3702	0.00286621
3714	0.00363789
3726	0.00440956
3738	0.00562219
3750	0.00374813
3762	0.0039686
3774	0.00429932
3786	0.00319693
3798	0.00407884
3810	0.00407884
3822	0.00341741
3834	0.00485052
3846	0.00407884
3858	0.00352765
3870	0.00407884
3882	0.00440956
3894	0.00628362
3906	0.00661434
3918	0.00617338
3930	0.00507099
3942	0.00573243
3954	0.00518123
3966	0.00606314
