Infrared Spectrum: 2-Hexanol, 3-methyl-
Formula: C 7 H 16 O
CAS: 2313-65-7
Origin: Sadtler Research Labs Under US-EPA Contract
1/CM	ABSORBANCE
450	0
462	0.0885559
474	0.091544
486	0.100237
498	0.0768753
510	0.0850246
522	0.0770111
534	0.0687259
546	0.0757887
558	0.067911
570	0.0728006
582	0.0685901
594	0.0756529
606	0.0718498
618	0.0698125
630	0.0638363
642	0.0657378
654	0.0639722
666	0.0631572
678	0.0685901
690	0.064108
702	0.0632931
714	0.0680468
726	0.0707633
738	0.077826
750	0.076332
762	0.0683185
774	0.0676394
786	0.0707633
798	0.0689976
810	0.0687259
822	0.0689976
834	0.0675035
846	0.0744305
858	0.0844813
870	0.0933097
882	0.104855
894	0.126314
906	0.148046
918	0.145194
930	0.172086
942	0.161764
954	0.111782
966	0.105398
978	0.125092
990	0.158504
1002	0.159048
1014	0.16448
1026	0.200609
1038	0.222748
1050	0.224242
1062	0.239997
1074	0.282374
1086	0.307094
1098	0.259284
1110	0.202239
1122	0.181866
1134	0.175482
1146	0.181322
1158	0.173037
1170	0.141798
1182	0.113819
1194	0.107571
1206	0.118708
1218	0.142885
1230	0.174803
1242	0.201696
1254	0.200473
1266	0.163258
1278	0.129982
1290	0.117486
1302	0.119252
1314	0.124277
1326	0.124141
1338	0.12808
1350	0.14044
1362	0.169913
1374	0.264581
1386	0.338468
1398	0.246109
1410	0.149268
1422	0.115449
1434	0.117214
1446	0.163937
1458	0.240948
1470	0.242306
1482	0.16027
1494	0.100237
1506	0.0840738
1518	0.0779618
1530	0.0752454
1542	0.0736155
1554	0.0713065
1566	0.0696767
1578	0.0708991
1590	0.0684543
1602	0.0688618
1614	0.0695409
1626	0.0681826
1638	0.0696767
1650	0.0681826
1662	0.0687259
1674	0.0691334
1686	0.0711707
1698	0.0689976
1710	0.0681826
1722	0.0699483
1734	0.0703558
1746	0.0683185
1758	0.0675035
1770	0.0668244
1782	0.0668244
1794	0.0658737
1806	0.0673677
1818	0.0673677
1830	0.0665528
1842	0.0676394
1854	0.0672319
1866	0.0670961
1878	0.0675035
1890	0.0680468
1902	0.0673677
1914	0.067911
1926	0.0677752
1938	0.0680468
1950	0.067911
1962	0.0681826
1974	0.0677752
1986	0.0687259
1998	0.067911
2010	0.0669602
2022	0.0650587
2034	0.0632931
2046	0.0637005
2058	0.0616632
2070	0.0611199
2082	0.0647871
2094	0.0675035
2106	0.0676394
2118	0.0681826
2130	0.067911
2142	0.0676394
2154	0.0676394
2166	0.0683185
2178	0.0670961
2190	0.0675035
2202	0.0668244
2214	0.0662811
2226	0.066417
2238	0.0662811
2250	0.0657378
2262	0.0657378
2274	0.0650587
2286	0.064108
2298	0.0624781
2310	0.0608483
2322	0.0631572
2334	0.0647871
2346	0.0608483
2358	0.065602
2370	0.0608483
2382	0.0608483
2394	0.0657378
2406	0.0662811
2418	0.0649229
2430	0.064108
2442	0.0637005
2454	0.0627498
2466	0.0634289
2478	0.0627498
2490	0.0623423
2502	0.0623423
2514	0.0620707
2526	0.0619348
2538	0.0619348
2550	0.0608483
2562	0.0619348
2574	0.0615274
2586	0.0626139
2598	0.0654662
2610	0.0695409
2622	0.0730722
2634	0.0749737
2646	0.0748379
2658	0.0757887
2670	0.0736155
2682	0.0685901
2694	0.0691334
2706	0.0734797
2718	0.0779618
2730	0.0808141
2742	0.0851604
2754	0.0844813
2766	0.0823081
2778	0.0843455
2790	0.0882843
2802	0.0954829
2814	0.105534
2826	0.12061
2838	0.14791
2850	0.214463
2862	0.347433
2874	0.559315
2886	0.728142
2898	0.63198
2910	0.579824
2922	0.661725
2934	0.803251
2946	0.804474
2958	0.863013
2970	1.3191
2982	1.09187
2994	0.472661
3006	0.187163
3018	0.120202
3030	0.10404
3042	0.0941246
3054	0.0859753
3066	0.0799992
3078	0.0774185
3090	0.0756529
3102	0.0737513
3114	0.0721215
3126	0.071714
3138	0.0728006
3150	0.0736155
3162	0.0761961
3174	0.0774185
3186	0.0757887
3198	0.0744305
3210	0.07022
3222	0.0680468
3234	0.0666886
3246	0.0666886
3258	0.0670961
3270	0.0675035
3282	0.0650587
3294	0.0619348
3306	0.0612557
3318	0.0608483
3330	0.0634289
3342	0.0642438
3354	0.0627498
3366	0.0622065
3378	0.0623423
3390	0.0630214
3402	0.0623423
3414	0.0639722
3426	0.0619348
3438	0.0639722
3450	0.0635647
3462	0.0638363
3474	0.0649229
3486	0.0626139
3498	0.0627498
3510	0.0647871
3522	0.0642438
3534	0.0645154
3546	0.0647871
3558	0.0637005
3570	0.0660095
3582	0.0660095
3594	0.0666886
3606	0.0685901
3618	0.0732081
3630	0.0842096
3642	0.107978
3654	0.152936
3666	0.147774
3678	0.0943963
3690	0.0730722
3702	0.0687259
3714	0.0688618
3726	0.0673677
3738	0.0660095
3750	0.0669602
3762	0.0626139
3774	0.0673677
3786	0.0661453
3798	0.0654662
3810	0.0647871
3822	0.0658737
3834	0.0635647
3846	0.0662811
3858	0.0646513
3870	0.0653304
3882	0.0623423
3894	0.0654662
3906	0.0612557
3918	0.0609841
3930	0.0609841
3942	0.0608483
3954	0.0645154
3966	0.065602
