Infrared Spectrum: n-Propyl benzoate
Formula: C 10 H 12 O 2
CAS: 2315-68-6
Origin: Sadtler Research Labs Under US-EPA Contract
1/CM	ABSORBANCE
450	0
462	0.0819253
474	0.103611
486	0.115057
498	0.0966839
510	0.109184
522	0.102407
534	0.116713
546	0.106774
558	0.105569
570	0.100901
582	0.104364
594	0.10587
606	0.10331
618	0.106925
630	0.103611
642	0.106623
654	0.108431
666	0.11837
678	0.159935
690	0.163098
702	0.290052
714	0.361887
726	0.17123
738	0.121231
750	0.11069
762	0.105419
774	0.109184
786	0.105569
798	0.11069
810	0.109184
822	0.112196
834	0.108882
846	0.109786
858	0.108581
870	0.109485
882	0.110539
894	0.11325
906	0.115659
918	0.119876
930	0.124093
942	0.158128
954	0.137044
966	0.126201
978	0.13102
990	0.110539
1002	0.10828
1014	0.115207
1026	0.215054
1038	0.14096
1050	0.125298
1062	0.184934
1074	0.204813
1086	0.20903
1098	0.463541
1110	0.69245
1122	0.348785
1134	0.184784
1146	0.165357
1158	0.150749
1170	0.177254
1182	0.236288
1194	0.122737
1206	0.117015
1218	0.122286
1230	0.168218
1242	0.305563
1254	0.374236
1266	1.0706
1278	1.27737
1290	0.36264
1302	0.202253
1314	0.257372
1326	0.160989
1338	0.119123
1350	0.1259
1362	0.114003
1374	0.123189
1386	0.146682
1398	0.14096
1410	0.111744
1422	0.106623
1434	0.110991
1446	0.147134
1458	0.180115
1470	0.150146
1482	0.126201
1494	0.111744
1506	0.100599
1518	0.0965333
1530	0.0957803
1542	0.0941237
1554	0.100298
1566	0.101654
1578	0.106172
1590	0.112647
1602	0.122286
1614	0.11596
1626	0.0990935
1638	0.0990935
1650	0.0968345
1662	0.0957803
1674	0.0971357
1686	0.103913
1698	0.112346
1710	0.119725
1722	0.188247
1734	0.600434
1746	0.793501
1758	0.245625
1770	0.118671
1782	0.114906
1794	0.11084
1806	0.104666
1818	0.10316
1830	0.0926178
1842	0.0908106
1854	0.091413
1866	0.0903588
1878	0.0909612
1890	0.091413
1902	0.093672
1914	0.0957803
1926	0.0941237
1938	0.0911118
1950	0.0927684
1962	0.0938226
1974	0.0924672
1986	0.0880998
1998	0.086895
2010	0.0873468
2022	0.0870456
2034	0.0874974
2046	0.0882504
2058	0.0885516
2070	0.0885516
2082	0.0888528
2094	0.088401
2106	0.0862927
2118	0.0849373
2130	0.0831301
2142	0.0825277
2154	0.0828289
2166	0.0822265
2178	0.0825277
2190	0.0835819
2202	0.0838831
2214	0.0838831
2226	0.0837325
2238	0.0832807
2250	0.0832807
2262	0.0829795
2274	0.0828289
2286	0.0838831
2298	0.0853891
2310	0.0874974
2322	0.0900576
2334	0.0858409
2346	0.0831301
2358	0.087648
2370	0.0772568
2382	0.0793651
2394	0.0804193
2406	0.0811723
2418	0.0799675
2430	0.0801181
2442	0.0793651
2454	0.0787628
2466	0.0781604
2478	0.0774074
2490	0.0777086
2502	0.0778592
2514	0.0795157
2526	0.0804193
2538	0.0799675
2550	0.0804193
2562	0.0805699
2574	0.0793651
2586	0.0774074
2598	0.077558
2610	0.0774074
2622	0.0780098
2634	0.0781604
2646	0.077558
2658	0.078311
2670	0.0778592
2682	0.0781604
2694	0.0781604
2706	0.0784616
2718	0.0787628
2730	0.0784616
2742	0.0799675
2754	0.0811723
2766	0.0820759
2778	0.0813229
2790	0.0807205
2802	0.0822265
2814	0.0817747
2826	0.0823771
2838	0.0858409
2850	0.0893046
2862	0.0983405
2874	0.110539
2886	0.137044
2898	0.149996
2910	0.135538
2922	0.132978
2934	0.16611
2946	0.190958
2958	0.211138
2970	0.252252
2982	0.298786
2994	0.165808
3006	0.112346
3018	0.100298
3030	0.101051
3042	0.112948
3054	0.118069
3066	0.126653
3078	0.158429
3090	0.116262
3102	0.110388
3114	0.0944249
3126	0.0847867
3138	0.0826783
3150	0.0813229
3162	0.0819253
3174	0.0828289
3186	0.0816241
3198	0.0804193
3210	0.0790639
3222	0.0789134
3234	0.078311
3246	0.0784616
3258	0.0780098
3270	0.0778592
3282	0.0798169
3294	0.0796663
3306	0.0787628
3318	0.077558
3330	0.0808711
3342	0.0798169
3354	0.0802687
3366	0.0784616
3378	0.0790639
3390	0.0814735
3402	0.0798169
3414	0.0790639
3426	0.0811723
3438	0.0804193
3450	0.0834313
3462	0.0873468
3474	0.0829795
3486	0.0820759
3498	0.0778592
3510	0.0807205
3522	0.0810217
3534	0.0801181
3546	0.0808711
3558	0.0786122
3570	0.0805699
3582	0.0802687
3594	0.0813229
3606	0.0810217
3618	0.0805699
3630	0.0807205
3642	0.0816241
3654	0.0802687
3666	0.0820759
3678	0.0829795
3690	0.0814735
3702	0.0823771
3714	0.0810217
3726	0.0820759
3738	0.0808711
3750	0.0813229
3762	0.0823771
3774	0.0777086
3786	0.0816241
3798	0.0847867
3810	0.077558
3822	0.0817747
3834	0.0804193
3846	0.0781604
3858	0.077558
3870	0.0792145
3882	0.0823771
3894	0.0822265
3906	0.0781604
3918	0.0826783
3930	0.0832807
3942	0.0844855
3954	0.0802687
3966	0.0805699
