Infrared Spectrum: Acetamide, 2-chloro-N,N-diethyl-
Formula: C 6 H 12 Cl N O
CAS: 2315-36-8
Origin: Sadtler Research Labs Under US-EPA Contract
1/CM	ABSORBANCE
450	0.00365077
462	0.0075623
474	0.00608461
486	0.00782307
498	0.00782307
510	0.00573692
522	0.00226
534	0.00747538
546	0.0145161
558	0.0208615
570	0.0239038
582	0.0200792
594	0.0105177
606	0.0108654
618	0.0118215
630	0.0145161
642	0.0351169
654	0.0438092
666	0.0160808
678	0.00495461
690	0.00651922
702	0.0152984
714	0.0379854
726	0.0330307
738	0.0184277
750	0.0139946
762	0.0126908
774	0.0262507
786	0.0639753
798	0.0631061
810	0.0255554
822	0.00938768
834	0.00486769
846	0.00425923
858	0.00512846
870	0.00234692
882	0.00191231
894	0.00260769
906	0.00312923
918	0.00425923
930	0.00695384
942	0.0112131
954	0.0102569
966	0.00408538
978	0.00295538
990	0.00382461
1002	0.00677999
1014	0.0128646
1026	0.02147
1038	0.0152984
1050	0.0126908
1062	0.02825
1074	0.0452869
1086	0.04972
1098	0.0717115
1110	0.116216
1122	0.148291
1134	0.0695384
1146	0.0213831
1158	0.0136469
1170	0.0125169
1182	0.01356
1194	0.0172108
1206	0.0380723
1218	0.0877922
1230	0.0832722
1242	0.0624107
1254	0.0970061
1266	0.0885745
1278	0.116216
1290	0.140207
1302	0.0758838
1314	0.0871838
1326	0.0651053
1338	0.0379854
1350	0.0624107
1362	0.0817076
1374	0.0978753
1386	0.123083
1398	0.086923
1410	0.108045
1422	0.191144
1434	0.200444
1446	0.200531
1458	0.220611
1470	0.159938
1482	0.0768399
1494	0.0397238
1506	0.0242515
1518	0.0194708
1530	0.0148638
1542	0.00608461
1554	0.00825768
1566	0.00686692
1578	0.00669307
1590	0.01017
1602	0.0110392
1614	0.0145161
1626	0.0196446
1638	0.0285977
1650	0.0515453
1662	0.155331
1674	0.608026
1686	0.838285
1698	0.293452
1710	0.0951807
1722	0.0393761
1734	0.0193838
1746	0.0151246
1758	0.0131254
1770	0.0123431
1782	0.0116477
1794	0.0102569
1806	0.00938768
1818	0.00730153
1830	0.00521538
1842	0.00399846
1854	0.00286846
1866	0.00121692
1878	0.00086923
1890	0.000608461
1902	0.00156461
1914	0.00104308
1926	0.000521538
1938	0.000956153
1950	0.000434615
1962	0.000434615
1974	0.000608461
1986	0.000521538
1998	0.00104308
2010	0.000521538
2022	0.000695384
2034	8.6923e-05
2046	0.000434615
2058	0.000434615
2070	0.000695384
2082	0.000695384
2094	0.00121692
2106	0.00113
2118	0.00121692
2130	0.00113
2142	0.00130384
2154	0.00182538
2166	0.00173846
2178	0.00191231
2190	0.00130384
2202	0.000782307
2214	0.00086923
2226	0.00104308
2238	0.00147769
2250	0.00139077
2262	0.00086923
2274	0.000782307
2286	0.000695384
2298	0.000608461
2310	0.000608461
2322	0.000782307
2334	0.00182538
2346	0.000695384
2358	0.00147769
2370	0.000521538
2382	0.00113
2394	0.00121692
2406	0.00165154
2418	0.00104308
2430	0.00121692
2442	0.00139077
2454	0.00121692
2466	0.00121692
2478	0.00086923
2490	0.000782307
2502	0.000782307
2514	0.000782307
2526	0.00130384
2538	0.00182538
2550	0.00147769
2562	0.00139077
2574	0.00147769
2586	0.00139077
2598	0.00139077
2610	0.00104308
2622	0.00104308
2634	0.00147769
2646	0.00147769
2658	0.00139077
2670	0.00199923
2682	0.00260769
2694	0.00399846
2706	0.0041723
2718	0.00365077
2730	0.00365077
2742	0.00425923
2754	0.00469384
2766	0.00425923
2778	0.0041723
2790	0.00564999
2802	0.00686692
2814	0.00895307
2826	0.0110392
2838	0.0131254
2850	0.0164284
2862	0.0231215
2874	0.0436353
2886	0.0750145
2898	0.0783176
2910	0.0747538
2922	0.0762315
2934	0.101961
2946	0.146118
2958	0.112391
2970	0.142032
2982	0.228347
2994	0.1695
3006	0.095963
3018	0.0453738
3030	0.0229477
3042	0.0167761
3054	0.0132123
3066	0.0106915
3078	0.00782307
3090	0.0064323
3102	0.00695384
3114	0.00599769
3126	0.00591076
3138	0.00521538
3150	0.00556307
3162	0.00452
3174	0.00460692
3186	0.00382461
3198	0.00330307
3210	0.00234692
3222	0.00173846
3234	0.00191231
3246	0.00182538
3258	0.00234692
3270	0.00199923
3282	0.00208615
3294	0.00226
3306	0.00312923
3318	0.00252077
3330	0.00460692
3342	0.00808384
3354	0.00730153
3366	0.00443307
3378	0.00330307
3390	0.00269461
3402	0.00269461
3414	0.00269461
3426	0.00295538
3438	0.00339
3450	0.00312923
3462	0.00312923
3474	0.00312923
3486	0.00278154
3498	0.00321615
3510	0.00252077
3522	0.00286846
3534	0.00286846
3546	0.00339
3558	0.00347692
3570	0.00434615
3582	0.00460692
3594	0.00373769
3606	0.00321615
3618	0.00173846
3630	0.00139077
3642	0.00234692
3654	0.00182538
3666	0.00208615
3678	0.000347692
3690	0.00165154
3702	0.00226
3714	0.00182538
3726	0.00173846
3738	0.00139077
3750	0.00113
3762	0.00191231
3774	0.00217308
3786	0.00234692
3798	0.000782307
3810	0.000956153
3822	0.000434615
3834	0.000695384
3846	0.000608461
3858	0.000347692
3870	0.000260769
3882	0.00139077
3894	0.00121692
3906	0.00208615
3918	0.00104308
3930	0.00139077
3942	0.00147769
3954	0.00156461
3966	0.00130384
