Infrared Spectrum: 3-Rhodanineacetic acid, ethyl ester
Formula: C 7 H 9 N O 3 S 2
CAS: 23176-01-4
Origin: Sadtler Research Labs Under US-EPA Contract
1/CM	ABSORBANCE
450	0.00011546
462	0.00132779
474	0
486	0.00363699
498	0.01068
510	0.0271331
522	0.0191086
534	0.0172035
546	0.0180118
558	0.00727398
570	0.00415656
582	0.00294423
594	0.00051957
606	0.00127006
618	0.00121233
630	0.00392564
642	0.0137975
654	0.0192818
666	0.0086595
678	0.00456067
690	0.0040411
702	0.00704306
714	0.00663895
726	0.0086595
738	0.00611938
750	0.00254012
762	0.00323288
774	0.00992956
786	0.00894815
798	0.00190509
810	0.00150098
822	0.00277104
834	0.00721625
846	0.017319
858	0.0122388
870	0.0134511
882	0.0128738
894	0.00617711
906	0.00444521
918	0.00946772
930	0.0110842
942	0.00669668
954	0.011546
966	0.0387368
978	0.0322711
990	0.0110264
1002	0.013682
1014	0.0279413
1026	0.0676018
1038	0.0647731
1050	0.048955
1062	0.020321
1074	0.0132202
1086	0.0163953
1098	0.0269599
1110	0.0331948
1122	0.02009
1134	0.0159335
1146	0.0216487
1158	0.0377554
1170	0.0766654
1182	0.162106
1194	0.41479
1206	0.485856
1218	0.445214
1230	0.214582
1242	0.118866
1254	0.110553
1266	0.0674286
1278	0.0456644
1290	0.0475118
1302	0.067775
1314	0.126775
1326	0.34511
1338	0.348458
1350	0.200843
1362	0.170073
1374	0.089366
1386	0.0509179
1398	0.0516683
1410	0.0900011
1422	0.0381018
1434	0.0168572
1446	0.014548
1458	0.0140284
1470	0.0146057
1482	0.010911
1494	0.00704306
1506	0.00854404
1518	0.00756263
1530	0.0063503
1542	0.00790901
1554	0.00277104
1566	0.0023092
1578	0.00178963
1590	0.00155871
1602	0.0028865
1614	0.00444521
1626	0.00513797
1638	0.00571527
1650	0.005773
1662	0.00536889
1674	0.00686987
1686	0.00738944
1698	0.0114883
1710	0.0192241
1722	0.0298464
1734	0.0510333
1746	0.157776
1758	0.512354
1770	0.437247
1782	0.122965
1794	0.0297887
1806	0.0156448
1818	0.0129892
1830	0.0121233
1842	0.00900588
1854	0.00710079
1866	0.00606165
1878	0.00438748
1890	0.00409883
1902	0.0028865
1914	0.0017319
1926	0.00196282
1938	0.00161644
1950	0.00144325
1962	0.00150098
1974	0.00098141
1986	0.00075049
1998	0.00103914
2010	0.00069276
2022	0.00178963
2034	0.00300196
2046	0.00392564
2058	0.00386791
2070	0.00427202
2082	0.0028865
2094	0.00202055
2106	0.0017319
2118	0.00121233
2130	0.00098141
2142	0.00092368
2154	0.00063503
2166	0.00092368
2178	0.00109687
2190	0.00086595
2202	0.00109687
2214	0.00155871
2226	0.00121233
2238	0.00103914
2250	0.0011546
2262	0.0011546
2274	0.00184736
2286	0.00311742
2298	0.00450294
2310	0.005773
2322	0.00548435
2334	0.00340607
2346	0.00444521
2358	0.00415656
2370	0.00340607
2382	0.00392564
2394	0.00167417
2406	0.00161644
2418	0.00086595
2430	0.00069276
2442	0.00103914
2454	0.00080822
2466	0.00127006
2478	0.00075049
2490	0.00034638
2502	0.00023092
2514	0.00040411
2526	0.00092368
2538	0.00109687
2550	0.00144325
2562	0.00121233
2574	0.00098141
2586	0.00040411
2598	0.00046184
2610	0.00069276
2622	0.00046184
2634	0.00051957
2646	0.00063503
2658	0.00098141
2670	0.00132779
2682	0.00155871
2694	0.00155871
2706	0.00109687
2718	0.00098141
2730	0.00080822
2742	0.00127006
2754	0.00103914
2766	0.00109687
2778	0.00127006
2790	0.00155871
2802	0.00132779
2814	0.00167417
2826	0.00184736
2838	0.00190509
2850	0.00225147
2862	0.00305969
2874	0.00456067
2886	0.00721625
2898	0.00710079
2910	0.00912134
2922	0.0112573
2934	0.0147211
2946	0.0311742
2958	0.033137
2970	0.023092
2982	0.0353308
2994	0.0403533
3006	0.0234961
3018	0.0136243
3030	0.00704306
3042	0.00444521
3054	0.00323288
3066	0.00190509
3078	0.00184736
3090	0.0017319
3102	0.0017319
3114	0.0017319
3126	0.00150098
3138	0.00150098
3150	0.00138552
3162	0.00103914
3174	0.00121233
3186	0.00103914
3198	0.00103914
3210	0.0011546
3222	0.0011546
3234	0.00075049
3246	0.00086595
3258	0.0011546
3270	0.0011546
3282	0.00127006
3294	0.00063503
3306	0.00092368
3318	0.00121233
3330	0.00080822
3342	0.00092368
3354	0.00034638
3366	0.00080822
3378	0.00075049
3390	0.00132779
3402	0.00103914
3414	0.00086595
3426	0.00132779
3438	0.00069276
3450	0.00080822
3462	0.00138552
3474	0.0017319
3486	0.00277104
3498	0.00559981
3510	0.00386791
3522	0.00265558
3534	0.00127006
3546	0.00109687
3558	0.00063503
3570	0.00161644
3582	0.00098141
3594	0.00086595
3606	0.00080822
3618	0.00086595
3630	0.00063503
3642	0.00127006
3654	0.00051957
3666	0.00098141
3678	0.00080822
3690	0.0005773
3702	0.00121233
3714	0.00046184
3726	0.00167417
3738	0.00190509
3750	0.00184736
3762	0.00040411
3774	0.00190509
3786	0.00075049
3798	0.00127006
3810	0.00063503
3822	0.00069276
3834	0.00063503
3846	0.00069276
3858	0.00150098
3870	0.00161644
3882	0.0011546
3894	0.0011546
3906	0.00184736
3918	0.00092368
3930	0.00086595
3942	0.00161644
3954	0.00080822
3966	0.0011546
