Infrared Spectrum: Malonic acid, fluoro-p-isobutylphenyl-, diethyl ester
Formula: C 17 H 23 F O 4
CAS: 23197-71-9
Origin: Sadtler Research Labs Under US-EPA Contract
1/CM	ABSORBANCE
450	0.0088386
462	0.00914795
474	0.00402156
486	0.00499381
498	0.005038
510	0.0076012
522	0.0118879
534	0.00578928
546	0.00450769
558	0.00344705
570	0.00106063
582	0.00106063
594	0.0012374
606	0.00636379
618	0.017412
630	0.0124182
642	0.00892699
654	0.00327028
666	0.00185611
678	0.00702669
690	0.0197543
702	0.0253226
714	0.0234665
726	0.0258087
738	0.0394202
750	0.0474191
762	0.0361057
774	0.0385363
786	0.0334541
798	0.0225384
810	0.0166166
822	0.015335
834	0.0152908
846	0.0258087
858	0.0369453
870	0.0383153
882	0.0117553
894	0.00335867
906	0.00132579
918	0.00243062
930	0.00574509
942	0.00676153
954	0.011225
966	0.0327028
978	0.0301838
990	0.0186494
1002	0.0277532
1014	0.0681456
1026	0.115079
1038	0.183445
1050	0.267279
1062	0.217164
1074	0.154543
1086	0.132844
1098	0.184462
1110	0.162851
1122	0.110792
1134	0.0867067
1146	0.0556832
1158	0.0551971
1170	0.0777355
1182	0.106373
1194	0.182296
1206	0.229317
1218	0.293839
1230	0.324598
1242	0.398753
1254	0.436273
1266	0.432694
1278	0.305683
1290	0.187511
1302	0.126392
1314	0.0662011
1326	0.032968
1338	0.0238642
1350	0.0197543
1362	0.0281067
1374	0.0653614
1386	0.0475075
1398	0.0317306
1410	0.0246155
1422	0.02519
1434	0.0220081
1446	0.0377408
1458	0.0531642
1470	0.0733162
1482	0.0457398
1494	0.0270903
1506	0.0261181
1518	0.033896
1530	0.00786635
1542	0.00486123
1554	0.00720346
1566	0.00826409
1578	0.00914795
1590	0.00724765
1602	0.0107831
1614	0.0133463
1626	0.00680572
1638	0.00216546
1650	0.00145837
1662	0.00247481
1674	0.00499381
1686	0.00720346
1698	0.010297
1710	0.0191798
1722	0.0371221
1734	0.0852925
1746	0.209828
1758	0.324023
1770	0.43181
1782	0.319162
1794	0.127895
1806	0.0400389
1818	0.0187378
1830	0.0109599
1842	0.00654056
1854	0.00446349
1866	0.00322609
1878	0.00335867
1890	0.0038006
1902	0.0057009
1914	0.00512639
1926	0.00260739
1938	0.00163514
1950	0.00141418
1962	0.00110483
1974	0.000618702
1986	0.000751281
1998	0.000795474
2010	0.000795474
2022	0.000795474
2034	0.0012816
2046	0.0012374
2058	0.00150256
2070	0.00203288
2082	0.00229804
2094	0.00234223
2106	0.00247481
2118	0.00216546
2130	0.00203288
2142	0.00203288
2154	0.00145837
2166	0.000972246
2178	0.000574509
2190	0.000618702
2202	0.000662895
2214	0.000839667
2226	0.00106063
2238	0.0012374
2250	0.0012374
2262	0.000839667
2274	0.00106063
2286	0.0019003
2298	0.0031819
2310	0.0038006
2322	0.00212126
2334	0
2346	0.00203288
2358	4.4193e-05
2370	0
2382	0.0031377
2394	0.00136998
2406	0.000751281
2418	0.000530316
2430	0.000530316
2442	0.000486123
2454	0.000618702
2466	0.000486123
2478	0.00044193
2490	0.000618702
2502	0.000353544
2514	0
2526	8.8386e-05
2538	0.000486123
2550	0.000618702
2562	0.000574509
2574	0.000574509
2586	0.000839667
2598	0.00167933
2610	0.00194449
2622	0.00185611
2634	0.00207707
2646	0.00198869
2658	0.00172353
2670	0.0019003
2682	0.00176772
2694	0.00212126
2706	0.00229804
2718	0.0031819
2730	0.00552413
2742	0.00543574
2754	0.00517058
2766	0.00561251
2778	0.00671734
2790	0.00733604
2802	0.00844086
2814	0.0107831
2826	0.0152024
2838	0.0208149
2850	0.0399063
2862	0.068234
2874	0.094794
2886	0.10845
2898	0.0992133
2910	0.132358
2922	0.180528
2934	0.212922
2946	0.210403
2958	0.213629
2970	0.296181
2982	0.19056
2994	0.146058
3006	0.0841877
3018	0.0565228
3030	0.0441488
3042	0.0423811
3054	0.027709
3066	0.0245271
3078	0.0254994
3090	0.0177214
3102	0.0159979
3114	0.012374
3126	0.0104295
3138	0.00967827
3150	0.00905957
3162	0.00861764
3174	0.00773378
3186	0.00764539
3198	0.00658476
3210	0.00596606
3222	0.00547993
3234	0.00472865
3246	0.00433091
3258	0.00415414
3270	0.00419834
3282	0.0038006
3294	0.00335867
3306	0.00340286
3318	0.00433091
3330	0.00362383
3342	0.00353544
3354	0.00357963
3366	0.00327028
3378	0.00340286
3390	0.00371221
3402	0.00349125
3414	0.00304932
3426	0.00269577
3438	0.00265158
3450	0.00238642
3462	0.00194449
3474	0.00256319
3486	0.00349125
3498	0.00406576
3510	0.00419834
3522	0.00640799
3534	0.00614283
3546	0.005038
3558	0.0012816
3570	0.00106063
3582	0.000707088
3594	0.00159095
3606	0.00088386
3618	0.000795474
3630	0.00181191
3642	0.00101644
3654	0.00145837
3666	0.000795474
3678	0.00229804
3690	0.00167933
3702	0.00194449
3714	0.00163514
3726	0.00150256
3738	0.00335867
3750	0.00114902
3762	0.00234223
3774	0.00238642
3786	0.00220965
3798	0.00296093
3810	0.000972246
3822	0.00234223
3834	0.00296093
3846	0.00163514
3858	0.0019003
3870	0.0037564
3882	0.00300512
3894	0.00353544
3906	0.00256319
3918	0.00287255
3930	0.00278416
3942	0.00357963
3954	0.00309351
3966	0.00362383
