Infrared Spectrum: Benzoic acid, 2-hydroxy-3-methyl-, methyl ester
Formula: C 9 H 10 O 3
CAS: 23287-26-5
Origin: Sadtler Research Labs Under US-EPA Contract
1/CM	ABSORBANCE
450	0.00796921
462	0.0157758
474	0.0222813
486	0.00374065
498	0.00715603
510	0.00162637
522	0.0133362
534	0.0178901
546	0.0206549
558	0.073024
570	0.0917273
582	0.0245582
594	0.0149626
606	0.0177274
618	0.0351296
630	0.0868482
642	0.0520438
654	0.0156132
666	0.0134989
678	0.0203296
690	0.049279
702	0.0933536
714	0.13076
726	0.135151
738	0.15418
750	0.397973
762	0.392931
774	0.0901009
786	0.0234197
798	0.00357801
810	0.0247208
822	0.0404966
834	0.0666812
846	0.0977448
858	0.0232571
870	0.0118725
882	0.0141494
894	0.00113846
906	0.00195164
918	0.00455384
930	0.000325274
942	0.000650548
954	0.00683075
966	0.0164263
978	0.0378944
990	0.0520438
1002	0.0554592
1014	0.129947
1026	0.141819
1038	0.0424483
1050	0.0169142
1062	0.0258593
1074	0.100347
1086	0.191749
1098	0.150602
1110	0.154505
1122	0.180202
1134	0.37374
1146	1.04136
1158	0.968829
1170	0.335683
1182	0.287705
1194	0.512794
1206	0.507753
1218	0.221674
1230	0.220536
1242	0.678359
1254	1.28874
1266	0.416188
1278	0.446601
1290	1.43299
1302	1.06283
1314	0.405942
1326	0.85417
1338	0.971919
1350	0.412285
1362	0.204923
1374	0.140518
1386	0.202646
1398	0.182153
1410	0.202971
1422	0.285103
1434	0.565651
1446	1.0116
1458	0.552966
1470	0.399599
1482	0.215169
1494	0.127995
1506	0.0696086
1518	0.0554592
1530	0.0504175
1542	0.0494416
1554	0.045701
1566	0.049279
1578	0.0583867
1590	0.0857097
1602	0.167516
1614	0.277296
1626	0.198905
1638	0.0961185
1650	0.0910767
1662	0.149301
1674	0.341863
1686	1.13163
1698	1.2863
1710	0.400412
1722	0.143934
1734	0.0754636
1746	0.0873361
1758	0.0897756
1770	0.0304131
1782	0.016589
1794	0.0148
1806	0.0108967
1818	0.00975822
1830	0.00975822
1842	0.00552966
1854	0.00634284
1866	0.0146373
1878	0.0193538
1890	0.00552966
1902	0.0030901
1914	0.00731867
1926	0.0115472
1938	0.0030901
1950	0.00178901
1962	0.00374065
1974	0.00471647
1986	0.00504175
1998	0.00894504
2010	0.00943295
2022	0.00894504
2034	0.00959558
2046	0.00618021
2058	0.00455384
2070	0.00422856
2082	0.00487911
2094	0.00276483
2106	0.00146373
2118	0.00243955
2130	0.00390329
2142	0.00374065
2154	0.00260219
2166	0.00487911
2178	0.00569229
2190	0.00195164
2202	0.00195164
2214	0.00390329
2226	0.00227692
2238	0.00162637
2250	0.00243955
2262	0.00260219
2274	0.00243955
2286	0.00178901
2298	0.000813185
2310	0
2322	0.000325274
2334	0.00195164
2346	0.00699339
2358	0
2370	0.0123604
2382	0.00894504
2394	0.00276483
2406	0.00243955
2418	0.00357801
2430	0.00504175
2442	0.00715603
2454	0.00764394
2466	0.00780658
2478	0.00845712
2490	0.00910767
2502	0.00731867
2514	0.00618021
2526	0.00715603
2538	0.00894504
2550	0.0104088
2562	0.0104088
2574	0.0104088
2586	0.011222
2598	0.0100835
2610	0.0108967
2622	0.011222
2634	0.0110593
2646	0.0139868
2658	0.0148
2670	0.0134989
2682	0.0126857
2694	0.0118725
2706	0.0113846
2718	0.013011
2730	0.0138241
2742	0.0167516
2754	0.0191912
2766	0.0144747
2778	0.0136615
2790	0.0134989
2802	0.0151252
2814	0.0195164
2826	0.0258593
2838	0.0310637
2850	0.0548087
2862	0.096769
2874	0.0733493
2886	0.0608262
2898	0.0650548
2910	0.0785537
2922	0.113846
2934	0.156294
2946	0.14003
2958	0.238751
2970	0.31698
2982	0.123929
2994	0.110268
3006	0.111081
3018	0.121165
3030	0.140193
3042	0.148162
3054	0.135802
3066	0.132224
3078	0.106853
3090	0.0938415
3102	0.0779031
3114	0.0535076
3126	0.0445625
3138	0.0470021
3150	0.0567603
3162	0.0731867
3174	0.0961185
3186	0.131899
3198	0.190611
3210	0.263635
3222	0.329015
3234	0.348856
3246	0.315516
3258	0.259894
3270	0.205248
3282	0.163125
3294	0.140518
3306	0.123279
3318	0.111732
3330	0.0992086
3342	0.0887998
3354	0.0793669
3366	0.0749757
3378	0.0746504
3390	0.0639163
3402	0.0541581
3414	0.0437494
3426	0.0354549
3438	0.027323
3450	0.0229318
3462	0.0322021
3474	0.0513933
3486	0.0419603
3498	0.0294373
3510	0.0256966
3522	0.0178901
3534	0.0131736
3546	0.0113846
3558	0.00927031
3570	0.011222
3582	0.00845712
3594	0.00683075
3606	0.00683075
3618	0.00552966
3630	0.00357801
3642	0.00113846
3654	0.00276483
3666	0.00260219
3678	0.00162637
3690	0.00243955
3702	0.00536702
3714	0.00195164
3726	0
3738	0.00227692
3750	0.00243955
3762	0.000975822
3774	0.00422856
3786	0.00243955
3798	0.0013011
3810	0.00325274
3822	0.00292747
3834	0.000650548
3846	0.0030901
3858	0.00162637
3870	0.000325274
3882	0.000325274
3894	0
3906	0.00113846
3918	0
3930	0
3942	0
3954	0
3966	0
