Infrared Spectrum: 4-Octanol, 4-methyl-
Formula: C 9 H 20 O
CAS: 23418-37-3
Origin: Sadtler Research Labs Under US-EPA Contract
1/CM	ABSORBANCE
450	0.011979
462	0.0047916
474	0.0100624
486	0.00830544
498	0.0126179
510	0.00942348
522	0.00415272
534	0.00351384
546	0.00287496
558	0.00287496
570	0.00431244
582	0.00367356
594	0.00303468
606	0.00031944
618	0.00047916
630	0.0007986
642	0.0007986
654	0
666	0.00111804
678	0.00175692
690	0.0023958
702	0.00287496
714	0.0071874
726	0.013097
738	0.0223608
750	0.0245969
762	0.0206039
774	0.0212428
786	0.0237983
798	0.0218816
810	0.0126179
822	0.00814572
834	0.00670824
846	0.0127776
858	0.0276316
870	0.0354578
882	0.0483952
894	0.0749087
906	0.0646866
918	0.0731518
930	0.0900821
942	0.0999847
954	0.0624505
966	0.0284302
978	0.018847
990	0.0261941
1002	0.0511104
1014	0.091839
1026	0.0808183
1038	0.0493535
1050	0.0568603
1062	0.0811378
1074	0.091839
1086	0.086728
1098	0.0752281
1110	0.0680407
1122	0.098707
1134	0.149019
1146	0.170102
1158	0.191824
1170	0.168984
1182	0.124422
1194	0.0927973
1206	0.0790614
1218	0.0795406
1230	0.0832141
1242	0.0883252
1254	0.0953528
1266	0.100304
1278	0.0943945
1290	0.091839
1302	0.0886446
1314	0.0883252
1326	0.0904015
1338	0.101582
1350	0.103339
1362	0.112762
1374	0.198851
1386	0.227441
1398	0.100783
1410	0.0523882
1422	0.0437633
1434	0.055902
1446	0.0945542
1458	0.173456
1470	0.205719
1482	0.0967903
1494	0.0309857
1506	0.019965
1518	0.014854
1530	0.0129373
1542	0.010861
1554	0.00862488
1566	0.00654852
1578	0.0063888
1590	0.0055902
1602	0.0055902
1614	0.00543048
1626	0.00511104
1638	0.00495132
1650	0.00351384
1662	0.003993
1674	0.00367356
1686	0.00431244
1698	0.003993
1710	0.00287496
1722	0.0015972
1734	0.00127776
1746	0
1758	0.0015972
1770	0.00255552
1782	0.0023958
1794	0.00303468
1806	0.00271524
1818	0.00223608
1830	0.00175692
1842	0.00127776
1854	0.00127776
1866	0.00127776
1878	0.00143748
1890	0.0015972
1902	0.00111804
1914	0.00111804
1926	0.00063888
1938	0.0007986
1950	0.0007986
1962	0.00031944
1974	0.00031944
1986	0.00031944
1998	0.00015972
2010	0.00031944
2022	0.00047916
2034	0.00127776
2046	0.00143748
2058	0.00111804
2070	0.0007986
2082	0.0007986
2094	0.00031944
2106	0.00063888
2118	0.00031944
2130	0.00047916
2142	0.00015972
2154	0.00015972
2166	0.00015972
2178	0.00031944
2190	0.00031944
2202	0.00031944
2214	0.00015972
2226	0
2238	0
2250	0.00031944
2262	0.00063888
2274	0.00047916
2286	0.00047916
2298	0.00063888
2310	0.00047916
2322	0.00047916
2334	0.00095832
2346	0.0007986
2358	0.00095832
2370	0.00191664
2382	0.00255552
2394	0.00255552
2406	0.0023958
2418	0.00223608
2430	0.00143748
2442	0.00111804
2454	0.00047916
2466	0.00063888
2478	0.0007986
2490	0.00047916
2502	0.00111804
2514	0.00111804
2526	0.00175692
2538	0.00191664
2550	0.0023958
2562	0.0031944
2574	0.003993
2586	0.00463188
2598	0.00527076
2610	0.00590964
2622	0.00702768
2634	0.00766656
2646	0.007986
2658	0.00830544
2670	0.0095832
2682	0.0103818
2694	0.0100624
2706	0.010861
2718	0.0127776
2730	0.0174095
2742	0.0241177
2754	0.0209233
2766	0.0175692
2778	0.0196456
2790	0.0245969
2802	0.0327426
2814	0.0447216
2826	0.0600547
2838	0.0939154
2850	0.175532
2862	0.288774
2874	0.482674
2886	0.600707
2898	0.426452
2910	0.50216
2922	0.671143
2934	0.989785
2946	1.16404
2958	0.971577
2970	1.5972
2982	0.819044
2994	0.288135
3006	0.113721
3018	0.0742698
3030	0.0594158
3042	0.0436036
3054	0.030826
3066	0.0234788
3078	0.0202844
3090	0.0178886
3102	0.015972
3114	0.0138956
3126	0.0129373
3138	0.0116596
3150	0.010861
3162	0.0110207
3174	0.0102221
3186	0.0105415
3198	0.0107012
3210	0.0087846
3222	0.00590964
3234	0.00303468
3246	0.00255552
3258	0.00255552
3270	0.00191664
3282	0.0015972
3294	0.00191664
3306	0.00175692
3318	0.00175692
3330	0.00127776
3342	0.00175692
3354	0.00175692
3366	0.00223608
3378	0.00271524
3390	0.00271524
3402	0.00303468
3414	0.00335412
3426	0.00303468
3438	0.00303468
3450	0.0031944
3462	0.00271524
3474	0.00207636
3486	0.00175692
3498	0.00095832
3510	0.00047916
3522	0.0007986
3534	0.00095832
3546	0.00047916
3558	0.0007986
3570	0.00095832
3582	0.00063888
3594	0.00143748
3606	0.0015972
3618	0.00766656
3630	0.0349787
3642	0.0736309
3654	0.038812
3666	0.00990264
3678	0.00511104
3690	0.0031944
3702	0.00223608
3714	0.00207636
3726	0.0015972
3738	0.0015972
3750	0.00175692
3762	0.0015972
3774	0.0023958
3786	0.0023958
3798	0.0023958
3810	0.00303468
3822	0.00351384
3834	0.00431244
3846	0.00431244
3858	0.003993
3870	0.00415272
3882	0.0023958
3894	0.00271524
3906	0.0023958
3918	0.0015972
3930	0.00127776
3942	0.00191664
3954	0.0023958
3966	0.00095832
