Infrared Spectrum: Benzothiazin-2-one,(2H)1,3-, 3,4-dihydro-3-methyl-4-methylimino-
Formula: C 10 H 10 N 2 O S
CAS: 23588-66-1
Origin: Sadtler Research Labs Under US-EPA Contract
1/CM	ABSORBANCE
450	0.0149472
462	0.0204541
474	0.0263543
486	0.0159962
498	0.016914
510	0.0125871
522	0.0073425
534	0.00563799
546	0.00236009
558	0.00118004
570	0.0145539
582	0.0318612
594	0.00852254
606	0.00209786
618	0.00209786
630	0.00262232
642	0.0118004
654	0.0604445
666	0.0767029
678	0.0592644
690	0.0229453
702	0.00668692
714	0.00786696
726	0.0534953
738	0.165731
750	0.0999104
762	0.128494
774	0.0483818
786	0.00616245
798	0.0040646
810	0.00944035
822	0.0343524
834	0.0645091
846	0.0142916
858	0.0148161
870	0.0123249
882	0.00668692
894	0.00642468
906	0.00760473
918	0.00498241
930	0.00852254
942	0.0242565
954	0.0381548
966	0.0620179
978	0.0191429
990	0.0279277
1002	0.0638535
1014	0.0672625
1026	0.0538887
1038	0.0928301
1050	0.116955
1062	0.0867988
1074	0.0631979
1086	0.199427
1098	0.170057
1110	0.0588711
1122	0.0548065
1134	0.0500863
1146	0.0357947
1158	0.0275344
1170	0.0325168
1182	0.0714582
1194	0.131772
1206	0.0909945
1218	0.0462839
1230	0.0371058
1242	0.0529709
1254	0.126789
1266	0.221979
1278	0.256594
1290	0.305107
1302	0.390332
1314	0.611001
1326	0.576648
1338	0.251349
1350	0.100435
1362	0.0495618
1374	0.0333035
1386	0.0378925
1398	0.0739494
1410	0.194052
1422	0.164288
1434	0.167566
1446	0.192609
1458	0.0755228
1470	0.078014
1482	0.0548065
1494	0.027141
1506	0.014685
1518	0.0110137
1530	0.0135049
1542	0.00944035
1554	0.0194052
1566	0.0343524
1578	0.0649024
1590	0.174647
1602	0.127838
1614	0.0794563
1626	0.120233
1638	0.346671
1650	1.15815
1662	0.84242
1674	0.321759
1686	0.841502
1698	1.26107
1710	0.357684
1722	0.0921745
1734	0.0382859
1746	0.02937
1758	0.0266165
1770	0.0260921
1782	0.0330412
1794	0.0289766
1806	0.0232075
1818	0.0120627
1830	0.00812919
1842	0.00786696
1854	0.00524464
1866	0.00262232
1878	0.00419571
1890	0.00472018
1902	0.00563799
1914	0.00930924
1926	0.0104893
1938	0.00642468
1950	0.010227
1962	0.0065558
1974	0.00393348
1986	0.00301567
1998	0.00236009
2010	0.00262232
2022	0.00183562
2034	0.00301567
2046	0.00340902
2058	0.0040646
2070	0.00380236
2082	0.00196674
2094	0.00222897
2106	0.00236009
2118	0.00222897
2130	0.00288455
2142	0.00262232
2154	0.00170451
2166	0.00157339
2178	0.000917812
2190	0.00118004
2202	0.00131116
2214	0.00170451
2226	0.00301567
2238	0.00432683
2250	0.00590022
2262	0.00747361
2274	0.00839142
2286	0.0100959
2298	0.0098337
2310	0.0121938
2322	0.0104893
2334	0.00721138
2346	0.00694915
2358	0.00458906
2370	0.00314678
2382	0.00432683
2394	0.000786696
2406	0.000393348
2418	0.00065558
2430	0.000131116
2442	0.000131116
2454	0.000262232
2466	0.000524464
2478	0.000393348
2490	0.000262232
2502	0.000393348
2514	0.000393348
2526	0.00118004
2538	0.00170451
2550	0.00170451
2562	0.00209786
2574	0.00196674
2586	0.00209786
2598	0.00236009
2610	0.00275344
2622	0.00183562
2634	0.00144228
2646	0.00118004
2658	0.00170451
2670	0.00196674
2682	0.00131116
2694	0.00144228
2706	0.00157339
2718	0.00131116
2730	0.00196674
2742	0.00222897
2754	0.0032779
2766	0.00472018
2778	0.0103582
2790	0.021503
2802	0.0153406
2814	0.009047
2826	0.00865366
2838	0.0103582
2850	0.014685
2862	0.0272721
2874	0.0603134
2886	0.0759162
2898	0.064378
2910	0.0811608
2922	0.0936168
2934	0.0909945
2946	0.098337
2958	0.148686
2970	0.14213
2982	0.083652
2994	0.0507419
3006	0.0431372
3018	0.0301567
3030	0.0256987
3042	0.0188807
3054	0.0195363
3066	0.0582155
3078	0.0933546
3090	0.0394659
3102	0.0234698
3114	0.011276
3126	0.0107515
3138	0.0115382
3150	0.00799808
3162	0.00445794
3174	0.00314678
3186	0.00236009
3198	0.00209786
3210	0.00222897
3222	0.00262232
3234	0.00275344
3246	0.00196674
3258	0.0024912
3270	0.00419571
3282	0.00708026
3294	0.009047
3306	0.00498241
3318	0.00340902
3330	0.00708026
3342	0.0114071
3354	0.00760473
3366	0.00839142
3378	0.00786696
3390	0.00393348
3402	0.00118004
3414	0.000786696
3426	0.000786696
3438	0.000917812
3450	0.000393348
3462	0.00118004
3474	0.00157339
3486	0.00065558
3498	0.000524464
3510	0.000262232
3522	0.000786696
3534	0.00065558
3546	0.00065558
3558	0.000131116
3570	0.000786696
3582	0.000524464
3594	0.00104893
3606	0.000262232
3618	0.000786696
3630	0.00118004
3642	0.00104893
3654	0.00170451
3666	0.00131116
3678	0.00118004
3690	0.00118004
3702	0.00157339
3714	0.00144228
3726	0.00183562
3738	0.00104893
3750	0.00222897
3762	0.00183562
3774	0.00131116
3786	0.00196674
3798	0.00236009
3810	0.00157339
3822	0.00170451
3834	0.00144228
3846	0.00104893
3858	0.00118004
3870	0.00104893
3882	0.00196674
3894	0.00144228
3906	0.0024912
3918	0.000917812
3930	0.00183562
3942	0.000917812
3954	0.00262232
3966	0.00196674
