Infrared Spectrum: 2,2',4',5'-Tetrachloroacetanilide
Formula: C 8 H 5 Cl 4 N O
CAS: 23595-42-8
Origin: Sadtler Research Labs Under US-EPA Contract
1/CM	ABSORBANCE
450	0
462	0.0502374
474	0.0474657
486	0.0247376
498	0.0345772
510	0.0496138
522	0.0385962
534	0.056751
546	0.0552958
558	0.0615322
570	0.0479508
582	0.043516
594	0.0507225
606	0.0604235
618	0.0625023
630	0.0428231
642	0.0385269
654	0.0288259
666	0.0401206
678	0.0479508
690	0.0641653
702	0.0259156
714	0.037141
726	0.041853
738	0.0413679
750	0.0353394
762	0.0412293
774	0.105117
786	0.12251
798	0.0552958
810	0.0327063
822	0.0333299
834	0.0207879
846	0.0201643
858	0.0282715
870	0.0454562
882	0.101098
894	0.0557116
906	0.021273
918	0.0203721
930	0.0282715
942	0.0282715
954	0.0193327
966	0.0187784
978	0.0164917
990	0.0161453
1002	0.021758
1014	0.0203028
1026	0.0178776
1038	0.0232824
1050	0.0293802
1062	0.0661055
1074	0.208433
1086	0.088695
1098	0.0489902
1110	0.0546722
1122	0.087032
1134	0.140873
1146	0.0636803
1158	0.0478815
1170	0.0546722
1182	0.0602156
1194	0.0682536
1206	0.0866855
1218	0.11662
1230	0.130479
1242	0.0895958
1254	0.0934763
1266	0.117798
1278	0.0970795
1290	0.06077
1302	0.0488516
1314	0.048713
1326	0.0510689
1338	0.0677686
1350	0.127846
1362	0.338912
1374	0.202405
1386	0.0742128
1398	0.0620172
1410	0.0662441
1422	0.0864084
1434	0.0895958
1446	0.165402
1458	0.210027
1470	0.198455
1482	0.34695
1494	0.559887
1506	0.69293
1518	0.361294
1530	0.123965
1542	0.0941692
1554	0.127915
1566	0.304196
1578	0.413056
1590	0.169699
1602	0.0764302
1614	0.0566817
1626	0.060077
1638	0.0523162
1650	0.0449019
1662	0.0575132
1674	0.0534942
1686	0.0725498
1698	0.112601
1710	0.18716
1722	0.349167
1734	0.205454
1746	0.106088
1758	0.0634724
1770	0.0365174
1782	0.0275786
1794	0.0213422
1806	0.0178776
1818	0.0169075
1830	0.0128885
1842	0.0160067
1854	0.0126113
1866	0.0112948
1878	0.0126806
1890	0.0118491
1902	0.012057
1914	0.012057
1926	0.0110176
1938	0.0108097
1950	0.0104632
1962	0.0102554
1974	0.0107404
1986	0.0104632
1998	0.0113641
2010	0.0110176
2022	0.0110869
2034	0.0112948
2046	0.0124727
2058	0.0109483
2070	0.0112948
2082	0.0107404
2094	0.0101861
2106	0.0110176
2118	0.010394
2130	0.0109483
2142	0.0111562
2154	0.0111562
2166	0.0113641
2178	0.0123342
2190	0.0122649
2202	0.0123342
2214	0.0129578
2226	0.0128885
2238	0.0133735
2250	0.0144129
2262	0.0189863
2274	0.029796
2286	0.0253612
2298	0.0179469
2310	0.0144822
2322	0.0124727
2334	0.0114333
2346	0.00734506
2358	0.0144822
2370	0.0115026
2382	0.010879
2394	0.00935456
2406	0.00970102
2418	0.010394
2430	0.0105325
2442	0.0109483
2454	0.0101168
2466	0.0109483
2478	0.0110869
2490	0.010879
2502	0.0114333
2514	0.0113641
2526	0.0113641
2538	0.0110869
2550	0.0112255
2562	0.0116412
2574	0.0114333
2586	0.0121263
2598	0.0130964
2610	0.0123342
2622	0.0128192
2634	0.0128192
2646	0.0135121
2658	0.0143437
2670	0.0146208
2682	0.0151059
2694	0.0142744
2706	0.015383
2718	0.0148287
2730	0.016076
2742	0.014898
2754	0.0151752
2766	0.0127499
2778	0.0152445
2790	0.0127499
2802	0.014898
2814	0.0131657
2826	0.0140665
2838	0.0145515
2850	0.0141358
2862	0.0155909
2874	0.0159374
2886	0.0159374
2898	0.0167689
2910	0.0182241
2922	0.0183626
2934	0.0209265
2946	0.028133
2958	0.0279944
2970	0.0293802
2982	0.0279251
2994	0.0215501
3006	0.017254
3018	0.0182241
3030	0.0181548
3042	0.0162146
3054	0.0163531
3066	0.0157988
3078	0.0162839
3090	0.0182934
3102	0.0223816
3114	0.0322905
3126	0.0223816
3138	0.016076
3150	0.0157295
3162	0.0146901
3174	0.0153138
3186	0.0151752
3198	0.0144129
3210	0.0153138
3222	0.0145515
3234	0.0143437
3246	0.0144822
3258	0.0150366
3270	0.0151752
3282	0.0160067
3294	0.0164224
3306	0.0171154
3318	0.0182934
3330	0.0189863
3342	0.0207186
3354	0.0234903
3366	0.0306968
3378	0.0445554
3390	0.0940306
3402	0.106157
3414	0.0568203
3426	0.0379033
3438	0.0277865
3450	0.0234903
3462	0.0207879
3474	0.0171847
3486	0.0186398
3498	0.0180855
3510	0.0195406
3522	0.0189863
3534	0.0189863
3546	0.0186398
3558	0.0197485
3570	0.0185012
3582	0.0189863
3594	0.0166303
3606	0.0182934
3618	0.0182241
3630	0.0117105
3642	0.0186398
3654	0.0131657
3666	0.0162839
3678	0.0194713
3690	0.0161453
3702	0.0167689
3714	0.014898
3726	0.0232824
3738	0.0209265
3750	0.0078994
3762	0.0193327
3774	0.0209958
3786	0.0198871
3798	0.0150366
3810	0.0174618
3822	0.0135814
3834	0.0151752
3846	0.0135121
3858	0.0204414
3870	0.016561
3882	0.0162146
3894	0.0228667
3906	0.0203721
3918	0.018917
3930	0.0181548
3942	0.0204414
3954	0.0151752
3966	0.0188477
