Infrared Spectrum: 2-Ethoxyethyl methacrylate
Formula: C 8 H 14 O 3
CAS: 2370-63-0
Origin: Sadtler Research Labs Under US-EPA Contract
1/CM	ABSORBANCE
450	0.032066
462	0.0266775
474	0.011042
486	0.0371895
498	0.0238507
510	0.0192572
522	0.0312709
534	0.021024
546	0.0272958
558	0.0229674
570	0.0111303
582	0.0164305
594	0.00909861
606	0.0205823
618	0.0158121
630	0.0178439
642	0.021024
654	0.0292392
666	0.0209356
678	0.0133387
690	0.012102
702	0.00856859
714	0.0103353
726	0.0157238
738	0.011307
750	0.011042
762	0.0109537
774	0.0122787
786	0.0173139
798	0.0312709
810	0.0506165
822	0.0485848
834	0.0371011
846	0.0382495
858	0.0403696
870	0.0356877
882	0.0384262
894	0.032861
906	0.0303876
918	0.0514999
930	0.100615
942	0.12685
954	0.0798557
966	0.0483198
978	0.0345394
990	0.0420479
1002	0.0551217
1014	0.0782657
1026	0.0833008
1038	0.0999964
1050	0.116074
1062	0.0753506
1074	0.0693438
1086	0.0855976
1098	0.130384
1110	0.215717
1122	0.39495
1134	0.707041
1146	0.65881
1158	0.701388
1170	0.880887
1182	0.51067
1194	0.237801
1206	0.117575
1218	0.0684604
1230	0.0564467
1242	0.0643969
1254	0.0728772
1266	0.0774707
1278	0.106887
1290	0.252818
1302	0.319511
1314	0.28135
1326	0.213331
1338	0.0900144
1350	0.0747323
1362	0.0748206
1374	0.0819758
1386	0.119695
1398	0.107858
1410	0.105208
1422	0.0668704
1434	0.0620119
1446	0.0849792
1458	0.122345
1470	0.0903677
1482	0.0502632
1494	0.0308293
1506	0.0194339
1518	0.0149288
1530	0.0124554
1542	0.0117487
1554	0.0121904
1566	0.0128971
1578	0.0153705
1590	0.0157238
1602	0.0193456
1614	0.0263241
1626	0.0379845
1638	0.0638669
1650	0.0499098
1662	0.0221723
1674	0.0201406
1686	0.0265008
1698	0.0345394
1710	0.0568
1722	0.16722
1734	0.507579
1746	0.54309
1758	0.184446
1770	0.0512349
1782	0.0284442
1794	0.0257058
1806	0.0189922
1818	0.0122787
1830	0.00954029
1842	0.00936362
1854	0.0106003
1866	0.0127204
1878	0.0166955
1890	0.0157238
1902	0.0122787
1914	0.0117487
1926	0.0117487
1938	0.0112187
1950	0.0117487
1962	0.0120137
1974	0.0124554
1986	0.0127204
1998	0.012632
2010	0.0111303
2022	0.00909861
2034	0.0078619
2046	0.00830358
2058	0.00583018
2070	0.00468181
2082	0.00777357
2094	0.00936362
2106	0.00874526
2118	0.00856859
2130	0.00830358
2142	0.00839192
2154	0.0078619
2166	0.00750856
2178	0.00750856
2190	0.00724355
2202	0.00680187
2214	0.0066252
2226	0.00680187
2238	0.00680187
2250	0.00644853
2262	0.00653686
2274	0.00600685
2286	0.00556517
2298	0.00459347
2310	0.00379845
2322	0.0044168
2334	0.00494682
2346	0.00238507
2358	0.00335677
2370	0.000176672
2382	0.000706688
2394	0.00335677
2406	0.00432846
2418	0.00406346
2430	0.00388678
2442	0.00309176
2454	0.00326843
2466	0.00371011
2478	0.00300342
2490	0.00238507
2502	0.00282675
2514	0.00150171
2526	0.00176672
2538	0.00247341
2550	0.00167838
2562	0.000971696
2574	0.00044168
2586	0.000795024
2598	0.00265008
2610	0.00300342
2622	0.00468181
2634	0.00574184
2646	0.00512349
2658	0.00477014
2670	0.00583018
2682	0.00326843
2694	0.00424013
2706	0.0075969
2718	0.00962862
2730	0.0112187
2742	0.0134271
2754	0.0152821
2766	0.0157238
2778	0.0174022
2790	0.021554
2802	0.0256174
2814	0.0325076
2826	0.0400162
2838	0.0493798
2850	0.0810924
2862	0.142044
2874	0.193633
2886	0.176672
2898	0.138511
2910	0.114395
2922	0.0999964
2934	0.130914
2946	0.170312
2958	0.167132
2970	0.177997
2982	0.225698
2994	0.185947
3006	0.0877176
3018	0.044963
3030	0.0310943
3042	0.0204056
3054	0.0165188
3066	0.0113953
3078	0.00803858
3090	0.0075969
3102	0.011572
3114	0.0196106
3126	0.00618352
3138	0.00432846
3150	0.00379845
3162	0.00424013
3174	0.00468181
3186	0.00309176
3198	0.00353344
3210	0.00282675
3222	0.00247341
3234	0.00335677
3246	0.00406346
3258	0.0034451
3270	0.00388678
3282	0.00353344
3294	0.00362178
3306	0.00106003
3318	0.00265008
3330	0.00132504
3342	0.000795024
3354	0.00353344
3366	0.00229674
3378	0.00212006
3390	0.00141338
3402	0.00150171
3414	0.000971696
3426	0.0044168
3438	0.00300342
3450	0.0053885
3462	0.00609518
3474	0.00521182
3486	0.00229674
3498	0.0044168
3510	0.00132504
3522	0.00282675
3534	0.00326843
3546	0.00176672
3558	0.00300342
3570	0.00300342
3582	0.00238507
3594	0.00459347
3606	0.00353344
3618	0.00353344
3630	0.00326843
3642	0.00282675
3654	0.00547683
3666	0.000530016
3678	0.00450514
3690	0.00362178
3702	0.00371011
3714	0.00291509
3726	0.00388678
3738	0.00265008
3750	0.00406346
3762	0.00194339
3774	0.00432846
3786	0.00282675
3798	0.00282675
3810	0.00432846
3822	0.00291509
3834	0.00432846
3846	0.00229674
3858	0.00132504
3870	0.00150171
3882	0.00265008
3894	0.0022084
3906	0.00247341
3918	0.00450514
3930	0.00114837
3942	0.00485848
3954	0.00150171
3966	0.00229674
