Infrared Spectrum: N-(n-Propyl)-1,3-propanediamine
Formula: C 6 H 16 N 2
CAS: 23764-31-0
Origin: Sadtler Research Labs Under US-EPA Contract
1/CM	ABSORBANCE
450	0.00647521
462	0.00448777
474	0.00416722
486	0.00500066
498	0.00326966
510	0.00442366
522	0.00878321
534	0.00897554
546	0.0099372
558	0.00500066
570	0.00769332
582	0.00839854
594	0.00903965
606	0.0155149
618	0.0183999
630	0.0287217
642	0.0366074
654	0.0517376
666	0.0643674
678	0.0723813
690	0.090653
702	0.0991797
714	0.115143
726	0.125081
738	0.139698
750	0.167778
762	0.185922
774	0.190346
786	0.179639
798	0.132069
810	0.0908453
822	0.0645598
834	0.053725
846	0.045647
858	0.0418004
870	0.0364792
882	0.0325043
894	0.0305809
906	0.0272472
918	0.0241057
930	0.0232723
942	0.0170535
954	0.0177587
966	0.0208361
978	0.022503
990	0.0231441
1002	0.0220542
1014	0.0248751
1026	0.0288499
1038	0.0371203
1050	0.0473139
1062	0.0637263
1074	0.0780231
1086	0.0844342
1098	0.0801387
1110	0.0816133
1122	0.128735
1134	0.20772
1146	0.157905
1158	0.077959
1170	0.0430185
1182	0.027119
1194	0.0205155
1206	0.0187845
1218	0.0200667
1230	0.0203232
1242	0.0217336
1254	0.0220542
1266	0.0235928
1278	0.0255803
1290	0.0296834
1302	0.0337224
1314	0.0305168
1326	0.0328889
1338	0.0593027
1350	0.0716761
1362	0.0729583
1374	0.0786001
1386	0.0818697
1398	0.0535968
1410	0.0301963
1422	0.0356457
1434	0.0640469
1446	0.101616
1458	0.161944
1470	0.163611
1482	0.0914223
1494	0.036415
1506	0.021926
1518	0.0146814
1530	0.0107706
1542	0.0126299
1554	0.0100654
1566	0.0104501
1578	0.0137839
1590	0.0172459
1602	0.0271831
1614	0.0464164
1626	0.0576358
1638	0.0409028
1650	0.0221183
1662	0.0117323
1674	0.00948843
1686	0.00788565
1698	0.00532121
1710	0.00301322
1722	0.00243622
1734	0.00429544
1746	0.00160277
1758	0.00217977
1770	0.00250033
1782	0.00147455
1794	0.00326966
1806	0.00237211
1818	0.00282088
1830	0.00384666
1842	0.00403899
1854	0.00346199
1866	0.00262855
1878	0.00179511
1890	0.00198744
1902	0.000961665
1914	0.000192333
1926	0.000320555
1938	0
1950	0.000192333
1962	0.000320555
1974	0
1986	0.00064111
1998	0.000833443
2010	0.000897554
2022	0.00102578
2034	0.00134633
2046	0.00185922
2058	0.00160277
2070	0.00160277
2082	0.00185922
2094	0.00192333
2106	0.00185922
2118	0.00243622
2130	0.00243622
2142	0.00243622
2154	0.00243622
2166	0.00243622
2178	0.00237211
2190	0.00294911
2202	0.002885
2214	0.00243622
2226	0.00237211
2238	0.00237211
2250	0.00198744
2262	0.00256444
2274	0.00250033
2286	0.00294911
2298	0.00397488
2310	0.00500066
2322	0.0064111
2334	0.00743688
2346	0.00846265
2358	0.010963
2370	0.00878321
2382	0.00519299
2394	0.00314144
2406	0.00320555
2418	0.00320555
2430	0.00314144
2442	0.00314144
2454	0.00326966
2466	0.00326966
2478	0.00378255
2490	0.00378255
2502	0.00429544
2514	0.00474421
2526	0.0052571
2538	0.00551355
2550	0.00679577
2562	0.00730865
2574	0.00878321
2586	0.0105142
2598	0.0119888
2610	0.0131428
2622	0.0146814
2634	0.0167971
2646	0.0203232
2658	0.0242981
2670	0.0288499
2682	0.0329531
2694	0.0374408
2706	0.0416721
2718	0.0482756
2730	0.0584051
2742	0.0689834
2754	0.0787924
2766	0.0898195
2778	0.107706
2790	0.147776
2802	0.221375
2814	0.289076
2826	0.297283
2838	0.271382
2850	0.270613
2862	0.300616
2874	0.327223
2886	0.349661
2898	0.334788
2910	0.38223
2922	0.511093
2934	0.637007
2946	0.586359
2958	0.452175
2970	0.43775
2982	0.28632
2994	0.11181
3006	0.0528275
3018	0.0354534
3030	0.0270548
3042	0.0204514
3054	0.0153225
3066	0.0123734
3078	0.0114118
3090	0.0104501
3102	0.00955254
3114	0.00807799
3126	0.00743688
3138	0.00692399
3150	0.00673165
3162	0.00673165
3174	0.00628288
3186	0.00570588
3198	0.00551355
3210	0.00474421
3222	0.00391077
3234	0.00320555
3246	0.00320555
3258	0.00282088
3270	0.00243622
3282	0.00243622
3294	0.00275677
3306	0.00326966
3318	0.0058341
3330	0.010963
3342	0.0157713
3354	0.0133351
3366	0.00750099
3378	0.00506477
3390	0.00512888
3402	0.0069881
3414	0.00730865
3426	0.0046801
3438	0.00314144
3450	0.00205155
3462	0.00179511
3474	0.00179511
3486	0.00224388
3498	0.00217977
3510	0.00269266
3522	0.002308
3534	0.00237211
3546	0.002885
3558	0.00243622
3570	0.00416722
3582	0.00224388
3594	0.002885
3606	0.00243622
3618	0.00333377
3630	0.00487244
3642	0.00301322
3654	0.00397488
3666	0.00359022
3678	0.00532121
3690	0.00500066
3702	0.0035261
3714	0.00448777
3726	0.00480832
3738	0.00634699
3750	0.00544943
3762	0.00461599
3774	0.00448777
3786	0.00461599
3798	0.00602643
3810	0.00576999
3822	0.00666754
3834	0.00621877
3846	0.00660343
3858	0.00737276
3870	0.00724454
3882	0.00718043
3894	0.00602643
3906	0.00743688
3918	0.00730865
3930	0.00788565
3942	0.00827032
3954	0.00198744
3966	0.00250033
