Infrared Spectrum: 3-Decyne
Formula: C 10 H 18
CAS: 2384-85-2
Origin: Sadtler Research Labs Under US-EPA Contract
1/CM	ABSORBANCE
450	0.0389765
462	0.0152917
474	0.00528885
486	0.0188559
498	0.0117275
510	0.00804825
522	0.00839318
534	0.0126473
546	0.0146018
558	0.0151767
570	0.0132221
582	0.0104627
594	0.0129922
606	0.0128772
618	0.0116125
630	0.00896805
642	0.0087381
654	0.00816322
666	0.00494393
678	0.0101178
690	0.013797
702	0.0096579
714	0.0187409
726	0.0242597
738	0.02311
750	0.0171313
762	0.0126473
774	0.00977288
786	0.0121873
798	0.0126473
810	0.00988785
822	0.0100028
834	0.00747337
846	0.00896805
858	0.00931297
870	0.0109226
882	0.00931297
894	0.0111526
906	0.00896805
918	0.00896805
930	0.0114975
942	0.0101178
954	0.0068985
966	0.009198
978	0.0082782
990	0.0105777
1002	0.0128772
1014	0.0149467
1026	0.0112675
1038	0.0100028
1050	0.0109226
1062	0.0117275
1074	0.0127622
1086	0.00908302
1098	0.0110376
1110	0.0131071
1122	0.0104627
1134	0.00862313
1146	0.0109226
1158	0.0128772
1170	0.0147168
1182	0.013797
1194	0.0123023
1206	0.0140269
1218	0.0135671
1230	0.0156366
1242	0.0163264
1254	0.0187409
1266	0.0201206
1278	0.0212704
1290	0.0267892
1302	0.0290887
1314	0.0334577
1326	0.0454151
1338	0.0622015
1350	0.0542682
1362	0.0479446
1374	0.0490943
1386	0.0559928
1398	0.0285138
1410	0.0254095
1422	0.0373669
1434	0.0512789
1446	0.0845066
1458	0.0984186
1470	0.0950843
1482	0.0510489
1494	0.0283988
1506	0.0205805
1518	0.0190859
1530	0.0170163
1542	0.0155216
1554	0.0117275
1566	0.00804825
1578	0.0096579
1590	0.00701347
1602	0.0082782
1614	0.0073584
1626	0.00517388
1638	0.00804825
1650	0.0112675
1662	0.00252945
1674	0.0103478
1686	0.0193158
1698	0.0219602
1710	0.0123023
1722	0.00839318
1734	0.0050589
1746	0.0064386
1758	0.00747337
1770	0.00517388
1782	0.00666855
1794	0.0050589
1806	0.00448402
1818	0.00517388
1830	0.00471398
1842	0.00068985
1854	0.00252945
1866	0.00379417
1878	0.00149467
1890	0.00114975
1902	0.00149467
1914	0.00195458
1926	0.00310433
1938	0.00195458
1950	0.00160965
1962	0.0004599
1974	0.00206955
1986	0.00195458
1998	0.00195458
2010	0.00218453
2022	0.00195458
2034	0.00206955
2046	0.00436905
2058	0.00494393
2070	0.0032193
2082	0.00149467
2094	0.0013797
2106	0.0022995
2118	0.00195458
2130	0.00252945
2142	0.00206955
2154	0.0018396
2166	0.00241448
2178	0.00298935
2190	0.00494393
2202	0.00574875
2214	0.00747337
2226	0.0082782
2238	0.00563377
2250	0.00379417
2262	0.00333428
2274	0.00333428
2286	0.0032193
2298	0.0041391
2310	0.00425408
2322	0.0032193
2334	0.00126472
2346	0.00436905
2358	0.0009198
2370	0.00402412
2382	0.00471398
2394	0.0027594
2406	0.00264443
2418	0.0032193
2430	0.0032193
2442	0.00379417
2454	0.0036792
2466	0.00402412
2478	0.00379417
2490	0.00379417
2502	0.00436905
2514	0.00436905
2526	0.00471398
2538	0.00482895
2550	0.00482895
2562	0.00528885
2574	0.00632363
2586	0.00701347
2598	0.00701347
2610	0.00678353
2622	0.00747337
2634	0.00885308
2646	0.0106927
2658	0.0113825
2670	0.0118424
2682	0.0127622
2694	0.0125323
2706	0.0123023
2718	0.0126473
2730	0.013912
2742	0.0193158
2754	0.0215003
2766	0.0170163
2778	0.0174762
2790	0.0208105
2802	0.0252945
2814	0.031963
2826	0.0432306
2838	0.0684101
2850	0.160965
2862	0.36769
2874	0.41207
2886	0.301809
2898	0.237078
2910	0.347684
2922	0.637881
2934	1.11434
2946	0.931757
2958	0.491518
2970	0.479101
2982	0.220177
2994	0.096694
3006	0.0739289
3018	0.0486344
3030	0.0419659
3042	0.0333427
3054	0.0263293
3066	0.0239148
3078	0.018166
3090	0.0173612
3102	0.0142569
3114	0.0128772
3126	0.0110376
3138	0.0106927
3150	0.0103478
3162	0.0103478
3174	0.0104627
3186	0.00988785
3198	0.0087381
3210	0.00816322
3222	0.00793328
3234	0.0078183
3246	0.0082782
3258	0.00747337
3270	0.00655357
3282	0.0073584
3294	0.00839318
3306	0.009198
3318	0.00804825
3330	0.00816322
3342	0.00839318
3354	0.009198
3366	0.0096579
3378	0.00862313
3390	0.00862313
3402	0.0078183
3414	0.0078183
3426	0.00862313
3438	0.00954293
3450	0.00988785
3462	0.00942795
3474	0.00850815
3486	0.00885308
3498	0.00816322
3510	0.00942795
3522	0.00816322
3534	0.00747337
3546	0.0078183
3558	0.00804825
3570	0.0106927
3582	0.00724343
3594	0.00977288
3606	0.00655357
3618	0.00666855
3630	0.0119574
3642	0.00724343
3654	0.0169013
3666	0.00344925
3678	0.00954293
3690	0.0143719
3702	0.00793328
3714	0.0105777
3726	0.00724343
3738	0.0078183
3750	0.0179361
3762	0.00747337
3774	0.00988785
3786	0.0108077
3798	0.0141419
3810	0.00126472
3822	0.0159815
3834	0.0105777
3846	0.0113825
3858	0.0169013
3870	0.00977288
3882	0.0096579
3894	0.00977288
3906	0.0155216
3918	0.0132221
3930	0.00804825
3942	0.0082782
3954	0.00988785
3966	0.00908302
