Infrared Spectrum: 2,4-Hexadienoic acid, ethyl ester
Formula: C 8 H 12 O 2
CAS: 2396-84-1
Origin: Sadtler Research Labs Under US-EPA Contract
1/CM	ABSORBANCE
450	0.0307039
462	0.0287849
474	0.0147123
486	0.00716425
498	0.000511732
510	0.00575699
522	0.00447765
534	0.00729218
546	0.0142006
558	0.0149682
570	0.0185503
582	0.019062
594	0.00742011
606	0.00588492
618	0.00626872
630	0.00319833
642	0.00434972
654	0.00307039
666	0.0015352
678	0.00639665
690	0.0185503
702	0.0225162
714	0.0229
726	0.0197017
738	0.011386
750	0.0108743
762	0.00908324
774	0.0118978
786	0.0239235
798	0.0387637
810	0.0340302
822	0.0222603
834	0.0182944
846	0.0225162
858	0.0456721
870	0.0651179
882	0.0481028
894	0.0317274
906	0.0378682
918	0.0665252
930	0.0942866
942	0.0662693
954	0.0647341
966	0.0672928
978	0.116803
990	0.238979
1002	0.240514
1014	0.120513
1026	0.108743
1038	0.243456
1050	0.269299
1062	0.153008
1074	0.11143
1086	0.160044
1098	0.159021
1110	0.131771
1122	0.171686
1134	0.860094
1146	0.669345
1158	0.215567
1170	0.326357
1182	0.668066
1194	0.351688
1206	0.169127
1218	0.248958
1230	0.293606
1242	1.09651
1254	1.03907
1266	0.776042
1278	0.222348
1290	0.159788
1302	0.248062
1314	0.309598
1326	0.715529
1338	0.180386
1350	0.0593609
1362	0.0880179
1374	0.192283
1386	0.0873782
1398	0.0803419
1410	0.0546274
1422	0.0466955
1434	0.0536039
1446	0.0738173
1458	0.0823889
1470	0.0875062
1482	0.0564185
1494	0.0318553
1506	0.0199575
1518	0.0140726
1530	0.0120257
1542	0.0101067
1554	0.0103626
1566	0.0131771
1578	0.0195737
1590	0.0322391
1602	0.0546274
1614	0.134074
1626	0.235653
1638	0.150193
1650	0.400686
1662	0.209938
1674	0.0584654
1686	0.0486145
1698	0.0655017
1710	0.129596
1722	0.394162
1734	1.11622
1746	0.867897
1758	0.247294
1770	0.0594888
1782	0.0296805
1794	0.0243073
1806	0.0185503
1818	0.0140726
1830	0.0143285
1842	0.0142006
1854	0.0124095
1866	0.011514
1878	0.00857151
1890	0.00946704
1902	0.0121536
1914	0.00908324
1926	0.00716425
1938	0.00703631
1950	0.00652458
1962	0.00652458
1974	0.00614078
1986	0.00716425
1998	0.00703631
2010	0.00716425
2022	0.00550112
2034	0.00562905
2046	0.00601285
2058	0.00639665
2070	0.00524525
2082	0.00473352
2094	0.00588492
2106	0.00716425
2118	0.00665252
2130	0.00460559
2142	0.00358212
2154	0.00332626
2166	0.00307039
2178	0.00281453
2190	0.00281453
2202	0.00332626
2214	0.00332626
2226	0.00332626
2238	0.00204693
2250	0.00191899
2262	0.00217486
2274	0.00243073
2286	0.00307039
2298	0.00383799
2310	0.00358212
2322	0.00422179
2334	0.00371006
2346	0.00460559
2358	0.00358212
2370	0.00447765
2382	0.00447765
2394	0.00281453
2406	0.00204693
2418	0.00191899
2430	0.00294246
2442	0.00204693
2454	0.00243073
2466	0.00358212
2478	0.00281453
2490	0.00243073
2502	0.00191899
2514	0.0015352
2526	0.00179106
2538	0.00217486
2550	0.00243073
2562	0.00204693
2574	0.00217486
2586	0.00217486
2598	0.0015352
2610	0.0015352
2622	0.00179106
2634	0.00127933
2646	0.000383799
2658	0.00102346
2670	0.00140726
2682	0.00127933
2694	0.00204693
2706	0.00204693
2718	0.00255866
2730	0.00422179
2742	0.00869944
2754	0.00933911
2766	0.00626872
2778	0.00767598
2790	0.00780391
2802	0.00703631
2814	0.00895531
2826	0.0125374
2838	0.015224
2850	0.0217486
2862	0.0505335
2874	0.0759922
2886	0.0841799
2898	0.0854592
2910	0.0885296
2922	0.130236
2934	0.181665
2946	0.176548
2958	0.150705
2970	0.169127
2982	0.259704
2994	0.237316
3006	0.145588
3018	0.119617
3030	0.128317
3042	0.0829006
3054	0.0529643
3066	0.0442648
3078	0.0241793
3090	0.0149682
3102	0.0129212
3114	0.011514
3126	0.00921118
3138	0.00678045
3150	0.00562905
3162	0.00511732
3174	0.00498939
3186	0.00383799
3198	0.00396592
3210	0.00281453
3222	0.00230279
3234	0.00191899
3246	0.0015352
3258	0.00204693
3270	0.00166313
3282	0.000383799
3294	0
3306	0.000639665
3318	0.00102346
3330	0.00179106
3342	0.00217486
3354	0.00294246
3366	0.00307039
3378	0.00332626
3390	0.00422179
3402	0.00243073
3414	0.00102346
3426	0.00243073
3438	0.00383799
3450	0.00780391
3462	0.00882738
3474	0.00460559
3486	0.00166313
3498	0.000639665
3510	0.000639665
3522	0.0011514
3534	0.000895531
3546	0.0011514
3558	0.0015352
3570	0.000511732
3582	0.00396592
3594	0.00434972
3606	0.00140726
3618	0.0011514
3630	0.00127933
3642	0.00102346
3654	0.00179106
3666	0.00166313
3678	0.000895531
3690	0.000255866
3702	0.000255866
3714	0.0011514
3726	0.0011514
3738	0.00166313
3750	0.00179106
3762	0.00294246
3774	0.00166313
3786	0.00217486
3798	0.00166313
3810	0.00127933
3822	0.00179106
3834	0.00307039
3846	0.00243073
3858	0.0015352
3870	0.000511732
3882	0.00191899
3894	0.00204693
3906	0.00191899
3918	0.00166313
3930	0.0011514
3942	0.000255866
3954	0.00179106
3966	0.000895531
