Infrared Spectrum: Benzene, (1-ethyldecyl)-
Formula: C 18 H 30
CAS: 2400-00-2
Origin: Sadtler Research Labs Under US-EPA Contract
1/CM	ABSORBANCE
450	0
462	0.0031615
474	0.00774568
486	0.0082199
498	0.0116976
510	0.0116976
522	0.0170721
534	0.0259243
546	0.0327215
558	0.0319311
570	0.0218143
582	0.0107491
594	0.0113814
606	0.00727145
618	0.00742953
630	0.00711337
642	0.00837798
654	0.0131202
666	0.021024
678	0.0265566
690	0.079986
702	0.331483
714	0.0776148
726	0.0621235
738	0.0667077
750	0.116976
762	0.10433
774	0.0373057
786	0.0240274
798	0.0184948
810	0.0142267
822	0.0145429
834	0.0142267
846	0.0134364
858	0.0128041
870	0.0131202
882	0.0154914
894	0.0213401
906	0.0196013
918	0.0123298
930	0.0112233
942	0.00995872
954	0.0109072
966	0.0129622
978	0.0121718
990	0.0107491
1002	0.0120137
1014	0.0154914
1026	0.0361992
1038	0.0238693
1050	0.0165979
1062	0.0222886
1074	0.0254501
1086	0.021024
1098	0.0175463
1110	0.0151752
1122	0.0128041
1134	0.0113814
1146	0.0088522
1158	0.00916835
1170	0.00916835
1182	0.010591
1194	0.00980065
1206	0.00980065
1218	0.0109072
1230	0.012646
1242	0.0143848
1254	0.0153333
1266	0.0170721
1278	0.0199174
1290	0.0254501
1302	0.0331958
1314	0.0350927
1326	0.0363573
1338	0.0404672
1350	0.0521648
1362	0.0559586
1374	0.0539036
1386	0.0643365
1398	0.0294019
1410	0.0211821
1422	0.0233951
1434	0.0361992
1446	0.0967419
1458	0.168666
1470	0.137051
1482	0.0684465
1494	0.0986388
1506	0.0360411
1518	0.0178625
1530	0.0148591
1542	0.0145429
1554	0.00995872
1566	0.00980065
1578	0.0156494
1590	0.0314569
1602	0.0497936
1614	0.0218143
1626	0.0088522
1638	0.0075876
1650	0.00806182
1662	0.00853605
1674	0.0069553
1686	0.00727145
1698	0.00711337
1710	0.00711337
1722	0.00616492
1734	0.00806182
1746	0.00806182
1758	0.00537455
1770	0.00521647
1782	0.0069553
1794	0.0150171
1806	0.00932643
1818	0.00553263
1830	0.00395188
1842	0.00410995
1854	0.0069553
1866	0.00964258
1878	0.00901027
1890	0.00600685
1902	0.0037938
1914	0.0037938
1926	0.00663915
1938	0.014701
1950	0.010591
1962	0.00553263
1974	0.00237112
1986	0.00221305
1998	0.0018969
2010	0.00221305
2022	0.0025292
2034	0.00300343
2046	0.00300343
2058	0.00284535
2070	0.00205498
2082	0.00205498
2094	0.00205498
2106	0.0018969
2118	0.0018969
2130	0.0018969
2142	0.00173883
2154	0.00221305
2166	0.00205498
2178	0.00221305
2190	0.00221305
2202	0.00221305
2214	0.0018969
2226	0.00173883
2238	0.00237112
2250	0.00221305
2262	0.0018969
2274	0.00205498
2286	0.00173883
2298	0.0018969
2310	0.00205498
2322	0.00110653
2334	0.00110653
2346	0.0025292
2358	0.0012646
2370	0.00331957
2382	0.00410995
2394	0.00395188
2406	0.00395188
2418	0.00331957
2430	0.00268728
2442	0.00268728
2454	0.00268728
2466	0.00300343
2478	0.00331957
2490	0.0031615
2502	0.00363573
2514	0.00395188
2526	0.00490033
2538	0.00537455
2550	0.00600685
2562	0.00648108
2574	0.00711337
2586	0.00774568
2598	0.0082199
2610	0.00916835
2622	0.0101168
2634	0.0112233
2646	0.0115395
2658	0.0128041
2670	0.0150171
2682	0.0161236
2694	0.0159656
2706	0.0150171
2718	0.0151752
2730	0.016756
2742	0.0199174
2754	0.0199174
2766	0.0207078
2778	0.0243436
2790	0.0306666
2802	0.0396768
2814	0.0501098
2826	0.0662334
2838	0.0973742
2850	0.212137
2862	0.584403
2874	0.503469
2886	0.456995
2898	0.361834
2910	0.524967
2922	0.970897
2934	1.58075
2946	1.00061
2958	0.557056
2970	0.722403
2982	0.318995
2994	0.125828
3006	0.0915254
3018	0.0943708
3030	0.186054
3042	0.128673
3054	0.080144
3066	0.1429
3078	0.137999
3090	0.0950031
3102	0.0499517
3114	0.0341442
3126	0.0184948
3138	0.0137525
3150	0.0121718
3162	0.0115395
3174	0.0094845
3186	0.00806182
3198	0.00663915
3210	0.00616492
3222	0.00458418
3234	0.0037938
3246	0.00300343
3258	0.00347765
3270	0.0031615
3282	0.00237112
3294	0.0031615
3306	0.00300343
3318	0.00237112
3330	0.00331957
3342	0.0031615
3354	0.0025292
3366	0.0031615
3378	0.0037938
3390	0.00331957
3402	0.00363573
3414	0.00331957
3426	0.00347765
3438	0.00347765
3450	0.00331957
3462	0.00284535
3474	0.00300343
3486	0.0025292
3498	0.00237112
3510	0.0025292
3522	0.00221305
3534	0.0025292
3546	0.00205498
3558	0.00221305
3570	0.0018969
3582	0.00284535
3594	0.00284535
3606	0.00410995
3618	0.0037938
3630	0.00490033
3642	0.00474225
3654	0.0056907
3666	0.00490033
3678	0.00490033
3690	0.006323
3702	0.0050584
3714	0.00474225
3726	0.00458418
3738	0.00426802
3750	0.00600685
3762	0.00600685
3774	0.00458418
3786	0.00474225
3798	0.00474225
3810	0.00537455
3822	0.00616492
3834	0.00458418
3846	0.00395188
3858	0.00474225
3870	0.00521647
3882	0.00363573
3894	0.00537455
3906	0.00410995
3918	0.0037938
3930	0.00474225
3942	0.0037938
3954	0.00410995
3966	0.0056907
