Infrared Spectrum: Acetamide, N-(1-heptyl-3-piperidyl)-,
Formula: C 14 H 28 N 2 O
CAS: 24026-79-7
Origin: Sadtler Research Labs Under US-EPA Contract
1/CM	ABSORBANCE
450	0.0176994
462	0.00279005
474	0.00610323
486	0.0107242
498	0.00924203
510	0.00828295
522	0.0113346
534	0.00514415
546	0.00837014
558	0.0102883
570	0.00462102
582	0.00688793
594	0.00217972
606	0.00409788
618	0.00627761
630	0.00366194
642	0.00287724
654	0.00174378
666	0.0071495
678	0.00514415
690	0.00340037
702	0.00113346
714	0.00749825
726	0.0123808
738	0.00819577
750	0.0132527
762	0.0102011
774	0.00967798
786	0.0102011
798	0.00575447
810	0.00514415
822	0.00453383
834	0.00732388
846	0.0176994
858	0.0195303
870	0.0287724
882	0.0275517
894	0.0176994
906	0.0181353
918	0.0115961
930	0.0116833
942	0.0126424
954	0.0202278
966	0.0374041
978	0.0363578
990	0.0331318
1002	0.0391479
1014	0.052139
1026	0.0448151
1038	0.0426354
1050	0.0374913
1062	0.0366194
1074	0.0462974
1086	0.0560625
1098	0.0935538
1110	0.114566
1122	0.0952976
1134	0.0887584
1146	0.0638223
1158	0.117967
1170	0.124767
1182	0.0767263
1194	0.0600732
1206	0.042461
1218	0.077947
1230	0.12067
1242	0.127558
1254	0.127645
1266	0.177168
1278	0.103842
1290	0.0929435
1302	0.11413
1314	0.125116
1326	0.103493
1338	0.100616
1350	0.128953
1362	0.17865
1374	0.203586
1386	0.122936
1398	0.0901534
1410	0.079342
1422	0.0959079
1434	0.143339
1446	0.228784
1458	0.266014
1470	0.347274
1482	0.51023
1494	0.633864
1506	0.324343
1518	0.157463
1530	0.0993083
1542	0.0726284
1554	0.0476052
1566	0.0381016
1578	0.0362706
1590	0.0353115
1602	0.0358347
1614	0.0403685
1626	0.0496105
1638	0.0580679
1650	0.0844861
1662	0.102883
1674	0.124855
1686	0.158248
1698	0.294001
1710	0.87189
1722	0.275517
1734	0.122849
1746	0.0679202
1758	0.03784
1770	0.0272902
1782	0.0170019
1794	0.0145606
1806	0.00976517
1818	0.00645199
1830	0.00775982
1842	0.00592885
1854	0.00331318
1866	0.00566728
1878	0.00435945
1890	0.0063648
1902	0.00531853
1914	0.00592885
1926	0.00523134
1938	0.00496977
1950	0.00418507
1962	0.00418507
1974	0.0047954
1986	0.00435945
1998	0.0047954
2010	0.00453383
2022	0.00531853
2034	0.00435945
2046	0.00470821
2058	0.00409788
2070	0.00462102
2082	0.00453383
2094	0.00496977
2106	0.00514415
2118	0.00523134
2130	0.00540572
2142	0.00531853
2154	0.00549291
2166	0.00575447
2178	0.00584166
2190	0.00601604
2202	0.0063648
2214	0.00627761
2226	0.00627761
2238	0.00610323
2250	0.00540572
2262	0.00523134
2274	0.00549291
2286	0.00584166
2298	0.00505696
2310	0.00296443
2322	0.000261567
2334	0.000261567
2346	0.000261567
2358	0.000261567
2370	0.000261567
2382	0.00462102
2394	0.00688793
2406	0.0063648
2418	0.00627761
2430	0.00592885
2442	0.00549291
2454	0.0055801
2466	0.00531853
2478	0.00523134
2490	0.00566728
2502	0.00584166
2514	0.00619042
2526	0.00662636
2538	0.00723669
2550	0.00784701
2562	0.00880609
2574	0.00976517
2586	0.0115961
2598	0.0138631
2610	0.0166531
2622	0.019356
2634	0.0217972
2646	0.0257208
2658	0.0315624
2670	0.03784
2682	0.0438561
2694	0.0497849
2706	0.0551906
2718	0.0647814
2730	0.0773366
2742	0.0916356
2754	0.118141
2766	0.15415
2778	0.161387
2790	0.186759
2802	0.226081
2814	0.202889
2826	0.134969
2838	0.117444
2850	0.165921
2862	0.305074
2874	0.279877
2886	0.228435
2898	0.2314
2910	0.311701
2922	0.487735
2934	0.795512
2946	0.830039
2958	0.508748
2970	0.357388
2982	0.136712
2994	0.0667868
3006	0.0428098
3018	0.0319112
3030	0.0275517
3042	0.0244129
3054	0.0216229
3066	0.0182225
3078	0.0152581
3090	0.0122936
3102	0.0102011
3114	0.00880609
3126	0.00784701
3138	0.00723669
3150	0.00741106
3162	0.00758544
3174	0.00767263
3186	0.00784701
3198	0.00810858
3210	0.0079342
3222	0.00810858
3234	0.00775982
3246	0.00880609
3258	0.00915484
3270	0.00993955
3282	0.0104627
3294	0.0119449
3306	0.0115961
3318	0.012468
3330	0.0125552
3342	0.0116833
3354	0.0108986
3366	0.0107242
3378	0.0106371
3390	0.0140374
3402	0.0179609
3414	0.0173506
3426	0.0247617
3438	0.0616426
3450	0.0687049
3462	0.0224076
3474	0.0102883
3486	0.00514415
3498	0.00244129
3510	0.00209254
3522	0.00226691
3534	0.00139502
3546	0.00331318
3558	0.00191816
3570	0.00470821
3582	0.00279005
3594	0.00435945
3606	0.00148221
3618	0.00401069
3630	0.00514415
3642	0.00296443
3654	0.0039235
3666	0
3678	0.00592885
3690	0.00261567
3702	0.00244129
3714	0.0023541
3726	0.00331318
3738	0.00427226
3750	0.000435945
3762	0.00174378
3774	0.000174378
3786	0.00148221
3798	0.00374913
3810	8.7189e-05
3822	0.00200535
3834	0.00130783
3846	0.00113346
3858	0.00209254
3870	0.00296443
3882	0.00374913
3894	0.00453383
3906	0.00226691
3918	0.00322599
3930	0.00331318
3942	0.00122065
3954	0.00279005
3966	0.000523134
