Infrared Spectrum: Pyridine, 2,6-dichloro-
Formula: C 5 H 3 Cl 2 N
CAS: 2402-78-0
Origin: Sadtler Research Labs Under US-EPA Contract
1/CM	ABSORBANCE
450	0.0390124
462	0.0210067
474	0.00312099
486	0.00468148
498	0.00576182
510	0.00324103
522	0.00432137
534	0.00324103
546	0.00372118
558	0.0034811
570	0.00360114
582	0.00216068
594	0.00480152
606	0.00396125
618	0.00540171
630	0.00528167
642	0.0114036
654	0.0609793
666	0.0597789
678	0.0146446
690	0.009483
702	0.0138044
714	0.0297694
726	0.0330105
738	0.0204065
750	0.0182458
762	0.044294
774	0.168533
786	0.589147
798	0.78853
810	0.25352
822	0.0218469
834	0.00672213
846	0.00732232
858	0.0296494
870	0.0322902
882	0.00984312
894	0.00648205
906	0.00264084
918	0.00228072
930	0.00264084
942	0.00384122
954	0.0060019
966	0.0139244
978	0.0366116
990	0.0362515
1002	0.00912289
1014	0.00564179
1026	0.00900285
1038	0.00888281
1050	0.009483
1062	0.0170454
1074	0.0213668
1086	0.0162051
1098	0.00768243
1110	0.0242477
1122	0.0872676
1134	0.388323
1146	0.534289
1158	0.751198
1170	0.425535
1182	0.0375719
1194	0.0325303
1206	0.0354112
1218	0.0246078
1230	0.0151248
1242	0.0104433
1254	0.0103233
1266	0.00708224
1278	0.00324103
1290	0.00324103
1302	0.00888281
1314	0.0343309
1326	0.034691
1338	0.00636201
1350	0.0117637
1362	0.0391324
1374	0.0520965
1386	0.0478952
1398	0.123639
1410	0.960304
1422	1.0705
1434	0.075864
1446	0.06314
1458	0.0364916
1470	0.00876277
1482	0.0085227
1494	0.012604
1506	0.0201664
1518	0.0337307
1530	0.0559377
1542	0.143806
1554	0.619876
1566	1.07134
1578	0.331905
1590	0.0428536
1602	0.0208866
1614	0.0243677
1626	0.0195662
1638	0.00816258
1650	0.0060019
1662	0.00744236
1674	0.00672213
1686	0.00144046
1698	0.00060019
1710	0.00144046
1722	0.00156049
1734	0.00180057
1746	0.00396125
1758	0.00972308
1770	0.0132042
1782	0.00996315
1794	0.00936296
1806	0.00996315
1818	0.00864274
1830	0.0050416
1842	0.00324103
1854	0.00684217
1866	0.00792251
1878	0.00276087
1890	0.000720228
1902	0.00132042
1914	0.00192061
1926	0.00372118
1938	0.00828262
1950	0.0110435
1962	0.00888281
1974	0.00384122
1986	0.00192061
1998	0.00120038
2010	0.00132042
2022	0.00144046
2034	0.00168053
2046	0.00144046
2058	0.00144046
2070	0.00312099
2082	0.00300095
2094	0.000720228
2106	0.00120038
2118	0.00168053
2130	0.00288091
2142	0.00372118
2154	0.00240076
2166	0.000960304
2178	0.000960304
2190	0.00120038
2202	0.00372118
2214	0.00876277
2226	0.00792251
2238	0.00264084
2250	0.00060019
2262	0.00132042
2274	0.0025208
2286	0.00384122
2298	0.00528167
2310	0.00804255
2322	0.0060019
2334	0.00132042
2346	0.00384122
2358	0.00480152
2370	0.00276087
2382	0.00552175
2394	0.00540171
2406	0.00408129
2418	0.000840266
2430	0.000720228
2442	0.000120038
2454	0.000360114
2466	0.000240076
2478	0.000240076
2490	0.000120038
2502	0.00120038
2514	0.00192061
2526	0.00576182
2538	0.00864274
2550	0.00552175
2562	0.00288091
2574	0.00192061
2586	0.00144046
2598	0.00132042
2610	0.00468148
2622	0.00816258
2634	0.00840266
2646	0.00372118
2658	0.00168053
2670	0.00108034
2682	0.00120038
2694	0.00312099
2706	0.00384122
2718	0.00228072
2730	0.00120038
2742	0.00108034
2754	0.00144046
2766	0.00168053
2778	0.0025208
2790	0.00492156
2802	0.00492156
2814	0.000720228
2826	0.000240076
2838	0
2850	0.000720228
2862	0.00132042
2874	0.00120038
2886	0.000840266
2898	0.000480152
2910	0.00132042
2922	0.00132042
2934	0.00228072
2946	0.0025208
2958	0.0025208
2970	0.00300095
2982	0.00240076
2994	0.00144046
3006	0.00132042
3018	0.00144046
3030	0.00108034
3042	0.00408129
3054	0.0140444
3066	0.0174055
3078	0.00984312
3090	0.00816258
3102	0.00612194
3114	0.00372118
3126	0.00480152
3138	0.00456144
3150	0.00204065
3162	0.00180057
3174	0.000840266
3186	0.000840266
3198	0.00108034
3210	0.000840266
3222	0.000840266
3234	0.000840266
3246	0.000720228
3258	0.000480152
3270	0.000720228
3282	0.00132042
3294	0.00108034
3306	0.000840266
3318	0.000480152
3330	0.000960304
3342	0.000960304
3354	0.000840266
3366	0.00120038
3378	0.00060019
3390	0.00120038
3402	0.00060019
3414	0.00060019
3426	0.000480152
3438	0.00120038
3450	0.000960304
3462	0.00120038
3474	0.000720228
3486	0.000240076
3498	0.00060019
3510	0.000360114
3522	0.00144046
3534	0.000840266
3546	0.00180057
3558	0.00060019
3570	0.00240076
3582	0.00264084
3594	0.00216068
3606	0.00144046
3618	0.000960304
3630	0.00276087
3642	0.000840266
3654	0.00108034
3666	0.000360114
3678	0.00144046
3690	0.00144046
3702	0.00108034
3714	0.0025208
3726	0.00276087
3738	0.00132042
3750	0.000960304
3762	0.000840266
3774	0.000360114
3786	0.00156049
3798	0.00204065
3810	0.000240076
3822	0.000960304
3834	0.00120038
3846	0.000360114
3858	0.00192061
3870	0.00276087
3882	0.00360114
3894	0.00240076
3906	0.00156049
3918	0.00192061
3930	0.00276087
3942	0.00168053
3954	0.00276087
3966	0.000720228
