Infrared Spectrum: Propanoic acid, 2-propenyl ester
Formula: C 6 H 10 O 2
CAS: 2408-20-0
Origin: Sadtler Research Labs Under US-EPA Contract
1/CM	ABSORBANCE
450	0.0863693
462	0.0282707
474	0.0208436
486	0.0186874
498	0.00239582
510	0.0500726
522	0.0194061
534	0.0347394
546	0.0419269
558	0.0433643
570	0.0291092
582	0.0493539
594	0.0540257
606	0.0511508
618	0.0486351
630	0.0440831
642	0.0384529
654	0.0344998
666	0.0305467
678	0.0279113
690	0.0233592
702	0.0226405
714	0.021203
726	0.0194061
738	0.0208436
750	0.0196457
762	0.0207238
774	0.0219218
786	0.0264738
798	0.0339009
810	0.0388123
822	0.0480362
834	0.055583
846	0.0521091
858	0.0461195
870	0.045281
882	0.0437237
894	0.0444425
906	0.0733121
918	0.146504
930	0.222452
942	0.162556
954	0.101942
966	0.129135
978	0.159322
990	0.195978
1002	0.22904
1014	0.275759
1026	0.271207
1038	0.178249
1050	0.174416
1062	0.250363
1074	0.30379
1086	0.297321
1098	0.237066
1110	0.19478
1122	0.195858
1134	0.206879
1146	0.25779
1158	0.426815
1170	0.875552
1182	1.19791
1194	0.900589
1206	0.644595
1218	0.459518
1230	0.317446
1242	0.250243
1254	0.215264
1266	0.219098
1278	0.243296
1290	0.181483
1302	0.107213
1314	0.0906818
1326	0.150577
1338	0.22353
1350	0.210593
1362	0.185436
1374	0.19502
1386	0.139197
1398	0.0898432
1410	0.0778642
1422	0.0946349
1434	0.112484
1446	0.126619
1458	0.142431
1470	0.145905
1482	0.088286
1494	0.0440831
1506	0.0319842
1518	0.0262342
1530	0.021802
1542	0.0191666
1554	0.018328
1566	0.0173697
1578	0.0176093
1590	0.0176093
1602	0.0184478
1614	0.0196457
1626	0.0224009
1638	0.0336613
1650	0.0482758
1662	0.0407289
1674	0.0288696
1686	0.0300675
1698	0.04013
1710	0.0628903
1722	0.104098
1734	0.237665
1746	0.612491
1758	1.04745
1770	0.944312
1782	0.391237
1794	0.180166
1806	0.0862495
1818	0.0501924
1830	0.0334217
1842	0.0291092
1854	0.0306665
1866	0.0305467
1878	0.0250363
1890	0.0206041
1902	0.0170103
1914	0.015453
1926	0.0148541
1938	0.0138958
1950	0.0138958
1962	0.0146145
1974	0.0152135
1986	0.0162916
1998	0.0166509
2010	0.0171301
2022	0.0170103
2034	0.0152135
2046	0.0149739
2058	0.0136562
2070	0.0122187
2082	0.0126978
2094	0.0116197
2106	0.0111406
2118	0.00994265
2130	0.00958328
2142	0.010302
2154	0.0107812
2166	0.0093437
2178	0.0116197
2190	0.0126978
2202	0.0105416
2214	0.010302
2226	0.00886453
2238	0.00862495
2250	0.00886453
2262	0.00826558
2274	0.00838537
2286	0.0093437
2298	0.0107812
2310	0.0132968
2322	0.0143749
2334	0.0120989
2346	0.010302
2358	0.0164114
2370	0.0026354
2382	0.0053906
2394	0.00706767
2406	0.00730725
2418	0.00634892
2430	0.00586976
2442	0.00551039
2454	0.00503122
2466	0.00503122
2478	0.0039531
2490	0.0026354
2502	0.00143749
2514	0.00107812
2526	0.00167707
2538	0.00299478
2550	0.00155728
2562	0.00419268
2574	0.00479164
2586	0.00323436
2598	0.00251561
2610	0.00287498
2622	0.00251561
2634	0.00251561
2646	0.00239582
2658	0.00167707
2670	0.00203645
2682	0.00155728
2694	0.0026354
2706	0.00359373
2718	0.00443227
2730	0.00503122
2742	0.00622913
2754	0.00778642
2766	0.00886453
2778	0.00874474
2790	0.00886453
2802	0.0100624
2814	0.0107812
2826	0.0134166
2838	0.0166509
2850	0.0206041
2862	0.0261144
2874	0.0394112
2886	0.0704371
2898	0.0970307
2910	0.088286
2922	0.0885255
2934	0.127458
2946	0.20628
2958	0.243056
2970	0.186275
2982	0.217421
2994	0.250243
3006	0.165312
3018	0.104697
3030	0.0740308
3042	0.0434841
3054	0.0264738
3066	0.0264738
3078	0.0383331
3090	0.0628903
3102	0.0711559
3114	0.0361769
3126	0.0134166
3138	0.00814579
3150	0.00706767
3162	0.00598955
3174	0.00503122
3186	0.00503122
3198	0.00574997
3210	0.0039531
3222	0.00419268
3234	0.00335415
3246	0.00227603
3258	0.00275519
3270	0.00203645
3282	0.00275519
3294	0.00227603
3306	0.00311457
3318	0.00251561
3330	0.00443227
3342	0.00443227
3354	0.00467185
3366	0.00455206
3378	0.00586976
3390	0.00443227
3402	0.00622913
3414	0.00563018
3426	0.00646871
3438	0.00682809
3450	0.00646871
3462	0.00646871
3474	0.00754683
3486	0.0130572
3498	0.0156926
3510	0.0144947
3522	0.0114999
3534	0.00838537
3546	0.00790621
3558	0.0124583
3570	0.0262342
3582	0.0261144
3594	0.024078
3606	0.00742704
3618	0.00455206
3630	0.00491143
3642	0.00407289
3654	0.00407289
3666	0.00491143
3678	0.00275519
3690	0.00443227
3702	0.00431248
3714	0.00239582
3726	0.00371352
3738	0.0013177
3750	0.000479164
3762	0.00287498
3774	0.00179687
3786	0.00347394
3798	0.00287498
3810	0.000359373
3822	0.000359373
3834	0.00287498
3846	0.00431248
3858	0.00299478
3870	0.00299478
3882	0.00155728
3894	0.00778642
3906	0.00491143
3918	0.0052708
3930	0.00119791
3942	0.000119791
3954	0.00371352
3966	0.00898432
