Infrared Spectrum: Phenol, 2-(1,1-dimethylethyl)-4-methyl-
Formula: C 11 H 16 O
CAS: 2409-55-4
Origin: Sadtler Research Labs Under US-EPA Contract
1/CM	ABSORBANCE
450	0.015754
462	0.0333525
474	0.0382708
486	0.0748509
498	0.0627856
510	0.048338
522	0.0258981
534	0.0176753
546	0.0159846
558	0.0242074
570	0.0398846
582	0.0308933
594	0.0209798
606	0.00952928
618	0.00668586
630	0.00760805
642	0.00499519
654	0.00276656
666	0.00368875
678	0.00146013
690	0.00522573
702	0.00399615
714	0.00230547
726	0.00322766
738	0.00952928
750	0.0414985
762	0.0947548
774	0.0458789
786	0.0677808
798	0.199039
810	0.191431
822	0.0873005
834	0.0232084
846	0.0126032
858	0.0105283
870	0.0267435
882	0.0289721
894	0.0192123
906	0.0340441
918	0.0350431
930	0.0226705
942	0.013756
954	0.00791545
966	0.00999037
978	0.0156003
990	0.0211335
1002	0.0199039
1014	0.0282036
1026	0.0361959
1038	0.0292026
1050	0.0305091
1062	0.0520268
1074	0.102824
1086	0.130951
1098	0.0713159
1110	0.0298174
1122	0.0354274
1134	0.0988278
1146	0.159308
1158	0.199654
1170	0.496214
1182	0.586435
1194	0.261133
1206	0.216791
1218	0.203112
1230	0.228933
1242	0.364034
1254	0.193275
1266	0.121268
1278	0.152392
1290	0.116734
1302	0.0696252
1314	0.147396
1326	0.223861
1338	0.101518
1350	0.0500287
1362	0.130259
1374	0.165763
1386	0.110893
1398	0.171143
1410	0.186666
1422	0.145783
1434	0.0904513
1446	0.0843034
1458	0.152238
1470	0.171834
1482	0.221248
1494	0.381555
1506	0.392929
1518	0.150547
1530	0.0553313
1542	0.0273582
1554	0.0185206
1566	0.0169836
1578	0.0262824
1590	0.0378097
1602	0.0419596
1614	0.0381171
1626	0.0207492
1638	0.0159077
1650	0.0176753
1662	0.0115273
1674	0.00707011
1686	0.00891448
1698	0.00476464
1710	0.0107589
1722	0.01122
1734	0.00952928
1746	0.0156003
1758	0.00945243
1770	0.00699326
1782	0.00776175
1794	0.0105283
1806	0.0127569
1818	0.0076849
1830	0.00614792
1842	0.0129875
1854	0.0107589
1866	0.00730065
1878	0.00776175
1890	0.00484149
1902	0.00222862
1914	0.00215177
1926	0.00276656
1938	0.00222862
1950	0.00253602
1962	0.00238232
1974	0.00315081
1986	0.00453409
1998	0.00445724
2010	0.0034582
2022	0.00146013
2034	0.00115274
2046	0.00130643
2058	0.00122958
2070	0.00107589
2082	0.00115274
2094	0.000922188
2106	0.00076849
2118	0.00076849
2130	0.000999037
2142	0.00238232
2154	0.00238232
2166	0.00176753
2178	0.00199807
2190	0.00176753
2202	0.000614792
2214	0.000922188
2226	0.000691641
2238	0.00115274
2250	0.00161383
2262	0.00207492
2274	0.00222862
2286	0.00253602
2298	0.00169068
2310	0.00122958
2322	0.00299711
2334	0.00322766
2346	0.00476464
2358	0.00522573
2370	0.00353505
2382	0.00507203
2394	0.00599422
2406	0.00660901
2418	0.00806914
2430	0.00537943
2442	0.0037656
2454	0.00414985
2466	0.00545628
2478	0.00630162
2490	0.00599422
2502	0.00507203
2514	0.00491834
2526	0.00461094
2538	0.00292026
2550	0.00315081
2562	0.00453409
2574	0.00461094
2586	0.00461094
2598	0.00468779
2610	0.00445724
2622	0.0039193
2634	0.00453409
2646	0.00545628
2658	0.00568683
2670	0.00514888
2682	0.00438039
2694	0.00438039
2706	0.00576367
2718	0.0103746
2730	0.0136791
2742	0.0164457
2754	0.0151393
2766	0.011681
2778	0.0120653
2790	0.0154466
2802	0.0173679
2814	0.021364
2826	0.0272045
2838	0.0352737
2850	0.0580978
2862	0.127492
2874	0.269048
2886	0.310777
2898	0.274274
2910	0.313313
2922	0.421209
2934	0.456944
2946	0.440498
2958	0.617559
2970	0.76849
2982	0.435426
2994	0.214255
3006	0.208952
3018	0.176292
3030	0.158847
3042	0.150009
3054	0.148626
3066	0.0879153
3078	0.0474927
3090	0.0301248
3102	0.0268203
3114	0.0272814
3126	0.0228242
3138	0.0154466
3150	0.0126032
3162	0.0115273
3174	0.0109894
3186	0.00945243
3198	0.00814599
3210	0.00776175
3222	0.00699326
3234	0.00637847
3246	0.00499519
3258	0.00499519
3270	0.00545628
3282	0.00514888
3294	0.00484149
3306	0.00468779
3318	0.00438039
3330	0.00445724
3342	0.00499519
3354	0.00653216
3366	0.00660901
3378	0.00676271
3390	0.00445724
3402	0.00499519
3414	0.00537943
3426	0.00453409
3438	0.00461094
3450	0.00422669
3462	0.004073
3474	0.00207492
3486	0.00261287
3498	0.00107589
3510	0.00430354
3522	0.00368875
3534	0.00330451
3546	0.0133717
3558	0.0149087
3570	0.00745435
3582	0.00522573
3594	0.00207492
3606	0.00537943
3618	0.00968297
3630	0.0463399
3642	0.258904
3654	0.230393
3666	0.0998269
3678	0.0892985
3690	0.0503361
3702	0.025975
3714	0.0100672
3726	0.00829969
3738	0.00853024
3750	0
3762	0.00422669
3774	0.00507203
3786	0.00461094
3798	0.00414985
3810	0.00414985
3822	0.00146013
3834	0.00368875
3846	0.00199807
3858	0.00476464
3870	0.00691641
3882	0.00422669
3894	0.00760805
3906	0.00522573
3918	0.00484149
3930	0.00691641
3942	0.00691641
3954	0.00568683
3966	0.00484149
