Infrared Spectrum: Benzene, 2,2-dichlorocyclopropyl-
Formula: C 9 H 8 Cl 2
CAS: 2415-80-7
Origin: Sadtler Research Labs Under US-EPA Contract
1/CM	ABSORBANCE
450	0.0480354
462	0.0279076
474	0.0274794
486	0.0103494
498	0.0104207
510	0.000356875
522	0.00563863
534	0.0266942
546	0.171728
558	0.101495
570	0.0305485
582	0.169516
594	0.201063
606	0.0275507
618	0.00870775
630	0.00478212
642	0.00849362
654	0.0215553
666	0.040541
678	0.124621
690	0.486064
702	0.413475
714	0.126548
726	0.282003
738	0.259305
750	0.315763
762	0.413832
774	0.689554
786	0.382856
798	0.0509618
810	0.0202705
822	0.0153456
834	0.0147746
846	0.0150601
858	0.0223404
870	0.0398273
882	0.0650226
894	0.0390421
906	0.039399
918	0.0229114
930	0.0424681
942	0.075372
954	0.0625959
966	0.0229827
978	0.0146319
990	0.00963563
1002	0.0130616
1014	0.0258377
1026	0.117055
1038	0.190643
1050	0.314906
1062	0.244174
1074	0.135113
1086	0.0884336
1098	0.0543164
1110	0.200207
1122	0.478427
1134	0.124692
1146	0.03426
1158	0.0170586
1170	0.02284
1182	0.0506049
1194	0.0609543
1206	0.0327611
1218	0.073088
1230	0.167517
1242	0.0855786
1254	0.0275507
1266	0.0169872
1278	0.0127048
1290	0.00992112
1302	0.0111345
1314	0.0135613
1326	0.0127048
1338	0.0107063
1350	0.00806537
1362	0.00892187
1374	0.013133
1386	0.0103494
1398	0.00842225
1410	0.02284
1422	0.0910745
1434	0.135755
1446	0.13133
1458	0.127547
1470	0.038257
1482	0.0320474
1494	0.168374
1506	0.25174
1518	0.0239106
1530	0.0139181
1542	0.00820813
1554	0.0082795
1566	0.009707
1578	0.0162021
1590	0.0430391
1602	0.108276
1614	0.10071
1626	0.0124906
1638	0.0082795
1650	0.00606688
1662	0.0054245
1674	0.00613825
1686	0.00777988
1698	0.003997
1710	0.00356875
1722	0.00606688
1734	0.0130616
1746	0.0163449
1758	0.00992112
1770	0.0077085
1782	0.0164876
1794	0.0328325
1806	0.0201991
1818	0.0133471
1830	0.00863637
1842	0.0059955
1854	0.00849362
1866	0.0172014
1878	0.0194854
1890	0.0181292
1902	0.00692337
1914	0.00449662
1926	0.00927875
1938	0.0246244
1950	0.0254809
1962	0.0219121
1974	0.00442525
1986	0.00442525
1998	0.00571
2010	0.00292638
2022	0.000642375
2034	0.001142
2046	0.0031405
2058	0.00349738
2070	0.0048535
2082	0.00756575
2094	0.0107776
2106	0.00806537
2118	0.002855
2130	0.00157025
2142	0.000571
2154	0.000785125
2166	0.00185575
2178	0.00299775
2190	0.001142
2202	0
2214	0.000214125
2226	0.00157025
2238	0.00356875
2250	0.00306912
2262	0.00242675
2274	0.0019985
2286	0.00157025
2298	0.0008565
2310	0.00299775
2322	0.00478212
2334	0.00406837
2346	0.00478212
2358	0.00478212
2370	0.00335462
2382	0.00178437
2394	0.00121338
2406	0.00178437
2418	0.00235537
2430	0.00164163
2442	0.001142
2454	0.00178437
2466	0.00214125
2478	0.00249812
2490	0.00149887
2502	0.00121338
2514	0.00128475
2526	0.00164163
2538	0.00214125
2550	0.00299775
2562	0.00271225
2574	0.00185575
2586	0.00206988
2598	0.00242675
2610	0.00335462
2622	0.00249812
2634	0.0025695
2646	0.00221263
2658	0.0014275
2670	0.00128475
2682	0.001142
2694	0.0008565
2706	0.000571
2718	0.00099925
2730	0.00071375
2742	0.0008565
2754	0.000785125
2766	0.00135612
2778	0.00214125
2790	0.0019985
2802	0.0019985
2814	0.00178437
2826	0.00178437
2838	0.00271225
2850	0.00392563
2862	0.00506763
2874	0.00556725
2886	0.00649513
2898	0.0077085
2910	0.00863637
2922	0.008565
2934	0.00956425
2946	0.0118482
2958	0.0110631
2970	0.0099925
2982	0.00963563
2994	0.013133
3006	0.0278362
3018	0.104136
3030	0.190714
3042	0.304557
3054	0.199065
3066	0.252596
3078	0.333036
3090	0.171728
3102	0.137754
3114	0.0703758
3126	0.0369009
3138	0.00949287
3150	0.00706613
3162	0.006281
3174	0.00571
3186	0.00221263
3198	0.00121338
3210	0.001142
3222	0.00099925
3234	0.00135612
3246	0.00121338
3258	0.001142
3270	0.000927875
3282	0.0008565
3294	0.00099925
3306	0.00135612
3318	0.000785125
3330	0.000499625
3342	0.00099925
3354	0.001142
3366	0.000785125
3378	0.00121338
3390	0.00042825
3402	0.00149887
3414	0.001142
3426	0.00121338
3438	0.00157025
3450	0.00107062
3462	0.000927875
3474	0.00121338
3486	0.0014275
3498	0.00128475
3510	0.00164163
3522	0.00135612
3534	0.00128475
3546	0.000499625
3558	0.000785125
3570	0.0008565
3582	0.000927875
3594	0.00128475
3606	0.00221263
3618	0.00206988
3630	0.00278363
3642	0.00214125
3654	0.00385425
3666	0.00449662
3678	0.00192713
3690	0.00328325
3702	0.0019985
3714	0.001713
3726	0.00206988
3738	0.00121338
3750	0.00192713
3762	0.001713
3774	0.00042825
3786	0.001713
3798	0.00364013
3810	0.00178437
3822	0.00242675
3834	0.00128475
3846	0.00107062
3858	0.00099925
3870	0.00135612
3882	0.00042825
3894	0.00157025
3906	0.00271225
3918	0.00321187
3930	0.001713
3942	0.00328325
3954	0.003426
3966	0.00214125
