Infrared Spectrum: Propanenitrile, 3-bromo-
Formula: C 3 H 4 Br N
CAS: 2417-90-5
Origin: Sadtler Research Labs Under US-EPA Contract
1/CM	ABSORBANCE
450	0.039605
462	0.0424072
474	0.00280224
486	0.0267147
498	0.0264345
510	0.0371764
522	0.0835068
534	0.0835068
546	0.0818254
558	0.0793968
570	0.189618
582	0.215399
594	0.178503
606	0.067534
618	0.104617
630	0.0673472
642	0.0756605
654	0.161689
666	0.292554
678	0.518695
690	0.659274
702	0.233894
714	0.0860288
726	0.068001
738	0.0477315
750	0.0669735
762	0.0534294
774	0.0680944
786	0.0539898
798	0.0525887
810	0.0395116
822	0.0341873
834	0.030451
846	0.0294235
858	0.0359621
870	0.0423138
882	0.0745396
894	0.177942
906	0.232212
918	0.123205
930	0.0526821
942	0.0736989
954	0.113304
966	0.114331
978	0.0601548
990	0.0394182
1002	0.0311983
1014	0.0597811
1026	0.0664131
1038	0.0596877
1050	0.0210168
1062	0.0288631
1074	0.0224179
1086	0.0318521
1098	0.0300774
1110	0.0404457
1122	0.065479
1134	0.0757539
1146	0.0735121
1158	0.0682812
1170	0.092941
1182	0.0933146
1194	0.145716
1206	0.288818
1218	0.93408
1230	0.835908
1242	0.156365
1254	0.140299
1266	0.434347
1278	0.777528
1290	0.621443
1302	0.13787
1314	0.258367
1326	0.321043
1338	0.14198
1350	0.0874299
1362	0.0497865
1374	0.0577261
1386	0.0537096
1398	0.0777155
1410	0.17047
1422	0.353362
1434	0.433787
1446	0.353549
1458	0.244262
1470	0.133293
1482	0.0768748
1494	0.0397918
1506	0.0415666
1518	0.0237256
1530	0.0127035
1542	0.0110221
1554	0.0146651
1566	0.00859354
1578	0.00793968
1590	0.0122364
1602	0.00906058
1614	0.0142914
1626	0.00906058
1638	0.0141046
1650	0.00793968
1662	0.00859354
1674	0.00523085
1686	0.00980784
1698	0.0127035
1710	0.0136376
1722	0.0191486
1734	0.0334401
1746	0.062957
1758	0.0974245
1770	0.0996663
1782	0.0699626
1794	0.0555778
1806	0.0231652
1818	0.0143848
1830	0.00915398
1842	0.00980784
1854	0.00607152
1866	0.00607152
1878	0.00607152
1890	0.0058847
1902	0.0109287
1914	0.00756605
1926	0.0117694
1938	0.00504403
1950	0.00513744
1962	0.00140112
1974	0.00663197
1986	0.00476381
1998	0.00793968
2010	0.00887376
2022	0.00915398
2034	0.00878035
2046	0.00625834
2058	0.00523085
2070	0.0023352
2082	0.00597811
2094	0.00382973
2106	0.00635174
2118	0.0035495
2130	0.00691219
2142	0.00616493
2154	0.00952762
2166	0.0120496
2178	0.0129837
2190	0.013731
2202	0.00924739
2214	0.0110221
2226	0.0105551
2238	0.0171871
2250	0.0203629
2262	0.0300774
2274	0.0195223
2286	0.0111156
2298	0.00653856
2310	0.0100881
2322	0.0110221
2334	0.00850013
2346	0.00719242
2358	0.0106485
2370	0.0191486
2382	0.0109287
2394	0.0168134
2406	0.0140112
2418	0.0179343
2430	0.013731
2442	0.0194289
2454	0.0136376
2466	0.011676
2478	0.0108353
2490	0.00672538
2502	0.00476381
2514	0.00429677
2526	0.00803309
2538	0.00448358
2550	0.00672538
2562	0.00158794
2574	0.00560448
2586	0.00401654
2598	0.0101815
2610	0.011209
2622	0.0163464
2634	0.0160662
2646	0.0127969
2658	0.0152255
2670	0.0114892
2682	0.00850013
2694	0.00364291
2706	0.00859354
2718	0.0070056
2730	0.0120496
2742	0.00672538
2754	0.0146651
2766	0.0118628
2778	0.0081265
2790	0.00551107
2802	0.00597811
2814	0.00915398
2826	0.0152255
2838	0.0255938
2850	0.0277422
2862	0.0387643
2874	0.0468908
2886	0.0521217
2898	0.0311983
2910	0.0404457
2922	0.0724846
2934	0.0879903
2946	0.0891112
2958	0.0916332
2970	0.154684
2982	0.286296
2994	0.319362
3006	0.1587
3018	0.0848145
3030	0.0576327
3042	0.0518414
3054	0.0267147
3066	0.0204564
3078	0.0101815
3090	0.0106485
3102	0.00859354
3114	0.00541766
3126	0.0106485
3138	0.00635174
3150	0.0149453
3162	0.0100881
3174	0.0178409
3186	0.0144782
3198	0.0205498
3210	0.0149453
3222	0.0149453
3234	0.00691219
3246	0.00737923
3258	0.00868694
3270	0.0100881
3282	0.0118628
3294	0.00709901
3306	0.011676
3318	0.00420336
3330	0.0122364
3342	0.00457699
3354	0.0103683
3366	0.00560448
3378	0.00672538
3390	0.00747264
3402	0.00784627
3414	0.00878035
3426	0.00709901
3438	0.0113024
3450	0.00560448
3462	0.0150387
3474	0.00401654
3486	0.0134508
3498	0.00597811
3510	0.0135442
3522	0.00728582
3534	0.0148519
3546	0.0113024
3558	0.015786
3570	0.029984
3582	0.0321324
3594	0.0227916
3606	0.0129837
3618	0.0191486
3630	0.00906058
3642	0.014198
3654	0.00980784
3666	0.0150387
3678	0.00803309
3690	0.0158794
3702	0.0120496
3714	0.0122364
3726	0.0140112
3738	0.011676
3750	0.0169068
3762	0.0117694
3774	0.013731
3786	0.011209
3798	0.0159728
3810	0.00793968
3822	0.0177475
3834	0.00990125
3846	0.0177475
3858	0.00980784
3870	0.0155991
3882	0.0117694
3894	0.0126101
3906	0.018308
3918	0.0140112
3930	0.0166266
3942	0.0119562
3954	0
3966	0.00149453
