Infrared Spectrum: Phenol, 2,6-dimethyl-4-nitro-
Formula: C 8 H 9 N O 3
CAS: 2423-71-4
Origin: Sadtler Research Labs Under US-EPA Contract
1/CM	ABSORBANCE
450	0.00303735
462	0.000635724
474	0.00466198
486	0.00494452
498	0.0121494
510	0.0161756
522	0.0331283
534	0.0240869
546	0.0156812
558	0.0200606
570	0.026206
582	0.0247932
594	0.0196368
606	0.0197781
618	0.018436
630	0.0157518
642	0.019213
654	0.0165995
666	0.0126438
678	0.0103129
690	0.014551
702	0.0187185
714	0.0666097
726	0.170445
738	0.0986079
750	0.0909085
762	0.0386379
774	0.0286782
786	0.0180828
798	0.0208376
810	0.045207
822	0.0156812
834	0.0146923
846	0.0132796
858	0.0182947
870	0.0164582
882	0.0312917
894	0.0905554
906	0.113441
918	0.118103
930	0.118174
942	0.152432
954	0.0449951
966	0.0226742
978	0.0233099
990	0.0272655
1002	0.0382847
1014	0.0582041
1026	0.0662566
1038	0.0418871
1050	0.0283957
1062	0.0290314
1074	0.0396268
1086	0.0589104
1098	0.188104
1110	0.160344
1122	0.0396268
1134	0.0289608
1146	0.0266298
1158	0.0349648
1170	0.0773464
1182	0.237266
1194	0.488801
1206	0.249416
1218	0.177438
1230	0.205056
1242	0.121635
1254	0.190293
1266	0.17108
1278	0.235712
1290	0.208729
1302	0.164229
1314	0.205127
1326	0.314542
1338	0.464573
1350	0.623292
1362	0.652253
1374	0.276257
1386	0.124955
1398	0.0761456
1410	0.0424522
1422	0.0975483
1434	0.193472
1446	0.188386
1458	0.168467
1470	0.18994
1482	0.245884
1494	0.163805
1506	0.123825
1518	0.193755
1530	0.37098
1542	0.456803
1554	0.467187
1566	0.250122
1578	0.098961
1590	0.134985
1602	0.160838
1614	0.122907
1626	0.106378
1638	0.0766401
1650	0.136398
1662	0.427984
1674	0.531183
1686	0.187115
1698	0.0500103
1710	0.0279719
1722	0.0229567
1734	0.0290314
1746	0.0305854
1758	0.0285369
1770	0.0300909
1782	0.0296671
1794	0.0203432
1806	0.0205551
1818	0.0213321
1830	0.0219678
1842	0.0261353
1854	0.0185066
1866	0.0156812
1878	0.0138447
1890	0.017659
1902	0.0272655
1914	0.0336934
1926	0.0279719
1938	0.0201313
1950	0.0127145
1962	0.00445007
1974	0.00204844
1986	0.00113018
1998	0.00155399
2010	0.00218972
2022	0.00268417
2034	0.00190717
2046	0.00317862
2058	0.000988904
2070	0.00120081
2082	0.00127145
2094	0.00211908
2106	0.00120081
2118	0.00155399
2130	0.000776996
2142	0.000847632
2154	0.00240162
2166	0.00310798
2178	0.00416752
2190	0.00593342
2202	0.00713424
2214	0.0070636
2226	0.00501516
2238	0.00748742
2250	0.00473261
2262	0.000918268
2274	0.00105954
2286	0.00324926
2298	0.00565088
2310	0.00642788
2322	0.00656915
2334	0.00558024
2346	0.00621597
2358	0.0070636
2370	0.00367307
2382	0.00515643
2394	0.0025429
2406	0.00282544
2418	0.00346116
2430	0.00360244
2442	0.00395562
2454	0.00501516
2466	0.00473261
2478	0.00445007
2490	0.00310798
2502	0.00211908
2514	0.00183654
2526	0.00303735
2538	0.00374371
2550	0.00339053
2562	0.00317862
2574	0.00360244
2586	0.00310798
2598	0.00218972
2610	0.0017659
2622	0.00282544
2634	0.00480325
2646	0.0062866
2658	0.00713424
2670	0.00593342
2682	0.00388498
2694	0.00339053
2706	0.00346116
2718	0.00360244
2730	0.00487388
2742	0.00720487
2754	0.00897077
2766	0.00692233
2778	0.00550961
2790	0.00565088
2802	0.00748742
2814	0.0103129
2826	0.0135621
2838	0.0204844
2850	0.0325632
2862	0.0474674
2874	0.0584866
2886	0.0546723
2898	0.047538
2910	0.0538246
2922	0.0832798
2934	0.129405
2946	0.112099
2958	0.0629367
2970	0.0623716
2982	0.06442
2994	0.0693646
3006	0.0432999
3018	0.0251464
3030	0.0236631
3042	0.0302322
3054	0.0325632
3066	0.0257821
3078	0.0214733
3090	0.0175884
3102	0.0124319
3114	0.00897077
3126	0.00713424
3138	0.00600406
3150	0.00522706
3162	0.00487388
3174	0.00487388
3186	0.0052977
3198	0.00543897
3210	0.00515643
3222	0.00536834
3234	0.00550961
3246	0.00600406
3258	0.00656915
3270	0.00720487
3282	0.0100303
3294	0.0140566
3306	0.0146217
3318	0.0113018
3330	0.0108779
3342	0.00946522
3354	0.00642788
3366	0.00586279
3378	0.00473261
3390	0.00522706
3402	0.00515643
3414	0.00543897
3426	0.00445007
3438	0.00536834
3450	0.00487388
3462	0.00536834
3474	0.00437943
3486	0.00466198
3498	0.00360244
3510	0.00395562
3522	0.00600406
3534	0.00388498
3546	0.00671042
3558	0.00233099
3570	0.0117962
3582	0.0062866
3594	0.00854696
3606	0.00487388
3618	0.0180122
3630	0.0700709
3642	0.228437
3654	0.204915
3666	0.0305148
3678	0.0088295
3690	0.00233099
3702	0.00543897
3714	0.00331989
3726	0.00473261
3738	0.00310798
3750	0.0017659
3762	0.00240162
3774	0.000635724
3786	0
3798	0.000141272
3810	0.000423816
3822	0.00226035
3834	0.00141272
3846	0.00233099
3858	0.00445007
3870	0.00296671
3882	0.00748742
3894	0.00310798
3906	0.00699296
3918	0.00635724
3930	0.00473261
3942	0.0035318
3954	0.00437943
3966	0.00614533
