Infrared Spectrum: 4-Isoxazolecarboxylic acid, 3-(2,6-dichlorophenyl)-5-methyl-, ethyl ester
Formula: C 13 H 11 Cl 2 N O 3
CAS: 24248-21-3
Origin: Sadtler Research Labs Under US-EPA Contract
1/CM	ABSORBANCE
450	0.0345519
462	0.0213714
474	0.00837908
486	0.00866152
498	0.0133689
510	0.00847323
522	0.00555467
534	0.00376588
546	0.00310685
558	0.00668444
570	0.0203358
582	0.00922641
594	0.00395417
606	0.00451906
618	0.00348344
630	0.00433076
642	0.00141221
654	0.00348344
666	0.00668444
678	0.0226894
690	0.0100737
702	0.00489564
714	0.00762591
726	0.0344578
738	0.0344578
750	0.0212772
762	0.0287148
774	0.230566
786	0.243088
798	0.147528
810	0.0554526
822	0.0298446
834	0.0337988
846	0.0228777
858	0.0132747
870	0.0181704
882	0.0273968
894	0.0692922
906	0.0144986
918	0.00611956
930	0.00593126
942	0.00753176
954	0.0127098
966	0.0327632
978	0.0630785
990	0.0263612
1002	0.0225953
1014	0.0357759
1026	0.0347402
1038	0.0276792
1050	0.0420837
1062	0.0626078
1074	0.0939587
1086	0.216726
1098	0.432041
1110	0.661948
1122	0.281311
1134	0.0868977
1146	0.0880274
1158	0.250431
1170	0.293644
1182	0.112035
1194	0.140844
1206	0.0427427
1218	0.0203358
1230	0.0221245
1242	0.0502745
1254	0.0707044
1266	0.0697629
1278	0.0623253
1290	0.176337
1302	0.588984
1314	0.206559
1326	0.0595951
1338	0.0368115
1350	0.0322924
1362	0.0450964
1374	0.0691039
1386	0.0872743
1398	0.128887
1410	0.146022
1422	0.173325
1434	0.313604
1446	0.194131
1458	0.117872
1470	0.0788952
1482	0.0609131
1494	0.0526282
1506	0.0566765
1518	0.0354934
1530	0.0211831
1542	0.0258904
1554	0.0702337
1566	0.156943
1578	0.0679741
1590	0.0895338
1602	0.209006
1614	0.418766
1626	0.10601
1638	0.0338929
1650	0.0273968
1662	0.0290914
1674	0.026926
1686	0.0356817
1698	0.0530989
1710	0.0791776
1722	0.167864
1734	0.761084
1746	0.573732
1758	0.115989
1770	0.0595951
1782	0.0370939
1794	0.0231602
1806	0.0181704
1818	0.0112035
1830	0.00894396
1842	0.00932055
1854	0.0137455
1866	0.00894396
1878	0.00790835
1890	0.00753176
1902	0.00734347
1914	0.00790835
1926	0.0138396
1938	0.00997958
1950	0.00724932
1962	0.00809664
1974	0.00753176
1986	0.00715517
1998	0.006402
2010	0.00649614
2022	0.00659029
2034	0.00677858
2046	0.00668444
2058	0.006402
2070	0.00668444
2082	0.0062137
2094	0.006402
2106	0.006402
2118	0.00706103
2130	0.00743761
2142	0.00734347
2154	0.00649614
2166	0.00630785
2178	0.00668444
2190	0.00649614
2202	0.006402
2214	0.00677858
2226	0.00696688
2238	0.00734347
2250	0.00715517
2262	0.00772005
2274	0.00809664
2286	0.00715517
2298	0.00489564
2310	0.00273026
2322	0.000659029
2334	0.000659029
2346	0.00094147
2358	0.000753176
2370	0.000659029
2382	0.00376588
2394	0.00772005
2406	0.00828494
2418	0.00866152
2430	0.00837908
2442	0.00790835
2454	0.00819079
2466	0.00809664
2478	0.00790835
2490	0.00762591
2502	0.00734347
2514	0.00696688
2526	0.00724932
2538	0.00687273
2550	0.00677858
2562	0.00715517
2574	0.00687273
2586	0.00687273
2598	0.00706103
2610	0.00630785
2622	0.00668444
2634	0.006402
2646	0.006402
2658	0.00696688
2670	0.00677858
2682	0.00696688
2694	0.00696688
2706	0.00753176
2718	0.00724932
2730	0.00715517
2742	0.00734347
2754	0.00715517
2766	0.00753176
2778	0.00724932
2790	0.00809664
2802	0.00828494
2814	0.00950885
2826	0.0111093
2838	0.0113918
2850	0.012804
2862	0.0162874
2874	0.0204299
2886	0.0270202
2898	0.0251372
2910	0.0317275
2922	0.0344578
2934	0.0485799
2946	0.0822845
2958	0.0529106
2970	0.0629843
2982	0.105256
2994	0.0989485
3006	0.0498038
3018	0.0328573
3030	0.0212772
3042	0.0183587
3054	0.0193001
3066	0.0314451
3078	0.0226894
3090	0.016664
3102	0.0114859
3114	0.0109211
3126	0.0127098
3138	0.00969714
3150	0.00734347
3162	0.00649614
3174	0.00630785
3186	0.006402
3198	0.00593126
3210	0.00517809
3222	0.0046132
3234	0.0048015
3246	0.00498979
3258	0.00508394
3270	0.00527223
3282	0.00470735
3294	0.00451906
3306	0.0046132
3318	0.0048015
3330	0.00451906
3342	0.00517809
3354	0.00489564
3366	0.00442491
3378	0.0048015
3390	0.0048015
3402	0.00470735
3414	0.00404832
3426	0.00451906
3438	0.00536638
3450	0.00724932
3462	0.00668444
3474	0.00433076
3486	0.00395417
3498	0.00395417
3510	0.00282441
3522	0.0030127
3534	0.00451906
3546	0.00310685
3558	0.00338929
3570	0.00282441
3582	0.0046132
3594	0.00470735
3606	0.00376588
3618	0.00225953
3630	0.00225953
3642	0.0048015
3654	0.00310685
3666	0.0016005
3678	0.00357759
3690	0.00376588
3702	0.00357759
3714	0.00244782
3726	0.00150635
3738	0.00442491
3750	0.00112976
3762	0.00207123
3774	0.0030127
3786	0.00395417
3798	0.00470735
3810	0.00207123
3822	0.000564882
3834	0.00329515
3846	0.00141221
3858	0.00150635
3870	0.00112976
3882	0.00131806
3894	0.00216538
3906	0.00178879
3918	0.00122391
3930	0.00197709
3942	0.00225953
3954	0.00442491
3966	0.003201
