Infrared Spectrum: O,O-Diethyl O-(4-nitro-m-tolyl) phosphorothioate
Formula: C 11 H 16 N O 5 P S
CAS: 2425-15-2
Origin: Sadtler Research Labs Under US-EPA Contract
1/CM	ABSORBANCE
450	0.0389068
462	0.0450703
474	0.0472853
486	0.0431442
498	0.030721
510	0.0251353
522	0.0104971
534	0.00173347
546	0.000577824
558	0.00664498
570	0.0073191
582	0.00943779
594	0.00924518
606	0.01329
618	0.0221499
630	0.0234982
642	0.0586491
654	0.0433368
666	0.0173347
678	0.0106897
690	0.0313951
702	0.0340916
714	0.0850364
726	0.0548933
738	0.0128084
750	0.0451666
762	0.0456481
774	0.0724206
786	0.159672
798	0.243938
810	0.367111
822	0.724688
834	0.508581
846	0.1355
858	0.103816
870	0.246538
882	0.34968
894	0.266569
906	0.0751171
918	0.0674128
930	0.111231
942	0.247212
954	0.529094
966	0.895338
978	0.638399
990	0.273985
1002	0.29392
1014	0.568386
1026	0.79316
1038	0.936075
1050	0.778714
1062	0.638977
1074	0.400143
1086	0.262717
1098	0.209461
1110	0.118935
1122	0.0848438
1134	0.085518
1146	0.141085
1158	0.262139
1170	0.177681
1182	0.0739615
1194	0.0596122
1206	0.0556637
1218	0.0851327
1230	0.264066
1242	0.650534
1254	0.17874
1266	0.22747
1278	0.164295
1290	0.0952447
1302	0.110653
1314	0.0838808
1326	0.0760802
1338	0.186733
1350	0.460622
1362	0.287179
1374	0.097556
1386	0.117491
1398	0.122017
1410	0.0755986
1422	0.0580713
1434	0.070013
1446	0.0941853
1458	0.0962077
1470	0.122595
1482	0.316262
1494	0.232285
1506	0.175177
1518	0.287756
1530	0.39735
1542	0.377704
1554	0.219958
1566	0.183941
1578	0.290068
1590	0.291609
1602	0.157072
1614	0.217743
1626	0.0996746
1638	0.0375586
1650	0.0223425
1662	0.0139641
1674	0.0137715
1686	0.014253
1698	0.0149271
1710	0.0105934
1722	0.0100156
1734	0.0125195
1746	0.0127121
1758	0.0130973
1770	0.0147345
1782	0.0126158
1794	0.0111713
1806	0.0104008
1818	0.0109787
1830	0.0136752
1842	0.0153123
1854	0.0143493
1866	0.013001
1878	0.0119417
1890	0.0122306
1902	0.00924518
1914	0.00635606
1926	0.00404477
1938	0.00356325
1950	0.00423738
1962	0.00394846
1974	0.00182978
1986	0.00134826
1998	0.000674128
2010	0
2022	0.000288912
2034	9.6304e-05
2046	0.000577824
2058	0.000288912
2070	0
2082	9.6304e-05
2094	0.00048152
2106	0.00096304
2118	0.00115565
2130	0.00115565
2142	0.00096304
2154	0.000866736
2166	0.000866736
2178	0.00096304
2190	0.00105934
2202	0.00173347
2214	0.00144456
2226	0.000577824
2238	9.6304e-05
2250	0.000192608
2262	0.000288912
2274	0.000385216
2286	0.00105934
2298	0.00163717
2310	0.0024076
2322	0.0025039
2334	0.00269651
2346	0.00337064
2358	0.00279282
2370	0.00298542
2382	0.00356325
2394	0.00365955
2406	0.00433368
2418	0.00462259
2430	0.00510411
2442	0.00365955
2454	0.00260021
2466	0.00221499
2478	0.00173347
2490	0.0023113
2502	0.00173347
2514	0.00154086
2526	0.000770432
2538	0.00163717
2550	0.00269651
2562	0.00279282
2574	0.0025039
2586	0.00211869
2598	0.0023113
2610	0.00221499
2622	0.00192608
2634	0.00125195
2646	0.00115565
2658	0.00173347
2670	0.00192608
2682	0.00182978
2694	0.00211869
2706	0.00279282
2718	0.00346694
2730	0.00500781
2742	0.00568194
2754	0.00645237
2766	0.00606715
2778	0.00645237
2790	0.00616346
2802	0.00683758
2814	0.00905258
2826	0.0126158
2838	0.0155049
2850	0.0217647
2862	0.0310099
2874	0.0433368
2886	0.0506559
2898	0.0567231
2910	0.0755023
2922	0.0779099
2934	0.104201
2946	0.132996
2958	0.101312
2970	0.118839
2982	0.180474
2994	0.197134
3006	0.108535
3018	0.058938
3030	0.0362103
3042	0.024076
3054	0.0179125
3066	0.0163717
3078	0.0166606
3090	0.014253
3102	0.0104971
3114	0.00895627
3126	0.00674128
3138	0.00529672
3150	0.00414107
3162	0.00365955
3174	0.00337064
3186	0.00337064
3198	0.00346694
3210	0.00279282
3222	0.00221499
3234	0.00221499
3246	0.00144456
3258	0.00096304
3270	0.000770432
3282	0.000577824
3294	0.000770432
3306	0.000385216
3318	0.000577824
3330	0.000192608
3342	0.000770432
3354	0.000288912
3366	0.000770432
3378	0.000288912
3390	0
3402	0.000192608
3414	0.00096304
3426	0.000674128
3438	0.00048152
3450	9.6304e-05
3462	0.00115565
3474	0.000866736
3486	0.000866736
3498	0.000866736
3510	0.000577824
3522	0.000770432
3534	0.00115565
3546	0.000674128
3558	0.00096304
3570	0.000385216
3582	0.000674128
3594	0.000288912
3606	0.00048152
3618	0.00096304
3630	0.00096304
3642	0.0117491
3654	0.0126158
3666	0.00221499
3678	0.00096304
3690	0.00115565
3702	0.000192608
3714	0.00105934
3726	0.00125195
3738	0.00096304
3750	0.00125195
3762	0.000866736
3774	0.00202238
3786	0.00125195
3798	0.00048152
3810	0.00154086
3822	0
3834	9.6304e-05
3846	0.00096304
3858	0.00115565
3870	0.00125195
3882	0.00125195
3894	9.6304e-05
3906	0.000866736
3918	0.000385216
3930	0.000192608
3942	0.00096304
3954	0.00260021
3966	0.00211869
