Infrared Spectrum: Oxirane, (butoxymethyl)-
Formula: C 7 H 14 O 2
CAS: 2426-08-6
Origin: Sadtler Research Labs Under US-EPA Contract
1/CM	ABSORBANCE
450	0.0191871
462	0.0074658
474	0.0104521
486	0.00403153
498	0.000298632
510	0.00649525
522	0.00634593
534	0.00559935
546	0.00731648
558	0.00425551
570	0.0046288
582	0.00649525
594	0.00455414
606	0.00813772
618	0.0103028
630	0.0065699
642	0.00552469
654	0.00358358
666	0.00477811
678	0.00447948
690	0.00418085
702	0.00470345
714	0.00724183
726	0.0112734
738	0.0212775
750	0.0335961
762	0.0511407
774	0.0683867
786	0.0438242
798	0.0413605
810	0.0651764
822	0.0892163
834	0.13416
846	0.198142
858	0.148196
870	0.0679388
882	0.048677
894	0.0619661
906	0.0936958
918	0.10579
930	0.103551
942	0.107134
954	0.102207
966	0.0911574
978	0.0858567
990	0.0895896
1002	0.0898136
1014	0.0761512
1026	0.0707011
1038	0.0866779
1050	0.108851
1062	0.125351
1074	0.1529
1086	0.228304
1098	0.455787
1110	0.677073
1122	0.74658
1134	0.712461
1146	0.457206
1158	0.319984
1170	0.201427
1182	0.107209
1194	0.0704025
1206	0.0551723
1218	0.0552469
1230	0.0714477
1242	0.0995191
1254	0.119677
1266	0.100863
1278	0.06876
1290	0.0539777
1302	0.0524099
1314	0.0455414
1326	0.0617422
1338	0.126545
1350	0.135654
1362	0.0989219
1374	0.0901869
1386	0.102953
1398	0.0856327
1410	0.0520366
1422	0.0445708
1434	0.0527832
1446	0.0691333
1458	0.10049
1470	0.118706
1482	0.0959355
1494	0.0533805
1506	0.0232933
1518	0.0133638
1530	0.0107508
1542	0.00903362
1554	0.00709251
1566	0.0051514
1578	0.00455414
1590	0.00418085
1602	0.00470345
1614	0.00477811
1626	0.00664456
1638	0.0051514
1650	0.0074658
1662	0.00619661
1674	0.0051514
1686	0.00365824
1698	0.00418085
1710	0.00985486
1722	0.0127665
1734	0.0211282
1746	0.0409872
1758	0.046288
1770	0.0284447
1782	0.0150063
1794	0.0100788
1806	0.00537538
1818	0.00164248
1830	0.000597264
1842	0.00037329
1854	0.000223974
1866	0.000149316
1878	0.000298632
1890	0.000223974
1902	0.000895896
1914	0.00134384
1926	0.0023144
1938	0.00291166
1950	0.00253837
1962	0.00313564
1974	0.00388222
1986	0.00388222
1998	0.00335961
2010	0.00358358
2022	0.00388222
2034	0.00492743
2046	0.00597264
2058	0.00627127
2070	0.0065699
2082	0.00709251
2094	0.00716717
2106	0.00694319
2118	0.00597264
2130	0.00507674
2142	0.00380756
2154	0.00268769
2166	0.00253837
2178	0.00253837
2190	0.00246371
2202	0.00268769
2214	0.00335961
2226	0.00365824
2238	0.00470345
2250	0.00634593
2262	0.00574867
2274	0.00455414
2286	0.00440482
2298	0.0037329
2310	0.00268769
2322	0.00164248
2334	0.00179179
2346	0.00223974
2358	0.0014185
2370	0.00328495
2382	0.00216508
2394	0.0014185
2406	0.00171713
2418	0.0014185
2430	0.000597264
2442	0.000447948
2454	0.000298632
2466	0.000223974
2478	0.000223974
2490	0.000149316
2502	0.000522606
2514	0.00074658
2526	0.000597264
2538	0.000821238
2550	0.00134384
2562	0.00209042
2574	0.00253837
2586	0.00358358
2598	0.00500209
2610	0.00664456
2622	0.00642059
2634	0.0060473
2646	0.00619661
2658	0.00791375
2670	0.0103775
2682	0.0122439
2694	0.0153795
2706	0.0195604
2718	0.0249358
2730	0.0299379
2742	0.0378516
2754	0.0421818
2766	0.0426297
2778	0.0438989
2790	0.0499462
2802	0.0629367
2814	0.083169
2826	0.114675
2838	0.163501
2850	0.27071
2862	0.441005
2874	0.578152
2886	0.58069
2898	0.42906
2910	0.412635
2922	0.515961
2934	0.652287
2946	0.725676
2958	0.645792
2970	0.731648
2982	0.495356
2994	0.291166
3006	0.244804
3018	0.162829
3030	0.0993698
3042	0.115571
3054	0.159246
3066	0.106388
3078	0.0487517
3090	0.0209789
3102	0.014409
3114	0.0111987
3126	0.00880964
3138	0.00776443
3150	0.00671922
3162	0.00627127
3174	0.00589798
3186	0.00567401
3198	0.0046288
3210	0.00403153
3222	0.00261303
3234	0.00201577
3246	0.00171713
3258	0.00104521
3270	0.000821238
3282	0.000970554
3294	0.00134384
3306	0.00111987
3318	0.000522606
3330	0.000597264
3342	0.00111987
3354	0.00037329
3366	0.00037329
3378	0.000522606
3390	0.000447948
3402	0.000522606
3414	0.000821238
3426	0.000447948
3438	0.000895896
3450	0.000597264
3462	0.000597264
3474	0.000671922
3486	0.00111987
3498	0.000597264
3510	0.00104521
3522	0.000671922
3534	0.00156782
3546	0.00134384
3558	0.00171713
3570	0.00388222
3582	0.00440482
3594	0.00433016
3606	0.00328495
3618	0.00410619
3630	0.00485277
3642	0.00388222
3654	0.00545003
3666	0.00545003
3678	0.00679388
3690	0.00433016
3702	0.0037329
3714	0.00358358
3726	0.0023144
3738	0.00313564
3750	0.00037329
3762	0.00268769
3774	0.00328495
3786	0.00298632
3798	0.00238906
3810	0.00246371
3822	0.00410619
3834	0.00321029
3846	0.00418085
3858	0.00418085
3870	0.00343427
3882	0.00194111
3894	0.00328495
3906	0.00238906
3918	0.00126919
3930	0.00179179
3942	0.00268769
3954	0.0014185
3966	0.00328495
