Infrared Spectrum: Decanoic acid, 2-acetyl-, ethyl ester
Formula: C 14 H 26 O 3
CAS: 24317-95-1
Origin: Sadtler Research Labs Under US-EPA Contract
1/CM	ABSORBANCE
450	0.0140301
462	0.00394395
474	0.00840515
486	0.0115086
498	0.00756463
510	0.00866377
522	0.00982756
534	0.0118965
546	0.012931
558	0.0116379
570	0.00801722
582	0.00782325
594	0.0106681
606	0.0117672
618	0.00620688
630	0.0025862
642	0.00342671
654	0.00323275
666	0.000969825
678	0.00323275
690	0.00510774
702	0.00588361
714	0.0142888
726	0.0176508
738	0.0124138
750	0.0115086
762	0.0115732
774	0.0103448
786	0.00943963
798	0.00762929
810	0.00756463
822	0.00834049
834	0.0102155
846	0.0175862
858	0.026056
870	0.0182974
882	0.0090517
894	0.00866377
906	0.0104095
918	0.0129957
930	0.0160344
942	0.0214008
954	0.025668
966	0.0251508
978	0.0230818
990	0.0245689
1002	0.035237
1014	0.062586
1026	0.102155
1038	0.110043
1050	0.109655
1062	0.0969178
1074	0.084892
1086	0.0801075
1098	0.106422
1110	0.127306
1122	0.164547
1134	0.190409
1146	0.284741
1158	0.314611
1170	0.28765
1182	0.27931
1194	0.261465
1206	0.239482
1218	0.227392
1230	0.230818
1242	0.252542
1254	0.227974
1266	0.2014
1278	0.160344
1290	0.126077
1302	0.122974
1314	0.105323
1326	0.099892
1338	0.109655
1350	0.119676
1362	0.177543
1374	0.139396
1386	0.0797843
1398	0.0561852
1410	0.0458404
1422	0.0490085
1434	0.0576723
1446	0.0883834
1458	0.112758
1470	0.106099
1482	0.0437714
1494	0.0177155
1506	0.0105388
1518	0.0071767
1530	0.00581895
1542	0.00504309
1554	0.00581895
1566	0.0064655
1578	0.00814653
1590	0.00924567
1602	0.0140301
1614	0.0199784
1626	0.0199784
1638	0.0201724
1650	0.0238577
1662	0.0310991
1674	0.034849
1686	0.0525645
1698	0.0928446
1710	0.210129
1722	0.391033
1734	0.516012
1746	0.408814
1758	0.313965
1770	0.163642
1782	0.0718964
1794	0.0365947
1806	0.0219827
1818	0.0117026
1830	0.00446119
1842	0.00193965
1854	0.00090517
1866	0.00038793
1878	0.00103448
1890	0.00122844
1902	0.00090517
1914	0.00038793
1926	0.00064655
1938	0.000193965
1950	0.000452585
1962	0.000840515
1974	0.000711205
1986	0.00103448
1998	0.0012931
2010	0.00148706
2022	0.00168103
2034	0.00226292
2046	0.00213361
2058	0.00200431
2070	0.00181034
2082	0.00200431
2094	0.00187499
2106	0.00174568
2118	0.00168103
2130	0.00142241
2142	0.00135775
2154	0.0012931
2166	0.00116379
2178	0.000840515
2190	0.00122844
2202	0.00109913
2214	0.00116379
2226	0.00122844
2238	0.00161637
2250	0.00161637
2262	0.00161637
2274	0.00155172
2286	0.00168103
2298	0.00290947
2310	0.0038793
2322	0.00433188
2334	0.00413792
2346	0.00543102
2358	0.00471981
2370	0.00678877
2382	0.00556033
2394	0.00297413
2406	0.00316809
2418	0.00271551
2430	0.00245689
2442	0.00232758
2454	0.00232758
2466	0.00226292
2478	0.0025862
2490	0.00252155
2502	0.00271551
2514	0.00316809
2526	0.0032974
2538	0.00342671
2550	0.0032974
2562	0.0038793
2574	0.00394395
2586	0.00413792
2598	0.00478447
2610	0.00543102
2622	0.00575429
2634	0.00607757
2646	0.00672412
2658	0.00769394
2670	0.00866377
2682	0.00956894
2694	0.00911635
2706	0.00892239
2718	0.00950428
2730	0.0107327
2742	0.0118965
2754	0.0122198
2766	0.0133189
2778	0.0149353
2790	0.0182327
2802	0.0224999
2814	0.029418
2826	0.0400861
2838	0.0603878
2850	0.132478
2862	0.280732
2874	0.237478
2886	0.184655
2898	0.181939
2910	0.266055
2922	0.433318
2934	0.64655
2946	0.457757
2958	0.330452
2970	0.341637
2982	0.196099
2994	0.148125
3006	0.0881894
3018	0.0535343
3030	0.0316163
3042	0.0214008
3054	0.0163577
3066	0.0133189
3078	0.0120905
3090	0.0096336
3102	0.00840515
3114	0.00704739
3126	0.00607757
3138	0.00530171
3150	0.00484913
3162	0.00504309
3174	0.00426723
3186	0.0038793
3198	0.00407326
3210	0.0025862
3222	0.00232758
3234	0.00245689
3246	0.00168103
3258	0.00168103
3270	0.00187499
3282	0.00174568
3294	0.00155172
3306	0.00109913
3318	0.00161637
3330	0.00181034
3342	0.00181034
3354	0.00187499
3366	0.00193965
3378	0.00181034
3390	0.00239223
3402	0.00290947
3414	0.00381464
3426	0.0045905
3438	0.00581895
3450	0.00607757
3462	0.00620688
3474	0.00633619
3486	0.00484913
3498	0.00452585
3510	0.00504309
3522	0.00497843
3534	0.00452585
3546	0.00446119
3558	0.0025862
3570	0.0064655
3582	0.00814653
3594	0.00245689
3606	0.00226292
3618	0.00219827
3630	0.00374999
3642	0.00239223
3654	0.00232758
3666	0.00200431
3678	0.00284482
3690	0.00181034
3702	0.00316809
3714	0.00187499
3726	0.00122844
3738	0.00297413
3750	0.00187499
3762	0.00187499
3774	0.00232758
3786	0.00148706
3798	0.00103448
3810	0.00245689
3822	0.00142241
3834	0.00181034
3846	0.00116379
3858	0.00193965
3870	0.00206896
3882	0.00181034
3894	0.00213361
3906	0.00213361
3918	0.0032974
3930	0.00284482
3942	0.0032974
3954	0.00323275
3966	0.00290947
