Infrared Spectrum: Heptanoic acid, 2-acetyl-, ethyl ester
Formula: C 11 H 20 O 3
CAS: 24317-94-0
Origin: Sadtler Research Labs Under US-EPA Contract
1/CM	ABSORBANCE
450	0.0274197
462	0.00858257
474	0.00969719
486	0.0117035
498	0.0138213
510	0.013264
522	0.0150474
534	0.0203975
546	0.0214007
558	0.0173881
570	0.010143
582	0.0111462
594	0.0181683
606	0.0193944
618	0.00969719
630	0.0023407
642	0.00456994
654	0.00512725
666	0
678	0.00144901
690	0.00200632
702	0.00156047
714	0.00925135
726	0.0179454
738	0.0174995
750	0.0100316
762	0.0105889
774	0.0112577
786	0.00969719
798	0.0088055
810	0.00869404
822	0.010143
834	0.0169422
846	0.027977
858	0.0361137
870	0.0305406
882	0.0120379
894	0.0100316
906	0.0143786
918	0.0216236
930	0.0251904
942	0.0335501
954	0.0429129
966	0.0355564
978	0.0324354
990	0.0348876
1002	0.0473713
1014	0.0877206
1026	0.16619
1038	0.22337
1050	0.18681
1062	0.177336
1074	0.132528
1086	0.120825
1098	0.180457
1110	0.272413
1122	0.325915
1134	0.36058
1146	0.536801
1158	0.649266
1170	0.666097
1182	0.573026
1194	0.489207
1206	0.488984
1218	0.460895
1230	0.433253
1242	0.474828
1254	0.429463
1266	0.401152
1278	0.32246
1290	0.23485
1302	0.22337
1314	0.206873
1326	0.193052
1338	0.207654
1350	0.215122
1362	0.323909
1374	0.266951
1386	0.148133
1398	0.0990897
1410	0.0813673
1422	0.0784692
1434	0.0891696
1446	0.124949
1458	0.155155
1470	0.166078
1482	0.0863831
1494	0.0383429
1506	0.0231841
1518	0.0174995
1530	0.0152703
1542	0.0123723
1554	0.0129296
1566	0.0127067
1578	0.0131525
1590	0.0144901
1602	0.0193944
1614	0.0286457
1626	0.0297604
1638	0.0246331
1650	0.0298718
1662	0.042467
1674	0.0446963
1686	0.0619729
1698	0.107672
1710	0.213896
1722	0.596768
1734	1.11462
1746	0.787813
1758	0.729853
1770	0.415976
1782	0.154932
1794	0.0803641
1806	0.0523871
1818	0.0276426
1830	0.0141557
1842	0.00902842
1854	0.00679918
1866	0.00512725
1878	0.00546164
1890	0.00568456
1902	0.00512725
1914	0.00367825
1926	0.00267509
1938	0.00189485
1950	0.00178339
1962	0.00200632
1974	0.00200632
1986	0.00189485
1998	0.00200632
2010	0.00245216
2022	0.00256363
2034	0.0032324
2046	0.00289801
2058	0.00211778
2070	0.00178339
2082	0.00211778
2094	0.00222924
2106	0.00189485
2118	0.00156047
2130	0.00100316
2142	0.000780234
2154	0.00055731
2166	0.000334386
2178	0.000334386
2190	0.00055731
2202	0.000111462
2214	0
2226	0.000222924
2238	0.00055731
2250	0.000891696
2262	0.000780234
2274	0.000891696
2286	0.00167193
2298	0.00434702
2310	0.00691064
2322	0.00624187
2334	0.00300947
2346	0.00535018
2358	0.00367825
2370	0.00668772
2382	0.00679918
2394	0.00156047
2406	0.00178339
2418	0.00144901
2430	0.00122608
2442	0.000891696
2454	0.000891696
2466	0.00111462
2478	0.00122608
2490	0.00111462
2502	0.000891696
2514	0.00133754
2526	0.00122608
2538	0.00111462
2550	0.00122608
2562	0.00189485
2574	0.00211778
2586	0.0023407
2598	0.00245216
2610	0.00300947
2622	0.00312094
2634	0.0032324
2646	0.00378971
2658	0.00445848
2670	0.00590749
2682	0.00735649
2694	0.00657626
2706	0.00635333
2718	0.00702211
2730	0.00869404
2742	0.0112577
2754	0.0110347
2766	0.0112577
2778	0.0133754
2790	0.0157161
2802	0.0203975
2814	0.026305
2826	0.0351105
2838	0.0480401
2850	0.0821475
2862	0.220806
2874	0.2966
2886	0.279324
2898	0.203307
2910	0.276091
2922	0.427234
2934	0.643582
2946	0.638343
2958	0.492551
2970	0.701653
2982	0.403715
2994	0.308415
3006	0.17689
3018	0.111239
3030	0.0621958
3042	0.0391232
3054	0.0286457
3066	0.023407
3078	0.0209549
3090	0.017611
3102	0.014713
3114	0.0120379
3126	0.0104774
3138	0.00913988
3150	0.00835965
3162	0.00813673
3174	0.00679918
3186	0.00657626
3198	0.00579602
3210	0.00412409
3222	0.00312094
3234	0.00312094
3246	0.00156047
3258	0.00111462
3270	0.00167193
3282	0.000891696
3294	0.00055731
3306	0.000445848
3318	0.000445848
3330	0.000891696
3342	0.000891696
3354	0.00055731
3366	0.000780234
3378	0.00144901
3390	0.00111462
3402	0.00189485
3414	0.0023407
3426	0.00390117
3438	0.00624187
3450	0.00824819
3462	0.0107004
3474	0.0100316
3486	0.00635333
3498	0.00401263
3510	0.00356678
3522	0.00390117
3534	0.00512725
3546	0.00378971
3558	0.00356678
3570	0.00635333
3582	0.00746795
3594	0.00300947
3606	0.00200632
3618	0.00100316
3630	0.000780234
3642	0.00178339
3654	0.00111462
3666	0.00100316
3678	0.00167193
3690	0.00156047
3702	0.00189485
3714	0.00122608
3726	0.000222924
3738	0.00156047
3750	0.00055731
3762	0.00111462
3774	0.000445848
3786	0.00055731
3798	0.000111462
3810	0.000891696
3822	0
3834	0
3846	0
3858	0.000334386
3870	0.000780234
3882	0.000334386
3894	0.000222924
3906	0
3918	0.00055731
3930	0.000891696
3942	0.00133754
3954	0.000891696
3966	0.000891696
