Infrared Spectrum: Phenol, 2,6-dibromo-4-methyl-
Formula: C 7 H 6 Br 2 O
CAS: 2432-14-6
Origin: Sadtler Research Labs Under US-EPA Contract
1/CM	ABSORBANCE
450	0
462	0.134961
474	0.135113
486	0.125772
498	0.123493
510	0.13124
522	0.129417
534	0.142177
546	0.111113
558	0.207721
570	0.142708
582	0.126683
594	0.121215
606	0.123797
618	0.126151
630	0.122506
642	0.121063
654	0.120303
666	0.122658
678	0.131772
690	0.133442
702	0.152278
714	0.156455
726	0.154404
738	0.386125
750	0.264227
762	0.201948
774	0.238252
786	0.180075
798	0.128278
810	0.123797
822	0.122582
834	0.126759
846	0.203164
858	0.176581
870	0.122885
882	0.121594
894	0.126379
906	0.130253
918	0.121442
930	0.120607
942	0.119772
954	0.122278
966	0.124253
978	0.12767
990	0.135417
1002	0.136784
1014	0.122582
1026	0.121291
1038	0.125999
1050	0.131544
1062	0.138759
1074	0.133442
1086	0.129645
1098	0.139063
1110	0.139974
1122	0.124556
1134	0.126911
1146	0.150987
1158	0.325214
1170	0.481593
1182	0.20005
1194	0.166936
1206	0.200733
1218	0.225113
1230	0.266885
1242	0.257999
1254	0.170506
1266	0.272961
1278	0.388175
1290	0.161999
1302	0.13367
1314	0.243341
1326	0.310252
1338	0.178556
1350	0.132455
1362	0.120759
1374	0.127442
1386	0.152885
1398	0.202556
1410	0.192835
1422	0.161544
1434	0.145974
1446	0.148556
1458	0.195265
1470	0.488124
1482	0.708452
1494	0.190252
1506	0.138455
1518	0.133139
1530	0.131468
1542	0.144227
1554	0.181898
1566	0.200809
1578	0.123797
1590	0.117037
1602	0.11286
1614	0.109215
1626	0.110278
1638	0.111417
1650	0.109063
1662	0.107848
1674	0.107468
1686	0.107696
1698	0.110886
1710	0.109367
1722	0.120075
1734	0.125772
1746	0.112556
1758	0.111645
1770	0.109746
1782	0.106025
1794	0.104734
1806	0.104886
1818	0.105341
1830	0.104886
1842	0.105721
1854	0.104506
1866	0.105417
1878	0.103594
1890	0.104354
1902	0.104278
1914	0.103898
1926	0.103443
1938	0.103443
1950	0.102759
1962	0.10162
1974	0.101544
1986	0.101468
1998	0.101392
2010	0.101848
2022	0.102683
2034	0.103443
2046	0.104354
2058	0.103063
2070	0.101392
2082	0.101012
2094	0.100405
2106	0.100329
2118	0.10086
2130	0.100936
2142	0.10086
2154	0.102075
2166	0.102303
2178	0.10162
2190	0.100784
2202	0.100177
2214	0.100101
2226	0.10124
2238	0.101088
2250	0.101848
2262	0.10124
2274	0.100481
2286	0.10086
2298	0.10162
2310	0.102
2322	0.0998729
2334	0.0999489
2346	0.099797
2358	0.101696
2370	0.10124
2382	0.104126
2394	0.102
2406	0.100784
2418	0.10086
2430	0.101544
2442	0.102303
2454	0.101848
2466	0.102075
2478	0.102835
2490	0.103443
2502	0.102683
2514	0.101772
2526	0.101012
2538	0.100936
2550	0.101012
2562	0.101012
2574	0.10124
2586	0.101696
2598	0.101848
2610	0.102151
2622	0.101848
2634	0.102759
2646	0.102303
2658	0.101164
2670	0.100556
2682	0.100708
2694	0.101316
2706	0.10162
2718	0.102379
2730	0.103139
2742	0.106025
2754	0.106405
2766	0.103215
2778	0.102455
2790	0.102683
2802	0.102759
2814	0.103063
2826	0.104278
2838	0.105113
2850	0.11005
2862	0.121215
2874	0.131088
2886	0.130556
2898	0.129417
2910	0.129873
2922	0.143088
2934	0.17886
2946	0.16443
2958	0.129341
2970	0.119999
2982	0.114455
2994	0.120759
3006	0.123645
3018	0.126303
3030	0.123797
3042	0.118632
3054	0.119164
3066	0.120531
3078	0.113316
3090	0.106101
3102	0.103898
3114	0.103898
3126	0.102835
3138	0.103367
3150	0.103974
3162	0.103822
3174	0.103139
3186	0.103139
3198	0.103215
3210	0.10367
3222	0.104278
3234	0.103898
3246	0.104734
3258	0.104278
3270	0.107772
3282	0.107696
3294	0.106405
3306	0.105569
3318	0.104886
3330	0.105265
3342	0.106253
3354	0.107544
3366	0.106784
3378	0.102835
3390	0.104886
3402	0.106025
3414	0.107468
3426	0.10762
3438	0.105493
3450	0.106405
3462	0.10481
3474	0.105265
3486	0.10443
3498	0.104278
3510	0.105189
3522	0.110886
3534	0.129569
3546	0.422428
3558	0.486225
3570	0.179771
3582	0.114835
3594	0.105265
3606	0.102759
3618	0.102227
3630	0.10162
3642	0.103139
3654	0.10162
3666	0.100936
3678	0.103063
3690	0.101772
3702	0.102835
3714	0.10162
3726	0.10967
3738	0.107696
3750	0.102075
3762	0.103443
3774	0.102455
3786	0.103367
3798	0.103594
3810	0.102987
3822	0.107392
3834	0.10367
3846	0.105417
3858	0.102911
3870	0.102683
3882	0.10367
3894	0.104126
3906	0.100101
3918	0.107012
3930	0.108075
3942	0.10481
3954	0.105797
3966	0.104962
