Infrared Spectrum: Hexanenitrile, 6-amino-
Formula: C 6 H 12 N 2
CAS: 2432-74-8
Origin: Sadtler Research Labs Under US-EPA Contract
1/CM	ABSORBANCE
450	0.0803425
462	0.0047214
474	0.030217
486	0.026912
498	0.0363548
510	0.0217971
522	0.0234496
534	0.0153445
546	0.0197512
558	0.016761
570	0.0152659
582	0.0173118
594	0.016761
606	0.0162888
618	0.0184921
630	0.0184135
642	0.0210102
654	0.0241578
666	0.032499
678	0.031476
690	0.0520141
702	0.0579158
714	0.0912804
726	0.125432
738	0.154232
750	0.230798
762	0.261329
774	0.268176
786	0.206483
798	0.145655
810	0.094428
822	0.0633454
834	0.0542174
846	0.0502042
858	0.0420991
870	0.0413122
882	0.0356466
894	0.0278563
906	0.0259677
918	0.0238431
930	0.0276202
942	0.0245513
954	0.0259677
966	0.0282497
978	0.0229775
990	0.0240791
1002	0.0264398
1014	0.0310825
1026	0.040368
1038	0.0518567
1050	0.0657848
1062	0.0755424
1074	0.0915952
1086	0.0951362
1098	0.0727882
1110	0.0435156
1122	0.0322629
1134	0.0198299
1146	0.0118822
1158	0.00928542
1170	0.00952149
1182	0.0155806
1194	0.0191217
1206	0.016997
1218	0.0155806
1230	0.0160528
1242	0.019279
1254	0.0183348
1266	0.0205381
1278	0.0188069
1290	0.0226627
1302	0.0332859
1314	0.0387942
1326	0.0390302
1338	0.0445385
1350	0.0657848
1362	0.07208
1374	0.0712931
1386	0.0728669
1398	0.0597257
1410	0.034781
1422	0.0489452
1434	0.0925394
1446	0.110796
1458	0.113235
1470	0.09671
1482	0.0565781
1494	0.0244726
1506	0.0118035
1518	0.00645258
1530	0.00440664
1542	0.00660996
1554	0.00582306
1566	0.00857721
1578	0.0128265
1590	0.0176266
1602	0.0409188
1614	0.0668865
1626	0.0847491
1638	0.0597257
1650	0.0373777
1662	0.0195151
1674	0.0233709
1686	0.046191
1698	0.0961592
1710	0.185079
1722	0.16336
1734	0.0358039
1746	0.0107805
1758	0.00755424
1770	0.00598044
1782	0.00519354
1794	0.00574437
1806	0.00613782
1818	0.00535092
1830	0.00527223
1842	0.00330498
1854	0.00503616
1866	0.0047214
1878	0.00283284
1890	0.00291153
1902	0.00228201
1914	0.0023607
1926	0.00338367
1938	0.00243939
1950	0.00283284
1962	0.00330498
1974	0.00338367
1986	0.00322629
1998	0.00346236
2010	0.00346236
2022	0.00354105
2034	0.00432795
2046	0.00409188
2058	0.00354105
2070	0.00369843
2082	0.00322629
2094	0.00299022
2106	0.00330498
2118	0.00283284
2130	0.00275415
2142	0.00243939
2154	0.00275415
2166	0.00275415
2178	0.00275415
2190	0.00251808
2202	0.00267546
2214	0.0023607
2226	0.00306891
2238	0.0070821
2250	0.0160528
2262	0.0144003
2274	0.00503616
2286	0.0031476
2298	0.00196725
2310	0.00165249
2322	0.00243939
2334	0.00212463
2346	0.00251808
2358	0.00259677
2370	0.00141642
2382	0.00180987
2394	0.0015738
2406	0.00204594
2418	0.00251808
2430	0.00220332
2442	0.00212463
2454	0.00212463
2466	0.00188856
2478	0.00204594
2490	0.00212463
2502	0.00243939
2514	0.00251808
2526	0.00306891
2538	0.00354105
2550	0.00361974
2562	0.0039345
2574	0.00401319
2586	0.0047214
2598	0.00590175
2610	0.00668865
2622	0.00763293
2634	0.00841983
2646	0.010151
2658	0.0115674
2670	0.0132199
2682	0.0159741
2694	0.0177052
2706	0.0188856
2718	0.0188069
2730	0.0225053
2742	0.0252595
2754	0.0283284
2766	0.0294301
2778	0.0303743
2790	0.0317121
2802	0.0376925
2814	0.0475288
2826	0.0689324
2838	0.12016
2850	0.22348
2862	0.341121
2874	0.36583
2886	0.285959
2898	0.234575
2910	0.309094
2922	0.49795
2934	0.718912
2946	0.759122
2958	0.558069
2970	0.304845
2982	0.129524
2994	0.0547682
3006	0.0292727
3018	0.0193577
3030	0.0141642
3042	0.0113314
3054	0.00849852
3066	0.00802638
3078	0.0070821
3090	0.00621651
3102	0.00527223
3114	0.0047214
3126	0.0055083
3138	0.00464271
3150	0.00511485
3162	0.00464271
3174	0.00417057
3186	0.00487878
3198	0.00487878
3210	0.0031476
3222	0.00417057
3234	0.00424926
3246	0.00299022
3258	0.00275415
3270	0.00283284
3282	0.00188856
3294	0.00220332
3306	0.00322629
3318	0.00330498
3330	0.00361974
3342	0.00818376
3354	0.00857721
3366	0.00621651
3378	0.00338367
3390	0.00401319
3402	0.00676734
3414	0.00810507
3426	0.0104658
3438	0.0125117
3450	0.0128265
3462	0.00849852
3474	0.00432795
3486	0.00251808
3498	0.00267546
3510	0.00291153
3522	0.00283284
3534	0.00267546
3546	0.00275415
3558	0.00133773
3570	0.00291153
3582	0.00322629
3594	0.00535092
3606	0.0023607
3618	0.00385581
3630	0.0062952
3642	0.00645258
3654	0.0122756
3666	0.00904935
3678	0.0118822
3690	0.0070821
3702	0.00283284
3714	0.0039345
3726	0.00110166
3738	0.00361974
3750	0.00456402
3762	0.00110166
3774	0.00409188
3786	0.00110166
3798	0.00188856
3810	0.00118035
3822	0.00653127
3834	0.00259677
3846	0.00259677
3858	0.0055083
3870	0.00535092
3882	0.00212463
3894	0.0023607
3906	0.0070821
3918	0.00267546
3930	0.00369843
3942	0.00259677
3954	0.00566568
3966	0.00306891
