Infrared Spectrum: Cyclohexanemethanol, 2-hydroxy-.alpha.-methyl-,
Formula: C 8 H 16 O 2
CAS: 24337-52-8
Origin: Sadtler Research Labs Under US-EPA Contract
1/CM	ABSORBANCE
450	0
462	0.0323099
474	0.0552933
486	0.0608726
498	0.0468827
510	0.05521
522	0.0464663
534	0.0417198
546	0.0448009
558	0.0413034
570	0.0319768
582	0.0376394
594	0.0339754
606	0.038139
618	0.0378892
630	0.0419696
642	0.0398878
654	0.040554
666	0.04605
678	0.0464663
690	0.0412201
702	0.038139
714	0.0426358
726	0.0407205
738	0.0328928
750	0.0474656
762	0.0474656
774	0.0398878
786	0.0428023
798	0.0466329
810	0.0591238
822	0.0662853
834	0.0622049
846	0.0583744
858	0.0528784
870	0.0619551
882	0.0738632
894	0.0794424
906	0.0673679
918	0.0729471
930	0.104757
942	0.0990116
954	0.0940985
966	0.153389
978	0.153139
990	0.103508
1002	0.101843
1014	0.102259
1026	0.104424
1038	0.118581
1050	0.118831
1062	0.1145
1074	0.11908
1086	0.136484
1098	0.157802
1110	0.172625
1122	0.179453
1134	0.179287
1146	0.144229
1158	0.106923
1170	0.0983454
1182	0.118331
1194	0.130239
1206	0.111003
1218	0.101593
1230	0.109254
1242	0.119497
1254	0.124576
1266	0.120996
1278	0.11933
1290	0.109587
1302	0.101593
1314	0.0970963
1326	0.0948479
1338	0.0990949
1350	0.0969298
1362	0.104591
1374	0.136651
1386	0.155304
1398	0.131655
1410	0.120746
1422	0.0970963
1434	0.0907676
1446	0.12466
1458	0.126825
1470	0.0826068
1482	0.0543773
1494	0.0447176
1506	0.0418863
1518	0.0400543
1530	0.037223
1542	0.0358907
1554	0.0376394
1566	0.0359739
1578	0.0345583
1590	0.0387219
1602	0.0382223
1614	0.0353078
1626	0.0373896
1638	0.0346416
1650	0.0332259
1662	0.0362238
1674	0.0337256
1686	0.0343085
1698	0.0347248
1710	0.0389718
1722	0.0413034
1734	0.0398878
1746	0.0392216
1758	0.0395547
1770	0.0367234
1782	0.0370565
1794	0.0329761
1806	0.0348914
1818	0.035391
1830	0.0328096
1842	0.0336423
1854	0.0338088
1866	0.033559
1878	0.0328928
1890	0.0329761
1902	0.0330594
1914	0.0337256
1926	0.0337256
1938	0.0337256
1950	0.033559
1962	0.0330594
1974	0.0325597
1986	0.0321434
1998	0.0319768
2010	0.0318936
2022	0.0316437
2034	0.0314772
2046	0.0319768
2058	0.0316437
2070	0.0318103
2082	0.0314772
2094	0.0313939
2106	0.0314772
2118	0.031727
2130	0.0315605
2142	0.0313939
2154	0.0318936
2166	0.0318103
2178	0.0318936
2190	0.0321434
2202	0.031727
2214	0.0318103
2226	0.0318936
2238	0.0318103
2250	0.0318103
2262	0.0315605
2274	0.0318103
2286	0.0323932
2298	0.0323099
2310	0.0315605
2322	0.030811
2334	0.0293954
2346	0.0295619
2358	0.0300616
2370	0.0314772
2382	0.0329761
2394	0.0327263
2406	0.0323932
2418	0.0329761
2430	0.0323099
2442	0.0320601
2454	0.031727
2466	0.0322267
2478	0.032643
2490	0.032643
2502	0.032643
2514	0.0329761
2526	0.0330594
2538	0.0336423
2550	0.0337256
2562	0.0343085
2574	0.0348081
2586	0.0352245
2598	0.0359739
2610	0.037223
2622	0.0380558
2634	0.0395547
2646	0.0418863
2658	0.0454671
2670	0.047882
2682	0.0463831
2694	0.0438849
2706	0.0428856
2718	0.0419696
2730	0.0420529
2742	0.0417198
2754	0.0424692
2766	0.0443012
2778	0.0466329
2790	0.0496307
2802	0.0527951
2814	0.0567922
2826	0.0624548
2838	0.0807748
2850	0.152223
2862	0.279464
2874	0.321767
2886	0.281629
2898	0.256564
2910	0.294537
2922	0.403791
2934	0.665851
2946	0.7816
2958	0.371647
2970	0.201021
2982	0.20277
2994	0.116915
3006	0.0527951
3018	0.041803
3030	0.0393049
3042	0.0385554
3054	0.0368899
3066	0.0353078
3078	0.0343917
3090	0.0346416
3102	0.0343917
3114	0.0336423
3126	0.0329761
3138	0.0322267
3150	0.0330594
3162	0.0325597
3174	0.0323099
3186	0.033559
3198	0.0327263
3210	0.0328928
3222	0.0328928
3234	0.0318103
3246	0.0314772
3258	0.0314772
3270	0.031727
3282	0.0313939
3294	0.0310608
3306	0.0318936
3318	0.0319768
3330	0.0324765
3342	0.0315605
3354	0.031727
3366	0.0314772
3378	0.0315605
3390	0.0321434
3402	0.0330594
3414	0.0333092
3426	0.0347248
3438	0.0343085
3450	0.0350579
3462	0.0356408
3474	0.0353078
3486	0.0345583
3498	0.0366401
3510	0.0378059
3522	0.0373896
3534	0.0382223
3546	0.043302
3558	0.0658689
3570	0.125326
3582	0.169127
3594	0.129573
3606	0.0810246
3618	0.0590406
3630	0.0558762
3642	0.0757784
3654	0.0943483
3666	0.0756952
3678	0.042386
3690	0.0314772
3702	0.0361405
3714	0.0337256
3726	0.034475
3738	0.0321434
3750	0.0329761
3762	0.0339754
3774	0.032643
3786	0.0348081
3798	0.0336423
3810	0.0394714
3822	0.0303114
3834	0.0333925
3846	0.0376394
3858	0.0358907
3870	0.0374729
3882	0.0380558
3894	0.0352245
3906	0.0355576
3918	0.0384721
3930	0.0364736
3942	0.0348914
3954	0.036307
3966	0.0331427
