Infrared Spectrum: 1,1'-Biphenyl, 2,2'-dinitro-
Formula: C 12 H 8 N 2 O 4
CAS: 2436-96-6
Origin: Sadtler Research Labs Under US-EPA Contract
1/CM	ABSORBANCE
450	0.0685497
462	0.00694607
474	0.0121841
486	0.00079709
498	0.0144615
510	0.0243682
522	0.0391713
534	0.0462312
546	0.0211798
558	0.0220908
570	0.049078
582	0.0474838
594	0.0259624
606	0.0255069
618	0.0460035
630	0.0278982
642	0.0462312
654	0.0727629
666	0.0699162
678	0.159987
690	0.150878
702	0.18185
714	0.0756097
726	0.101344
738	0.215556
750	0.429404
762	0.17331
774	0.150422
786	0.219541
798	0.0210659
810	0.0127534
822	0.0309726
834	0.0473699
846	0.190618
858	0.275907
870	0.0314281
882	0.0142337
894	0.00990669
906	0.0091096
918	0.0045548
930	0.00580737
942	0.014006
954	0.0389435
966	0.0121841
978	0.00967895
990	0.0144615
1002	0.0396268
1014	0.0257346
1026	0.0111593
1038	0.016625
1050	0.0198134
1062	0.0165112
1074	0.0156002
1086	0.0266456
1098	0.0548853
1110	0.0245959
1122	0.0101344
1134	0.0138921
1146	0.0299478
1158	0.0239127
1170	0.0275565
1182	0.0137783
1194	0.00967895
1206	0.00876799
1218	0.0111593
1230	0.0179915
1242	0.0333639
1254	0.0474838
1266	0.0592124
1278	0.0791397
1290	0.122069
1302	0.111023
1314	0.109657
1326	0.168869
1338	0.402075
1350	0.819522
1362	0.421205
1374	0.0828974
1386	0.0343887
1398	0.0247098
1410	0.0178776
1422	0.0167389
1434	0.04384
1446	0.0523802
1458	0.0631978
1470	0.113984
1482	0.131292
1494	0.180142
1506	0.270669
1518	0.508202
1530	0.796179
1542	1.1387
1554	0.636306
1566	0.368028
1578	0.255183
1590	0.145412
1602	0.221363
1614	0.150878
1626	0.0497612
1638	0.0174221
1650	0.00842638
1662	0.0169666
1674	0.00774316
1686	0.00592124
1698	0.00489641
1710	0.00740155
1722	0.0107038
1734	0.0174221
1746	0.0173082
1758	0.0161695
1770	0.0130951
1782	0.0135505
1794	0.0108176
1806	0.0162834
1818	0.0267595
1830	0.0225463
1842	0.0184469
1854	0.0173082
1866	0.0115009
1878	0.0111593
1890	0.0108176
1902	0.0150308
1914	0.0153725
1926	0.0228879
1938	0.025393
1950	0.0184469
1962	0.0242543
1974	0.0157141
1986	0.0110454
1998	0.00888186
2010	0.00762929
2022	0.00728768
2034	0.00603511
2046	0.00535189
2058	0.00478254
2070	0.00466867
2082	0.00466867
2094	0.00409932
2106	0.00409932
2118	0.00501028
2130	0.00421319
2142	0.00444093
2154	0.00432706
2166	0.00398545
2178	0.00444093
2190	0.00512415
2202	0.00421319
2214	0.00375771
2226	0.0045548
2238	0.00466867
2250	0.00466867
2262	0.00409932
2274	0.00444093
2286	0.00626285
2298	0.00888186
2310	0.0118425
2322	0.0103622
2334	0.0091096
2346	0.0079709
2358	0.0091096
2370	0.00945121
2382	0.0109315
2394	0.00728768
2406	0.00489641
2418	0.0045548
2430	0.00466867
2442	0.0045548
2454	0.00352997
2466	0.00182192
2478	0.00216353
2490	0.00330223
2502	0.00273288
2514	0.00068322
2526	0.00045548
2538	0.00034161
2550	0.00045548
2562	0.00102483
2574	0.00239127
2586	0.00409932
2598	0.00352997
2610	0.00364384
2622	0.00296062
2634	0.0022774
2646	0.00239127
2658	0.00296062
2670	0.00387158
2682	0.00512415
2694	0.00603511
2706	0.0045548
2718	0.00296062
2730	0.00159418
2742	0.00182192
2754	0.00182192
2766	0.00148031
2778	0.00182192
2790	0.00307449
2802	0.00307449
2814	0.0045548
2826	0.00717381
2838	0.0119564
2850	0.0186747
2862	0.0261901
2874	0.0265317
2886	0.0234572
2898	0.0148031
2910	0.0108176
2922	0.00876799
2934	0.00523802
2946	0.00330223
2958	0.00239127
2970	0.00239127
2982	0.0022774
2994	0.00421319
3006	0.00512415
3018	0.00694607
3030	0.0124118
3042	0.0186747
3054	0.0273288
3066	0.0638811
3078	0.101344
3090	0.0497612
3102	0.0178776
3114	0.0120702
3126	0.00762929
3138	0.00603511
3150	0.00671833
3162	0.00466867
3174	0.00421319
3186	0.00432706
3198	0.00409932
3210	0.00398545
3222	0.00364384
3234	0.0034161
3246	0.00273288
3258	0.00284675
3270	0.0034161
3282	0.00273288
3294	0.00296062
3306	0.00387158
3318	0.00250514
3330	0.00444093
3342	0.00261901
3354	0.00375771
3366	0.0034161
3378	0.00330223
3390	0.00432706
3402	0.0034161
3414	0.00421319
3426	0.00421319
3438	0.00501028
3450	0.00466867
3462	0.00546576
3474	0.00364384
3486	0.00546576
3498	0.00444093
3510	0.00523802
3522	0.00444093
3534	0.00432706
3546	0.00637672
3558	0.00660446
3570	0.00535189
3582	0.00557963
3594	0.00523802
3606	0.00444093
3618	0.00421319
3630	0.0022774
3642	0.00694607
3654	0.00318836
3666	0.00375771
3678	0.0045548
3690	0.00478254
3702	0.00352997
3714	0.0034161
3726	0.0068322
3738	0.00649059
3750	0.00068322
3762	0.00512415
3774	0.00421319
3786	0.0056935
3798	0.00170805
3810	0.00159418
3822	0.00193579
3834	0.0034161
3846	0.00318836
3858	0.00239127
3870	0.00045548
3882	0.00307449
3894	0.00535189
3906	0.00523802
3918	0.0045548
3930	0.00705994
3942	0.00375771
3954	0.00387158
3966	0.00330223
