Infrared Spectrum: 1-Tridecene
Formula: C 13 H 26
CAS: 2437-56-1
Origin: Sadtler Research Labs Under US-EPA Contract
1/CM	ABSORBANCE
450	0.00322072
462	0.00094727
474	0.000568362
486	0.00312599
498	0.00217872
510	0.00284181
522	0.00331545
534	0.00322072
546	0.00378908
558	0.00511526
570	0.00369435
582	0.00293654
594	0.00445217
606	0.00435744
618	0.00994634
630	0.0109883
642	0.00776761
654	0.00407326
666	0.00606253
678	0.00653616
690	0.00615726
702	0.00928325
714	0.0137354
726	0.0151563
738	0.011462
750	0.00776761
762	0.00729398
774	0.00786234
786	0.0059678
798	0.00473635
810	0.00530471
822	0.00520999
834	0.00530471
846	0.00719925
858	0.00852543
870	0.0103252
882	0.0129776
894	0.0218819
906	0.0585413
918	0.0723714
930	0.024629
942	0.0169561
954	0.0146827
966	0.0150616
978	0.0185665
990	0.0336281
1002	0.0260499
1014	0.015251
1026	0.0094727
1038	0.01042
1050	0.00738871
1062	0.00719925
1074	0.00814652
1086	0.00738871
1098	0.00776761
1110	0.00729398
1122	0.00795707
1134	0.00719925
1146	0.00719925
1158	0.00587307
1170	0.00776761
1182	0.00577835
1194	0.00577835
1206	0.00483108
1218	0.00568362
1230	0.00568362
1242	0.00682034
1254	0.00710453
1266	0.00862016
1278	0.00937797
1290	0.0108936
1302	0.0143038
1314	0.0134512
1326	0.0118409
1338	0.0151563
1350	0.0227345
1362	0.0216925
1374	0.0196085
1386	0.0184718
1398	0.0106094
1410	0.0110831
1422	0.0147774
1434	0.0193243
1446	0.042343
1458	0.0627093
1470	0.0587307
1482	0.0214083
1494	0.0080518
1506	0.00634671
1518	0.00426272
1530	0.00322072
1542	0.00435744
1554	0.00274708
1566	0.00284181
1578	0.00322072
1590	0.00227345
1602	0.00274708
1614	0.0045469
1626	0.00956743
1638	0.0265236
1650	0.0264288
1662	0.00634671
1674	0.00359963
1686	0.00359963
1698	0.00359963
1710	0.00511526
1722	0.0049258
1734	0.00435744
1746	0.0049258
1758	0.00549417
1770	0.00558889
1782	0.00587307
1794	0.00407326
1806	0.0035049
1818	0.0045469
1830	0.00862016
1842	0.00378908
1854	0.00142091
1866	0.00142091
1878	0.000757816
1890	0.000852543
1902	0.000852543
1914	0.000378908
1926	0.000378908
1938	0.000378908
1950	0.000284181
1962	0.000757816
1974	0.00132618
1986	0.00113672
1998	0.000663089
2010	0.000852543
2022	0.000568362
2034	0.00123145
2046	0.001042
2058	0.000568362
2070	0.000568362
2082	0.000663089
2094	0.000568362
2106	0.000284181
2118	0
2130	0
2142	0.000473635
2154	0.000568362
2166	0.000378908
2178	0.000473635
2190	0
2202	0
2214	0.000378908
2226	0.000378908
2238	0.000473635
2250	0.000378908
2262	0.001042
2274	0.000568362
2286	0.000568362
2298	0.00094727
2310	0.00094727
2322	0.00198927
2334	0.00217872
2346	0.0024629
2358	0.00388381
2370	0.00274708
2382	0.001042
2394	0.000568362
2406	0.000473635
2418	0.001042
2430	0.00113672
2442	0.00094727
2454	0.000663089
2466	0.000568362
2478	0.000568362
2490	0.00123145
2502	0.00113672
2514	0.00161036
2526	0.00161036
2538	0.00217872
2550	0.00198927
2562	0.00161036
2574	0.00208399
2586	0.00265236
2598	0.00322072
2610	0.00322072
2622	0.00369435
2634	0.00435744
2646	0.00511526
2658	0.00568362
2670	0.00710453
2682	0.00757816
2694	0.00710453
2706	0.00672562
2718	0.00625198
2730	0.00615726
2742	0.00767289
2754	0.00738871
2766	0.0080518
2778	0.00909379
2790	0.0111778
2802	0.0157247
2814	0.0201769
2826	0.0292706
2838	0.047174
2850	0.115662
2862	0.338933
2874	0.260026
2886	0.163783
2898	0.1545
2910	0.251405
2922	0.486992
2934	0.94727
2946	0.53445
2958	0.241459
2970	0.255952
2982	0.119735
2994	0.0682034
3006	0.0527629
3018	0.035049
3030	0.0222608
3042	0.0179034
3054	0.0171456
3066	0.0208399
3078	0.0326808
3090	0.0537102
3102	0.0161036
3114	0.00738871
3126	0.0059678
3138	0.00511526
3150	0.00388381
3162	0.0035049
3174	0.00369435
3186	0.00284181
3198	0.00236818
3210	0.00217872
3222	0.00113672
3234	0.00132618
3246	0.00113672
3258	0.000663089
3270	0.000189454
3282	0.000663089
3294	0.000663089
3306	0.000473635
3318	0.000852543
3330	0.000852543
3342	0.000189454
3354	0.000757816
3366	0.000852543
3378	0.000852543
3390	0.000852543
3402	0.00113672
3414	0.000757816
3426	0.00094727
3438	0.00132618
3450	0.000757816
3462	0.000852543
3474	0.00094727
3486	0.00142091
3498	0.000852543
3510	0.00123145
3522	0.00094727
3534	0.00123145
3546	0.000473635
3558	0.000568362
3570	0.00179981
3582	0.00284181
3594	0.00142091
3606	0.00151563
3618	0.00179981
3630	0.00132618
3642	0.00208399
3654	0.00198927
3666	0.00094727
3678	0.00208399
3690	0.00208399
3702	0.001042
3714	0.00151563
3726	0.00161036
3738	0.00113672
3750	0.00198927
3762	0.000568362
3774	0.000568362
3786	0.000663089
3798	0.000284181
3810	0.00123145
3822	0.000568362
3834	0.00113672
3846	0.00094727
3858	0.00123145
3870	0.000663089
3882	0.00161036
3894	0.00151563
3906	0.00151563
3918	0.00123145
3930	0.000757816
3942	0.00170509
3954	0
3966	0
