Infrared Spectrum: 1-Octadecanamine, N-methyl-
Formula: C 19 H 41 N
CAS: 2439-55-6
Origin: Sadtler Research Labs Under US-EPA Contract
1/CM	ABSORBANCE
450	0.00902594
462	0.00382621
474	0
486	0.00686756
498	0.00745621
510	0.00451297
522	0.00765242
534	0.00686756
546	0.0073581
558	0.00775053
570	0.0061808
582	0.00578837
594	0.0073581
606	0.00559216
618	0.00932026
630	0.00873161
642	0.0098108
654	0.0111843
666	0.0148143
678	0.0193273
690	0.0269797
702	0.0340435
714	0.0485635
726	0.0472881
738	0.0344359
750	0.0218781
762	0.0184443
774	0.0153048
786	0.0138332
798	0.013637
810	0.0138332
822	0.0120673
834	0.0103013
846	0.00814296
858	0.0073581
870	0.00784864
882	0.0085354
894	0.00794675
906	0.0085354
918	0.00745621
930	0.00922215
942	0.00843729
954	0.00833918
966	0.0109881
978	0.00922215
990	0.00961458
1002	0.0107919
1014	0.0129503
1026	0.0152067
1038	0.0170708
1050	0.0175613
1062	0.0173651
1074	0.0173651
1086	0.0182481
1098	0.0210932
1110	0.0250175
1122	0.0343378
1134	0.0370848
1146	0.0380659
1158	0.0315908
1170	0.0211913
1182	0.0153048
1194	0.013637
1206	0.0130484
1218	0.0134408
1230	0.0143238
1242	0.0155011
1254	0.0173651
1266	0.0207008
1278	0.0213875
1290	0.0237421
1302	0.027274
1314	0.0268816
1326	0.0250175
1338	0.0306097
1350	0.0414997
1362	0.0483672
1374	0.0438543
1386	0.0329643
1398	0.0240365
1410	0.0257043
1422	0.0310021
1434	0.048171
1446	0.0859426
1458	0.124009
1470	0.109685
1482	0.0466013
1494	0.0273721
1506	0.0232516
1518	0.0171689
1530	0.0167765
1542	0.0204065
1554	0.0173651
1566	0.0162859
1578	0.0171689
1590	0.0169727
1602	0.0155992
1614	0.0139313
1626	0.0144219
1638	0.0141276
1650	0.013637
1662	0.00912404
1674	0.00971269
1686	0.0123616
1698	0.00932026
1710	0.00529783
1722	0.00470918
1734	0.00196216
1746	0.000196216
1758	0.00255081
1770	0.00657324
1782	0.00510162
1794	0.00412054
1806	0.00647513
1818	0.00657324
1830	0.00627891
1842	0.00627891
1854	0.0060827
1866	0.00559216
1878	0.00549405
1890	0.00539594
1902	0.00510162
1914	0.00451297
1926	0.00451297
1938	0.00402243
1950	0.00392432
1962	0.00343378
1974	0.00343378
1986	0.00353189
1998	0.00294324
2010	0.00363
2022	0.0037281
2034	0.0037281
2046	0.00323756
2058	0.00294324
2070	0.00284513
2082	0.00206027
2094	0.00186405
2106	0.00156973
2118	0.00137351
2130	0.0011773
2142	0.00098108
2154	0.000882972
2166	0.00107919
2178	0.000882972
2190	0.000588648
2202	0.000686756
2214	0.000392432
2226	0.000196216
2238	0.000588648
2250	0.000882972
2262	0.00098108
2274	0.00196216
2286	0.00392432
2298	0.00716188
2310	0.0104976
2322	0.00961458
2334	0.00627891
2346	0.00941837
2358	0.00912404
2370	0.00755432
2382	0.0103994
2394	0.00559216
2406	0.00627891
2418	0.00627891
2430	0.0061808
2442	0.00559216
2454	0.00569026
2466	0.00569026
2478	0.00578837
2490	0.00598459
2502	0.00637702
2514	0.00716188
2526	0.00775053
2538	0.0085354
2550	0.00882972
2562	0.00951648
2574	0.0111843
2586	0.0120673
2598	0.0138332
2610	0.0149124
2622	0.0159916
2634	0.0179538
2646	0.0201121
2658	0.0229573
2670	0.0256062
2682	0.0286475
2694	0.0304135
2706	0.0308059
2718	0.0325719
2730	0.0347302
2742	0.0382621
2754	0.0456202
2766	0.0665172
2778	0.0843729
2790	0.111843
2802	0.114884
2814	0.107723
2826	0.112432
2838	0.142747
2850	0.304822
2862	0.4615
2874	0.289713
2886	0.231044
2898	0.284611
2910	0.422159
2922	0.728452
2934	0.977941
2946	0.528115
2958	0.292656
2970	0.219958
2982	0.115375
2994	0.0611213
3006	0.0408129
3018	0.0306097
3030	0.0242327
3042	0.020014
3054	0.016384
3066	0.0133427
3078	0.0121654
3090	0.0101051
3102	0.00824107
3114	0.00745621
3126	0.0060827
3138	0.00529783
3150	0.0049054
3162	0.00480729
3174	0.00431675
3186	0.00382621
3198	0.00284513
3210	0.00284513
3222	0.00156973
3234	0.00147162
3246	0.00166784
3258	0.0012754
3270	0.00137351
3282	0.00137351
3294	0.00098108
3306	0.00107919
3318	0.00156973
3330	0.00186405
3342	0.00137351
3354	0.00137351
3366	0.0011773
3378	0.0011773
3390	0.00156973
3402	0.00107919
3414	0.000392432
3426	0.00107919
3438	0.0011773
3450	0.00107919
3462	0.000588648
3474	0.000784864
3486	0.000686756
3498	0.00049054
3510	0.00098108
3522	0.000686756
3534	0.00049054
3546	0.00049054
3558	0.0011773
3570	0.00147162
3582	0.000686756
3594	0.00225648
3606	0.00215838
3618	0.00176594
3630	0.00402243
3642	0.0024527
3654	0.00255081
3666	0.00206027
3678	0.00313946
3690	0.00235459
3702	0.00274702
3714	0.00255081
3726	0.00166784
3738	0.00353189
3750	0.00156973
3762	0.000882972
3774	0.00206027
3786	0.00196216
3798	0.00353189
3810	0.0011773
3822	0.00255081
3834	0.00255081
3846	0.00215838
3858	0.00294324
3870	0.00196216
3882	0.00196216
3894	0.00382621
3906	0.00156973
3918	0.00264892
3930	0.00304135
3942	0.00294324
3954	0.00412054
3966	0.00147162
