Infrared Spectrum: Dibenzotellurophene
Formula: C 12 H 8 Te
CAS: 244-98-4
Origin: Sadtler Research Labs Under US-EPA Contract
1/CM	ABSORBANCE
450	0.00906358
462	0.00899694
474	0.0205264
486	0.0016661
498	0.000799728
510	0.00399864
522	0.003932
534	0.0060646
546	0.00353213
558	0.00486501
570	0.00406528
582	0.00579803
594	0.00646447
606	0.0077307
618	0.0243251
630	0.00626454
642	0.00713091
654	0.0280571
666	0.0242584
678	0.0119293
690	0.0135954
702	0.0179272
714	0.0234587
726	0.141085
738	0.66644
750	0.121959
762	0.00386535
774	0.00759742
786	0.00173274
798	0.00319891
810	0.0066644
822	0.0107963
834	0.00779735
846	0.00873036
858	0.0125957
870	0.00806392
882	0.0066644
894	0.003932
906	0.00399864
918	0.00619789
930	0.0147283
942	0.00959674
954	0.00759742
966	0.0105298
978	0.00959674
990	0.0109296
1002	0.0293234
1014	0.113561
1026	0.116094
1038	0.0617123
1050	0.0217926
1062	0.00619789
1074	0.0066644
1086	0.00813057
1098	0.00826386
1110	0.013862
1122	0.0134621
1134	0.0125957
1146	0.00973002
1158	0.0274573
1170	0.0125291
1182	0.00466508
1194	0.00299898
1206	0.00766406
1218	0.0113295
1230	0.0695763
1242	0.0364543
1254	0.0143951
1266	0.0188603
1278	0.0250581
1290	0.018527
1302	0.0123958
1314	0.00766406
1326	0.0103965
1338	0.00579803
1350	0.0060646
1362	0.00553145
1374	0.00859708
1386	0.0159946
1398	0.026391
1410	0.0641115
1422	0.132755
1434	0.11776
1446	0.0434519
1458	0.100566
1470	0.0167276
1482	0.00253247
1494	0.00179939
1506	0.00533152
1518	0.00253247
1530	0.00139952
1542	0.000733084
1554	0.017594
1566	0.0236586
1578	0.0289235
1590	0.0257912
1602	0.00919687
1614	0.00693098
1626	0.00506494
1638	0.00319891
1650	0.00146617
1662	0.00553145
1674	0.00966338
1686	0.00399864
1698	0.00779735
1710	0.0104631
1722	0.00446515
1734	0.00366542
1746	0.00526488
1758	0.0033322
1770	0.00766406
1782	0.0173941
1794	0.00506494
1806	0.00799728
1818	0.0151948
1830	0.00379871
1842	0.00179939
1854	0.00346549
1866	0.0113961
1878	0.00459844
1890	0.00926352
1902	0.0187936
1914	0.00573138
1926	0.0109963
1938	0.0193268
1950	0.00433186
1962	0.00186603
1974	0.00126624
1986	0.000866372
1998	0.00066644
2010	0.000866372
2022	0.000733084
2034	0.000733084
2046	0.000733084
2058	0.000799728
2070	0.000799728
2082	0.00099966
2094	0.000399864
2106	0.000533152
2118	0.000599796
2130	0.000199932
2142	0.000133288
2154	0.000399864
2166	0.00033322
2178	0.000533152
2190	0.000399864
2202	0.00033322
2214	0.000466508
2226	0.00033322
2238	0.000799728
2250	0.00153281
2262	0.00199932
2274	0.00306562
2286	0.00526488
2298	0.00706426
2310	0.0100632
2322	0.0117293
2334	0.00793064
2346	0.0110629
2358	0.00819721
2370	0.00873036
2382	0.00633118
2394	0.00159946
2406	0.00126624
2418	0.0016661
2430	0.00153281
2442	0.00173274
2454	0.00206596
2466	0.00193268
2478	0.00186603
2490	0.00213261
2502	0.00199932
2514	0.00239918
2526	0.00279905
2538	0.00373206
2550	0.0033322
2562	0.00433186
2574	0.00599796
2586	0.00653111
2598	0.00553145
2610	0.00426522
2622	0.00359878
2634	0.0027324
2646	0.00233254
2658	0.00253247
2670	0.00219925
2682	0.00286569
2694	0.00266576
2706	0.00313227
2718	0.00326556
2730	0.00339884
2742	0.00366542
2754	0.00293234
2766	0.00279905
2778	0.00299898
2790	0.0033322
2802	0.00406528
2814	0.00473172
2826	0.00533152
2838	0.00686433
2850	0.0104631
2862	0.010863
2874	0.0118626
2886	0.0114628
2898	0.0120626
2910	0.0142618
2922	0.0193268
2934	0.0200598
2946	0.017594
2958	0.0168609
2970	0.0171942
2982	0.0177939
2994	0.0222591
3006	0.0301231
3018	0.0300564
3030	0.0299898
3042	0.0449847
3054	0.0923686
3066	0.201531
3078	0.154014
3090	0.0316559
3102	0.01946
3114	0.0230588
3126	0.0126624
3138	0.0049983
3150	0.00433186
3162	0.00466508
3174	0.00413193
3186	0.0033322
3198	0.00246583
3210	0.00186603
3222	0.00179939
3234	0.00199932
3246	0.00193268
3258	0.00206596
3270	0.00133288
3282	0.00119959
3294	0.00133288
3306	0.00139952
3318	0.0016661
3330	0.00173274
3342	0.00139952
3354	0.000933016
3366	0.00126624
3378	0.00113295
3390	0.00139952
3402	0.000599796
3414	0.00153281
3426	0.000799728
3438	0.00119959
3450	0.0010663
3462	0.00126624
3474	0.000866372
3486	0.00146617
3498	0.00113295
3510	0.00126624
3522	0.00146617
3534	0.000866372
3546	0.0027324
3558	0.00179939
3570	0.00299898
3582	0.00126624
3594	0.0022659
3606	0.00206596
3618	0.00119959
3630	0.00406528
3642	0.00186603
3654	0.00186603
3666	0.00153281
3678	0.00386535
3690	0.00146617
3702	0.00213261
3714	0.00353213
3726	0.00473172
3738	0.00486501
3750	0.000733084
3762	0.00179939
3774	0.00266576
3786	0.00119959
3798	0.00113295
3810	0.00173274
3822	0.0033322
3834	0.00126624
3846	0.00119959
3858	0.00139952
3870	0.00146617
3882	0.0027324
3894	0.00173274
3906	0.00293234
3918	0.00253247
3930	0.00219925
3942	0.00213261
3954	0.00126624
3966	0.00319891
