Infrared Spectrum: 2H-1-Benzopyran-2-one, 3-methyl-
Formula: C 10 H 8 O 2
CAS: 2445-82-1
Origin: Sadtler Research Labs Under US-EPA Contract
1/CM	ABSORBANCE
450	0.0311947
462	0.00452097
474	0.0159741
486	0.00934334
498	0.00738425
510	0.00994613
522	0.0100968
534	0.0105489
546	0.0108503
558	0.0149192
570	0.0283314
582	0.00738425
594	0.00904194
606	0.0334552
618	0.0197416
630	0.00542516
642	0.00663076
654	0.00648006
666	0.00497307
678	0.00768565
690	0.00437027
702	0.00648006
714	0.0272765
726	0.0693215
738	0.0978037
750	0.24579
762	0.121765
774	0.0176318
786	0.00602796
798	0.00678145
810	0.00180839
822	0.00180839
834	0.0105489
846	0.0345101
858	0.0275779
870	0.00964474
882	0.00949404
894	0.0275779
906	0.0557586
918	0.0553065
930	0.0411408
942	0.0311947
954	0.0149192
966	0.0116038
978	0.0227555
990	0.0739932
1002	0.143315
1014	0.0595261
1026	0.0320989
1038	0.0767058
1050	0.204348
1062	0.333949
1074	0.14874
1086	0.0218514
1098	0.0159741
1110	0.029537
1122	0.0521419
1134	0.0354143
1146	0.0334552
1158	0.0281807
1170	0.132615
1182	0.167125
1194	0.0269751
1206	0.0244132
1218	0.0438534
1230	0.0907208
1242	0.0735411
1254	0.0537995
1266	0.0137136
1278	0.0418943
1290	0.0687187
1302	0.0400859
1314	0.0421957
1326	0.0426478
1338	0.0224542
1350	0.0162755
1362	0.0397845
1374	0.0396338
1386	0.0188374
1398	0.0179332
1410	0.0123573
1422	0.0238104
1434	0.0406887
1446	0.0753495
1458	0.138794
1470	0.0607317
1482	0.0423464
1494	0.0485251
1506	0.0317975
1518	0.0257695
1530	0.0220021
1542	0.0269751
1554	0.0153713
1566	0.0182346
1578	0.0308933
1590	0.0452097
1602	0.0779114
1614	0.136081
1626	0.0788156
1638	0.0735411
1650	0.0551558
1662	0.0207965
1674	0.0268244
1686	0.0301398
1698	0.0403873
1710	0.0449083
1722	0.0759523
1734	0.198621
1746	0.491882
1758	1.41778
1770	0.872698
1782	0.115586
1794	0.0471688
1806	0.0186867
1818	0.0207965
1830	0.0171797
1842	0.0173304
1854	0.0188374
1866	0.0129601
1878	0.00768565
1890	0.00919264
1902	0.00934334
1914	0.0102475
1926	0.00753495
1938	0.0103982
1950	0.00678145
1962	0.00361678
1974	0.00256188
1986	0.00241118
1998	0.00226049
2010	0.000904194
2022	0.00271258
2034	0.00241118
2046	0.00452097
2058	0.00693215
2070	0.00542516
2082	0.00467167
2094	0.00587726
2106	0.00557586
2118	0.00708285
2130	0.00587726
2142	0.00256188
2154	0.00271258
2166	0.00316468
2178	0.00437027
2190	0.00391817
2202	0.00286328
2214	0.00271258
2226	0.00271258
2238	0.00271258
2250	0.00105489
2262	0.00105489
2274	0.00195909
2286	0.00210979
2298	0.00421957
2310	0.00421957
2322	0.00301398
2334	0.00256188
2346	0.00331538
2358	0.00256188
2370	0.00421957
2382	0.00241118
2394	0.00226049
2406	0.00210979
2418	0.00210979
2430	0.00286328
2442	0.00210979
2454	0.00226049
2466	0.00316468
2478	0.00557586
2490	0.00406887
2502	0.00271258
2514	0.00241118
2526	0.00316468
2538	0.00421957
2550	0.00286328
2562	0.00180839
2574	0.00210979
2586	0.00195909
2598	0.00271258
2610	0.00316468
2622	0.00150699
2634	0.00210979
2646	0.00165769
2658	0.00165769
2670	0.00210979
2682	0.00226049
2694	0.00180839
2706	0.00180839
2718	0.00180839
2730	0.00180839
2742	0.00271258
2754	0.00286328
2766	0.00226049
2778	0.00226049
2790	0.00195909
2802	0.00331538
2814	0.00467167
2826	0.00391817
2838	0.00482237
2850	0.00753495
2862	0.0111517
2874	0.011001
2886	0.0100968
2898	0.0123573
2910	0.0147685
2922	0.0165769
2934	0.0437027
2946	0.039031
2958	0.0167276
2970	0.0248653
2982	0.0305919
2994	0.031044
3006	0.0182346
3018	0.015522
3030	0.0330031
3042	0.0497307
3054	0.0400859
3066	0.0357157
3078	0.0509363
3090	0.0412915
3102	0.0146178
3114	0.00798705
3126	0.00512377
3138	0.00301398
3150	0.00391817
3162	0.00195909
3174	0.00180839
3186	0.00195909
3198	0.00180839
3210	0.00180839
3222	0.00256188
3234	0.00105489
3246	0.00210979
3258	0.00241118
3270	0.00226049
3282	0.00150699
3294	0.00241118
3306	0.00180839
3318	0.00195909
3330	0.00210979
3342	0.00195909
3354	0.00316468
3366	0.00331538
3378	0.00346608
3390	0.00301398
3402	0.00301398
3414	0.00241118
3426	0.00286328
3438	0.00286328
3450	0.00210979
3462	0.00361678
3474	0.00391817
3486	0.0117545
3498	0.0182346
3510	0.00934334
3522	0.00437027
3534	0.00150699
3546	0.000602796
3558	0.00135629
3570	0.000904194
3582	0.00256188
3594	0.00165769
3606	0.00105489
3618	0.00226049
3630	0.00180839
3642	0.00195909
3654	0.00105489
3666	0.00346608
3678	0.000301398
3690	0.00271258
3702	0.00391817
3714	0.00150699
3726	0.00226049
3738	0.00241118
3750	0.00241118
3762	0.00271258
3774	0.00135629
3786	0.00226049
3798	0.000904194
3810	0.00391817
3822	0.000150699
3834	0.00482237
3846	0.00210979
3858	0.00271258
3870	0.00195909
3882	0.00226049
3894	0.00241118
3906	0.00421957
3918	0.00271258
3930	0.00210979
3942	0.00467167
3954	0.000602796
3966	0.00346608
