Infrared Spectrum: Cycloheptane, chloro-
Formula: C 7 H 13 Cl
CAS: 2453-46-5
Origin: Sadtler Research Labs Under US-EPA Contract
1/CM	ABSORBANCE
450	0.00542012
462	0.00198043
474	0.00271006
486	0.00354392
498	0.00448202
510	0.0015635
522	0.000416932
534	0.00458625
546	0.00594128
558	0.00510742
570	0.0104233
582	0.00542012
594	0.000521165
606	0.000833864
618	0.00614975
630	0.012508
642	0.0271006
654	0.0218889
666	0.00844287
678	0.0148011
690	0.0199085
702	0.0243905
714	0.0310614
726	0.0334588
738	0.0577451
750	0.0715038
762	0.0414847
774	0.0360646
786	0.0178238
798	0.0104233
810	0.0179281
822	0.0305403
834	0.0350223
846	0.0328334
858	0.0244948
870	0.0119868
882	0.0102148
894	0.0141757
906	0.0199085
918	0.0254329
930	0.0371069
942	0.0469048
954	0.0362731
966	0.0135503
978	0.0117783
990	0.0206381
1002	0.0250159
1014	0.0181365
1026	0.0134461
1038	0.00708784
1050	0.00531588
1062	0.00448202
1074	0.00364816
1086	0.00416932
1098	0.00500318
1110	0.00844287
1122	0.010736
1134	0.0097979
1146	0.00896404
1158	0.0127164
1170	0.0161561
1182	0.0139672
1194	0.0168857
1206	0.0261625
1218	0.0297064
1230	0.056807
1242	0.076507
1254	0.0345011
1266	0.0199085
1278	0.0330419
1290	0.0409636
1302	0.0209508
1314	0.0108402
1326	0.0136545
1338	0.0217847
1350	0.0351265
1362	0.0317911
1374	0.0144884
1386	0.00708784
1398	0.00562858
1410	0.00698361
1422	0.0153223
1434	0.0412763
1446	0.10267
1458	0.143529
1470	0.109549
1482	0.0425271
1494	0.0124037
1506	0.00625398
1518	0.00416932
1530	0.00291852
1542	0.00229313
1554	0.00239736
1566	0.00187619
1578	0.0012508
1590	0.00114656
1602	0.00177196
1614	0.00135503
1626	0.0015635
1638	0.00145926
1650	0.00145926
1662	0.00114656
1674	0.00208466
1686	0.00208466
1698	0.00323122
1710	0.00677514
1722	0.0105275
1734	0.00833864
1746	0.00656668
1758	0.00396085
1770	0.00271006
1782	0.00250159
1794	0.00166773
1806	0.00114656
1818	0.0012508
1830	0.00104233
1842	0.000729631
1854	0.000833864
1866	0.000833864
1878	0.000938097
1890	0.000625398
1902	0.000521165
1914	0.000729631
1926	0.000938097
1938	0.000625398
1950	0.000938097
1962	0.00114656
1974	0.00104233
1986	0.00114656
1998	0.00135503
2010	0.00145926
2022	0.00145926
2034	0.000625398
2046	0.00177196
2058	0.00104233
2070	0.000312699
2082	0.00145926
2094	0.0015635
2106	0.0012508
2118	0.0015635
2130	0.00208466
2142	0.00177196
2154	0.00229313
2166	0.00281429
2178	0.00271006
2190	0.00343969
2202	0.00312699
2214	0.00323122
2226	0.00271006
2238	0.00177196
2250	0.0015635
2262	0.0015635
2274	0.00135503
2286	0.00187619
2298	0.0012508
2310	0.000521165
2322	0.000625398
2334	0.000625398
2346	0.000833864
2358	0.00135503
2370	0.000938097
2382	0.00166773
2394	0.00218889
2406	0.00229313
2418	0.00229313
2430	0.00302276
2442	0.00260582
2454	0.00281429
2466	0.00281429
2478	0.00302276
2490	0.00250159
2502	0.00229313
2514	0.00291852
2526	0.00333546
2538	0.00385662
2550	0.00416932
2562	0.00500318
2574	0.00479472
2586	0.00500318
2598	0.00552435
2610	0.00583705
2622	0.00562858
2634	0.00667091
2646	0.00833864
2658	0.0094852
2670	0.0130291
2682	0.0154265
2694	0.0174069
2706	0.0166773
2718	0.0135503
2730	0.0106318
2742	0.00854711
2754	0.00823441
2766	0.00906827
2778	0.0113614
2790	0.0142799
2802	0.0202212
2814	0.023244
2826	0.0249117
2838	0.0352308
2850	0.0898488
2862	0.237339
2874	0.295605
2886	0.191684
2898	0.157079
2910	0.248075
2922	0.503654
2934	0.962592
2946	1.01085
2958	0.659378
2970	0.249638
2982	0.0694192
2994	0.0288725
3006	0.0170942
3018	0.0136545
3030	0.0110487
3042	0.00969367
3054	0.00792171
3066	0.00573282
3078	0.00583705
3090	0.00625398
3102	0.00521165
3114	0.00573282
3126	0.00500318
3138	0.00479472
3150	0.00531588
3162	0.00521165
3174	0.00510742
3186	0.00489895
3198	0.00521165
3210	0.00437779
3222	0.00500318
3234	0.00416932
3246	0.00312699
3258	0.00448202
3270	0.00375239
3282	0.00479472
3294	0.00427355
3306	0.00489895
3318	0.00312699
3330	0.00312699
3342	0.00427355
3354	0.00354392
3366	0.00448202
3378	0.00198043
3390	0.00354392
3402	0.00416932
3414	0.00448202
3426	0.00437779
3438	0.00500318
3450	0.00552435
3462	0.00396085
3474	0.00250159
3486	0.00312699
3498	0.00312699
3510	0.00364816
3522	0.00239736
3534	0.00416932
3546	0.00542012
3558	0.00166773
3570	0.00135503
3582	0.00302276
3594	0.000938097
3606	0.00531588
3618	0.00354392
3630	0.00302276
3642	0.00114656
3654	0.00239736
3666	0.00552435
3678	0.00510742
3690	0.00198043
3702	0.000833864
3714	0.00354392
3726	0.00479472
3738	0.00396085
3750	0.00145926
3762	0.00198043
3774	0.00573282
3786	0.00656668
3798	0.00510742
3810	0.00448202
3822	0.0015635
3834	0.00510742
3846	0.00281429
3858	0.00396085
3870	0.00354392
3882	0.00802594
3894	0.00271006
3906	0.00218889
3918	0.00573282
3930	0.00562858
3942	0.00740054
3954	0.00896404
3966	0.00427355
