Infrared Spectrum: Benzenamine, 2-ethyl-6-methyl-
Formula: C 9 H 13 N
CAS: 24549-06-2
Origin: Sadtler Research Labs Under US-EPA Contract
1/CM	ABSORBANCE
450	0.0489982
462	0.035597
474	0.0307809
486	0.00188455
498	0.00188455
510	0.0116214
522	0.024185
534	0.0362252
546	0.0128777
558	0.0173797
570	0.0287917
582	0.0412506
594	0.0551753
606	0.0737067
618	0.0949602
630	0.117575
642	0.151078
654	0.166049
666	0.165107
678	0.161024
690	0.153905
702	0.140817
714	0.137362
726	0.240594
738	0.535211
750	0.613734
762	0.445067
774	0.277028
786	0.147727
798	0.11213
810	0.0964259
822	0.0860609
834	0.0787321
846	0.0502546
858	0.0382144
870	0.0555941
882	0.0472183
894	0.0298386
906	0.0259649
918	0.0260696
930	0.0278494
942	0.0368533
954	0.0467996
966	0.0570599
978	0.0626088
990	0.0729738
1002	0.0696235
1014	0.0408318
1026	0.043868
1038	0.0787321
1050	0.122181
1062	0.132546
1074	0.0905629
1086	0.0892018
1098	0.168039
1110	0.171494
1122	0.0716127
1134	0.0590491
1146	0.0585256
1158	0.0383191
1170	0.0324561
1182	0.0150764
1194	0.0209394
1206	0.0529767
1218	0.0878408
1230	0.0676343
1242	0.0710893
1254	0.140817
1266	0.356493
1278	0.332413
1290	0.140817
1302	0.105116
1314	0.108257
1326	0.0769523
1338	0.0501499
1350	0.0439727
1362	0.0436586
1374	0.0619806
1386	0.0905629
1398	0.050778
1410	0.0452291
1422	0.0791509
1434	0.250435
1446	0.490924
1458	0.650692
1470	0.814333
1482	0.682729
1494	0.336496
1506	0.0959025
1518	0.0568505
1530	0.0514062
1542	0.0498358
1554	0.0458573
1566	0.0503593
1578	0.0630276
1590	0.0974729
1602	0.194108
1614	0.450616
1626	0.762822
1638	0.586094
1650	0.232218
1662	0.107524
1674	0.063237
1686	0.0443915
1698	0.0339218
1710	0.0250226
1722	0.0206253
1734	0.0186361
1746	0.0158092
1758	0.0126683
1770	0.0170656
1782	0.0277447
1794	0.0229286
1806	0.0115167
1818	0.0105744
1830	0.0287917
1842	0.040099
1854	0.0146576
1866	0.00921334
1878	0.0145529
1890	0.0360158
1902	0.0365393
1914	0.0152858
1926	0.0119355
1938	0.00879455
1950	0.00659591
1962	0.00502546
1974	0.00439727
1986	0.00418788
1998	0.00387379
2010	0.00439727
2022	0.00397849
2034	0.0035597
2046	0.00439727
2058	0.00471137
2070	0.00418788
2082	0.00544424
2094	0.00659591
2106	0.00586303
2118	0.00460667
2130	0.00439727
2142	0.0033503
2154	0.00209394
2166	0.00177985
2178	0.00198924
2190	0.00167515
2202	0.00125636
2214	0.00104697
2226	0.00136106
2238	0.00198924
2250	0.00303621
2262	0.00387379
2274	0.00387379
2286	0.00471137
2298	0.00544424
2310	0.00774758
2322	0.00732879
2334	0.00439727
2346	0.00219864
2358	0.00544424
2370	0.000209394
2382	0.000209394
2394	0.000209394
2406	0.000418788
2418	0.00282682
2430	0.00670061
2442	0.00638652
2454	0.00293152
2466	0.00450197
2478	0.00544424
2490	0.003455
2502	0.00167515
2514	0.00219864
2526	0.00324561
2538	0.00513015
2550	0.00607243
2562	0.00492076
2574	0.00450197
2586	0.00460667
2598	0.00554894
2610	0.00848046
2622	0.0116214
2634	0.0120402
2646	0.00858515
2658	0.00617712
2670	0.00439727
2682	0.00439727
2694	0.00554894
2706	0.0070147
2718	0.00858515
2730	0.0173797
2742	0.0353876
2754	0.0275353
2766	0.0171703
2778	0.02073
2790	0.0257555
2802	0.0297339
2814	0.036958
2826	0.0498358
2838	0.080512
2850	0.159139
2862	0.353562
2874	0.553219
2886	0.583162
2898	0.455327
2910	0.424232
2922	0.532175
2934	0.615618
2946	0.646504
2958	0.558873
2970	0.957454
2982	0.890134
2994	0.274306
3006	0.12616
3018	0.213687
3030	0.374501
3042	0.313882
3054	0.294303
3066	0.27996
3078	0.237662
3090	0.16228
3102	0.074649
3114	0.0325608
3126	0.0238709
3138	0.0198924
3150	0.019683
3162	0.0213582
3174	0.0192642
3186	0.0180079
3198	0.0173797
3210	0.0168562
3222	0.0147623
3234	0.0110979
3246	0.00973682
3258	0.00670061
3270	0.00722409
3282	0.00596773
3294	0.00565364
3306	0.00722409
3318	0.00617712
3330	0.00617712
3342	0.00502546
3354	0.00492076
3366	0.00502546
3378	0.00617712
3390	0.0112026
3402	0.0279541
3414	0.065645
3426	0.0635511
3438	0.0277447
3450	0.0169609
3462	0.0179032
3474	0.0348641
3486	0.0978917
3498	0.183848
3510	0.12616
3522	0.0443915
3534	0.0216723
3546	0.0118308
3558	0.0071194
3570	0.00659591
3582	0.00492076
3594	0.00544424
3606	0.0033503
3618	0.00272212
3630	0.00104697
3642	0.00324561
3654	0.000209394
3666	0.00251273
3678	0.00125636
3690	0.00282682
3702	0.00209394
3714	0.00219864
3726	0.00125636
3738	0.00136106
3750	0.00230333
3762	0.003455
3774	0.00293152
3786	0.000209394
3798	0.00492076
3810	0.0035597
3822	0.00104697
3834	0.000942273
3846	0.00481606
3858	0.00565364
3870	0.00523485
3882	0.00596773
3894	0.00544424
3906	0.00638652
3918	0.00670061
3930	0.00533955
3942	0.00659591
3954	0.00272212
3966	0.00439727
