Infrared Spectrum: Benzenamine, 2,6-bis(1-methylethyl)-
Formula: C 12 H 19 N
CAS: 24544-04-5
Origin: Sadtler Research Labs Under US-EPA Contract
1/CM	ABSORBANCE
450	0.0244048
462	0.00526799
474	0.0075257
486	0.0177392
498	0.0221471
510	0.0361234
522	0.0224696
534	0.0279526
546	0.0106435
558	0.0172016
570	0.0133312
582	0.0132237
594	0.0153739
606	0.02677
618	0.0220396
630	0.0280601
642	0.032038
654	0.0296728
666	0.0261249
678	0.0161265
690	0.0133312
702	0.0148364
714	0.00784823
726	0.0413914
738	0.177929
750	0.162985
762	0.0505297
774	0.0421439
786	0.058808
798	0.0378435
810	0.0204269
822	0.021287
834	0.0129012
846	0.00688064
858	0.0137613
870	0.0122561
882	0.0191368
894	0.0140838
906	0.0138688
918	0.0254799
930	0.0204269
942	0.0125787
954	0.0169866
966	0.0142988
978	0.0148364
990	0.0145139
1002	0.016019
1014	0.015589
1026	0.0222546
1038	0.0403163
1050	0.0789123
1062	0.0834278
1074	0.0453692
1086	0.0632159
1098	0.075687
1110	0.0595605
1122	0.0416064
1134	0.02634
1146	0.0254799
1158	0.0209645
1170	0.0299953
1182	0.0147289
1194	0.0209645
1206	0.0288127
1218	0.0319305
1230	0.0255874
1242	0.037306
1254	0.10579
1266	0.18997
1278	0.0476269
1290	0.0301028
1302	0.0388111
1314	0.0394562
1326	0.0397787
1338	0.0574103
1350	0.0993392
1362	0.11224
1374	0.0990167
1386	0.086008
1398	0.0516048
1410	0.0321455
1422	0.05397
1434	0.13901
1446	0.285762
1458	0.27157
1470	0.184702
1482	0.108048
1494	0.0495621
1506	0.0469819
1518	0.02677
1530	0.0189218
1542	0.0169866
1554	0.0149439
1566	0.0176316
1578	0.0258024
1590	0.0345107
1602	0.0571953
1614	0.138473
1626	0.247918
1638	0.171156
1650	0.0706341
1662	0.0335431
1674	0.0272
1686	0.0260174
1698	0.0174166
1710	0.00913835
1722	0.00720317
1734	0.00516048
1746	0.00290277
1758	0.00301028
1770	0.0043004
1782	0.0043004
1794	0.0075257
1806	0.00419289
1818	0.0021502
1830	0.0043004
1842	0.0130087
1854	0.0112886
1866	0.00387036
1878	0.00236522
1890	0.00623558
1902	0.0116111
1914	0.0043004
1926	0.00086008
1938	0.00053755
1950	0.00021502
1962	0.00086008
1974	0
1986	0.00032253
1998	0.00021502
2010	0
2022	0.00010751
2034	0.00021502
2046	0
2058	0.00010751
2070	0.00010751
2082	0.00086008
2094	0.00129012
2106	0.00096759
2118	0.0010751
2130	0.00064506
2142	0.0010751
2154	0.00139763
2166	0.00139763
2178	0.00161265
2190	0.00150514
2202	0.00172016
2214	0.00193518
2226	0.00193518
2238	0.00236522
2250	0.00311779
2262	0.00376285
2274	0.00419289
2286	0.00301028
2298	0.00139763
2310	0
2322	0.00193518
2334	0.00440791
2346	0.00376285
2358	0.00505297
2370	0.00376285
2382	0.00354783
2394	0.00612807
2406	0.00655811
2418	0.00602056
2430	0.00569803
2442	0.00559052
2454	0.00634309
2466	0.00698815
2478	0.00634309
2490	0.00569803
2502	0.00548301
2514	0.00526799
2526	0.0053755
2538	0.00548301
2550	0.00720317
2562	0.00849329
2574	0.0096759
2586	0.010536
2598	0.00892333
2610	0.00763321
2622	0.00784823
2634	0.00795574
2646	0.00956839
2658	0.0104285
2670	0.010966
2682	0.0108585
2694	0.0116111
2706	0.0112886
2718	0.0126862
2730	0.0168791
2742	0.0146214
2754	0.0123637
2766	0.016234
2778	0.0147289
2790	0.0148364
2802	0.0180617
2814	0.0244048
2826	0.0290277
2838	0.0330056
2850	0.0455842
2862	0.0814926
2874	0.212762
2886	0.329088
2898	0.24523
2910	0.242328
2922	0.242435
2934	0.326938
2946	0.416924
2958	0.522069
2970	1.0751
2982	0.514005
2994	0.111703
3006	0.0569803
3018	0.0522499
3030	0.0668712
3042	0.0842878
3054	0.0798799
3066	0.0905234
3078	0.121809
3090	0.0712791
3102	0.0231147
3114	0.0145139
3126	0.0127937
3138	0.0121486
3150	0.0122561
3162	0.0124712
3174	0.0140838
3186	0.0153739
3198	0.0140838
3210	0.0118261
3222	0.0115036
3234	0.0106435
3246	0.00935337
3258	0.0075257
3270	0.00612807
3282	0.00526799
3294	0.0043004
3306	0.00440791
3318	0.00473044
3330	0.0032253
3342	0.00333281
3354	0.00408538
3366	0.00408538
3378	0.0043004
3390	0.00526799
3402	0.0096759
3414	0.0167716
3426	0.0184917
3438	0.00913835
3450	0.00602056
3462	0.00709566
3474	0.0130087
3486	0.0339732
3498	0.0682689
3510	0.0489171
3522	0.0203194
3534	0.00935337
3546	0.00473044
3558	0.0032253
3570	0.00311779
3582	0.00279526
3594	0.00172016
3606	0.00193518
3618	0.00204269
3630	0.00333281
3642	0.00032253
3654	0.0032253
3666	0.00096759
3678	0.00118261
3690	0.00344032
3702	0.00258024
3714	0.00268775
3726	0.00129012
3738	0.00236522
3750	0.00602056
3762	0.00204269
3774	0.00096759
3786	0.00290277
3798	0.00440791
3810	0.00344032
3822	0.00731068
3834	0.00784823
3846	0.00720317
3858	0.00795574
3870	0.00376285
3882	0.00419289
3894	0.00559052
3906	0.00311779
3918	0.00559052
3930	0.00311779
3942	0.00569803
3954	0.0053755
3966	0.00516048
