Infrared Spectrum: Benzenamine, 2,6-diethyl-4-methyl-
Formula: C 11 H 17 N
CAS: 24544-08-9
Origin: Sadtler Research Labs Under US-EPA Contract
1/CM	ABSORBANCE
450	0.261637
462	0.0649413
474	0.048454
486	0.0750209
498	0.0387344
510	0.0168473
522	0.0366465
534	0.0200152
546	0.0300227
558	0.0308147
570	0.0176393
582	0.0360705
594	0.0295908
606	0.0297348
618	0.0394544
630	0.0362865
642	0.0429102
654	0.0452141
666	0.0404623
678	0.0398863
690	0.0333346
702	0.0297348
714	0.0280788
726	0.024407
738	0.0361425
750	0.0411103
762	0.0447821
774	0.024551
786	0.0325426
798	0.0388784
810	0.0395264
822	0.0275029
834	0.0205191
846	0.04795
858	0.159473
870	0.0840205
882	0.0285828
894	0.0225351
906	0.024911
918	0.0272869
930	0.0300227
942	0.0272149
954	0.0259189
966	0.0351345
978	0.0355665
990	0.0285108
1002	0.0282948
1014	0.0272869
1026	0.0308867
1038	0.0421182
1050	0.0787647
1062	0.0898523
1074	0.0451421
1086	0.0295188
1098	0.0257749
1110	0.0257029
1122	0.0257749
1134	0.0333346
1146	0.0493899
1158	0.0585336
1170	0.0315347
1182	0.0197992
1194	0.0198712
1206	0.0257749
1218	0.0516938
1230	0.0863244
1242	0.0620614
1254	0.0527018
1266	0.0815006
1278	0.113035
1290	0.145578
1302	0.0805646
1314	0.0575976
1326	0.0462941
1338	0.0383024
1350	0.0385184
1362	0.0343426
1374	0.047302
1386	0.0588215
1398	0.0373664
1410	0.0374384
1422	0.0460781
1434	0.0622774
1446	0.106556
1458	0.242558
1470	0.366825
1482	0.405631
1494	0.172577
1506	0.0611974
1518	0.0448541
1530	0.0329746
1542	0.0288708
1554	0.0290868
1566	0.0321827
1578	0.0376544
1590	0.0571656
1602	0.104108
1614	0.134778
1626	0.191152
1638	0.15429
1650	0.0552937
1662	0.0274309
1674	0.0186472
1686	0.0152634
1698	0.0130315
1710	0.0125995
1722	0.0133914
1734	0.024191
1746	0.0271429
1758	0.0131755
1770	0.0122395
1782	0.00914362
1794	0.00619174
1806	0.0046798
1818	0.00503979
1830	0.00503979
1842	0.00431982
1854	0.00532778
1866	0.00446381
1878	0.00345586
1890	0.00446381
1902	0.00446381
1914	0.0048238
1926	0.00460781
1938	0.00446381
1950	0.00388784
1962	0.00359985
1974	0.00309587
1986	0.00302387
1998	0.00316787
2010	0.00316787
2022	0.00424782
2034	0.00417583
2046	0.00316787
2058	0.00259189
2070	0.0023759
2082	0.00179992
2094	0.00122395
2106	0.00100796
2118	0.00129595
2130	0.00100796
2142	0.00100796
2154	0.000431982
2166	0.000503979
2178	0.00100796
2190	0.000359985
2202	0.000359985
2214	0.000791967
2226	0.000863964
2238	0.00100796
2250	0.00100796
2262	0.00107995
2274	0.00107995
2286	0.00158393
2298	0.00201592
2310	0.00266389
2322	0.00107995
2334	0
2346	0.0024479
2358	0.00158393
2370	0.00453581
2382	0.00568776
2394	0.00287988
2406	0.00223191
2418	0.00273589
2430	0.00367185
2442	0.00388784
2454	0.00338386
2466	0.00309587
2478	0.0024479
2490	0.00338386
2502	0.00345586
2514	0.00446381
2526	0.0048238
2538	0.00518378
2550	0.00532778
2562	0.0047518
2574	0.00446381
2586	0.0048238
2598	0.00611974
2610	0.00655173
2622	0.00655173
2634	0.00791967
2646	0.0071277
2658	0.00547177
2670	0.00532778
2682	0.00575976
2694	0.00655173
2706	0.00691171
2718	0.00763168
2730	0.0136074
2742	0.0221031
2754	0.0160553
2766	0.0145434
2778	0.0174953
2790	0.0194392
2802	0.023399
2814	0.0289428
2826	0.0370785
2838	0.0596135
2850	0.103172
2862	0.181864
2874	0.34429
2886	0.390728
2898	0.270565
2910	0.24551
2922	0.346306
2934	0.454013
2946	0.443142
2958	0.358761
2970	0.670508
2982	0.504843
2994	0.178697
3006	0.207351
3018	0.195184
3030	0.119299
3042	0.0912202
3054	0.0672452
3066	0.04687
3078	0.0326866
3090	0.024767
3102	0.0185752
3114	0.0155514
3126	0.0139674
3138	0.0130315
3150	0.0128875
3162	0.0128155
3174	0.0095756
3186	0.00626374
3198	0.00611974
3210	0.00554377
3222	0.00669572
3234	0.00611974
3246	0.00496779
3258	0.00453581
3270	0.00208791
3282	0.00374384
3294	0.00316787
3306	0.0024479
3318	0.0023759
3330	0.00172793
3342	0.00201592
3354	0.00136794
3366	0.00115195
3378	0.00511179
3390	0.00424782
3402	0.0129595
3414	0.0221751
3426	0.0154794
3438	0.00885563
3450	0.00359985
3462	0.0102236
3474	0.023255
3486	0.0495339
3498	0.0529898
3510	0.024695
3522	0.0105116
3534	0.00640773
3546	0.00417583
3558	0.00388784
3570	0.00431982
3582	0.00395984
3594	0.00331186
3606	0.00259189
3618	0.00251989
3630	0.00525578
3642	0.00323986
3654	0.00561577
3666	0.00208791
3678	0.00359985
3690	0.00439182
3702	0.00417583
3714	0.00676772
3726	0.00352785
3738	0.00755968
3750	0.00554377
3762	0.00633574
3774	0.00424782
3786	0.00388784
3798	0.00503979
3810	0.00381584
3822	0.00287988
3834	0.00575976
3846	0.00345586
3858	0.00460781
3870	0.00215991
3882	0.00518378
3894	0.00115195
3906	0.00496779
3918	0.00388784
3930	0.00899962
3942	0.00532778
3954	0.00748769
3966	0.00827965
