Infrared Spectrum: Phenyl .beta.-chloropropionate
Formula: C 9 H 9 Cl O 2
CAS: 24552-27-0
Origin: Sadtler Research Labs Under US-EPA Contract
1/CM	ABSORBANCE
450	0
462	0.0174835
474	0.0180991
486	0.0261021
498	0.0694414
510	0.0274564
522	0.031027
534	0.0401381
546	0.0273333
558	0.0285645
570	0.0237627
582	0.0193303
594	0.0247477
606	0.0236396
618	0.0264714
630	0.0312732
642	0.0289339
654	0.0306576
666	0.0552822
678	0.121769
690	0.207216
702	0.0933272
714	0.0492492
726	0.0578678
738	0.115243
750	0.13839
762	0.0815074
774	0.0562672
786	0.063039
798	0.0726426
810	0.0792912
822	0.069072
834	0.0401381
846	0.0307807
858	0.0350901
870	0.0295495
882	0.0327507
894	0.0428468
906	0.0494954
918	0.0683333
930	0.0996065
942	0.0854474
954	0.067102
966	0.0501111
978	0.041
990	0.0357057
1002	0.0405075
1014	0.0469099
1026	0.0855705
1038	0.0488798
1050	0.0371831
1062	0.0455555
1074	0.0533123
1086	0.0493723
1098	0.0685795
1110	0.127679
1122	0.28897
1134	0.631621
1146	0.567351
1158	0.436225
1170	0.41948
1182	0.475255
1194	1.08237
1206	0.93438
1218	0.426252
1230	0.32763
1242	0.17779
1254	0.146024
1266	0.161537
1278	0.103793
1290	0.0916035
1302	0.101084
1314	0.0986215
1326	0.0795375
1338	0.131742
1350	0.190225
1362	0.224823
1374	0.131988
1386	0.0732582
1398	0.0526966
1410	0.0608228
1422	0.0687026
1434	0.0621771
1446	0.0663633
1458	0.0595915
1470	0.0778137
1482	0.0875405
1494	0.371708
1506	0.0975134
1518	0.0371831
1530	0.0262252
1542	0.0279489
1554	0.0299189
1566	0.0318889
1578	0.0475255
1590	0.130757
1602	0.16363
1614	0.0446936
1626	0.0279489
1638	0.024009
1650	0.023024
1662	0.0198228
1674	0.0232702
1686	0.0245015
1698	0.0253633
1710	0.0291802
1722	0.040015
1734	0.0599609
1746	0.0912341
1758	0.169048
1770	0.363582
1782	0.562426
1794	0.329231
1806	0.103054
1818	0.0524504
1830	0.0377988
1842	0.0285645
1854	0.0241321
1866	0.0233934
1878	0.022039
1890	0.0199459
1902	0.0171141
1914	0.0185916
1926	0.0216696
1938	0.0246246
1950	0.0245015
1962	0.0206847
1974	0.0190841
1986	0.0198228
1998	0.0205615
2010	0.0209309
2022	0.0206847
2034	0.0183453
2046	0.0164985
2058	0.0168679
2070	0.0166216
2082	0.0166216
2094	0.0145285
2106	0.0141591
2118	0.0136667
2130	0.0134204
2142	0.013051
2154	0.013051
2166	0.0131742
2178	0.0128048
2190	0.0134204
2202	0.0134204
2214	0.0128048
2226	0.013051
2238	0.0136667
2250	0.0142823
2262	0.015021
2274	0.0158829
2286	0.0162522
2298	0.0157597
2310	0.0157597
2322	0.0146516
2334	0.0141591
2346	0.0146516
2358	0.0144054
2370	0.0155135
2382	0.0161291
2394	0.0180991
2406	0.0157597
2418	0.0147748
2430	0.0142823
2442	0.0139129
2454	0.0136667
2466	0.0135435
2478	0.0132973
2490	0.0135435
2502	0.0136667
2514	0.0134204
2526	0.0129279
2538	0.0128048
2550	0.0129279
2562	0.0134204
2574	0.0131742
2586	0.0132973
2598	0.0128048
2610	0.0131742
2622	0.0134204
2634	0.0135435
2646	0.0136667
2658	0.0134204
2670	0.0128048
2682	0.0126817
2694	0.0136667
2706	0.0129279
2718	0.0132973
2730	0.0132973
2742	0.0135435
2754	0.014036
2766	0.0136667
2778	0.014036
2790	0.0131742
2802	0.013051
2814	0.0137898
2826	0.0141591
2838	0.0137898
2850	0.0141591
2862	0.0152673
2874	0.0177297
2886	0.0182222
2898	0.0189609
2910	0.0195766
2922	0.023024
2934	0.0237627
2946	0.0245015
2958	0.0246246
2970	0.0379219
2982	0.0581141
2994	0.0352132
3006	0.0274564
3018	0.0333663
3030	0.0395225
3042	0.0544204
3054	0.0771981
3066	0.0557747
3078	0.0730119
3090	0.07609
3102	0.0487567
3114	0.0339819
3126	0.0199459
3138	0.0157597
3150	0.0146516
3162	0.0142823
3174	0.0144054
3186	0.0136667
3198	0.0144054
3210	0.0134204
3222	0.0142823
3234	0.0145285
3246	0.0142823
3258	0.0139129
3270	0.0139129
3282	0.0139129
3294	0.0139129
3306	0.0137898
3318	0.0135435
3330	0.014036
3342	0.0137898
3354	0.0135435
3366	0.0141591
3378	0.0135435
3390	0.014036
3402	0.0134204
3414	0.013051
3426	0.0137898
3438	0.0134204
3450	0.0141591
3462	0.0136667
3474	0.0131742
3486	0.0136667
3498	0.0136667
3510	0.0146516
3522	0.0156366
3534	0.0174835
3546	0.0177297
3558	0.0177297
3570	0.0245015
3582	0.0254865
3594	0.0176066
3606	0.0146516
3618	0.0137898
3630	0.0156366
3642	0.0199459
3654	0.0219159
3666	0.0211772
3678	0.0155135
3690	0.0139129
3702	0.0137898
3714	0.0137898
3726	0.0141591
3738	0.0144054
3750	0.0125585
3762	0.0142823
3774	0.0151441
3786	0.0147748
3798	0.0125585
3810	0.0135435
3822	0.0161291
3834	0.0155135
3846	0.0135435
3858	0.0161291
3870	0.0158829
3882	0.0145285
3894	0.0157597
3906	0.0131742
3918	0.014036
3930	0.0162522
3942	0.0153904
3954	0.0153904
3966	0.0145285
