Infrared Spectrum: Decane, 1,1'-oxybis-
Formula: C 20 H 42 O
CAS: 2456-28-2
Origin: Sadtler Research Labs Under US-EPA Contract
1/CM	ABSORBANCE
450	0.00273895
462	0.0101092
474	0.00662327
486	0.00776864
498	0.0137445
510	0.00717106
522	0.00468111
534	0.00423292
546	0.00732045
558	0.00647387
570	0.00572689
582	0.00199196
594	0.00288834
606	0.00463131
618	0.00632447
630	0.0138441
642	0.00582648
654	0.00398392
666	0.00612528
678	0.00408352
690	0.00642407
702	0.00781844
714	0.012151
726	0.011404
738	0.0104578
750	0.00896382
762	0.00776864
774	0.00841603
786	0.0107566
798	0.00751965
810	0.00572689
822	0.00597588
834	0.00627467
846	0.00672287
858	0.00697186
870	0.00756945
882	0.00692206
894	0.00881442
906	0.00826663
918	0.00801764
930	0.00861523
942	0.00931241
954	0.00861523
966	0.00861523
978	0.00856543
990	0.0110056
1002	0.0124498
1014	0.0132963
1026	0.0144915
1038	0.0162345
1050	0.0176786
1062	0.0202682
1074	0.0249493
1086	0.0319212
1098	0.0585138
1110	0.110653
1122	0.107765
1134	0.0780848
1146	0.0366023
1158	0.0234055
1170	0.0211148
1182	0.0173301
1194	0.0140433
1206	0.0127485
1218	0.0127485
1230	0.0125493
1242	0.0138939
1254	0.0125493
1266	0.0127983
1278	0.0131967
1290	0.0145413
1302	0.0154377
1314	0.0145413
1326	0.0128481
1338	0.0166827
1350	0.0261943
1362	0.0322698
1374	0.0323693
1386	0.0207164
1398	0.0126987
1410	0.0110554
1422	0.010159
1434	0.0155373
1446	0.0258955
1458	0.0388432
1470	0.0407356
1482	0.0219614
1494	0.011155
1506	0.00751965
1518	0.00642407
1530	0.00527869
1542	0.00443211
1554	0.00433251
1566	0.00532849
1578	0.00248995
1590	0.00527869
1602	0.0050297
1614	0.00373493
1626	0.00453171
1638	0.00323694
1650	0.0047807
1662	0.0048803
1674	0.00433251
1686	0.00104578
1698	0.00303774
1710	0.0047807
1722	0.0051293
1734	0.00602568
1746	0.00921282
1758	0.00841603
1770	0.00692206
1782	0.00672287
1794	0.00572689
1806	0.00383452
1818	0.00398392
1830	0.00378472
1842	0.00328673
1854	0.00338633
1866	0.00353573
1878	0.00303774
1890	0.00318714
1902	0.00343613
1914	0.00288834
1926	0.00278874
1938	0.00293814
1950	0.00308754
1962	0.00273895
1974	0.00283854
1986	0.00268915
1998	0.00263935
2010	0.00229075
2022	0.00283854
2034	0.00373493
2046	0.00308754
2058	0.00199196
2070	0.00368513
2082	0.00278874
2094	0.00124498
2106	0.00204176
2118	0.00189236
2130	0.00258955
2142	0.00239035
2154	0.00189236
2166	0.00253975
2178	0.00204176
2190	0.00199196
2202	0.00214136
2214	0.00253975
2226	0.00169317
2238	0.00199196
2250	0.00159357
2262	0.00169317
2274	0.00184256
2286	0.00174296
2298	0.00169317
2310	0.00144417
2322	4.9799e-05
2334	4.9799e-05
2346	0.00204176
2358	4.9799e-05
2370	0.00343613
2382	0.00378472
2394	0.00144417
2406	0.00154377
2418	0.00154377
2430	0.00164337
2442	0.00144417
2454	0.000896382
2466	0.00109558
2478	0.000896382
2490	0.00139437
2502	0.00139437
2514	0.00114538
2526	0.00174296
2538	0.00204176
2550	0.00219116
2562	0.00298794
2574	0.00258955
2586	0.00224096
2598	0.00288834
2610	0.00328673
2622	0.00318714
2634	0.00408352
2646	0.00463131
2658	0.00328673
2670	0.00572689
2682	0.00806744
2694	0.00732045
2706	0.00781844
2718	0.00836623
2730	0.00946181
2742	0.00971081
2754	0.00991
2766	0.0103582
2778	0.0128979
2790	0.0173799
2802	0.020069
2814	0.0210152
2826	0.0276882
2838	0.0443211
2850	0.0995482
2862	0.24775
2874	0.203927
2886	0.128083
2898	0.109707
2910	0.16852
2922	0.293266
2934	0.49799
2946	0.359897
2958	0.185103
2970	0.165183
2982	0.0675274
2994	0.0327677
3006	0.0194714
3018	0.0132465
3030	0.0112048
3042	0.00821684
3054	0.00562729
3066	0.00468111
3078	0.00418312
3090	0.00428271
3102	0.00403372
3114	0.00358553
3126	0.00313734
3138	0.00298794
3150	0.00318714
3162	0.00184256
3174	0.00273895
3186	0.00333653
3198	0.00333653
3210	0.00308754
3222	0.00273895
3234	0.00134457
3246	0.00268915
3258	0.00258955
3270	0.00129477
3282	0.00124498
3294	0.000946181
3306	0.00268915
3318	0.00209156
3330	0.00169317
3342	0.00194216
3354	0.00214136
3366	0.00209156
3378	0.00293814
3390	0.00244015
3402	0.00184256
3414	0.00234055
3426	0.00244015
3438	0.00258955
3450	0.00253975
3462	0.00224096
3474	0.00149397
3486	0.00532849
3498	0.00224096
3510	0.00219116
3522	0.00248995
3534	0.00323694
3546	0.00463131
3558	0.00557749
3570	0.00527869
3582	0.00333653
3594	0.0049301
3606	0.00234055
3618	0.00219116
3630	0.00293814
3642	0.00358553
3654	0.00582648
3666	0.00408352
3678	0.000149397
3690	0.00378472
3702	0.00209156
3714	0.00567709
3726	0.0050795
3738	0.00473091
3750	0.000298794
3762	0.00463131
3774	0.000946181
3786	0.00348593
3798	0.00443211
3810	0.00373493
3822	0.00293814
3834	0.00189236
3846	0.00682246
3858	0.00263935
3870	0.00667307
3882	0.00313734
3894	0.00194216
3906	0.00403372
3918	0.00667307
3930	0.00283854
3942	0.00413332
3954	0.00473091
3966	0.00119518
