Infrared Spectrum: Benzocyclooctene-1,8(2H),(7H)-dione, 3,4,5,6,9,10-hexahydro-4- methyl-,
Formula: C 13 H 18 O 2
CAS: 24569-29-7
Origin: Sadtler Research Labs Under US-EPA Contract
1/CM	ABSORBANCE
450	0
462	0.00371254
474	0.00727038
486	0.00763132
498	0.00897196
510	0.0178924
522	0.0221205
534	0.0190267
546	0.0110345
558	0.00660006
570	0.0047438
582	0.00226877
594	0.00355785
606	0.00397035
618	0.00623912
630	0.00763132
642	0.00598131
654	0.00397035
666	0.00330003
678	0.00768289
690	0.00670319
702	0.00680632
714	0.00928134
726	0.00541411
738	0.00484692
750	0.0145923
762	0.0191299
774	0.00670319
786	0.00330003
798	0.00319691
810	0.00319691
822	0.00825008
834	0.0101579
846	0.0114985
858	0.023358
870	0.0301644
882	0.0225846
894	0.00680632
906	0.00185627
918	0.014747
930	0.0169642
942	0.00902353
954	0.00510474
966	0.00201096
978	0.00536255
990	0.00897196
1002	0.0175314
1014	0.0201611
1026	0.0117564
1038	0.00567193
1050	0.0108282
1062	0.0180986
1074	0.0168095
1086	0.0228424
1098	0.0290815
1110	0.03398
1122	0.0297003
1134	0.0344441
1146	0.0366097
1158	0.0378472
1170	0.044602
1182	0.0826555
1194	0.0780148
1206	0.0598646
1218	0.0494489
1230	0.0444473
1242	0.0382597
1254	0.0313503
1266	0.0300612
1278	0.0509442
1290	0.104157
1302	0.0764679
1314	0.0531615
1326	0.0835321
1338	0.123648
1350	0.0681147
1362	0.0617209
1374	0.0532646
1386	0.0372285
1398	0.0250081
1410	0.0264003
1422	0.0546052
1434	0.0845633
1446	0.108798
1458	0.11282
1470	0.0943087
1482	0.0558943
1494	0.0388269
1506	0.0240284
1518	0.0207283
1530	0.0199033
1542	0.0186658
1554	0.0195424
1566	0.0232549
1578	0.0251627
1590	0.0323816
1602	0.0389816
1614	0.0525943
1626	0.0590912
1638	0.046252
1650	0.0519755
1662	0.076932
1674	0.151234
1686	0.480516
1698	0.357847
1710	0.251988
1722	0.349185
1734	0.135662
1746	0.0555849
1758	0.0312987
1770	0.0177892
1782	0.0117048
1794	0.00670319
1806	0.00422817
1818	0.0041766
1830	0.00386723
1842	0.0041766
1854	0.00366097
1866	0.00350628
1878	0.00262971
1890	0.00293909
1902	0.00268128
1914	0.00293909
1926	0.00288753
1938	0.00268128
1950	0.00252659
1962	0.0027844
1974	0.00221721
1986	0.00201096
1998	0.00206252
2010	0.0018047
2022	0.00170158
2034	0.00159845
2046	0.00170158
2058	0.00185627
2070	0.00175314
2082	0.00159845
2094	0.00206252
2106	0.00165002
2118	0.00195939
2130	0.00216565
2142	0.00159845
2154	0.00190783
2166	0.00232034
2178	0.00216565
2190	0.00221721
2202	0.00216565
2214	0.00195939
2226	0.00216565
2238	0.00190783
2250	0.0018047
2262	0.00206252
2274	0.0027844
2286	0.00438285
2298	0.00670319
2310	0.00866258
2322	0.00778601
2334	0.0051563
2346	0.00438285
2358	0.00495005
2370	0.00195939
2382	0.00386723
2394	0.00123751
2406	0.00123751
2418	0.00144376
2430	0.00159845
2442	0.0018047
2454	0.00206252
2466	0.00221721
2478	0.00226877
2490	0.00190783
2502	0.00211408
2514	0.00206252
2526	0.00216565
2538	0.00252659
2550	0.00242346
2562	0.00242346
2574	0.00288753
2586	0.00283597
2598	0.00314534
2610	0.00309378
2622	0.00293909
2634	0.00355785
2646	0.00438285
2658	0.0041766
2670	0.00495005
2682	0.00531099
2694	0.00464067
2706	0.00464067
2718	0.00422817
2730	0.00469223
2742	0.0051563
2754	0.00500161
2766	0.0051563
2778	0.00618756
2790	0.00716726
2802	0.00809539
2814	0.00964228
2826	0.015108
2838	0.02903
2850	0.0370738
2862	0.0615662
2874	0.100084
2886	0.106323
2898	0.103435
2910	0.102198
2922	0.14087
2934	0.244563
2946	0.327734
2958	0.222701
2970	0.273593
2982	0.148089
2994	0.0490364
3006	0.0180986
3018	0.0144892
3030	0.0115501
3042	0.00912665
3054	0.0075282
3066	0.00639381
3078	0.00567193
3090	0.0047438
3102	0.00422817
3114	0.00371254
3126	0.00314534
3138	0.00345472
3150	0.0037641
3162	0.00402191
3174	0.00350628
3186	0.0033516
3198	0.00345472
3210	0.00299065
3222	0.00319691
3234	0.00324847
3246	0.00319691
3258	0.0033516
3270	0.00453754
3282	0.00484692
3294	0.00458911
3306	0.0051563
3318	0.00520786
3330	0.00546568
3342	0.00670319
3354	0.00969384
3366	0.00922978
3378	0.00582662
3390	0.00520786
3402	0.00541411
3414	0.00830164
3426	0.00727038
3438	0.00443442
3450	0.00330003
3462	0.00309378
3474	0.00252659
3486	0.00206252
3498	0.00201096
3510	0.00195939
3522	0.00226877
3534	0.00221721
3546	0.00268128
3558	0.00195939
3570	0.00268128
3582	0.00211408
3594	0.00201096
3606	0.00159845
3618	0.00206252
3630	0.00273284
3642	0.00232034
3654	0.00185627
3666	0.00309378
3678	0.00128907
3690	0.00118595
3702	0.00221721
3714	0.00283597
3726	0.00273284
3738	0.00309378
3750	0.00319691
3762	0.00340316
3774	0.00262971
3786	0.00252659
3798	0.00350628
3810	0.00402191
3822	0.00293909
3834	0.0033516
3846	0.00324847
3858	0.00170158
3870	0.00257815
3882	0.00386723
3894	0.00350628
3906	0.00448598
3918	0.00391879
3930	0.00324847
3942	0.00443442
3954	0.00355785
3966	0.00299065
