Infrared Spectrum: 2-Norbornanethiol, acetate
Formula: C 9 H 14 O S
CAS: 24584-23-4
Origin: Sadtler Research Labs Under US-EPA Contract
1/CM	ABSORBANCE
450	0.0150538
462	0.0172314
474	0.0193143
486	0.011456
498	0.0187462
510	0.0121188
522	0.0163793
534	0.0113614
546	0.0137283
558	0.017042
570	0.0197877
582	0.0250897
594	0.0188409
606	0.0520729
618	0.144573
630	0.318876
642	0.0911749
654	0.0367351
666	0.0239535
678	0.014107
690	0.0169474
702	0.00539665
714	0.00520729
726	0.000189356
738	0.00321905
750	0.00463922
762	0.0197877
774	0.0149591
786	0.00994119
798	0.0128762
810	0.00880505
822	0.00833166
834	0.0174208
846	0.00994119
858	0.0086157
870	0.0134443
882	0.00965716
894	0.0239535
906	0.0267939
918	0.0334213
930	0.0642864
942	0.172598
954	0.17629
966	0.0581323
978	0.0323799
990	0.019693
1002	0.039386
1014	0.069399
1026	0.0604992
1038	0.0396701
1050	0.0524516
1062	0.0319065
1074	0.0331373
1086	0.0491379
1098	0.131318
1110	0.300224
1122	0.23518
1134	0.353054
1146	0.372369
1158	0.0814231
1170	0.0307704
1182	0.0182729
1194	0.0188409
1206	0.0233855
1218	0.0187462
1230	0.0132549
1242	0.0245216
1254	0.0424157
1266	0.0404275
1278	0.0307704
1290	0.0213972
1302	0.033232
1314	0.030865
1326	0.0180835
1338	0.0180835
1350	0.0631502
1362	0.0996013
1374	0.0224387
1386	0.0198824
1398	0.0195983
1410	0.0231961
1422	0.0266045
1434	0.0241429
1446	0.0540611
1458	0.0960982
1470	0.0554813
1482	0.0345575
1494	0.0246163
1506	0.0218706
1518	0.0213972
1530	0.0168527
1542	0.0227227
1554	0.0160953
1566	0.0109826
1578	0.0124028
1590	0.00672214
1602	0.00785827
1614	0.00719553
1626	0.0119294
1638	0.0173261
1650	0.0165687
1662	0.0211132
1674	0.0378712
1686	0.0828433
1698	0.389032
1710	0.800881
1722	0.287348
1734	0.0735648
1746	0.0405222
1758	0.0246163
1770	0.0235748
1782	0.0233855
1794	0.0127815
1806	0.00549132
1818	0.00293502
1830	0.00482858
1842	0.00236695
1854	0.00444987
1866	0.00397648
1878	0.00350309
1890	0.00511261
1902	0.00284034
1914	0.0030297
1926	0.00255631
1938	0.00482858
1950	0.0017042
1962	0.00416583
1974	0.00255631
1986	0.00293502
1998	0.00331373
2010	0.0017042
2022	0.00265098
2034	0.00208292
2046	0.00378712
2058	0
2070	0.00331373
2082	0.0030297
2094	0.00350309
2106	0.00501793
2118	0.00189356
2130	0.00274566
2142	0.00274566
2154	0.0038818
2166	0.00444987
2178	0.00416583
2190	0.00539665
2202	0.00255631
2214	0.00539665
2226	0.00312437
2238	0.00312437
2250	0.00435519
2262	0.00359776
2274	0.00407115
2286	0.00407115
2298	0.0103199
2310	0.00842634
2322	0.0145804
2334	0.0131602
2346	0.0134443
2358	0.0243322
2370	0.0106986
2382	0.00833166
2394	0.00312437
2406	0.00719553
2418	0.00104146
2430	0.00444987
2442	0.00397648
2454	0.00331373
2466	0.0038818
2478	0.00189356
2490	0.00265098
2502	0.00217759
2514	0.00293502
2526	0.00236695
2538	0.00369244
2550	0.00274566
2562	0.0038818
2574	0.0047339
2586	0.00312437
2598	0.00530197
2610	0.00482858
2622	0.00577536
2634	0.00672214
2646	0.00482858
2658	0.00681682
2670	0.00274566
2682	0.00416583
2694	0.00132549
2706	0.00369244
2718	0.00236695
2730	0.00359776
2742	0.00416583
2754	0.00160953
2766	0.005586
2778	0.00501793
2790	0.00729021
2802	0.00520729
2814	0.00747956
2826	0.00804763
2838	0.0100359
2850	0.0166633
2862	0.0320012
2874	0.143058
2886	0.231109
2898	0.0907962
2910	0.0648544
2922	0.114182
2934	0.152242
2946	0.243228
2958	0.635763
2970	0.869428
2982	0.242754
2994	0.0719553
3006	0.0316225
3018	0.0204504
3030	0.0199771
3042	0.0178941
3054	0.0122135
3066	0.0109826
3078	0.00965716
3090	0.00899441
3102	0.00605939
3114	0.00785827
3126	0.00738488
3138	0.00426051
3150	0.00407115
3162	0.00435519
3174	0.00520729
3186	0.00568068
3198	0.00416583
3210	0.00624875
3222	0.00407115
3234	0.00804763
3246	0.00795295
3258	0.00605939
3270	0.00596471
3282	0.00672214
3294	0.00747956
3306	0.00463922
3318	0.00681682
3330	0.00284034
3342	0.00814231
3354	0.00530197
3366	0.00681682
3378	0.00814231
3390	0.0149591
3402	0.0133496
3414	0.00729021
3426	0.00596471
3438	0.00312437
3450	0.00587004
3462	0.00549132
3474	0.00624875
3486	0.00539665
3498	0.00871038
3510	0.00444987
3522	0.00624875
3534	0.00444987
3546	0.0047339
3558	0.00596471
3570	0.00956248
3582	0.00492326
3594	0.00747956
3606	0.00710085
3618	0.005586
3630	0.00842634
3642	0.00482858
3654	0.00833166
3666	0.00284034
3678	0.00795295
3690	0.00605939
3702	0.00492326
3714	0.00956248
3726	0.00804763
3738	0.0094678
3750	0.0104146
3762	0.00795295
3774	0.00435519
3786	0.00577536
3798	0.00340841
3810	0.00520729
3822	0.00700617
3834	0.00605939
3846	0.00397648
3858	0.00539665
3870	0.00255631
3882	0.0030297
3894	0.00217759
3906	0.00094678
3918	0.000852102
3930	0.0017042
3942	0.00132549
3954	0
3966	9.4678e-05
