Infrared Spectrum: Nonane, 1,9-diiodo-
Formula: C 9 H 18 I 2
CAS: 24613-65-8
Origin: Sadtler Research Labs Under US-EPA Contract
1/CM	ABSORBANCE
450	0
462	0.179675
474	0.198026
486	0.234129
498	0.171998
510	0.181594
522	0.180754
534	0.187591
546	0.174637
558	0.182313
570	0.178955
582	0.211579
594	0.222254
606	0.212539
618	0.183993
630	0.176796
642	0.174517
654	0.176196
666	0.176196
678	0.173078
690	0.178835
702	0.18927
714	0.207501
726	0.214698
738	0.207621
750	0.198865
762	0.190829
774	0.186631
786	0.187591
798	0.183633
810	0.181594
822	0.180394
834	0.179315
846	0.179195
858	0.179195
870	0.178835
882	0.178595
894	0.180274
906	0.178235
918	0.176796
930	0.175597
942	0.174517
954	0.176196
966	0.174877
978	0.174517
990	0.174757
1002	0.173198
1014	0.172358
1026	0.173558
1038	0.174637
1050	0.174157
1062	0.173198
1074	0.173917
1086	0.175716
1098	0.173318
1110	0.173438
1122	0.177156
1134	0.182553
1146	0.193468
1158	0.226572
1170	0.3368
1182	0.345196
1194	0.308134
1206	0.330323
1218	0.316769
1230	0.303096
1242	0.289782
1254	0.260876
1266	0.238327
1278	0.23113
1290	0.227772
1302	0.217816
1314	0.199825
1326	0.18843
1338	0.195387
1350	0.220335
1362	0.207022
1374	0.191549
1386	0.173318
1398	0.169479
1410	0.173797
1422	0.190829
1434	0.245163
1446	0.245283
1458	0.272391
1470	0.23113
1482	0.180274
1494	0.166121
1506	0.162643
1518	0.159284
1530	0.157245
1542	0.157125
1554	0.156646
1566	0.155566
1578	0.156046
1590	0.155446
1602	0.155326
1614	0.155326
1626	0.154247
1638	0.153647
1650	0.153407
1662	0.152927
1674	0.152807
1686	0.152448
1698	0.151848
1710	0.152567
1722	0.152927
1734	0.151848
1746	0.151488
1758	0.151128
1770	0.151008
1782	0.150648
1794	0.150648
1806	0.150648
1818	0.149929
1830	0.149329
1842	0.149449
1854	0.148969
1866	0.148969
1878	0.148849
1890	0.148489
1902	0.148369
1914	0.14789
1926	0.14729
1938	0.14753
1950	0.14729
1962	0.14753
1974	0.14741
1986	0.14717
1998	0.14729
2010	0.14765
2022	0.14789
2034	0.148489
2046	0.14825
2058	0.14789
2070	0.14765
2082	0.14657
2094	0.14657
2106	0.145971
2118	0.145491
2130	0.145971
2142	0.145491
2154	0.145971
2166	0.145731
2178	0.145491
2190	0.145011
2202	0.145251
2214	0.144531
2226	0.144531
2238	0.144171
2250	0.143932
2262	0.143332
2274	0.143332
2286	0.143332
2298	0.144771
2310	0.145011
2322	0.144291
2334	0.143332
2346	0.144291
2358	0.142972
2370	0.143572
2382	0.143692
2394	0.141533
2406	0.140213
2418	0.139734
2430	0.139134
2442	0.139374
2454	0.138894
2466	0.139134
2478	0.139494
2490	0.139494
2502	0.139614
2514	0.139734
2526	0.139854
2538	0.140813
2550	0.141053
2562	0.141293
2574	0.141533
2586	0.142492
2598	0.144052
2610	0.144771
2622	0.145251
2634	0.145131
2646	0.145251
2658	0.14681
2670	0.14801
2682	0.149329
2694	0.149449
2706	0.14789
2718	0.14729
2730	0.14741
2742	0.14777
2754	0.149449
2766	0.149689
2778	0.151968
2790	0.155566
2802	0.159884
2814	0.167201
2826	0.181594
2838	0.217457
2850	0.303936
2862	0.497883
2874	0.429636
2886	0.320608
2898	0.331403
2910	0.395092
2922	0.63198
2934	1.12806
2946	0.903411
2958	0.431555
2970	0.368945
2982	0.260996
2994	0.198865
3006	0.196107
3018	0.221055
3030	0.16756
3042	0.156526
3054	0.150888
3066	0.148729
3078	0.14741
3090	0.145731
3102	0.144891
3114	0.144052
3126	0.143932
3138	0.143332
3150	0.142492
3162	0.143332
3174	0.142852
3186	0.141773
3198	0.140813
3210	0.140813
3222	0.142372
3234	0.141653
3246	0.140453
3258	0.140813
3270	0.141653
3282	0.141413
3294	0.140333
3306	0.142852
3318	0.142732
3330	0.142732
3342	0.141773
3354	0.142492
3366	0.142492
3378	0.142972
3390	0.143332
3402	0.142852
3414	0.142132
3426	0.141893
3438	0.141173
3450	0.143572
3462	0.143212
3474	0.139734
3486	0.142132
3498	0.140333
3510	0.140933
3522	0.141053
3534	0.141653
3546	0.141053
3558	0.141413
3570	0.141773
3582	0.142252
3594	0.142372
3606	0.141773
3618	0.141413
3630	0.143692
3642	0.143212
3654	0.142492
3666	0.142372
3678	0.142372
3690	0.141413
3702	0.144651
3714	0.141533
3726	0.142252
3738	0.143572
3750	0.144052
3762	0.143332
3774	0.141413
3786	0.144651
3798	0.142612
3810	0.142852
3822	0.140933
3834	0.144411
3846	0.144291
3858	0.144651
3870	0.142852
3882	0.144771
3894	0.145131
3906	0.142372
3918	0.141293
3930	0.143452
3942	0.143572
3954	0.140813
3966	0.146091
