Infrared Spectrum: (Chloromethyl)ethylene carbonate
Formula: C 4 H 5 Cl O 3
CAS: 2463-45-8
Origin: Sadtler Research Labs Under US-EPA Contract
1/CM	ABSORBANCE
450	0.0102527
462	0.00433768
474	0.00407479
486	0.00657225
498	0.00696658
510	0.00552069
522	0.00709803
534	0.00828103
546	0.00762381
558	0.00709803
570	0.00460057
582	0.00512635
594	0.00578358
606	0.00578358
618	0.00683514
630	0.00617791
642	0.00578358
654	0.00854393
666	0.00880681
678	0.0078867
690	0.00867537
702	0.0131445
714	0.031021
726	0.0256318
738	0.0226085
750	0.0349644
762	0.0630936
774	0.0683514
786	0.0495548
798	0.0193224
810	0.0110414
822	0.0107785
834	0.00972693
846	0.0111728
858	0.0102527
870	0.00920115
882	0.019191
894	0.0323355
906	0.0289179
918	0.0302323
930	0.0276035
942	0.0166935
954	0.0141961
966	0.0136703
978	0.0141961
990	0.0172193
1002	0.0212941
1014	0.0308896
1026	0.0570471
1038	0.0789984
1050	0.0839934
1062	0.169433
1074	0.412474
1086	0.487267
1098	0.336105
1110	0.22648
1122	0.253032
1134	0.321646
1146	0.244356
1158	0.106339
1170	0.0538925
1182	0.0429825
1194	0.032204
1206	0.0252374
1218	0.0248431
1230	0.0268148
1242	0.0228714
1254	0.0297066
1266	0.0356216
1278	0.0232658
1290	0.0189281
1302	0.0145904
1314	0.015642
1326	0.0285236
1338	0.0353587
1350	0.0496862
1362	0.0545497
1374	0.0341757
1386	0.027472
1398	0.0195853
1410	0.00985837
1422	0.00893826
1434	0.0145904
1446	0.020374
1458	0.0207683
1470	0.0131445
1482	0.0202425
1494	0.0195853
1506	0.00880681
1518	0.0102527
1530	0.0126187
1542	0.00617791
1554	0.00420624
1566	0.00341757
1578	0.0038119
1590	0.00433768
1602	0.00552069
1614	0.00433768
1626	0.00315468
1638	0.00433768
1650	0.00341757
1662	0.0064408
1674	0.00657225
1686	0.00591502
1698	0.00565213
1710	0.0109099
1722	0.00828103
1734	0.00749236
1746	0.0109099
1758	0.0149847
1770	0.0232658
1782	0.0318097
1794	0.0385134
1806	0.0482403
1818	0.0648024
1830	0.0928002
1842	0.187309
1854	0.528409
1866	1.22875
1878	0.977425
1890	0.189281
1902	0.0711117
1914	0.0429825
1926	0.0324669
1938	0.0243173
1950	0.0214255
1962	0.0219513
1974	0.0211626
1986	0.0177451
1998	0.0128816
2010	0.00959549
2022	0.00709803
2034	0.00591502
2046	0.00512635
2058	0.00433768
2070	0.00368046
2082	0.00368046
2094	0.00341757
2106	0.00302323
2118	0.00249745
2130	0.0026289
2142	0.00315468
2154	0.00354901
2166	0.00368046
2178	0.00420624
2190	0.00578358
2202	0.00683514
2214	0.00762381
2226	0.00893826
2238	0.00998982
2250	0.00880681
2262	0.00867537
2274	0.00683514
2286	0.00446913
2298	0.00341757
2310	0.00394335
2322	0.0026289
2334	0.00170878
2346	0.00328612
2358	0.00223456
2370	0.00210312
2382	0.00236601
2394	0.00170878
2406	0.00184023
2418	0.00144589
2430	0.00144589
2442	0.00131445
2454	0.00170878
2466	0.00210312
2478	0.00170878
2490	0.00197167
2502	0.00197167
2514	0.00131445
2526	0.001183
2538	0.00105156
2550	0.00078867
2562	0.00131445
2574	0.00184023
2586	0.00249745
2598	0.001183
2610	0.000657225
2622	0.00052578
2634	0.00052578
2646	0.00052578
2658	0.000394335
2670	0.000394335
2682	0.000394335
2694	0.00078867
2706	0.00144589
2718	0.00210312
2730	0.00157734
2742	0.00170878
2754	0.00236601
2766	0.00302323
2778	0.0026289
2790	0.00144589
2802	0.001183
2814	0.00131445
2826	0.00170878
2838	0.00170878
2850	0.00289179
2862	0.00433768
2874	0.00552069
2886	0.00762381
2898	0.0078867
2910	0.0139332
2922	0.0269462
2934	0.0266833
2946	0.0212941
2958	0.0268148
2970	0.0379876
2982	0.0408794
2994	0.0382505
3006	0.0320726
3018	0.0187966
3030	0.00906971
3042	0.00394335
3054	0.00223456
3066	0.00184023
3078	0.00131445
3090	0.00131445
3102	0.00078867
3114	0.000657225
3126	0.000920115
3138	0.00078867
3150	0.000657225
3162	0.000394335
3174	0
3186	0.000394335
3198	0.00026289
3210	0.00052578
3222	0.000131445
3234	0.000131445
3246	0
3258	0
3270	0.000131445
3282	0
3294	0.00052578
3306	0.00052578
3318	0.00052578
3330	0.000920115
3342	0.000394335
3354	0.000657225
3366	0.00131445
3378	0.00105156
3390	0.00052578
3402	0.00078867
3414	0.00105156
3426	0.000394335
3438	0.001183
3450	0.00131445
3462	0.00144589
3474	0.000394335
3486	0.00184023
3498	0.00131445
3510	0.00197167
3522	0.00105156
3534	0.00105156
3546	0.000657225
3558	0.00105156
3570	0.00184023
3582	0.00131445
3594	0.00184023
3606	0.00157734
3618	0.00223456
3630	0.00184023
3642	0.00157734
3654	0.00184023
3666	0.00157734
3678	0.00184023
3690	0.00223456
3702	0.00341757
3714	0.00657225
3726	0.00446913
3738	0.00078867
3750	0
3762	0.001183
3774	0.00026289
3786	0.00131445
3798	0.00078867
3810	0.00078867
3822	0.00223456
3834	0.001183
3846	0.00223456
3858	0.00052578
3870	0.00236601
3882	0.001183
3894	0.00184023
3906	0.00105156
3918	0.001183
3930	0.00131445
3942	0
3954	0.00131445
3966	0.00105156
