Infrared Spectrum: Phthalimide, N-o-tolyl-,
Formula: C 15 H 11 N O 2
CAS: 2464-33-7
Origin: Sadtler Research Labs Under US-EPA Contract
1/CM	ABSORBANCE
450	0.00038088
462	0.00585603
474	0.00185679
486	0.00109503
498	0.00152352
510	0.00723672
522	0.0159017
534	0.0110931
546	0.0182822
558	0.00447534
570	0.00442773
582	0.00323748
594	0.00518949
606	0.00447534
618	0.00914112
630	0.0584651
642	0.00599886
654	0.00295182
666	0.00271377
678	0.0076176
690	0.0171396
702	0.0280423
714	0.149781
726	0.0930299
738	0.0150924
750	0.0481813
762	0.0310893
774	0.0158065
786	0.014283
798	0.00733194
810	0.0014283
822	0.0057132
834	0.00709389
846	0.0147591
858	0.0439916
870	0.0182822
882	0.0620358
894	0.0198534
906	0.00699867
918	0.00704628
930	0.00804609
942	0.00918873
954	0.00756999
966	0.00885546
978	0.0085698
990	0.00895068
1002	0.0111883
1014	0.013188
1026	0.0167111
1038	0.0239002
1050	0.0239002
1062	0.0361836
1074	0.0596077
1086	0.0775567
1098	0.0736051
1110	0.0730814
1122	0.0432775
1134	0.0348981
1146	0.0191868
1158	0.0199962
1170	0.0177585
1182	0.0185679
1194	0.0128547
1206	0.0188059
1218	0.0552276
1230	0.0320891
1242	0.0167111
1254	0.0199486
1266	0.0204247
1278	0.025519
1290	0.0294706
1302	0.0186155
1314	0.0215197
1326	0.0349457
1338	0.0434679
1350	0.0832699
1362	0.244096
1374	0.4761
1386	0.126071
1398	0.0231385
1410	0.0284232
1422	0.0317559
1434	0.0226147
1446	0.0318035
1458	0.0533232
1470	0.0426586
1482	0.0370406
1494	0.0877928
1506	0.0638926
1518	0.013188
1530	0.00085698
1542	0.0028566
1554	0.00433251
1566	0.00737955
1578	0.0118073
1590	0.0189012
1602	0.0220434
1614	0.017092
1626	0.0111883
1638	0.014283
1650	0.0168539
1662	0.0228528
1674	0.0229956
1686	0.0315178
1698	0.0453723
1710	0.119453
1722	0.21515
1734	0.294087
1746	0.343316
1758	0.235384
1770	0.0419444
1782	0.0443249
1794	0.056037
1806	0.0223291
1818	0.00861741
1830	0.00576081
1842	0.00514188
1854	0.00466578
1866	0.00490383
1878	0.00552276
1890	0.00461817
1902	0.00599886
1914	0.00628452
1926	0.00504666
1938	0.00652257
1950	0.00628452
1962	0.00442773
1974	0.00533232
1986	0.00342792
1998	0.00314226
2010	0.00295182
2022	0.00280899
2034	0.00309465
2046	0.00318987
2058	0.0033327
2070	0.00376119
2082	0.00309465
2094	0.00318987
2106	0.00318987
2118	0.0028566
2130	0.00290421
2142	0.00328509
2154	0.00371358
2166	0.00376119
2178	0.00361836
2190	0.0038088
2202	0.0038088
2214	0.00399924
2226	0.00409446
2238	0.00414207
2250	0.00414207
2262	0.00423729
2274	0.00385641
2286	0.00466578
2298	0.00537993
2310	0.00561798
2322	0.00614169
2334	0.00328509
2346	0.00480861
2358	0.00309465
2370	0.00318987
2382	0.00414207
2394	0.00261855
2406	0.00271377
2418	0.00323748
2430	0.00338031
2442	0.00404685
2454	0.00376119
2466	0.00390402
2478	0.00314226
2490	0.00247572
2502	0.00276138
2514	0.00199962
2526	0.00185679
2538	0.00176157
2550	0.0023805
2562	0.00219006
2574	0.00219006
2586	0.00180918
2598	0.00133308
2610	0.00138069
2622	0.00147591
2634	0.00176157
2646	0.00152352
2658	0.00114264
2670	0.00128547
2682	0.00166635
2694	0.00204723
2706	0.00099981
2718	0.00028566
2730	0.00033327
2742	0.00085698
2754	0.00061893
2766	0.00119025
2778	0.0014283
2790	0.0009522
2802	0.00128547
2814	0.00061893
2826	0.00133308
2838	0.0019044
2850	0.0023805
2862	0.00314226
2874	0.00518949
2886	0.00504666
2898	0.00409446
2910	0.00504666
2922	0.00833175
2934	0.0121882
2946	0.0110455
2958	0.00718911
2970	0.00961722
2982	0.0114264
2994	0.00861741
3006	0.00637974
3018	0.00737955
3030	0.0148543
3042	0.0217102
3054	0.0200914
3066	0.0255666
3078	0.0299943
3090	0.028328
3102	0.00918873
3114	0.00414207
3126	0.00242811
3138	0.00119025
3150	0.00085698
3162	0.00076176
3174	0.00099981
3186	0.00061893
3198	0.00066654
3210	0.0009522
3222	0.00085698
3234	9.522e-05
3246	0.0004761
3258	0.00080937
3270	0
3282	0.0004761
3294	0.00066654
3306	0.00147591
3318	0.00185679
3330	0.00147591
3342	0.00161874
3354	0.00199962
3366	0.0014283
3378	0.00138069
3390	0.00109503
3402	0.00176157
3414	0.00223767
3426	0.00147591
3438	0.00257094
3450	0.00242811
3462	0.00233289
3474	0.00271377
3486	0.00314226
3498	0.00442773
3510	0.00595125
3522	0.00628452
3534	0.0042849
3546	0.00371358
3558	0.00323748
3570	0.00219006
3582	0.00209484
3594	0.00257094
3606	0.00252333
3618	0.00309465
3630	0.00395163
3642	0.00357075
3654	0.00280899
3666	0.00223767
3678	0.00261855
3690	0.00304704
3702	0.00242811
3714	0.00257094
3726	0.00257094
3738	0.00328509
3750	0.00280899
3762	0.00228528
3774	0.00409446
3786	0.00376119
3798	0.00314226
3810	0.00247572
3822	0.00252333
3834	0.00409446
3846	0.00338031
3858	0.00323748
3870	0.00357075
3882	0.00376119
3894	0.00471339
3906	0.00318987
3918	0.00457056
3930	0.00338031
3942	0.00442773
3954	0.00409446
3966	0.00395163
