Infrared Spectrum: Tris(2-ethylhexyl) borate
Formula: C 24 H 51 B O 3
CAS: 2467-13-2
Origin: Sadtler Research Labs Under US-EPA Contract
1/CM	ABSORBANCE
450	0.0148321
462	0.00886613
474	0.00720891
486	0.0164065
498	0.0121806
510	0.011352
522	0.0136721
534	0.00944615
546	0.0120148
558	0.00646316
570	0.0152464
582	0.00265155
594	0.011932
606	0.00696032
618	0.00994332
630	0.0136721
642	0.0106062
654	0.0153293
666	0.0313215
678	0.0354645
690	0.0277584
702	0.0283385
714	0.0174837
726	0.0299128
738	0.0487223
750	0.0383646
762	0.033973
774	0.0397733
786	0.0331444
798	0.0228696
810	0.0198038
822	0.0219582
834	0.0171522
846	0.0171522
858	0.0181466
870	0.0223725
882	0.0232011
894	0.0316529
906	0.0299128
918	0.0342216
930	0.0372874
942	0.0403533
954	0.0487223
966	0.0546883
978	0.0543568
990	0.0620629
1002	0.0744092
1014	0.106062
1026	0.158513
1038	0.233668
1050	0.169534
1062	0.100262
1074	0.0831924
1086	0.083441
1098	0.0657916
1110	0.0536939
1122	0.051871
1134	0.0467336
1146	0.0446621
1158	0.0395247
1170	0.0326472
1182	0.0335587
1194	0.0374532
1206	0.0460707
1218	0.0527825
1230	0.0628086
1242	0.0894899
1254	0.109542
1266	0.123711
1278	0.144012
1290	0.167959
1302	0.22331
1314	0.326224
1326	0.558815
1338	0.736137
1350	0.653193
1362	0.503463
1374	0.33045
1386	0.232342
1398	0.183123
1410	0.361854
1422	0.64499
1434	0.446289
1446	0.228862
1458	0.190497
1470	0.215687
1482	0.253803
1494	0.13324
1506	0.0505452
1518	0.0413476
1530	0.0370389
1542	0.0172351
1554	0.0207153
1566	0.0180637
1578	0.0138378
1590	0.0155779
1602	0.0144178
1614	0.014335
1626	0.0108548
1638	0.00687746
1650	0.00886613
1662	0.0100262
1674	0.00803752
1686	0.00306586
1698	0.00505452
1710	0.00870041
1722	0.00795466
1734	0.00406019
1746	0.00745749
1758	0.00878327
1770	0.00870041
1782	0.00836896
1794	0.00588313
1806	0.00762321
1818	0.00654602
1830	0.00580027
1842	0.00604885
1854	0.00696032
1866	0.00596599
1878	0.00629744
1890	0.00555169
1902	0.00662888
1914	0.0063803
1926	0.00588313
1938	0.00629744
1950	0.00621457
1962	0.00571741
1974	0.00613171
1986	0.00613171
1998	0.00580027
2010	0.00654602
2022	0.00696032
2034	0.00754035
2046	0.00778893
2058	0.00712605
2070	0.00729177
2082	0.00778893
2094	0.00762321
2106	0.00712605
2118	0.00770607
2130	0.00754035
2142	0.00812038
2154	0.00754035
2166	0.00737463
2178	0.00687746
2190	0.00646316
2202	0.00687746
2214	0.00696032
2226	0.00671174
2238	0.00629744
2250	0.00621457
2262	0.0053031
2274	0.00497166
2286	0.00563455
2298	0.00513738
2310	0.00464022
2322	0.00464022
2334	0.00306586
2346	0.00348016
2358	0.00447449
2370	0.00497166
2382	0.00538597
2394	0.00588313
2406	0.00522024
2418	0.00538597
2430	0.00497166
2442	0.00430877
2454	0.00422591
2466	0.00414305
2478	0.00389447
2490	0.00381161
2502	0.00414305
2514	0.00422591
2526	0.00447449
2538	0.00538597
2550	0.00596599
2562	0.00704319
2574	0.00770607
2586	0.00845182
2598	0.00894899
2610	0.00919757
2622	0.00944615
2634	0.010109
2646	0.0105233
2658	0.0112691
2670	0.0127606
2682	0.0147493
2694	0.0144178
2706	0.0157436
2718	0.0170694
2730	0.0191409
2742	0.0234497
2754	0.0241126
2766	0.0247754
2778	0.0271784
2790	0.032813
2802	0.0377018
2814	0.0439163
2826	0.0559312
2838	0.0756521
2850	0.128186
2862	0.277087
2874	0.401379
2886	0.438003
2898	0.371052
2910	0.43444
2922	0.611846
2934	0.811209
2946	0.719482
2958	0.580524
2970	0.786599
2982	0.340476
2994	0.128932
3006	0.073912
3018	0.0514567
3030	0.0400219
3042	0.0323987
3054	0.0263498
3066	0.0234497
3078	0.0203009
3090	0.0187266
3102	0.0179808
3114	0.0159922
3126	0.0149978
3138	0.0137549
3150	0.0122634
3162	0.0118491
3174	0.011352
3186	0.0103576
3198	0.0097776
3210	0.00886613
3222	0.00737463
3234	0.00654602
3246	0.00712605
3258	0.00629744
3270	0.00687746
3282	0.00646316
3294	0.00596599
3306	0.00687746
3318	0.00662888
3330	0.0067946
3342	0.00580027
3354	0.00712605
3366	0.00696032
3378	0.00671174
3390	0.00712605
3402	0.00604885
3414	0.00646316
3426	0.00654602
3438	0.00704319
3450	0.0067946
3462	0.00712605
3474	0.0067946
3486	0.0063803
3498	0.00712605
3510	0.0063803
3522	0.00704319
3534	0.00671174
3546	0.00439163
3558	0.00604885
3570	0.00356302
3582	0.00704319
3594	0.00538597
3606	0.0067946
3618	0.00513738
3630	0.00356302
3642	0.0108548
3654	0.0176494
3666	0.0306586
3678	0.0242783
3690	0.0161579
3702	0.0145007
3714	0.00712605
3726	0.00696032
3738	0.00372875
3750	0.00273441
3762	0.00654602
3774	0.00886613
3786	0.00919757
3798	0.00820324
3810	0.00820324
3822	0.00604885
3834	0.00712605
3846	0.00762321
3858	0.00646316
3870	0.00629744
3882	0.0082861
3894	0.00613171
3906	0.00580027
3918	0.00621457
3930	0.00671174
3942	0.00472308
3954	0.00323158
3966	0.00356302
