Infrared Spectrum: 2-Propanone, 1-fluoren-9-yl-,
Formula: C 16 H 14 O
CAS: 2470-85-1
Origin: Sadtler Research Labs Under US-EPA Contract
1/CM	ABSORBANCE
450	0.000946869
462	0.000688632
474	0.00447611
486	0.00694371
498	0.00766103
510	0.0140596
522	0.0166993
534	0.0366697
546	0.0828941
558	0.0239013
570	0.0138874
582	0.0130553
594	0.0179905
606	0.0184783
618	0.0253933
630	0.0171584
642	0.00935392
654	0.0103869
666	0.0102721
678	0.00909568
690	0.00926784
702	0.00883744
714	0.0154655
726	0.1113
738	0.28693
750	0.230893
762	0.0549471
774	0.0125101
786	0.00955477
798	0.00806273
810	0.00789058
822	0.00622638
834	0.00708717
846	0.00680024
858	0.00768972
870	0.0086079
882	0.00886614
894	0.00677155
906	0.00717325
918	0.00720194
930	0.0104156
942	0.0150925
954	0.0129692
966	0.0138587
978	0.0116207
990	0.0123667
1002	0.0181053
1014	0.026914
1026	0.0291808
1038	0.0133422
1050	0.00783319
1062	0.00783319
1074	0.00783319
1086	0.00814881
1098	0.0132562
1110	0.0113624
1122	0.011965
1134	0.0245325
1146	0.0658791
1158	0.10559
1170	0.0555783
1182	0.0511309
1194	0.0431256
1206	0.0512744
1218	0.0438142
1230	0.0266845
1242	0.0167854
1254	0.0222371
1266	0.0330256
1278	0.0179618
1290	0.0189087
1302	0.0237865
1314	0.0358663
1326	0.0336282
1338	0.0472861
1350	0.0636411
1362	0.111702
1374	0.0540002
1386	0.0266845
1398	0.0253359
1410	0.0406867
1422	0.0375878
1434	0.0392233
1446	0.11569
1458	0.084214
1470	0.022151
1482	0.033829
1494	0.00852182
1506	0.00602553
1518	0.00479173
1530	0.00436134
1542	0.00183635
1554	0.00238152
1566	0.00461957
1578	0.0108173
1590	0.0142891
1602	0.0139448
1614	0.0107599
1626	0.00321362
1638	0.00321362
1650	0.00341447
1662	0.00987039
1674	0.0156377
1686	0.024676
1698	0.0436134
1710	0.068232
1722	0.148515
1734	0.273989
1746	0.0884892
1758	0.0325379
1770	0.0226675
1782	0.0173306
1794	0.0138874
1806	0.0111042
1818	0.00909568
1830	0.00746018
1842	0.00459088
1854	0.00424656
1866	0.00611161
1878	0.00527951
1890	0.00479173
1902	0.0119937
1914	0.00923915
1926	0.00439003
1938	0.0134283
1950	0.00834966
1962	0.00278322
1974	0.00134857
1986	0.00129119
1998	0.00143465
2010	0.00137726
2022	0.00137726
2034	0.00154942
2046	0.00129119
2058	0.00137726
2070	0.00152073
2082	0.00175027
2094	0.00157812
2106	0.00192243
2118	0.00149204
2130	0.00149204
2142	0.00117641
2154	0.00143465
2166	0.0016355
2178	0.00152073
2190	0.00146334
2202	0.00149204
2214	0.00106164
2226	0.000975562
2238	0.000889483
2250	0.000946869
2262	0.00160681
2274	0.00100426
2286	0.00117641
2298	0.00218067
2310	0.00398833
2322	0.00378748
2334	0.0024676
2346	0.00321362
2358	0.00160681
2370	0.000516474
2382	0.00195112
2394	0.00028693
2406	0.000373009
2418	0.000631246
2430	0.000430395
2442	0.000430395
2454	0.000889483
2466	0.00100426
2478	0.0012338
2490	0.00117641
2502	0.00129119
2514	0.00143465
2526	0.000918176
2538	0.000631246
2550	0.00103295
2562	0.00103295
2574	0.000946869
2586	0.00117641
2598	0.00100426
2610	0.00154942
2622	0.00154942
2634	0.00157812
2646	0.00111903
2658	0.000717325
2670	0.00086079
2682	0.000803404
2694	0.000946869
2706	0.000832097
2718	0.000631246
2730	0.000430395
2742	0.000832097
2754	0.0012338
2766	0.00143465
2778	0.00169289
2790	0.00169289
2802	0.00289799
2814	0.00347185
2826	0.00364401
2838	0.00416049
2850	0.00519343
2862	0.00688632
2874	0.0118215
2886	0.021032
2898	0.0361819
2910	0.0358663
2922	0.0334847
2934	0.0317918
2946	0.0179618
2958	0.01888
2970	0.0204581
2982	0.0121371
2994	0.0127397
3006	0.0269714
3018	0.0582755
3030	0.0647888
3042	0.0665678
3054	0.0717899
3066	0.129492
3078	0.143379
3090	0.0509875
3102	0.0220362
3114	0.006169
3126	0.00312754
3138	0.00321362
3150	0.00401702
3162	0.00461957
3174	0.00232413
3186	0.000717325
3198	0.000803404
3210	0.00103295
3222	0.000229544
3234	0.000832097
3246	0.000659939
3258	0.000229544
3270	0.000459088
3282	0.000315623
3294	0.00111903
3306	0.00126249
3318	0.000545167
3330	0.00114772
3342	0.000975562
3354	0.00086079
3366	0.00152073
3378	0.00197982
3390	0.00212328
3402	0.00229544
3414	0.00284061
3426	0.00407441
3438	0.00421787
3450	0.00476304
3462	0.00309884
3474	0.00252498
3486	0.00263976
3498	0.00200851
3510	0.00175027
3522	0.00180766
3534	0.00152073
3546	0.0020659
3558	0.00195112
3570	0.00252498
3582	0.00215197
3594	0.00278322
3606	0.00195112
3618	0.00160681
3630	0.00249629
3642	0.00263976
3654	0.00241021
3666	0.00232413
3678	0.0012338
3690	0.00183635
3702	0.00137726
3714	0.00160681
3726	0.00183635
3738	0.00169289
3750	0.00103295
3762	0.00140596
3774	0.000659939
3786	0.00129119
3798	0.00137726
3810	0.00177897
3822	0.00117641
3834	0.00149204
3846	0.00218067
3858	0.00111903
3870	0.0020372
3882	0.00252498
3894	0.00192243
3906	0.00226675
3918	0.00229544
3930	0.00275453
3942	0.00177897
3954	0.00295538
3966	0.00263976
