Infrared Spectrum: 1-Chloroundecane
Formula: C 11 H 23 Cl
CAS: 2473-03-2
Origin: Sadtler Research Labs Under US-EPA Contract
1/CM	ABSORBANCE
450	0.00276396
462	0.00686532
474	0.00508212
486	0.00383388
498	0.00151572
510	0.00766776
522	0.00597372
534	0.00686532
546	0.00454716
558	0.00526044
570	0.00659784
582	0.0031206
594	0.00766776
606	0.00606288
618	0.00731112
630	0.0110558
642	0.0141764
654	0.0305819
666	0.037893
678	0.0149789
690	0.0135523
702	0.0203285
714	0.0314735
726	0.0461849
738	0.055725
750	0.0421727
762	0.029512
774	0.02229
786	0.016138
798	0.0148897
810	0.0146222
822	0.0142656
834	0.0131065
846	0.0120366
858	0.0132848
870	0.0124824
882	0.0121258
894	0.0121258
906	0.0127499
918	0.0110558
930	0.0121258
942	0.0118583
954	0.0106992
966	0.0115016
978	0.01168
990	0.0106992
1002	0.0106992
1014	0.0101642
1026	0.0110558
1038	0.0105209
1050	0.0109667
1062	0.0105209
1074	0.0093618
1086	0.00829188
1098	0.00784608
1110	0.00811356
1122	0.00740028
1134	0.00704364
1146	0.0071328
1158	0.00722196
1170	0.00820272
1182	0.0084702
1194	0.0080244
1206	0.00855936
1218	0.00900516
1230	0.0113233
1242	0.0138198
1254	0.0194369
1266	0.0241624
1278	0.0323651
1290	0.0460066
1302	0.0476114
1314	0.0427968
1326	0.0320084
1338	0.0255889
1350	0.0307602
1362	0.0293336
1374	0.0257672
1386	0.0240732
1398	0.0142656
1410	0.01168
1422	0.0148006
1434	0.024519
1446	0.051267
1458	0.085237
1470	0.0742703
1482	0.0297794
1494	0.013909
1506	0.0131065
1518	0.00900516
1530	0.0071328
1542	0.0107884
1554	0.00659784
1566	0.00588456
1578	0.0071328
1590	0.004458
1602	0.0049038
1614	0.0049038
1626	0.00543876
1638	0.00695448
1650	0.00508212
1662	0.00463632
1674	0.00472548
1686	0.00748944
1698	0.00695448
1710	0.00436884
1722	0.00419052
1734	0.00659784
1746	0.00436884
1758	0.00427968
1770	0.004458
1782	0.00383388
1794	0.00436884
1806	0.00276396
1818	0.00276396
1830	0.00374472
1842	0.00285312
1854	0.00249648
1866	0.00249648
1878	0.00258564
1890	0.00276396
1902	0.00240732
1914	0.00231816
1926	0.00231816
1938	0.00231816
1950	0.00231816
1962	0.002229
1974	0.00213984
1986	0.00213984
1998	0.00205068
2010	0.0026748
2022	0.00249648
2034	0.00303144
2046	0.00294228
2058	0.00303144
2070	0.00249648
2082	0.00240732
2094	0.0017832
2106	0.00231816
2118	0.00213984
2130	0.002229
2142	0.00213984
2154	0.00196152
2166	0.00205068
2178	0.00205068
2190	0.00196152
2202	0.00205068
2214	0.00169404
2226	0.00169404
2238	0.00196152
2250	0.0013374
2262	0.00187236
2274	0.0017832
2286	0.00160488
2298	0.0017832
2310	0.00205068
2322	0.00258564
2334	0.00365556
2346	0.00347724
2358	0.00240732
2370	0.00329892
2382	0.00160488
2394	0.0008916
2406	0.0013374
2418	0.0017832
2430	0.0013374
2442	0.00071328
2454	0.00062412
2466	0.00071328
2478	0.00071328
2490	0.00053496
2502	0.00053496
2514	0.00106992
2526	0.00151572
2538	0.00151572
2550	0.00160488
2562	0.00160488
2574	0.00213984
2586	0.0026748
2598	0.0026748
2610	0.00320976
2622	0.00427968
2634	0.00427968
2646	0.00481464
2658	0.0057954
2670	0.00686532
2682	0.00784608
2694	0.00793524
2706	0.00650868
2718	0.00615204
2730	0.00704364
2742	0.00820272
2754	0.00882684
2766	0.00855936
2778	0.00918348
2790	0.0117691
2802	0.0159596
2814	0.0213984
2826	0.0301361
2838	0.0477898
2850	0.113055
2862	0.331408
2874	0.287274
2886	0.191783
2898	0.165748
2910	0.256246
2922	0.484941
2934	0.8916
2946	0.609498
2958	0.32909
2970	0.347813
2982	0.137841
2994	0.0861286
3006	0.0622337
3018	0.0282637
3030	0.0194369
3042	0.0143548
3054	0.0106992
3066	0.00829188
3078	0.00722196
3090	0.00606288
3102	0.00552792
3114	0.00454716
3126	0.0040122
3138	0.00383388
3150	0.00347724
3162	0.00419052
3174	0.00320976
3186	0.00320976
3198	0.00276396
3210	0.00294228
3222	0.00294228
3234	0.00249648
3246	0.00169404
3258	0.00205068
3270	0.00106992
3282	0.00062412
3294	0.0017832
3306	0.00124824
3318	0.00169404
3330	0.0013374
3342	0.00080244
3354	0.00124824
3366	0.00187236
3378	0.00205068
3390	0.00142656
3402	0.0017832
3414	0.00151572
3426	0.00124824
3438	0.00115908
3450	0.00115908
3462	0.00142656
3474	0.0013374
3486	0.0013374
3498	0.00142656
3510	0.00115908
3522	0.00080244
3534	0.00106992
3546	0.00151572
3558	0.00169404
3570	0.00231816
3582	0.00187236
3594	0.0026748
3606	0.0017832
3618	0.00338808
3630	0.00454716
3642	0.00329892
3654	0.00436884
3666	0.00347724
3678	0.00419052
3690	0.00454716
3702	0.00347724
3714	0.00410136
3726	0.0040122
3738	0.0049038
3750	0.00499296
3762	0.00419052
3774	0.00374472
3786	0.00383388
3798	0.0049038
3810	0.00499296
3822	0.00543876
3834	0.00543876
3846	0.00499296
3858	0.00517128
3870	0.00508212
3882	0.00508212
3894	0.00517128
3906	0.00526044
3918	0.00481464
3930	0.00481464
3942	0.004458
3954	0
3966	0.00035664
