Infrared Spectrum: 3,3-Dimethyl-2-butanone oxime
Formula: C 6 H 13 N O
CAS: 2475-93-6
Origin: Sadtler Research Labs Under US-EPA Contract
1/CM	ABSORBANCE
450	0.00465234
462	0.0199514
474	0.0130623
486	0.00456287
498	0.00178936
510	0.00313138
522	0.0022367
534	0.00590489
546	0.0219197
558	0.062896
570	0.0656695
582	0.0152096
594	0.00366819
606	0.00527861
618	0.0064417
630	0.00823106
642	0.00975201
654	0.0134202
666	0.016641
678	0.0217407
690	0.0260352
702	0.0281824
714	0.0386502
726	0.0802528
738	0.0896469
750	0.0442867
762	0.0188777
774	0.0146728
786	0.0148517
798	0.0118992
810	0.0067101
822	0.00456287
834	0.00733638
846	0.00814159
858	0.00912574
870	0.0158358
882	0.0503705
894	0.197187
906	0.50111
918	0.610798
930	0.300076
942	0.0945677
954	0.0751531
966	0.093673
978	0.123555
990	0.114966
1002	0.0650432
1014	0.0399922
1026	0.0675483
1038	0.0803423
1050	0.0423184
1062	0.0138675
1074	0.00563648
1086	0.00214723
1098	0.000984148
1110	0.004205
1122	0.0144938
1134	0.0575279
1146	0.183141
1158	0.221702
1170	0.0986832
1182	0.0423184
1194	0.0492969
1206	0.053144
1218	0.0310454
1230	0.0140465
1242	0.00787318
1254	0.0122571
1266	0.0375766
1278	0.0611066
1290	0.0517125
1302	0.0337294
1314	0.0392765
1326	0.138407
1338	0.315912
1350	0.329242
1362	0.240758
1374	0.257221
1386	0.166768
1398	0.0725585
1410	0.0487601
1422	0.0397238
1434	0.0421394
1446	0.0608382
1458	0.103783
1470	0.139481
1482	0.125166
1494	0.0746163
1506	0.0300612
1518	0.0186988
1530	0.0160148
1542	0.0143149
1554	0.0134202
1566	0.0138675
1578	0.0124361
1590	0.00760478
1602	0.00599436
1614	0.0064417
1626	0.011273
1638	0.0179831
1650	0.0174463
1662	0.00724691
1674	0.0025051
1686	0.00286298
1698	0.00626276
1710	0.0116308
1722	0.0174463
1734	0.0185199
1746	0.0147622
1758	0.0114519
1770	0.00858893
1782	0.00536808
1794	0.00492074
1806	0.00527861
1818	0.00518914
1830	0.0044734
1842	0.00214723
1854	0.00089468
1866	0.00044734
1878	0.000357872
1890	0.000715744
1902	0.000536808
1914	0.00044734
1926	0.000536808
1938	0.00125255
1950	0.00143149
1962	0.00125255
1974	0.00107362
1986	0.000715744
1998	0.00107362
2010	0.00107362
2022	0.00116308
2034	0.00134202
2046	0.00161042
2058	0.00169989
2070	0.00169989
2082	0.00134202
2094	0.00161042
2106	0.00169989
2118	0.00116308
2130	0.000805212
2142	0.000178936
2154	0.000268404
2166	0.000626276
2178	0.00107362
2190	0.00161042
2202	0.00214723
2214	0.0019683
2226	0.00143149
2238	0.00232617
2250	0.00286298
2262	0.0019683
2274	0.00205776
2286	0.00357872
2298	0.0044734
2310	0.00366819
2322	0.00143149
2334	0.00116308
2346	0.0022367
2358	0.00152096
2370	0.00411553
2382	0.00465234
2394	0.00178936
2406	0.00134202
2418	0.00089468
2430	0.000357872
2442	0.000805212
2454	0.000626276
2466	0.00089468
2478	0.00116308
2490	0.00187883
2502	0.0019683
2514	0.00187883
2526	0.0022367
2538	0.00259457
2550	0.00331032
2562	0.00366819
2574	0.00348925
2586	0.00429446
2598	0.0064417
2610	0.00751531
2622	0.00617329
2634	0.00501021
2646	0.00509968
2658	0.00679957
2670	0.00840999
2682	0.00796265
2694	0.00599436
2706	0.00572595
2718	0.00832052
2730	0.00993095
2742	0.00876786
2754	0.00823106
2766	0.00840999
2778	0.00912574
2790	0.0119887
2802	0.015478
2814	0.0169989
2826	0.0195935
2838	0.0255878
2850	0.0401711
2862	0.0865156
2874	0.167842
2886	0.200766
2898	0.20005
2910	0.251495
2922	0.28755
2934	0.314122
2946	0.372903
2958	0.556759
2970	0.873744
2982	0.761999
2994	0.346778
3006	0.137691
3018	0.0648643
3030	0.0424973
3042	0.0335505
3054	0.0282719
3066	0.0239774
3078	0.020846
3090	0.0172673
3102	0.015478
3114	0.0135097
3126	0.0120782
3138	0.0113624
3150	0.0113624
3162	0.0100204
3174	0.0089468
3186	0.00912574
3198	0.00939414
3210	0.00930467
3222	0.00903627
3234	0.00805212
3246	0.00688904
3258	0.0067101
3270	0.00787318
3282	0.00787318
3294	0.00653116
3306	0.00527861
3318	0.00456287
3330	0.00339978
3342	0.00205776
3354	0.00178936
3366	0.00125255
3378	0.00107362
3390	0.00178936
3402	0.00205776
3414	0.00187883
3426	0.00169989
3438	0.00143149
3450	0.000984148
3462	0.000715744
3474	0.000715744
3486	0.000536808
3498	0.000715744
3510	0.00089468
3522	0.00187883
3534	0.0019683
3546	0.00214723
3558	0.00205776
3570	0.00214723
3582	0.00375766
3594	0.00769425
3606	0.0136886
3618	0.032119
3630	0.143686
3642	0.438483
3654	0.420052
3666	0.11273
3678	0.0202198
3690	0.0104678
3702	0.00688904
3714	0.00322085
3726	0.00152096
3738	0.00169989
3750	0
3762	0.000268404
3774	0.00125255
3786	0.00169989
3798	0.00116308
3810	0.00268404
3822	0.00187883
3834	0.00152096
3846	0.00286298
3858	0.00259457
3870	0.00241564
3882	0.00295244
3894	0.00411553
3906	0.00411553
3918	0.00402606
3930	0.004205
3942	0.00384712
3954	0.00384712
3966	0.00501021
