Infrared Spectrum: Ethanone, 1-(2,5-dichlorophenyl)-
Formula: C 8 H 6 Cl 2 O
CAS: 2476-37-1
Origin: Sadtler Research Labs Under US-EPA Contract
1/CM	ABSORBANCE
450	0.0119621
462	0.0181157
474	0.0268572
486	0.0102943
498	0.00753381
510	0.0320331
522	0.0871277
534	0.0881628
546	0.0693571
558	0.0839071
570	0.0449153
582	0.0239817
594	0.0301928
606	0.0699897
618	0.0641812
630	0.0178856
642	0.00161028
654	0.00258795
666	0.00270297
678	0.0119621
690	0.0129398
702	0.00511839
714	0.00879903
726	0.00695871
738	0.00534843
750	0.00218538
762	0.00184032
774	0.00299052
786	0.00598104
798	0.0254194
810	0.163271
822	0.182307
834	0.0231765
846	0.00954666
858	0.0114445
870	0.0262821
882	0.0710249
894	0.0465256
906	0.011502
918	0.00879903
930	0.0110419
942	0.0158152
954	0.0290426
966	0.0406021
978	0.0293876
990	0.0186332
1002	0.0213937
1014	0.0332983
1026	0.0625134
1038	0.177591
1050	0.177591
1062	0.0630885
1074	0.0527367
1086	0.110247
1098	0.327174
1110	0.232455
1122	0.0565323
1134	0.054462
1146	0.0566474
1158	0.0367489
1170	0.0391643
1182	0.0401995
1194	0.0493436
1206	0.0964443
1218	0.279326
1230	0.374103
1242	0.123992
1254	0.163616
1266	0.401362
1278	0.259543
1290	0.0578551
1302	0.0243267
1314	0.0201285
1326	0.0266846
1338	0.0399119
1350	0.0988597
1362	0.195764
1374	0.195304
1386	0.290138
1398	0.0966743
1410	0.0561298
1422	0.0666541
1434	0.0848273
1446	0.134056
1458	0.311417
1470	0.219573
1482	0.0469282
1494	0.0229465
1506	0.0181157
1518	0.01455
1530	0.0128247
1542	0.0219113
1554	0.0517015
1566	0.0479058
1578	0.0415797
1590	0.0416372
1602	0.0243842
1614	0.0290426
1626	0.0350236
1638	0.0331258
1650	0.0241542
1662	0.0312279
1674	0.0599254
1686	0.116803
1698	0.170287
1710	0.379393
1722	0.565496
1734	0.232513
1746	0.110189
1758	0.0618233
1770	0.0377841
1782	0.0322631
1794	0.0220263
1806	0.0105818
1818	0.0086265
1830	0.00839646
1842	0.00845397
1854	0.00563598
1866	0.00442827
1878	0.00787887
1890	0.0147801
1902	0.00983421
1914	0.00442827
1926	0.00362313
1938	0.00396819
1950	0.00471582
1962	0.00488835
1974	0.00500337
1986	0.00368064
1998	0.00494586
2010	0.00534843
2022	0.00488835
2034	0.0040257
2046	0.00322056
2058	0.00276048
2070	0.00178281
2082	5.751e-05
2094	0.00155277
2106	0.00310554
2118	0.00437076
2130	0.00437076
2142	0.00339309
2154	0.00333558
2166	0.00310554
2178	0.00299052
2190	0.00391068
2202	0.00339309
2214	0.00327807
2226	0.00350811
2238	0.00379566
2250	0.00396819
2262	0.00425574
2274	0.00511839
2286	0.00414072
2298	0.00247293
2310	0.0011502
2322	0.00011502
2334	0.00299052
2346	0.00408321
2358	5.751e-05
2370	0.00793638
2382	0.00644112
2394	0.00500337
2406	0.00362313
2418	0.00316305
2430	0.00373815
2442	0.00368064
2454	0.00471582
2466	0.00477333
2478	0.00500337
2490	0.00483084
2502	0.00552096
2514	0.00540594
2526	0.005751
2538	0.00506088
2550	0.00592353
2562	0.00414072
2574	0.00362313
2586	0.00655614
2598	0.00799389
2610	0.00954666
2622	0.00874152
2634	0.00787887
2646	0.00966168
2658	0.00603855
2670	0.00396819
2682	0.0046008
2694	0.00672867
2706	0.00552096
2718	0.00552096
2730	0.00465831
2742	0.0051759
2754	0.0051759
2766	0.00563598
2778	0.00586602
2790	0.00730377
2802	0.00736128
2814	0.00782136
2826	0.00828144
2838	0.00799389
2850	0.00966168
2862	0.00902907
2874	0.00770634
2886	0.00856899
2898	0.00782136
2910	0.00908658
2922	0.0117896
2934	0.0167929
2946	0.0147801
2958	0.0149526
2970	0.0163328
2982	0.0163328
2994	0.017368
3006	0.023004
3018	0.0262821
3030	0.0196109
3042	0.0153552
3054	0.0131698
3066	0.0154702
3078	0.0207036
3090	0.0162753
3102	0.0132848
3114	0.0109269
3126	0.00816642
3138	0.00644112
3150	0.00552096
3162	0.00552096
3174	0.00592353
3186	0.00511839
3198	0.00385317
3210	0.00368064
3222	0.00431325
3234	0.00391068
3246	0.00477333
3258	0.00299052
3270	0.00350811
3282	0.00523341
3294	0.00500337
3306	0.00465831
3318	0.00408321
3330	0.00212787
3342	0.00184032
3354	0.0028755
3366	0.00477333
3378	0.00425574
3390	0.00442827
3402	0.00615357
3414	0.0074763
3426	0.00713124
3438	0.00586602
3450	0.00304803
3462	0.00126522
3474	0.00109269
3486	0.00322056
3498	0.00494586
3510	0.0034506
3522	0.00350811
3534	0.00040257
3546	0.00276048
3558	0.0028755
3570	0.00264546
3582	0.00304803
3594	0.0034506
3606	0.00454329
3618	0.00149526
3630	0.00465831
3642	0.00379566
3654	0.00454329
3666	0.00350811
3678	0.00408321
3690	0.00701622
3702	0.00333558
3714	0.00465831
3726	0.00264546
3738	0.00368064
3750	0.00391068
3762	0.00701622
3774	0.00419823
3786	0.00322056
3798	0.00264546
3810	0.0046008
3822	0.00293301
3834	0.00276048
3846	0.0011502
3858	0.00155277
3870	0.0046008
3882	0.00379566
3894	0.00425574
3906	0.00339309
3918	0.0023004
3930	5.751e-05
3942	0
3954	5.751e-05
3966	0.00241542
