Infrared Spectrum: Ethanone, 1-(4-hydroxy-3,5-dimethoxyphenyl)-
Formula: C 10 H 12 O 4
CAS: 2478-38-8
Origin: Sadtler Research Labs Under US-EPA Contract
1/CM	ABSORBANCE
450	0.0551146
462	0.0765314
474	0.0946534
486	0.0799761
498	0.0681444
510	0.0479258
522	0.0347462
534	0.0377415
546	0.0256103
558	0.0404374
570	0.025161
582	0.0820729
594	0.152913
606	0.146473
618	0.0781789
630	0.0386401
642	0.0555639
654	0.0464281
666	0.0205182
678	0.00688933
690	0.0137787
702	0.00883631
714	0.00838701
726	0.00868654
738	0.0211173
750	0.0567621
762	0.0464281
774	0.0912087
786	0.0948031
798	0.0277071
810	0.014827
822	0.0221657
834	0.0525686
846	0.0491239
858	0.0853678
870	0.0957018
882	0.0736859
894	0.0554142
906	0.0608058
918	0.0835705
930	0.0501723
942	0.0339973
954	0.0408867
966	0.074884
978	0.0718886
990	0.0476262
1002	0.0509211
1014	0.0687435
1026	0.10334
1038	0.10993
1050	0.0934552
1062	0.117268
1074	0.203834
1086	0.356448
1098	0.579003
1110	0.76157
1122	0.590086
1134	0.269882
1146	0.136139
1158	0.117568
1170	0.181219
1182	0.347761
1194	0.482253
1206	0.923919
1218	0.935002
1230	0.45844
1242	0.223304
1254	0.214168
1266	0.251011
1278	0.245769
1290	0.230044
1302	0.453048
1314	1.2266
1326	1.30508
1338	0.435825
1350	0.32904
1362	0.524937
1374	0.336229
1386	0.217463
1398	0.153962
1410	0.298637
1422	0.495582
1434	0.27752
1446	0.18077
1458	0.313614
1470	0.320054
1482	0.239479
1494	0.311368
1506	0.420399
1518	0.279168
1530	0.130448
1542	0.0468774
1554	0.0552644
1566	0.0879138
1578	0.151266
1590	0.28381
1602	0.441965
1614	0.381459
1626	0.156358
1638	0.0693426
1650	0.072937
1662	0.0954022
1674	0.0977985
1686	0.207878
1698	0.689682
1710	0.242624
1722	0.0411862
1734	0.0298038
1746	0.0401378
1758	0.0175229
1770	0.0079377
1782	0.00554142
1794	0.00149768
1806	0.00479258
1818	0.00404374
1830	0.00074884
1842	0.0041935
1854	0.00554142
1866	0.00389397
1878	0.00569118
1890	0
1902	0.00314513
1914	0.00524188
1926	0.0070391
1938	0.00958515
1950	0.00898608
1962	0.00778794
1974	0.00539165
1986	0.00688933
1998	0.00778794
2010	0.0079377
2022	0.00868654
2034	0.00838701
2046	0.00509211
2058	0.00449304
2070	0.00524188
2082	0.00718886
2094	0.0101842
2106	0.0109331
2118	0.0106335
2130	0.0100345
2142	0.00823724
2154	0.00449304
2166	0.00479258
2178	0.00344466
2190	0.00479258
2202	0.00494234
2214	0.00344466
2226	0.00569118
2238	0.00524188
2250	0.00299536
2262	0.00209675
2274	0.0041935
2286	0.00479258
2298	0.00479258
2310	0.00509211
2322	0.00194698
2334	0
2346	0.000149768
2358	0.00224652
2370	0
2382	0.00074884
2394	0
2406	0.000599072
2418	0.00134791
2430	0.00149768
2442	0.00224652
2454	0.00269582
2466	0.00479258
2478	0.00614049
2490	0.00494234
2502	0.00389397
2514	0.00509211
2526	0.00599072
2538	0.00464281
2550	0.00494234
2562	0.00404374
2574	0.00224652
2586	0.00239629
2598	0.00299536
2610	0.00269582
2622	0.00509211
2634	0.00688933
2646	0.00853678
2658	0.00629026
2670	0.00404374
2682	0.0032949
2694	0.00479258
2706	0.00524188
2718	0.00554142
2730	0.00763817
2742	0.0074884
2754	0.0070391
2766	0.00404374
2778	0.00284559
2790	0.00644002
2802	0.0116819
2814	0.020668
2826	0.0344466
2838	0.0666468
2850	0.117418
2862	0.0834208
2874	0.0621537
2886	0.0612551
2898	0.05811
2910	0.0693426
2922	0.0989966
2934	0.127003
2946	0.207129
2958	0.20009
2970	0.154111
2982	0.123109
2994	0.100345
3006	0.16145
3018	0.170885
3030	0.0609556
3042	0.0327992
3054	0.0265089
3066	0.0275573
3078	0.0371425
3090	0.0426839
3102	0.0327992
3114	0.0224652
3126	0.0155759
3138	0.010334
3150	0.0100345
3162	0.00868654
3174	0.0109331
3186	0.0127303
3198	0.0100345
3210	0.00658979
3222	0.00539165
3234	0.00614049
3246	0.00778794
3258	0.0100345
3270	0.0116819
3282	0.010334
3294	0.0106335
3306	0.0101842
3318	0.00823724
3330	0.00943538
3342	0.0116819
3354	0.0166242
3366	0.0205182
3378	0.025161
3390	0.0140782
3402	0.00569118
3414	0.0106335
3426	0.0145275
3438	0.0175229
3450	0.0200689
3462	0.0212671
3474	0.0199191
3486	0.0190205
3498	0.0191703
3510	0.020668
3522	0.0272578
3534	0.0341471
3546	0.0591584
3558	0.194998
3570	0.400629
3582	0.26494
3594	0.0639509
3606	0.018721
3618	0.00928562
3630	0.00733863
3642	0.00868654
3654	0.00539165
3666	0.00464281
3678	0.00209675
3690	0.00554142
3702	0.00778794
3714	0.00973492
3726	0.0217164
3738	0.041935
3750	0.0422346
3762	0.0233638
3774	0.00778794
3786	0.00853678
3798	0.0110828
3810	0.0121312
3822	0.0124307
3834	0.0131796
3846	0.0101842
3858	0.00913585
3870	0.00838701
3882	0.00808747
3894	0.012281
3906	0.0155759
3918	0.0158754
3930	0.00958515
3942	0.00554142
3954	0.0032949
3966	0.0109331
