Infrared Spectrum: 2-Decenoic acid, methyl ester
Formula: C 11 H 20 O 2
CAS: 2482-39-5
Origin: Sadtler Research Labs Under US-EPA Contract
1/CM	ABSORBANCE
450	0
462	0.000573075
474	0.0010188
486	0.00222863
498	0.00553973
510	0.00592178
522	0.0058581
534	0.00757733
546	0.00725895
558	0.00388418
570	0.00503033
582	0.00655852
594	0.0038205
606	0.00477563
618	0.002547
630	0.000573075
642	0.00337477
654	0.00573075
666	0.00286538
678	0.0081504
690	0.0119072
702	0.0206307
714	0.027635
726	0.0210128
738	0.0133717
750	0.010379
762	0.0100607
774	0.010379
786	0.00751365
798	0.0110795
810	0.0110158
822	0.0193572
834	0.0216495
846	0.0278897
858	0.0248333
870	0.0192298
882	0.0194845
894	0.0189115
906	0.0165555
918	0.0195482
930	0.0200576
942	0.0171286
954	0.0231777
966	0.0440631
978	0.0753912
990	0.0508127
1002	0.0347029
1014	0.0431716
1026	0.0718254
1038	0.10118
1050	0.109203
1062	0.0639297
1074	0.0457186
1086	0.0345755
1098	0.0313918
1110	0.0483293
1122	0.084242
1134	0.0827138
1146	0.0853882
1158	0.19561
1170	0.276095
1182	0.251325
1194	0.249097
1206	0.238972
1218	0.145816
1230	0.115506
1242	0.135691
1254	0.200895
1266	0.368551
1278	0.24795
1290	0.160779
1302	0.149509
1314	0.166701
1326	0.155049
1338	0.1206
1350	0.0848788
1362	0.0494755
1374	0.0343208
1386	0.030755
1398	0.0202486
1410	0.0216495
1422	0.0264251
1434	0.0811856
1446	0.117353
1458	0.0662857
1470	0.063675
1482	0.0304367
1494	0.015282
1506	0.0112705
1518	0.0084051
1530	0.0078957
1542	0.00553973
1554	0.00719528
1566	0.00655852
1578	0.00624015
1590	0.0068769
1602	0.00706793
1614	0.00872347
1626	0.0137538
1638	0.0297999
1650	0.0764737
1662	0.154667
1674	0.0492208
1686	0.0221589
1698	0.0296089
1710	0.0502396
1722	0.0866617
1734	0.206625
1746	0.63675
1758	0.289403
1770	0.116589
1782	0.0494755
1794	0.0215222
1806	0.0124166
1818	0.00783203
1830	0.00592178
1842	0.00439358
1854	0.00464828
1866	0.00337477
1878	0.00343845
1890	0.0035658
1902	0.00337477
1914	0.0030564
1926	0.002547
1938	0.0020376
1950	0.002547
1962	0.00286538
1974	0.00235598
1986	0.00267435
1998	0.00222863
2010	0.0033111
2022	0.0038205
2034	0.00426623
2046	0.00490298
2058	0.0048393
2070	0.00528503
2082	0.00528503
2094	0.00579443
2106	0.00566708
2118	0.0045846
2130	0.00350213
2142	0.00286538
2154	0.00261068
2166	0.00191025
2178	0.00191025
2190	0.0020376
2202	0.00191025
2214	0.00146453
2226	0.00146453
2238	0.00146453
2250	0.0010188
2262	0.00146453
2274	0.00108248
2286	0.00159187
2298	0.00114615
2310	0.00120983
2322	0.0015282
2334	0.00191025
2346	0.00261068
2358	0.002547
2370	0.0017829
2382	0.00197393
2394	0.00140085
2406	0.00191025
2418	0.0015282
2430	0.00146453
2442	0.00197393
2454	0.00197393
2466	0.00197393
2478	0.00146453
2490	0.00241965
2502	0.00210128
2514	0.00216495
2526	0.0017829
2538	0.00235598
2550	0.002547
2562	0.00318375
2574	0.00273803
2586	0.00312007
2598	0.00394785
2610	0.0033111
2622	0.00394785
2634	0.00394785
2646	0.00522135
2658	0.00541238
2670	0.00604913
2682	0.0071316
2694	0.00604913
2706	0.0056034
2718	0.00541238
2730	0.00617647
2742	0.00732263
2754	0.0066222
2766	0.00725895
2778	0.00783203
2790	0.010379
2802	0.012735
2814	0.0166828
2826	0.0232414
2838	0.0374409
2850	0.0875531
2862	0.189369
2874	0.192808
2886	0.14155
2898	0.121428
2910	0.168993
2922	0.295261
2934	0.560022
2946	0.454194
2958	0.309142
2970	0.307041
2982	0.128624
2994	0.0710613
3006	0.0578169
3018	0.0466101
3030	0.0438084
3042	0.0321559
3054	0.0262341
3066	0.0236871
3078	0.0165555
3090	0.0124803
3102	0.00980595
3114	0.00776835
3126	0.00770468
3138	0.00573075
3150	0.00541238
3162	0.00598545
3174	0.00388418
3186	0.00445725
3198	0.00375683
3210	0.00350213
3222	0.00318375
3234	0.00273803
3246	0.00216495
3258	0.00273803
3270	0.000955125
3282	0.002547
3294	0.00108248
3306	0.00248333
3318	0.0015282
3330	0.00210128
3342	0.0030564
3354	0.00273803
3366	0.00267435
3378	0.00222863
3390	0.00324742
3402	0.0033111
3414	0.0022923
3426	0.00286538
3438	0.00235598
3450	0.0015282
3462	0.00413888
3474	0.0048393
3486	0.00350213
3498	0.00216495
3510	0.00140085
3522	0.00312007
3534	0.00191025
3546	0.00261068
3558	0.00324742
3570	0.00394785
3582	0.00643117
3594	0.00375683
3606	0.00375683
3618	0.00337477
3630	0.00394785
3642	0.00388418
3654	0.0048393
3666	0.00394785
3678	0.0038205
3690	0.0043299
3702	0.0040752
3714	0.00286538
3726	0.00318375
3738	0.0043299
3750	0.00388418
3762	0.00375683
3774	0.0043299
3786	0.00401153
3798	0.00420255
3810	0.00426623
3822	0.0043299
3834	0.0040752
3846	0.0040752
3858	0.00394785
3870	0.00337477
3882	0.00452093
3894	0.00324742
3906	0.00388418
3918	0.00369315
3930	0.00318375
3942	0.00337477
3954	0.0038205
3966	0.0043299
