Infrared Spectrum: Acetophenone, 2'-hydroxy-2-phenyl-,
Formula: C 14 H 12 O 2
CAS: 2491-31-8
Origin: Sadtler Research Labs Under US-EPA Contract
1/CM	ABSORBANCE
450	0
462	0.0183165
474	0.0334047
486	0.0176147
498	0.0137549
510	0.0432296
522	0.0305976
534	0.0128426
546	0.0154392
558	0.019299
570	0.0367031
582	0.0387383
594	0.0383874
606	0.0908103
618	0.109829
630	0.0954421
642	0.0393699
654	0.0369136
666	0.0564933
678	0.077687
690	0.142812
702	0.208499
714	0.223447
726	0.207727
738	0.237482
750	0.414892
762	0.176287
774	0.0986703
786	0.0811258
798	0.0424577
810	0.0255448
822	0.0218955
834	0.0447034
846	0.0541774
858	0.0345978
870	0.0201411
882	0.0107372
894	0.0100355
906	0.012211
918	0.0145268
930	0.0234395
942	0.0242114
954	0.0119303
966	0.0174041
978	0.0401418
990	0.0905998
1002	0.0760028
1014	0.0558617
1026	0.0833013
1038	0.0731255
1050	0.0175445
1062	0.0146672
1074	0.0221061
1086	0.0187375
1098	0.0210534
1110	0.0313696
1122	0.0783888
1134	0.0895471
1146	0.249413
1158	0.302186
1170	0.0931964
1182	0.0981088
1194	0.147865
1206	0.174743
1218	0.272431
1230	0.22064
1242	0.311731
1254	0.297485
1266	0.198604
1278	0.20906
1290	0.183656
1302	0.284502
1314	0.30745
1326	0.205762
1338	0.238535
1350	0.212288
1362	0.150813
1374	0.0978281
1386	0.0698271
1398	0.0639322
1410	0.0682832
1422	0.074529
1434	0.122952
1446	0.258395
1458	0.227517
1470	0.159655
1482	0.27973
1494	0.321977
1506	0.142391
1518	0.0736167
1530	0.0565635
1542	0.0538967
1554	0.0568442
1566	0.102249
1578	0.241904
1590	0.192849
1602	0.208639
1614	0.262185
1626	0.199376
1638	0.349136
1650	0.70178
1662	0.435384
1674	0.169901
1686	0.0795819
1698	0.0491246
1710	0.0336153
1722	0.0259659
1734	0.0212639
1746	0.0188077
1758	0.0182463
1770	0.0187375
1782	0.0197902
1794	0.0284923
1806	0.0237202
1818	0.0175445
1830	0.0170533
1842	0.014597
1854	0.0144567
1866	0.0170533
1878	0.0185972
1890	0.0157199
1902	0.0134742
1914	0.0186673
1926	0.016562
1938	0.0225271
1950	0.028773
1962	0.0188077
1974	0.0124215
1986	0.0119303
1998	0.0119303
2010	0.0115794
2022	0.0109478
2034	0.0112285
2046	0.0112987
2058	0.0113688
2070	0.0119303
2082	0.0112987
2094	0.011439
2106	0.0104565
2118	0.010246
2130	0.0106671
2142	0.0112987
2154	0.0115794
2166	0.0113688
2178	0.0109478
2190	0.0108776
2202	0.0105969
2214	0.0105267
2226	0.0100355
2238	0.0098951
2250	0.0109478
2262	0.0115794
2274	0.0127724
2286	0.0136847
2298	0.0139654
2310	0.0143163
2322	0.0151584
2334	0.0147374
2346	0.0164918
2358	0.0132636
2370	0.0149479
2382	0.0145268
2394	0.012632
2406	0.0124917
2418	0.0127724
2430	0.0132636
2442	0.013404
2454	0.0139654
2466	0.014176
2478	0.0138251
2490	0.0142461
2502	0.0151584
2514	0.01579
2526	0.0161409
2538	0.0162813
2550	0.0174743
2562	0.0185972
2574	0.0195797
2586	0.0202814
2598	0.0216148
2610	0.0225973
2622	0.02365
2634	0.0238605
2646	0.0226675
2658	0.0214745
2670	0.0207025
2682	0.0204218
2694	0.0218955
2706	0.0245623
2718	0.0254746
2730	0.0262466
2742	0.0266676
2754	0.0281414
2766	0.0284221
2778	0.0272992
2790	0.0270887
2802	0.0268782
2814	0.0272291
2826	0.029194
2838	0.0303169
2850	0.0326328
2862	0.0328433
2874	0.0327731
2886	0.0345978
2898	0.0410541
2910	0.0496158
2922	0.0527037
2934	0.0576863
2946	0.0576161
2958	0.0554406
2970	0.0578969
2982	0.0586688
2994	0.061125
3006	0.068985
3018	0.0861786
3030	0.1339
3042	0.170182
3054	0.143233
3066	0.196077
3078	0.21292
3090	0.158111
3102	0.124145
3114	0.0990913
3126	0.0807749
3138	0.0725641
3150	0.0703885
3162	0.0708096
3174	0.0708798
3186	0.0696166
3198	0.0673709
3210	0.0637918
3222	0.061125
3234	0.0590899
3246	0.0581776
3258	0.0577565
3270	0.0565635
3282	0.0547388
3294	0.052844
3306	0.0501071
3318	0.0462473
3330	0.0442121
3342	0.041405
3354	0.0400716
3366	0.0378961
3378	0.0346679
3390	0.0327731
3402	0.0305274
3414	0.0289835
3426	0.0270887
3438	0.0250535
3450	0.0237903
3462	0.0219657
3474	0.0197902
3486	0.0191586
3498	0.0179656
3510	0.0171234
3522	0.0156497
3534	0.0155093
3546	0.0145268
3558	0.0135444
3570	0.0135444
3582	0.0132636
3594	0.012632
3606	0.012211
3618	0.0120004
3630	0.0131233
3642	0.012211
3654	0.0115092
3666	0.0110179
3678	0.0110179
3690	0.010246
3702	0.0113688
3714	0.0108074
3726	0.0108776
3738	0.0101056
3750	0.0101758
3762	0.0106671
3774	0.0098951
3786	0.0098951
3798	0.00996528
3810	0.00996528
3822	0.0098951
3834	0.00996528
3846	0.0105969
3858	0.0121408
3870	0.0110179
3882	0.0105267
3894	0.011439
3906	0.0123513
3918	0.0110881
3930	0.0117197
3942	0.0107372
3954	0.0103863
3966	0.0101758
