Infrared Spectrum: Benzenesulfonic acid, 3,5-dichlorophenyl ester
Formula: C 12 H 8 Cl 2 O 3 S
CAS: 2493-57-4
Origin: Sadtler Research Labs Under US-EPA Contract
1/CM	ABSORBANCE
450	0.01534
462	0.0121891
474	0.00456055
486	0.0082919
498	0.00870649
510	0.0103649
522	0.0215589
534	0.0349918
546	0.0554728
558	0.327779
570	0.132173
582	0.27554
594	0.170481
606	0.0253732
618	0.0218906
630	0.0472638
642	0.0892208
654	0.033831
666	0.049171
678	0.129934
690	0.127115
702	0.0763684
714	0.152488
726	0.0719737
738	0.112438
750	0.546602
762	0.54627
774	0.247679
786	0.0873137
798	0.117994
810	0.196103
822	0.101907
834	0.0679936
846	0.0660035
858	0.196933
870	0.0768659
882	0.0920401
894	0.037894
906	0.0567166
918	0.160946
930	0.537647
942	0.692291
954	0.117247
966	0.0421229
978	0.0184909
990	0.0145108
1002	0.0234661
1014	0.0150913
1026	0.022471
1038	0.0121062
1050	0.012272
1062	0.0330847
1074	0.0397182
1086	0.158458
1098	0.257463
1110	0.036816
1122	0.014345
1134	0.0111941
1146	0.014345
1158	0.0334164
1170	0.102073
1182	0.292455
1194	0.456054
1206	0.264263
1218	0.197762
1230	0.0790218
1242	0.0345772
1254	0.0171642
1266	0.01534
1278	0.0185739
1290	0.0202322
1302	0.01335
1314	0.0196518
1326	0.0205639
1338	0.0340797
1350	0.0322555
1362	0.0703153
1374	0.133168
1386	0.282422
1398	0.300913
1410	0.537232
1422	0.304064
1434	0.228856
1446	0.121891
1458	0.0539803
1470	0.023549
1482	0.0313434
1494	0.0203981
1506	0.0211443
1518	0.0233002
1530	0.0275291
1542	0.0323384
1554	0.0470151
1566	0.183749
1578	0.762357
1590	0.216584
1602	0.0492539
1614	0.0296021
1626	0.0131012
1638	0.00679936
1650	0.00820898
1662	0.00232173
1674	0.0065506
1686	0.00713103
1698	0.00713103
1710	0.00621893
1722	0.0115257
1734	0.0156717
1746	0.00970152
1758	0.00605309
1770	0.0069652
1782	0.00398011
1794	0.00505806
1806	0.00887233
1818	0.00613601
1830	0.00447763
1842	0.00290216
1854	0.00207297
1866	0.0034826
1878	0.003068
1890	0.00580433
1902	0.00779439
1914	0.0065506
1926	0.00398011
1938	0.00290216
1950	0.00389719
1962	0.0069652
1974	0.00688228
1986	0.00456055
1998	0.003068
2010	0.00265341
2022	0.00290216
2034	0.00315092
2046	0.00240465
2058	0.00182422
2070	0.00199006
2082	0.00207297
2094	0.00290216
2106	0.0034826
2118	0.00439471
2130	0.00447763
2142	0.00414595
2154	0.00364844
2166	0.003068
2178	0.00281925
2190	0.003068
2202	0.00273633
2214	0.00223881
2226	0.00190714
2238	0.00223881
2250	0.00232173
2262	0.00257049
2274	0.00364844
2286	0.00439471
2298	0.00447763
2310	0.00497514
2322	0.00630184
2334	0.00588725
2346	0.00580433
2358	0.00621893
2370	0.00530682
2382	0.00613601
2394	0.00364844
2406	0.003068
2418	0.00315092
2430	0.00290216
2442	0.00290216
2454	0.00215589
2466	0.00223881
2478	0.00240465
2490	0.00265341
2502	0.0034826
2514	0.00414595
2526	0.00273633
2538	0.00290216
2550	0.003068
2562	0.00331676
2574	0.00456055
2586	0.00497514
2598	0.00497514
2610	0.00431179
2622	0.00406303
2634	0.00422887
2646	0.00456055
2658	0.00464346
2670	0.00456055
2682	0.00398011
2694	0.003068
2706	0.00315092
2718	0.00273633
2730	0.00240465
2742	0.00232173
2754	0.00257049
2766	0.00273633
2778	0.003068
2790	0.003068
2802	0.003068
2814	0.00273633
2826	0.00265341
2838	0.00331676
2850	0.00439471
2862	0.00464346
2874	0.0034826
2886	0.0034826
2898	0.00339968
2910	0.00265341
2922	0
2934	0.00364844
2946	0.00497514
2958	0.00472638
2970	0.00505806
2982	0.0052239
2994	0.00605309
3006	0.00721395
3018	0.00721395
3030	0.00878941
3042	0.00887233
3054	0.0113599
3066	0.027612
3078	0.0530682
3090	0.0334164
3102	0.0250415
3114	0.0109453
3126	0.00630184
3138	0.00605309
3150	0.00646768
3162	0.00762855
3174	0.00530682
3186	0.00398011
3198	0.00331676
3210	0.00265341
3222	0.00281925
3234	0.00240465
3246	0.00223881
3258	0.00215589
3270	0.00257049
3282	0.00207297
3294	0.00240465
3306	0.00257049
3318	0.00207297
3330	0.00223881
3342	0.00199006
3354	0.00199006
3366	0.00257049
3378	0.00273633
3390	0.00232173
3402	0.00281925
3414	0.00240465
3426	0.00248757
3438	0.00248757
3450	0.00240465
3462	0.00257049
3474	0.00273633
3486	0.00273633
3498	0.00207297
3510	0.00215589
3522	0.00248757
3534	0.00215589
3546	0.00265341
3558	0.003068
3570	0.00215589
3582	0.00232173
3594	0.00281925
3606	0.00215589
3618	0.00207297
3630	0.00273633
3642	0.0034826
3654	0.00447763
3666	0.00339968
3678	0.00298508
3690	0.00389719
3702	0.00273633
3714	0.00248757
3726	0.00248757
3738	0.00248757
3750	0.00190714
3762	0.0013267
3774	0.00257049
3786	0.00190714
3798	0.00215589
3810	0.00165838
3822	0.00140962
3834	0.00232173
3846	0.00182422
3858	0.00290216
3870	0.00257049
3882	0.00116087
3894	0.00331676
3906	0.00257049
3918	0.00199006
3930	0.00124378
3942	0.00215589
3954	0.00199006
3966	0.00323384
