Infrared Spectrum: Benzyl methacrylate
Formula: C 11 H 12 O 2
CAS: 2495-37-6
Origin: Sadtler Research Labs Under US-EPA Contract
1/CM	ABSORBANCE
450	0
462	0.0263338
474	0.0345112
486	0.0191267
498	0.0144143
510	0.0105335
522	0.0339568
534	0.0282742
546	0.0189881
558	0.0230074
570	0.0156617
582	0.0310462
594	0.029383
606	0.0275812
618	0.0196811
630	0.0169091
642	0.0235618
654	0.0271654
666	0.0267496
678	0.0472623
690	0.107691
702	0.118918
714	0.0773382
726	0.0788628
738	0.0999299
750	0.118502
762	0.0464307
774	0.0139985
786	0.0164933
798	0.0327094
810	0.055994
822	0.0579344
834	0.0310462
846	0.0187109
858	0.0174635
870	0.0199583
882	0.0282742
894	0.0316006
906	0.051143
918	0.0605678
930	0.0997913
942	0.133471
954	0.0716557
966	0.0665275
978	0.105474
990	0.0948017
1002	0.0796944
1014	0.148855
1026	0.086763
1038	0.0340954
1050	0.0221758
1062	0.0223144
1074	0.030076
1086	0.0365901
1098	0.0419955
1110	0.0551624
1122	0.0892578
1134	0.244489
1146	0.896736
1158	1.3591
1170	0.726675
1182	0.313372
1194	0.183505
1206	0.147885
1218	0.108384
1230	0.0528062
1242	0.0467079
1254	0.0586274
1266	0.0674977
1278	0.0989597
1290	0.320441
1302	0.307274
1314	0.347606
1326	0.233401
1338	0.0738733
1350	0.0447675
1362	0.0443517
1374	0.0648643
1386	0.0726259
1398	0.0670819
1410	0.10284
1422	0.0643099
1434	0.0561326
1446	0.081912
1458	0.135134
1470	0.103672
1482	0.0480939
1494	0.0476781
1506	0.0475395
1518	0.0176021
1530	0.0158003
1542	0.0158003
1554	0.0159389
1566	0.0181565
1578	0.0221758
1590	0.0253636
1602	0.0299374
1614	0.0390849
1626	0.0460149
1638	0.0733189
1650	0.055994
1662	0.0256408
1674	0.0249478
1686	0.0304918
1698	0.0406095
1710	0.0637555
1722	0.179902
1734	0.596391
1746	0.623557
1758	0.196811
1770	0.052529
1782	0.0352041
1794	0.0376989
1806	0.033541
1818	0.0203741
1830	0.0160775
1842	0.0146915
1854	0.0177407
1866	0.0212056
1878	0.0263338
1890	0.0246706
1902	0.0170477
1914	0.0153845
1926	0.0163547
1938	0.0189881
1950	0.0221758
1962	0.0232846
1974	0.0163547
1986	0.0146915
1998	0.0131669
2010	0.0127511
2022	0.0117809
2034	0.0117809
2046	0.0116423
2058	0.0113651
2070	0.0119195
2082	0.0128897
2094	0.0133055
2106	0.0128897
2118	0.0126125
2130	0.0124739
2142	0.0120581
2154	0.0116423
2166	0.0110879
2178	0.0108107
2190	0.0115037
2202	0.0106721
2214	0.0109493
2226	0.0109493
2238	0.0112265
2250	0.0116423
2262	0.0116423
2274	0.0120581
2286	0.0131669
2298	0.0139985
2310	0.0160775
2322	0.0148301
2334	0.0123353
2346	0.0134441
2358	0.0116423
2370	0.0115037
2382	0.0121967
2394	0.0110879
2406	0.0115037
2418	0.0119195
2430	0.0115037
2442	0.0115037
2454	0.0119195
2466	0.0116423
2478	0.0115037
2490	0.0109493
2502	0.0102563
2514	0.0110879
2526	0.0115037
2538	0.0119195
2550	0.0121967
2562	0.0119195
2574	0.0117809
2586	0.0121967
2598	0.0119195
2610	0.0124739
2622	0.0123353
2634	0.0117809
2646	0.0115037
2658	0.0119195
2670	0.0117809
2682	0.0124739
2694	0.0126125
2706	0.0128897
2718	0.0131669
2730	0.0124739
2742	0.0139985
2754	0.0139985
2766	0.0128897
2778	0.0134441
2790	0.0134441
2802	0.0145529
2814	0.0164933
2826	0.0181565
2838	0.0192653
2850	0.0205127
2862	0.0249478
2874	0.0309076
2886	0.0389463
2898	0.0467079
2910	0.0444903
2922	0.0428271
2934	0.0661117
2946	0.0942473
2958	0.100207
2970	0.103672
2982	0.0949403
2994	0.0906437
3006	0.0605678
3018	0.0530834
3030	0.0765066
3042	0.117671
3054	0.0864858
3066	0.0780312
3078	0.111156
3090	0.0638941
3102	0.0583502
3114	0.0530834
3126	0.0260566
3138	0.0166319
3150	0.0144143
3162	0.0144143
3174	0.0145529
3186	0.0130283
3198	0.0131669
3210	0.0127511
3222	0.0128897
3234	0.0128897
3246	0.0115037
3258	0.0126125
3270	0.0130283
3282	0.0120581
3294	0.0120581
3306	0.0117809
3318	0.0124739
3330	0.0124739
3342	0.0117809
3354	0.0131669
3366	0.0123353
3378	0.0131669
3390	0.0123353
3402	0.0135827
3414	0.0128897
3426	0.0142757
3438	0.0145529
3450	0.0181565
3462	0.0181565
3474	0.0169091
3486	0.0133055
3498	0.0144143
3510	0.0126125
3522	0.0126125
3534	0.0148301
3546	0.0137213
3558	0.0135827
3570	0.0134441
3582	0.0149687
3594	0.0149687
3606	0.0145529
3618	0.0137213
3630	0.0139985
3642	0.0182951
3654	0.0139985
3666	0.0138599
3678	0.0159389
3690	0.0120581
3702	0.0145529
3714	0.0162161
3726	0.0160775
3738	0.0177407
3750	0.0170477
3762	0.0131669
3774	0.0149687
3786	0.0134441
3798	0.0159389
3810	0.0194039
3822	0.0192653
3834	0.0160775
3846	0.0151073
3858	0.0192653
3870	0.0164933
3882	0.0156617
3894	0.0178793
3906	0.0207898
3918	0.0195425
3930	0.0181565
3942	0.0221758
3954	0.0152459
3966	0.0162161
