Infrared Spectrum: Octadecanoic acid, 9,10-epoxy-, allyl ester
Formula: C 21 H 38 O 3
CAS: 24969-16-2
Origin: Sadtler Research Labs Under US-EPA Contract
1/CM	ABSORBANCE
450	0.0306627
462	0.00159939
474	0.00790558
486	0.00173649
498	0.00237624
510	0.00781419
522	0.00498097
534	0.004524
546	0.00598631
558	0.0100533
570	4.5697e-05
582	0.00525516
594	0.00411273
606	0.00635188
618	0.00571213
630	0.00589491
642	0.00347297
654	0.00507237
666	0.00292461
678	0.00351867
690	0.00584922
702	0.00676316
714	0.0106931
726	0.0148972
738	0.014029
750	0.0126124
762	0.0134349
774	0.0143946
786	0.0138005
798	0.0144403
810	0.0159483
822	0.0168622
834	0.0172735
846	0.0169536
858	0.0163138
870	0.0168622
882	0.018553
894	0.0197868
906	0.0246307
918	0.0363291
930	0.0522774
942	0.0358721
954	0.0267784
966	0.0312111
978	0.0437777
990	0.0659408
1002	0.0620565
1014	0.0534655
1026	0.042681
1038	0.0344555
1050	0.0308912
1062	0.030617
1074	0.0330389
1086	0.0391623
1098	0.0450572
1110	0.0524145
1122	0.0595432
1134	0.0820718
1146	0.126215
1158	0.150389
1170	0.139787
1182	0.118584
1194	0.0977459
1206	0.0855905
1218	0.0851335
1230	0.090343
1242	0.0885608
1254	0.068774
1266	0.0578524
1278	0.0546993
1290	0.0457427
1302	0.0411273
1314	0.0384312
1326	0.0353238
1338	0.0392537
1350	0.0431837
1362	0.046154
1374	0.0500839
1386	0.0486673
1398	0.025042
1410	0.0200153
1422	0.0253161
1434	0.0355523
1446	0.0491243
1458	0.0671746
1470	0.0504038
1482	0.0205636
1494	0.0110587
1506	0.00785988
1518	0.00639758
1530	0.00502667
1542	0.00438691
1554	0.00365576
1566	0.00338158
1578	0.00370146
1590	0.00347297
1602	0.00338158
1614	0.00361006
1626	0.00397564
1638	0.00662606
1650	0.0090937
1662	0.00621479
1674	0.00571213
1686	0.00795128
1698	0.0111958
1710	0.0198325
1722	0.0345469
1734	0.0642043
1746	0.146413
1758	0.207556
1770	0.0980201
1782	0.0358721
1794	0.0169536
1806	0.0100533
1818	0.00685455
1830	0.00516376
1842	0.00498097
1854	0.00525516
1866	0.00498097
1878	0.00397564
1890	0.00365576
1902	0.00278752
1914	0.00278752
1926	0.00283321
1938	0.003016
1950	0.00265043
1962	0.00319879
1974	0.00274182
1986	0.00292461
1998	0.0030617
2010	0.0029703
2022	0.0030617
2034	0.00210206
2046	0.00173649
2058	0.00210206
2070	0.00091394
2082	0.00127952
2094	0.00164509
2106	0.00182788
2118	0.00191927
2130	0.00260473
2142	0.00210206
2154	0.00219346
2166	0.00196497
2178	0.00265043
2190	0.00255903
2202	0.00214776
2214	0.00205637
2226	0.00173649
2238	0.00191927
2250	0.00191927
2262	0.00223915
2274	0.00205637
2286	0.00365576
2298	0.00562073
2310	0.00685455
2322	0.00671746
2334	0.00562073
2346	0.00694594
2358	0.00658037
2370	0.00502667
2382	0.00443261
2394	0.00169079
2406	0.0014623
2418	0.00127952
2430	0.000776849
2442	0.000959637
2454	0.00105103
2466	0.000776849
2478	0.000548364
2490	0.000274182
2502	0.000502667
2514	0.000274182
2526	0.000502667
2538	0.000685455
2550	0.000685455
2562	0.00100533
2574	0.00114243
2586	0.00210206
2598	0.00187358
2610	0.00283321
2622	0.00333588
2634	0.00365576
2646	0.00255903
2658	0.00424982
2670	0.00388425
2682	0.00342728
2694	0.00438691
2706	0.00475249
2718	0.00402134
2730	0.00411273
2742	0.00525516
2754	0.00552934
2766	0.0061234
2778	0.00699164
2790	0.00877382
2802	0.0117898
2814	0.0160853
2826	0.0213405
2838	0.0319422
2850	0.0642043
2862	0.166428
2874	0.156878
2886	0.109581
2898	0.106748
2910	0.164281
2922	0.276147
2934	0.45697
2946	0.350999
2958	0.235111
2970	0.227754
2982	0.138096
2994	0.0643871
3006	0.035598
3018	0.0246764
3030	0.0203352
3042	0.0127038
3054	0.0105103
3066	0.010099
3078	0.0113329
3090	0.0143946
3102	0.0152628
3114	0.00785988
3126	0.00424982
3138	0.00383855
3150	0.00397564
3162	0.00287891
3174	0.003016
3186	0.00333588
3198	0.00214776
3210	0.00196497
3222	0.00333588
3234	0.00361006
3246	0.0029703
3258	0.00223915
3270	0.00127952
3282	0.00201067
3294	0.00132521
3306	0.0014623
3318	0.00141661
3330	0.000868243
3342	0.00274182
3354	0.00233055
3366	0.00201067
3378	0.00237624
3390	0.003016
3402	0.00233055
3414	0.00196497
3426	0.0030617
3438	0.00278752
3450	0.000548364
3462	0.00283321
3474	0.00292461
3486	0.00420412
3498	0.00388425
3510	0.00283321
3522	0.00397564
3534	0.00242194
3546	0.00210206
3558	0.00169079
3570	0.00429552
3582	0.00379285
3594	0.00361006
3606	0.00191927
3618	0.00356437
3630	0.00434121
3642	0.00511806
3654	0.00246764
3666	0.003016
3678	0.00411273
3690	0.00255903
3702	0.00100533
3714	0.00187358
3726	0.00127952
3738	0.00196497
3750	0.00233055
3762	0.00118812
3774	0.000411273
3786	0.00173649
3798	0.00402134
3810	4.5697e-05
3822	0.00210206
3834	0.00178218
3846	0.00466109
3858	4.5697e-05
3870	0.000868243
3882	0
3894	0.00470679
3906	0.00584922
3918	0.00699164
3930	0.00191927
3942	0.00516376
3954	0.00580352
3966	0.00402134
