Infrared Spectrum: 1-Butanol, 3-methoxy-
Formula: C 5 H 12 O 2
CAS: 2517-43-3
Origin: Sadtler Research Labs Under US-EPA Contract
1/CM	ABSORBANCE
450	0.0660699
462	0.0704957
474	0.0648845
486	0.0537411
498	0.0365123
510	0.0282931
522	0.0244996
534	0.0252899
546	0.0189674
558	0.0105111
570	0.00814019
582	0.0056112
594	0.00655957
606	0.00616442
618	0.00418864
630	0.00276608
642	0.00173868
654	0.00150159
666	0.00150159
678	0.00252899
690	0.00134353
702	0.00339833
714	0.00300318
726	0.00403058
738	0.00466283
750	0.00908856
762	0.0225238
774	0.0402268
786	0.0339833
798	0.0167546
810	0.0119337
822	0.0168336
834	0.0276608
846	0.0360381
858	0.0435461
870	0.0503427
882	0.0428348
894	0.0265544
906	0.025448
918	0.0323237
930	0.0353269
942	0.0479718
954	0.0807697
966	0.096971
978	0.0844841
990	0.0848793
1002	0.0889889
1014	0.0879615
1026	0.15411
1038	0.291624
1050	0.37437
1062	0.323237
1074	0.404165
1086	0.694682
1098	0.79031
1110	0.578112
1122	0.422895
1134	0.438227
1146	0.436488
1158	0.315492
1170	0.214964
1182	0.211645
1194	0.21125
1206	0.178452
1218	0.143125
1230	0.107324
1242	0.0731827
1254	0.053425
1266	0.0494734
1278	0.0502637
1290	0.0501847
1302	0.0482089
1314	0.0517653
1326	0.0630667
1338	0.0987097
1350	0.152925
1362	0.185802
1374	0.254954
1386	0.242388
1398	0.153399
1410	0.132693
1422	0.142651
1434	0.116018
1446	0.0961807
1458	0.114674
1470	0.118784
1482	0.0831406
1494	0.0393574
1506	0.0174659
1518	0.0112224
1530	0.00900953
1542	0.00829825
1554	0.00695473
1566	0.00521605
1578	0.00482089
1590	0.00387252
1602	0.00371446
1614	0.00395155
1626	0.00426767
1638	0.00450477
1650	0.00410961
1662	0.00213384
1674	0.00173868
1686	0.00134353
1698	0.0012645
1710	0.000948372
1722	0.0012645
1734	0.00237093
1746	0.00308221
1758	0.00482089
1770	0.00379349
1782	0.00142256
1794	0.000237093
1806	0.000237093
1818	0.000316124
1830	0.000948372
1842	0.00142256
1854	0.00237093
1866	0.00316124
1878	0.00300318
1890	0.00308221
1902	0.00339833
1914	0.00387252
1926	0.00474186
1938	0.00553217
1950	0.00592732
1962	0.00584829
1974	0.00537411
1986	0.00497895
1998	0.00450477
2010	0.00474186
2022	0.00442574
2034	0.00426767
2046	0.0045838
2058	0.0045838
2070	0.00387252
2082	0.00339833
2094	0.00324027
2106	0.00308221
2118	0.00347736
2130	0.00363543
2142	0.00426767
2154	0.00553217
2166	0.00648054
2178	0.00608539
2190	0.00474186
2202	0.00316124
2214	0.00268705
2226	0.00252899
2238	0.00181771
2250	0.00118546
2262	0.000869341
2274	0.000395155
2286	0.000553217
2298	0.000632248
2310	0.000948372
2322	0.000711279
2334	0.000948372
2346	0.00110643
2358	0.000158062
2370	0.000711279
2382	0.00134353
2394	0.0022919
2406	0.00244996
2418	0.00221287
2430	0.0022919
2442	0.00205481
2454	0.00205481
2466	0.00181771
2478	0.00189674
2490	0.00213384
2502	0.00197577
2514	0.00237093
2526	0.00221287
2538	0.00284512
2550	0.0033193
2562	0.00418864
2574	0.00482089
2586	0.0066386
2598	0.0091676
2610	0.010274
2622	0.0106692
2634	0.0118546
2646	0.0154901
2658	0.0180191
2670	0.0195997
2682	0.0191255
2694	0.0166755
2706	0.0160433
2718	0.017861
2730	0.0211013
2742	0.0244996
2754	0.0271076
2766	0.0309802
2778	0.0374607
2790	0.0497105
2802	0.0761069
2814	0.150712
2826	0.286566
2838	0.302215
2850	0.240333
2862	0.285065
2874	0.34987
2886	0.408827
2898	0.427004
2910	0.44858
2922	0.535514
2934	0.64513
2946	0.631537
2958	0.474265
2970	0.491415
2982	0.651453
2994	0.421472
3006	0.145733
3018	0.0559539
3030	0.0351688
3042	0.0282931
3054	0.0248157
3066	0.0208642
3078	0.0171497
3090	0.0138304
3102	0.0109063
3114	0.00956275
3126	0.0079031
3138	0.0066386
3150	0.00648054
3162	0.0066386
3174	0.00584829
3186	0.00529508
3198	0.00450477
3210	0.00292415
3222	0.00189674
3234	0.00150159
3246	0.00158062
3258	0.000553217
3270	0.000948372
3282	0.00118546
3294	0.000869341
3306	0.00118546
3318	0.000237093
3330	0.000869341
3342	0.000948372
3354	0.000948372
3366	0.000869341
3378	0.00173868
3390	0.00181771
3402	0.00324027
3414	0.00553217
3426	0.00837729
3438	0.00861438
3450	0.00924663
3462	0.00837729
3474	0.00734988
3486	0.00600636
3498	0.00537411
3510	0.00750794
3522	0.00972081
3534	0.00940469
3546	0.00979984
3558	0.015332
3570	0.0683618
3582	0.206824
3594	0.215992
3606	0.111592
3618	0.048446
3630	0.0252109
3642	0.0211803
3654	0.0391994
3666	0.0705747
3678	0.0680457
3690	0.0293205
3702	0.010195
3714	0.00592732
3726	0.00640151
3738	0.0066386
3750	0.00727085
3762	0.00363543
3774	0.00221287
3786	0.00118546
3798	0.00221287
3810	0.000395155
3822	0.00150159
3834	0.00158062
3846	0.00118546
3858	0.00284512
3870	0.00237093
3882	0.0022919
3894	0.00244996
3906	0.00363543
3918	0.00308221
3930	0.00150159
3942	0.00205481
3954	0.00189674
3966	0
