Infrared Spectrum: Encyprate
Formula: C 13 H 17 N O 2
CAS: 2521-01-9
Origin: Sadtler Research Labs Under US-EPA Contract
1/CM	ABSORBANCE
450	0.0276488
462	0.0193145
474	0.0109802
486	0.00238124
498	0.000926037
510	0.0014552
522	0.00714371
534	0.00952495
546	0.00806975
558	0.0280457
570	0.0182562
582	0.0219603
594	0.0132291
606	0.00463019
618	0.00912808
630	0.0146843
642	0.0223572
654	0.0234155
666	0.0287071
678	0.0469633
690	0.102658
702	0.166819
714	0.0747444
726	0.0678653
738	0.0731569
750	0.0627059
762	0.0526518
774	0.0920745
786	0.057282
798	0.0355863
810	0.038629
822	0.058208
834	0.0506675
846	0.0142874
858	0.0170655
870	0.0272519
882	0.0269874
894	0.0414071
906	0.0465664
918	0.0191822
930	0.0179916
942	0.028178
954	0.0265905
966	0.0165364
978	0.0138906
990	0.017727
1002	0.0321467
1014	0.0779194
1026	0.20439
1038	0.123824
1050	0.0851954
1062	0.177138
1074	0.199759
1086	0.120914
1098	0.130571
1110	0.136921
1122	0.279795
1134	0.519242
1146	0.283896
1158	0.162056
1170	0.159808
1182	0.182562
1194	0.19169
1206	0.216296
1218	0.312339
1230	0.596236
1242	0.393433
1254	0.319615
1266	0.384041
1278	0.467781
1290	0.439868
1302	0.337342
1314	0.299375
1326	0.179254
1338	0.162983
1350	0.278605
1362	0.260349
1374	0.388539
1386	0.586975
1398	0.360228
1410	0.451906
1422	0.226879
1434	0.171581
1446	0.216825
1458	0.225027
1470	0.170788
1482	0.115887
1494	0.114035
1506	0.0714371
1518	0.033205
1530	0.0275165
1542	0.033205
1554	0.0277811
1566	0.0202405
1578	0.0199759
1590	0.0234155
1602	0.0329405
1614	0.0302946
1626	0.0219603
1638	0.0222249
1650	0.0285749
1662	0.0318821
1674	0.0514612
1686	0.0777871
1698	0.119591
1710	0.329934
1722	1.0787
1734	1.22343
1746	0.332712
1758	0.107023
1770	0.0649549
1782	0.0403488
1794	0.0346602
1806	0.0287071
1818	0.0201082
1830	0.0166687
1842	0.0126999
1854	0.0107156
1866	0.0121708
1878	0.0105833
1890	0.00912808
1902	0.00727601
1914	0.0088635
1926	0.0115093
1938	0.0138906
1950	0.0126999
1962	0.0101864
1974	0.0059531
1986	0.00555622
1998	0.00674684
2010	0.00568851
2022	0.00370415
2034	0.00317498
2046	0.00317498
2058	0.00383644
2070	0.00542393
2082	0.0043656
2094	0.00476248
2106	0.0029104
2118	0.00171978
2130	0.00224895
2142	0.00251353
2154	0.00238124
2166	0.00224895
2178	0.00185207
2190	0.00198437
2202	0.00211666
2214	0.00198437
2226	0.00158749
2238	0.00224895
2250	0.00343957
2262	0.00423331
2274	0.00410102
2286	0.00357186
2298	0.00423331
2310	0.00568851
2322	0.00502706
2334	0.00330728
2346	0.00370415
2358	0.00224895
2370	0.00264582
2382	0.00185207
2394	0.00119062
2406	0.000793746
2418	0.000396873
2430	0.000264582
2442	0.000529164
2454	0.000661455
2466	0.00105833
2478	0.00132291
2490	0.000926037
2502	0.000529164
2514	0.000396873
2526	0.000264582
2538	0.000396873
2550	0.000132291
2562	0
2574	0.000396873
2586	0.00158749
2598	0.00224895
2610	0.00238124
2622	0.00198437
2634	0.00238124
2646	0.00198437
2658	0.0014552
2670	0.00171978
2682	0.0014552
2694	0.0014552
2706	0.00171978
2718	0.00251353
2730	0.00304269
2742	0.00330728
2754	0.0043656
2766	0.0043656
2778	0.00515935
2790	0.00687913
2802	0.00806975
2814	0.0088635
2826	0.00965724
2838	0.0116416
2850	0.0153458
2862	0.0227541
2874	0.03638
2886	0.0527841
2898	0.0497414
2910	0.0644257
2922	0.0812267
2934	0.113109
2946	0.157955
2958	0.122105
2970	0.131762
2982	0.197775
2994	0.206506
3006	0.150415
3018	0.12356
3030	0.168539
3042	0.129513
3054	0.066807
3066	0.0940589
3078	0.119062
3090	0.08546
3102	0.10279
3114	0.0408779
3126	0.0129645
3138	0.00754059
3150	0.0058208
3162	0.00489477
3174	0.00502706
3186	0.00357186
3198	0.00277811
3210	0.00264582
3222	0.00158749
3234	0.00158749
3246	0.000661455
3258	0.000661455
3270	0.000926037
3282	0.00105833
3294	0.000793746
3306	0.000926037
3318	0.00105833
3330	0.0014552
3342	0.00171978
3354	0.000926037
3366	0.00158749
3378	0.00171978
3390	0.0014552
3402	0.00185207
3414	0.0029104
3426	0.00463019
3438	0.00449789
3450	0.00396873
3462	0.00304269
3474	0.00119062
3486	0.000132291
3498	0.000661455
3510	0.000529164
3522	0.000132291
3534	0.00132291
3546	0.000661455
3558	0.00132291
3570	0.00119062
3582	0.000926037
3594	0.000926037
3606	0.000661455
3618	0
3630	0.00158749
3642	0.00171978
3654	0.00158749
3666	0.00158749
3678	0.000793746
3690	0.00158749
3702	0.000529164
3714	0.00132291
3726	0.00119062
3738	0.00171978
3750	0.000264582
3762	0.00158749
3774	0.00119062
3786	0.000793746
3798	0.00185207
3810	0.00132291
3822	0.00132291
3834	0.000926037
3846	0.0014552
3858	0.00132291
3870	0.00224895
3882	0.00211666
3894	0.00171978
3906	0.00198437
3918	0.00132291
3930	0.00277811
3942	0.000793746
3954	0.00211666
3966	0.00238124
