Infrared Spectrum: 1,2-Benzenedicarboxylic acid, mono(phenylmethyl) ester
Formula: C 15 H 12 O 4
CAS: 2528-16-7
Origin: Sadtler Research Labs Under US-EPA Contract
1/CM	ABSORBANCE
450	0
462	0.00528029
474	0.0095288
486	0.00540168
498	0.00364158
510	0.0106213
522	0.0218495
534	0.0206963
546	0.0163264
558	0.00746524
570	0.010682
582	0.0151126
594	0.0117137
606	0.0129276
618	0.0116531
630	0.00770801
642	0.0095288
654	0.00958949
666	0.0140201
678	0.025309
690	0.0595398
702	0.119383
714	0.113375
726	0.0678548
738	0.0535919
750	0.034595
762	0.0181472
774	0.0196645
786	0.0272512
798	0.0152946
810	0.0078294
822	0.0115924
834	0.0151126
846	0.0150519
858	0.0187541
870	0.0342309
882	0.0758056
894	0.177527
906	0.304072
918	0.248174
930	0.0486758
942	0.0175403
954	0.0226992
966	0.0279188
978	0.0281616
990	0.0328956
1002	0.0523174
1014	0.0681582
1026	0.0620282
1038	0.0450949
1050	0.0362337
1062	0.0311962
1074	0.0270691
1086	0.0339274
1098	0.0672478
1110	0.0609358
1122	0.0256731
1134	0.016205
1146	0.0165085
1158	0.0233061
1170	0.026098
1182	0.0227599
1194	0.0288292
1206	0.0301644
1218	0.0336846
1230	0.0594184
1242	0.144753
1254	0.234761
1266	0.183171
1278	0.0483723
1290	0.0222136
1302	0.0171761
1314	0.0267049
1326	0.0419389
1338	0.0421209
1350	0.0390863
1362	0.0337453
1374	0.0352019
1386	0.0335632
1398	0.0265228
1410	0.0221529
1422	0.019968
1434	0.0194825
1446	0.023731
1458	0.0293147
1470	0.0291933
1482	0.0178437
1494	0.0146877
1506	0.0152339
1518	0.00880049
1530	0.00704039
1542	0.00795078
1554	0.0069797
1566	0.00752593
1578	0.010864
1590	0.0127455
1602	0.0117137
1614	0.00928603
1626	0.00801148
1638	0.00740455
1650	0.00625138
1662	0.00600861
1674	0.00740455
1686	0.00873979
1698	0.00861841
1710	0.0111675
1722	0.0152946
1734	0.0185114
1746	0.0186934
1758	0.0344736
1770	0.0813286
1782	0.16114
1794	0.390195
1806	0.60693
1818	0.40112
1830	0.103299
1842	0.0444273
1854	0.089158
1866	0.169091
1878	0.124542
1890	0.0563838
1902	0.0244593
1914	0.010682
1926	0.010075
1938	0.010682
1950	0.0106213
1962	0.00861841
1974	0.00861841
1986	0.0111675
1998	0.011471
2010	0.0104999
2022	0.00752593
2034	0.00461267
2046	0.00394505
2058	0.0034595
2070	0.00394505
2082	0.00394505
2094	0.00297396
2106	0.00242772
2118	0.0034595
2130	0.00339881
2142	0.0043092
2154	0.00528029
2166	0.00576584
2178	0.00388435
2190	0.00273119
2202	0.00273119
2214	0.00327742
2226	0.00315604
2238	0.00364158
2250	0.00455198
2262	0.00503752
2274	0.00515891
2286	0.00497683
2298	0.00503752
2310	0.00564445
2322	0.00564445
2334	0.00637277
2346	0.00637277
2358	0.00479475
2370	0.00218495
2382	0.00285257
2394	0.00236703
2406	0.00182079
2418	0.00182079
2430	0.00182079
2442	0.00188148
2454	0.00182079
2466	0.00182079
2478	0.0016994
2490	0.0017601
2502	0.00163871
2514	0.00218495
2526	0.00224564
2538	0.00163871
2550	0.00157802
2562	0.00157802
2574	0.00206356
2586	0.00151733
2598	0.00182079
2610	0.00242772
2622	0.00200287
2634	0.00139594
2646	0.00188148
2658	0.00182079
2670	0.00188148
2682	0.00139594
2694	0.00224564
2706	0.00273119
2718	0.0017601
2730	0.00121386
2742	0.00218495
2754	0.00267049
2766	0.00230633
2778	0.00273119
2790	0.00418782
2802	0.00424851
2814	0.0043699
2826	0.00576584
2838	0.00764732
2850	0.0106213
2862	0.0143842
2874	0.0204535
2886	0.023913
2898	0.0218495
2910	0.0193611
2922	0.0204535
2934	0.0200894
2946	0.0171154
2958	0.0151733
2970	0.0117744
2982	0.00716177
2994	0.00534098
3006	0.00685831
3018	0.0132918
3030	0.0248234
3042	0.0299216
3054	0.0269477
3066	0.0324101
3078	0.034595
3090	0.030043
3102	0.0203322
3114	0.00825425
3126	0.00273119
3138	0.0016994
3150	0.0017601
3162	0.00163871
3174	0.00163871
3186	0.00194218
3198	0.00218495
3210	0.00163871
3222	0.0016994
3234	0.0026098
3246	0.00230633
3258	0.00151733
3270	0.0016994
3282	0.0016994
3294	0.0016994
3306	0.00121386
3318	0.0016994
3330	0.00273119
3342	0.00157802
3354	0.0016994
3366	0.00248841
3378	0.00224564
3390	0.00182079
3402	0.00230633
3414	0.00285257
3426	0.00236703
3438	0.0017601
3450	0.00254911
3462	0.00358089
3474	0.00273119
3486	0.00230633
3498	0.00321673
3510	0.00388435
3522	0.0026098
3534	0.00230633
3546	0.00388435
3558	0.0034595
3570	0.00321673
3582	0.00406643
3594	0.00582653
3606	0.006919
3618	0.00685831
3630	0.0106213
3642	0.0159016
3654	0.0196038
3666	0.016994
3678	0.0123814
3690	0.0078294
3702	0.00449128
3714	0.00303465
3726	0.00449128
3738	0.00418782
3750	0.00212426
3762	0.00254911
3774	0.00242772
3786	0.0026098
3798	0.00224564
3810	0.00254911
3822	0.00358089
3834	0.0026098
3846	0.00230633
3858	0.00303465
3870	0.00406643
3882	0.00218495
3894	0.00188148
3906	0.00394505
3918	0.00273119
3930	0.00121386
3942	0.00115317
3954	0.00103178
3966	0.00115317
