Infrared Spectrum: Formic acid, phenylformyl-, 2-chlorocyclohexyl ester
Formula: C 14 H 15 Cl O 3
CAS: 25309-23-3
Origin: Sadtler Research Labs Under US-EPA Contract
1/CM	ABSORBANCE
450	0.0250505
462	0.0259633
474	0.0332654
486	0.0159228
498	0.010649
510	0.00699791
522	0.00862061
534	0.0135901
546	0.0144015
558	0.00902629
570	0
582	0.00304257
594	0.00273831
606	0.00405676
618	0.0127788
630	0.00993906
642	0.0173426
654	0.0320484
666	0.0647053
678	0.221296
690	0.139958
702	0.131135
714	0.123934
726	0.0784983
738	0.0836707
750	0.0909728
762	0.0553748
774	0.0369165
786	0.0401619
798	0.0476669
810	0.0507095
822	0.0734274
834	0.0458414
846	0.0257604
858	0.0265718
870	0.0327583
882	0.0316427
894	0.0287016
906	0.0366123
918	0.0424946
930	0.0712976
942	0.0935083
954	0.0594315
966	0.0988835
978	0.30375
990	0.349388
1002	0.176672
1014	0.257199
1026	0.21298
1038	0.108417
1050	0.0499996
1062	0.0520279
1074	0.0388435
1086	0.0327583
1098	0.0320484
1110	0.0340768
1122	0.0705876
1134	0.0809324
1146	0.12008
1158	0.3073
1170	0.594822
1182	0.784375
1194	0.849486
1206	0.278294
1218	0.138843
1230	0.0997963
1242	0.0849891
1254	0.0806281
1266	0.111054
1278	0.150607
1290	0.159126
1302	0.12576
1314	0.0950296
1326	0.0852934
1338	0.0665309
1350	0.0460442
1362	0.0279916
1374	0.0241377
1386	0.0146043
1398	0.0103447
1410	0.00983764
1422	0.0145029
1434	0.0308314
1446	0.0906686
1458	0.100202
1470	0.0372208
1482	0.0129816
1494	0.010649
1506	0.00740359
1518	0.00760642
1530	0.00882345
1542	0.00821494
1554	0.0110547
1566	0.0156185
1578	0.0391477
1590	0.0536507
1602	0.0669365
1614	0.0260647
1626	0.0172412
1638	0.0163285
1650	0.0229207
1662	0.0330626
1674	0.0519265
1686	0.111054
1698	0.282249
1710	0.392897
1722	0.200607
1734	0.216022
1746	0.358922
1758	0.408009
1770	0.214603
1782	0.082048
1794	0.0374236
1806	0.0283973
1818	0.0201824
1830	0.0126774
1842	0.00770784
1854	0.00496953
1866	0.00405676
1878	0.0037525
1890	0.00517237
1902	0.00760642
1914	0.00780926
1926	0.00527379
1938	0.00365108
1950	0.00507095
1962	0.00831636
1974	0.00659224
1986	0.00253548
1998	0.00141987
2010	0.00111561
2022	0.00101419
2034	0.000608514
2046	0.000507095
2058	0.000202838
2070	0.000304257
2082	0.000507095
2094	0.000811352
2106	0.000912771
2118	0.000912771
2130	0.000912771
2142	0.000709933
2154	0.00131845
2166	0.0016227
2178	0.00182554
2190	0.00121703
2202	0.00101419
2214	0.000709933
2226	0.000811352
2238	0.000912771
2250	0.00121703
2262	0.00172412
2274	0.0021298
2286	0.00294115
2298	0.00476669
2310	0.0063894
2322	0.00740359
2334	0.00507095
2346	0.00669365
2358	0.00385392
2370	0.00405676
2382	0.00446244
2394	0.000405676
2406	0.000202838
2418	0.000202838
2430	0.000709933
2442	0.00152129
2454	0.00263689
2466	0.00344825
2478	0.00344825
2490	0.00294115
2502	0.00233264
2514	0.00152129
2526	0.00131845
2538	0.000912771
2550	0.00121703
2562	0.00131845
2574	0.0021298
2586	0.00233264
2598	0.00223122
2610	0.00192696
2622	0.00141987
2634	0.00172412
2646	0.00233264
2658	0.00385392
2670	0.00476669
2682	0.00446244
2694	0.00324541
2706	0.00223122
2718	0.00192696
2730	0.0021298
2742	0.00253548
2754	0.00273831
2766	0.00294115
2778	0.00405676
2790	0.00557805
2802	0.00567946
2814	0.00578088
2826	0.00608514
2838	0.0085192
2850	0.0164299
2862	0.0460442
2874	0.119776
2886	0.0610542
2898	0.0295129
2910	0.035091
2922	0.053245
2934	0.119979
2946	0.27586
2958	0.400098
2970	0.135394
2982	0.0417846
2994	0.0159228
3006	0.0127788
3018	0.0129816
3030	0.0184583
3042	0.0239349
3054	0.0227179
3066	0.04503
3078	0.0749486
3090	0.0340768
3102	0.0209937
3114	0.0100405
3126	0.00476669
3138	0.00354967
3150	0.00385392
3162	0.00385392
3174	0.00233264
3186	0.00152129
3198	0.00172412
3210	0.00131845
3222	0.00131845
3234	0.00121703
3246	0.00121703
3258	0.00131845
3270	0.00172412
3282	0.00172412
3294	0.00172412
3306	0.00111561
3318	0.0016227
3330	0.00121703
3342	0.00223122
3354	0.00273831
3366	0.00354967
3378	0.00314399
3390	0.00578088
3402	0.00476669
3414	0.00304257
3426	0.00223122
3438	0.00294115
3450	0.00263689
3462	0.0037525
3474	0.00294115
3486	0.00263689
3498	0.00202838
3510	0.00141987
3522	0.00101419
3534	0.000709933
3546	0.000811352
3558	0.000811352
3570	0.00172412
3582	0.00223122
3594	0.0021298
3606	0.000811352
3618	0.00202838
3630	0.0037525
3642	0.00101419
3654	0.00131845
3666	0.00101419
3678	0.00263689
3690	0.00182554
3702	0.00314399
3714	0.00253548
3726	0.00324541
3738	0.00294115
3750	0.0016227
3762	0.00152129
3774	0.00192696
3786	0.00121703
3798	0.00101419
3810	0.000709933
3822	0.00304257
3834	0.00233264
3846	0.00101419
3858	0.00294115
3870	0.0021298
3882	0.0016227
3894	0.00253548
3906	0.00273831
3918	0.0021298
3930	0.00314399
3942	0.00182554
3954	0.00283973
3966	0.00172412
