Infrared Spectrum: Diethyl cyanomethylphosphonate
Formula: C 6 H 12 N O 3 P
CAS: 2537-48-6
Origin: Sadtler Research Labs Under US-EPA Contract
1/CM	ABSORBANCE
450	0.0124092
462	0.0117696
474	0.00953078
486	0.0111299
498	0.0179102
510	0.0211724
522	0.0195093
534	0.0266734
546	0.0421529
558	0.0846897
570	0.0490612
582	0.0197652
594	0.00997854
606	0.00505324
618	0.00914699
630	0.00921096
642	0.0131128
654	0.00754787
666	0.0038379
678	0.00908303
690	0.0147119
702	0.0227076
714	0.022004
726	0.0223878
738	0.0142002
750	0.0271851
762	0.0552018
774	0.0450314
786	0.0401061
798	0.0527711
810	0.0550099
822	0.0381231
834	0.0538585
846	0.0541144
858	0.0271212
870	0.0171426
882	0.0159913
894	0.0178462
906	0.0207886
918	0.0324942
930	0.0577604
942	0.123708
954	0.18633
966	0.218824
978	0.177567
990	0.0953718
1002	0.0827707
1014	0.169123
1026	0.452936
1038	0.63965
1050	0.449098
1062	0.376882
1074	0.249272
1086	0.122301
1098	0.10292
1110	0.0736237
1122	0.0541784
1134	0.0501486
1146	0.051108
1158	0.0576964
1170	0.0591676
1182	0.0416412
1194	0.0330059
1206	0.032942
1218	0.0527711
1230	0.0729841
1242	0.0472062
1254	0.0308311
1266	0.0400421
1278	0.0945403
1290	0.253621
1302	0.208462
1314	0.0808518
1326	0.0362682
1338	0.0217481
1350	0.0172705
1362	0.0195093
1374	0.0308951
1386	0.0389547
1398	0.0716408
1410	0.0408097
1422	0.018294
1434	0.0212364
1446	0.0232193
1458	0.016439
1470	0.0193814
1482	0.0161831
1494	0.0133047
1506	0.00914699
1518	0.00933889
1530	0.00857131
1542	0.00319825
1554	0.00671633
1566	0.00761183
1578	0.00370997
1590	0.00754787
1602	0.00793166
1614	0.00997854
1626	0.00741994
1638	0.00582082
1650	0.00620461
1662	0.00703615
1674	0.0063965
1686	0.00287842
1698	0.00492531
1710	0.00869924
1722	0.00914699
1734	0.00805959
1746	0.010874
1758	0.0102984
1770	0.00882717
1782	0.0087632
1794	0.00857131
1806	0.00972268
1818	0.0111939
1830	0.00921096
1842	0.0102984
1854	0.00921096
1866	0.00818752
1878	0.0078677
1890	0.00722804
1902	0.00780373
1914	0.00754787
1926	0.00722804
1938	0.00678029
1950	0.00716408
1962	0.00550099
1974	0.00556495
1986	0.00550099
1998	0.00550099
2010	0.00588478
2022	0.00594875
2034	0.00594875
2046	0.00530909
2058	0.00543702
2070	0.00537306
2082	0.00537306
2094	0.00486134
2106	0.0051172
2118	0.00518116
2130	0.00588478
2142	0.0063965
2154	0.00646047
2166	0.00588478
2178	0.00620461
2190	0.00626857
2202	0.00524513
2214	0.00518116
2226	0.00582082
2238	0.00614064
2250	0.00921096
2262	0.012793
2274	0.00575685
2286	0.00466945
2298	0.00460548
2310	0.00492531
2322	0.00236671
2334	0.00025586
2346	0.00012793
2358	0.00012793
2370	0.00012793
2382	0.00102344
2394	0.00345411
2406	0.00390187
2418	0.00498927
2430	0.00486134
2442	0.00505324
2454	0.00492531
2466	0.00428566
2478	0.00358204
2490	0.00230274
2502	0.00179102
2514	0.00179102
2526	0.00236671
2538	0.00217481
2550	0.00268653
2562	0.00454152
2574	0.00307032
2586	0.00351808
2598	0.00294239
2610	0.0040298
2622	0.00454152
2634	0.00569288
2646	0.00454152
2658	0.00543702
2670	0.00460548
2682	0.00466945
2694	0.00466945
2706	0.0051172
2718	0.00575685
2730	0.00671633
2742	0.00761183
2754	0.00697219
2766	0.00722804
2778	0.00710012
2790	0.00773977
2802	0.00665236
2814	0.00754787
2826	0.00812356
2838	0.0102984
2850	0.0103623
2862	0.0117056
2874	0.0172066
2886	0.0222598
2898	0.0233472
2910	0.0331339
2922	0.0397223
2934	0.0460548
2946	0.063901
2958	0.0466944
2970	0.0494449
2982	0.0826428
2994	0.107589
3006	0.0715129
3018	0.0412574
3030	0.0246905
3042	0.0171426
3054	0.0134966
3066	0.00997854
3078	0.00933889
3090	0.00857131
3102	0.00684426
3114	0.00850734
3126	0.0076758
3138	0.0101065
3150	0.00997854
3162	0.00997854
3174	0.00889113
3186	0.00985061
3198	0.00946682
3210	0.00940285
3222	0.0106182
3234	0.00997854
3246	0.00959475
3258	0.0110659
3270	0.0101065
3282	0.0087632
3294	0.00908303
3306	0.00710012
3318	0.00869924
3330	0.00965872
3342	0.00972268
3354	0.0108101
3366	0.0102984
3378	0.00921096
3390	0.00985061
3402	0.00818752
3414	0.00780373
3426	0.00921096
3438	0.00978665
3450	0.00940285
3462	0.00933889
3474	0.00959475
3486	0.00530909
3498	0.00741994
3510	0.00575685
3522	0.00582082
3534	0.0063965
3546	0.00735597
3558	0.00722804
3570	0.00537306
3582	0.00543702
3594	0.00339015
3606	0.00345411
3618	0.00313429
3630	0.00217481
3642	0.00582082
3654	0.00396583
3666	0.00703615
3678	0.00428566
3690	0.00415773
3702	0.00550099
3714	0.00428566
3726	0.00626857
3738	0.0051172
3750	0.00805959
3762	0.0104903
3774	0.0118335
3786	0.0104903
3798	0.00965872
3810	0.00844338
3822	0.00678029
3834	0.00953078
3846	0.0113858
3858	0.0105542
3870	0.0101704
3882	0.00901906
3894	0.00697219
3906	0.00307032
3918	0.00415773
3930	0.00275049
3942	0.00339015
3954	0.00172706
3966	0.00211085
