Infrared Spectrum: Propiophenone, 5-tert-butyl-2-hydroxy-,
Formula: C 13 H 18 O 2
CAS: 25441-52-5
Origin: Sadtler Research Labs Under US-EPA Contract
1/CM	ABSORBANCE
450	0.0126365
462	0.00331247
474	0.00110416
486	0.00637957
498	0.0253956
510	0.02834
522	0.0115323
534	0.0141087
546	0.0155809
558	0.0111642
570	0.0284627
582	0.0463746
594	0.0466199
606	0.0635503
618	0.0871056
630	0.05668
642	0.0377867
654	0.0569254
666	0.0617101
678	0.0331247
690	0.0385228
702	0.0478468
714	0.0538583
726	0.0700526
738	0.0955708
750	0.117409
762	0.121089
774	0.10146
786	0.0835478
798	0.0625688
810	0.0700526
822	0.135811
834	0.218255
846	0.0820756
858	0.0267451
870	0.0637957
882	0.0617101
894	0.0228192
906	0.0133726
918	0.0176665
930	0.030671
942	0.0579068
954	0.109311
966	0.125138
978	0.0568027
990	0.0277266
1002	0.0699299
1014	0.0785178
1026	0.0204882
1038	0.00883325
1050	0.0123911
1062	0.0242914
1074	0.0344742
1086	0.049687
1098	0.0487055
1110	0.0480921
1122	0.045025
1134	0.0490736
1146	0.0841612
1158	0.107839
1170	0.211753
1182	0.489141
1194	0.488896
1206	0.427063
1218	0.30033
1230	0.337504
1242	0.547416
1254	0.505703
1266	0.480799
1278	0.294319
1290	0.338976
1302	0.358605
1314	0.17507
1326	0.155809
1338	0.251134
1350	0.3218
1362	0.375658
1374	0.358851
1386	0.218378
1398	0.169181
1410	0.112869
1422	0.112133
1434	0.0963069
1446	0.136057
1458	0.212121
1470	0.334682
1482	0.621394
1494	0.656114
1506	0.246227
1518	0.118267
1530	0.0824436
1542	0.0651452
1554	0.0628142
1566	0.0929945
1578	0.188688
1590	0.233468
1602	0.153723
1614	0.162311
1626	0.175193
1638	0.3218
1650	1.0038
1662	0.951537
1674	0.227211
1686	0.082689
1698	0.0569254
1710	0.0442889
1722	0.0323886
1734	0.0246595
1746	0.0316525
1758	0.0322659
1770	0.0242914
1782	0.0160716
1794	0.0101828
1806	0.00637957
1818	0.00490736
1830	0.00404857
1842	0.00503004
1854	0.00392589
1866	0.00147221
1878	0.00245368
1890	0.00343515
1902	0.00772909
1914	0.0134952
1926	0.00699299
1938	0.00368052
1950	0.00343515
1962	0.00355784
1974	0.00159489
1986	0.000858788
1998	0.00061342
2010	0.00110416
2022	0.000981472
2034	0.00122684
2046	0.00061342
2058	0.000858788
2070	0.00061342
2082	0.000981472
2094	0.00110416
2106	0.00061342
2118	0.00122684
2130	0.00134952
2142	0.000245368
2154	0.000245368
2166	0.000122684
2178	0.000368052
2190	0.000368052
2202	0
2214	0.000122684
2226	0.000858788
2238	0.00147221
2250	0.00159489
2262	0.00220831
2274	0.00257636
2286	0.00392589
2298	0.00588883
2310	0.00723836
2322	0.0061342
2334	0.00417126
2346	0.00601152
2358	0.00625688
2370	0.0061342
2382	0.00809714
2394	0.00699299
2406	0.00650225
2418	0.00625688
2430	0.00601152
2442	0.00552078
2454	0.00527541
2466	0.00527541
2478	0.00588883
2490	0.00625688
2502	0.00674762
2514	0.00736104
2526	0.00883325
2538	0.00944667
2550	0.00981472
2562	0.0119003
2574	0.0130045
2586	0.0130045
2598	0.0144767
2610	0.0145994
2622	0.0136179
2634	0.014354
2646	0.0152128
2658	0.0175438
2670	0.0196294
2682	0.0197521
2694	0.0198748
2706	0.0219604
2718	0.023678
2730	0.0247822
2742	0.026009
2754	0.0294442
2766	0.0293215
2778	0.027972
2790	0.0299349
2802	0.0304256
2814	0.0349649
2826	0.0395042
2838	0.0440436
2850	0.0560666
2862	0.0945894
2874	0.172984
2886	0.212734
2898	0.212979
2910	0.244018
2922	0.284504
2934	0.262789
2946	0.352839
2958	0.617837
2970	0.954359
2982	0.508771
2994	0.298613
3006	0.13164
3018	0.0937306
3030	0.0922584
3042	0.109925
3054	0.117286
3066	0.128573
3078	0.145381
3090	0.115568
3102	0.0987606
3114	0.0986379
3126	0.096675
3138	0.0913996
3150	0.0875964
3162	0.0866149
3174	0.0878417
3186	0.0888232
3198	0.0884552
3210	0.0861242
3222	0.0820756
3234	0.0772909
3246	0.0739785
3258	0.0718928
3270	0.0707887
3282	0.066372
3294	0.0629369
3306	0.0601152
3318	0.0556985
3330	0.0514046
3342	0.0463746
3354	0.0420806
3366	0.0391362
3378	0.0365598
3390	0.0337381
3402	0.0315298
3414	0.0293215
3426	0.0263771
3438	0.0230646
3450	0.0207336
3462	0.0187707
3474	0.0165623
3486	0.0148448
3498	0.0123911
3510	0.0107962
3522	0.00944667
3534	0.00785178
3546	0.00662494
3558	0.00588883
3570	0.00662494
3582	0.0061342
3594	0.00404857
3606	0.00294442
3618	0.00171758
3630	0.00196294
3642	0.00245368
3654	0.00159489
3666	0.000981472
3678	0.000368052
3690	0.000490736
3702	0.00061342
3714	0.000858788
3726	0.000736104
3738	0.000858788
3750	0.00061342
3762	0.000858788
3774	0
3786	0
3798	0.000122684
3810	0.000858788
3822	0.00110416
3834	0.000245368
3846	0.000245368
3858	0.00061342
3870	0.000245368
3882	0.00220831
3894	0.00159489
3906	0.00171758
3918	0.00122684
3930	0.00159489
3942	0.00159489
3954	0.00220831
3966	0.00208563
