Infrared Spectrum: Toluene, .alpha.-fluoro-,
Formula: C 7 H 7 F
CAS: 25496-08-6
Origin: Sadtler Research Labs Under US-EPA Contract
1/CM	ABSORBANCE
450	0.0123588
462	0.0132577
474	0.0219463
486	0.0229949
498	0.00928785
510	0.00614196
522	0.0119843
534	0.00419451
546	0.0246428
558	0.0134075
570	0.032882
582	0.149055
594	0.180439
606	0.0674867
618	0.0423945
630	0.0241933
642	0.0283879
654	0.0287624
666	0.0726549
678	0.218115
690	0.366046
702	0.348968
714	0.305675
726	0.352564
738	0.556372
750	0.360054
762	0.159691
774	0.0731793
786	0.0504839
798	0.0584985
810	0.101717
822	0.103664
834	0.0570004
846	0.0453157
858	0.0413459
870	0.0489859
882	0.0525063
894	0.0578992
906	0.0864369
918	0.0738534
930	0.0630675
942	0.0651647
954	0.0766247
966	0.107185
978	0.17572
990	0.326048
1002	0.567233
1014	0.73344
1026	0.704453
1038	0.490234
1050	0.284178
1062	0.195494
1074	0.129655
1086	0.0828416
1098	0.0583487
1110	0.0418702
1122	0.0307098
1134	0.0315337
1146	0.0291369
1158	0.0307847
1170	0.0384247
1182	0.0418702
1194	0.0713816
1206	0.166957
1218	0.178267
1230	0.0728796
1242	0.0447914
1254	0.0367769
1266	0.0361028
1278	0.0319832
1290	0.033631
1302	0.0418702
1314	0.0399228
1326	0.0430686
1338	0.0474879
1350	0.0566259
1362	0.093253
1374	0.272419
1386	0.260809
1398	0.0683106
1410	0.0288373
1422	0.0279384
1434	0.04966
1446	0.0996197
1458	0.0980467
1470	0.0972977
1482	0.0570004
1494	0.0792463
1506	0.0701083
1518	0.0232945
1530	0.0235941
1542	0.012209
1554	0.0217965
1566	0.025991
1578	0.0215718
1590	0.0296612
1602	0.0264404
1614	0.0231447
1626	0.0204482
1638	0.0185757
1650	0.019849
1662	0.019849
1674	0.0147557
1686	0.0104863
1698	0.0170777
1710	0.0226204
1722	0.0273392
1734	0.0247926
1746	0.0247177
1758	0.0224706
1770	0.0170777
1782	0.0196243
1794	0.0316835
1806	0.0376008
1818	0.0251671
1830	0.0150553
1842	0.0143812
1854	0.0215718
1866	0.0273392
1878	0.0322828
1890	0.0250173
1902	0.0135573
1914	0.0102616
1926	0.0153549
1938	0.0253918
1950	0.0337808
1962	0.0304102
1974	0.0180514
1986	0.0113851
1998	0.00958746
2010	0.00906314
2022	0.0110855
2034	0.00883844
2046	0.00853883
2058	0.00726549
2070	0.00471883
2082	0.00516824
2094	0.00284628
2106	0.00314588
2118	0.0037451
2130	0.00202235
2142	0.00217216
2154	0.00217216
2166	0.000973726
2178	0.00239686
2190	0.00254667
2202	0.00329569
2214	0.00501843
2226	0.00329569
2238	0.00382
2250	0.00614196
2262	0.00494353
2274	0.00689098
2286	0.0075651
2298	0.00726549
2310	0.0118345
2322	0.0126584
2334	0.00793961
2346	0.00696589
2358	0.0110855
2370	0.00104863
2382	0.00284628
2394	0.00576745
2406	0.00674118
2418	0.00793961
2430	0.0074902
2442	0.00831412
2454	0.00621687
2466	0.00778981
2478	0.00711569
2490	0.00599216
2502	0.00793961
2514	0.00838902
2526	0.00681608
2538	0.00853883
2550	0.00771491
2562	0.0074902
2574	0.00928785
2586	0.00808942
2598	0.00996197
2610	0.00966236
2622	0.00838902
2634	0.00973726
2646	0.00913804
2658	0.0075651
2670	0.00936275
2682	0.00906314
2694	0.00861373
2706	0.00898824
2718	0.00876353
2730	0.0128082
2742	0.0143063
2754	0.0128082
2766	0.0110106
2778	0.00838902
2790	0.00928785
2802	0.0116098
2814	0.0131828
2826	0.0170028
2838	0.0212722
2850	0.0238937
2862	0.0376008
2874	0.0566259
2886	0.0915302
2898	0.157968
2910	0.175645
2922	0.147707
2934	0.15632
2946	0.176919
2958	0.21804
2970	0.234968
2982	0.182162
2994	0.122989
3006	0.0775985
3018	0.0880848
3030	0.189951
3042	0.292567
3054	0.264479
3066	0.234743
3078	0.265752
3090	0.208452
3102	0.12988
3114	0.0818679
3126	0.0447914
3138	0.016778
3150	0.0113851
3162	0.012958
3174	0.0109357
3186	0.0112353
3198	0.0103365
3210	0.00928785
3222	0.0125086
3234	0.0110855
3246	0.0104114
3258	0.012958
3270	0.00951255
3282	0.0119094
3294	0.0140067
3306	0.0108608
3318	0.0140067
3330	0.0131828
3342	0.0107859
3354	0.0125835
3366	0.0110855
3378	0.012209
3390	0.012209
3402	0.010711
3414	0.0130329
3426	0.0110106
3438	0.00861373
3450	0.0128831
3462	0.0123588
3474	0.00883844
3486	0.0115349
3498	0.00936275
3510	0.0101118
3522	0.0113851
3534	0.00913804
3546	0.00921295
3558	0.00943765
3570	0.00509334
3582	0.0109357
3594	0.00831412
3606	0.00898824
3618	0.0102616
3630	0.00299608
3642	0.0100369
3654	0.00883844
3666	0.0125835
3678	0.00666628
3690	0.0073404
3702	0.00876353
3714	0.00898824
3726	0.00719059
3738	0.00509334
3750	0.00569255
3762	0.00831412
3774	0.0105612
3786	0.00876353
3798	0.0073404
3810	0.00711569
3822	0.00606706
3834	0.00636667
3846	0.00846393
3858	0.00441922
3870	0.00831412
3882	0.0074902
3894	0.00793961
3906	0.0113851
3918	0.0101867
3930	0.0116847
3942	0.0137071
3954	0
3966	0.000973726
