Infrared Spectrum: 2-Butanone, 4-phenyl-
Formula: C 10 H 12 O
CAS: 2550-26-7
Origin: Sadtler Research Labs Under US-EPA Contract
1/CM	ABSORBANCE
450	0.00339788
462	0.00922283
474	0.0179602
486	0.0309855
498	0.0488648
510	0.0341406
522	0.0311473
534	0.030136
546	0.0368104
558	0.0191333
570	0.0134297
582	0.00364059
594	0.0119735
606	0.0115285
618	0.00521818
630	0.00428781
642	0.00558224
654	0.004126
666	0.0127421
678	0.0335339
690	0.0951003
702	0.142873
714	0.0737422
726	0.0570764
738	0.0897203
750	0.104444
762	0.0492289
774	0.0170703
786	0.00873742
798	0.00614855
810	0.00315518
822	0.00360014
834	0.00376194
846	0.00489457
858	0.00711938
870	0.00400465
882	0.0061081
894	0.00946553
906	0.0131466
918	0.0171917
930	0.0183648
942	0.0204682
954	0.0205491
966	0.0189715
978	0.0124589
990	0.0116903
1002	0.0127421
1014	0.0199828
1026	0.0318754
1038	0.0281943
1050	0.0147242
1062	0.0158163
1074	0.0225717
1086	0.0204278
1098	0.0151287
1110	0.01525
1122	0.0201041
1134	0.037579
1146	0.0881832
1158	0.145057
1170	0.101451
1182	0.0718005
1194	0.0608383
1206	0.0577236
1218	0.0580876
1230	0.0457501
1242	0.0347474
1254	0.0330889
1266	0.0357182
1278	0.0426758
1290	0.0356778
1302	0.0270617
1314	0.0275471
1326	0.0360418
1338	0.057764
1350	0.102462
1362	0.172483
1374	0.131183
1386	0.0552561
1398	0.0359205
1410	0.0411791
1422	0.0544066
1434	0.0569955
1446	0.0691308
1458	0.0610001
1470	0.0318349
1482	0.0239874
1494	0.0690094
1506	0.0595439
1518	0.0129039
1530	0.0126612
1542	0.0126612
1554	0.0134297
1566	0.0100318
1578	0.0139556
1590	0.0186884
1602	0.0408555
1614	0.0318754
1626	0.0105577
1638	0.00732163
1650	0.0146433
1662	0.0117712
1674	0.0213581
1686	0.0275471
1698	0.0438893
1710	0.100521
1722	0.220175
1734	0.40451
1746	0.24574
1758	0.0904889
1770	0.0417859
1782	0.0201446
1794	0.0213581
1806	0.0129848
1818	0.00804975
1830	0.00715983
1842	0.00477322
1854	0.00732163
1866	0.00938463
1878	0.008252
1890	0.0080902
1902	0.00428781
1914	0.00360014
1926	0.00724073
1938	0.00889922
1950	0.0109622
1962	0.008252
1974	0.00165849
1986	0.00177984
1998	0.00165849
2010	0.00137533
2022	0.00177984
2034	0.002063
2046	0.000889922
2058	0.0039642
2070	0.00364059
2082	0.00246751
2094	0.00242706
2106	0.00238661
2118	0.00291247
2130	0.00230571
2142	0.0019821
2154	0.00238661
2166	0.00125398
2178	0.00137533
2190	0.00238661
2202	0.00177984
2214	0.00165849
2226	0.00186075
2238	0.00145624
2250	0.00169894
2262	0.00226526
2274	0.00194165
2286	0.00339788
2298	0.004126
2310	0.00598675
2322	0.00550134
2334	0.00319563
2346	0.0039642
2358	0.00501592
2370	0.000566314
2382	0.00194165
2394	0.00234616
2406	0.00169894
2418	0.00226526
2430	0.00177984
2442	0.0018203
2454	0.00230571
2466	0.00258886
2478	0.00254841
2490	0.00295292
2502	0.00250796
2514	0.00339788
2526	0.00364059
2538	0.00283157
2550	0.00307428
2562	0.00299337
2574	0.00307428
2586	0.00376194
2598	0.00327653
2610	0.00307428
2622	0.00307428
2634	0.00266977
2646	0.00254841
2658	0.00266977
2670	0.00279112
2682	0.00489457
2694	0.00453051
2706	0.00384285
2718	0.00372149
2730	0.00368104
2742	0.0038833
2754	0.00501592
2766	0.00574404
2778	0.00760479
2790	0.0080902
2802	0.00861606
2814	0.0104768
2826	0.0117712
2838	0.0137129
2850	0.0186075
2862	0.0284371
2874	0.0357182
2886	0.0370531
2898	0.0542448
2910	0.0705061
2922	0.0842999
2934	0.101249
2946	0.0896394
2958	0.0791626
2970	0.0718814
2982	0.0433635
2994	0.0319563
3006	0.0467614
3018	0.0683217
3030	0.116944
3042	0.123578
3054	0.06278
3066	0.091662
3078	0.115083
3090	0.0654093
3102	0.0465187
3114	0.0290843
3126	0.0143601
3138	0.00837336
3150	0.00768569
3162	0.00695757
3174	0.00821155
3186	0.00651261
3198	0.00635081
3210	0.00626991
3222	0.00639126
3234	0.00546089
3246	0.00659351
3258	0.00517773
3270	0.00643171
3282	0.00695757
3294	0.00639126
3306	0.00537998
3318	0.00566314
3330	0.00651261
3342	0.00570359
3354	0.00631036
3366	0.00529908
3378	0.00542043
3390	0.00841381
3402	0.00679577
3414	0.00606765
3426	0.00724073
3438	0.0103555
3450	0.013996
3462	0.0114881
3474	0.00687667
3486	0.00525863
3498	0.00477322
3510	0.00546089
3522	0.00542043
3534	0.00885877
3546	0.00436871
3558	0.00489457
3570	0.00744298
3582	0.00533953
3594	0.00380239
3606	0.00400465
3618	0.00469232
3630	0.00614855
3642	0.00400465
3654	0.00275067
3666	0.00558224
3678	0.00360014
3690	0.00307428
3702	0.00489457
3714	0.00177984
3726	0.00416645
3738	0.000768569
3750	0.00424736
3762	0.00457096
3774	0.00489457
3786	0.00606765
3798	0.00857561
3810	0.00505638
3822	0.00926328
3834	0.0039642
3846	0.00626991
3858	0.00360014
3870	0.00732163
3882	0.00550134
3894	0.00444961
3906	0.00473277
3918	0.00942508
3930	0.00788795
3942	0.00934418
3954	0
3966	0.0101532
