Infrared Spectrum: Sulfur hexafluoride
Formula: F 6 S
CAS: 2551-62-4
Origin: Sadtler Research Labs Under US-EPA Contract
1/CM	ABSORBANCE
450	0.0299174
462	0.00841428
474	0.00716772
486	0.00560952
498	0.00716772
510	0.00451878
522	0.00592116
534	0.00654444
546	0.00218148
558	0.00607698
570	0.0062328
582	0.00327222
594	0.026801
606	0.0241521
618	0.0426947
630	0.0341246
642	0.0130889
654	0.00685608
666	0.00373968
678	0.00638862
690	0.00498624
702	0.0054537
714	0.00560952
726	0.00560952
738	0.0054537
750	0.0054537
762	0.00607698
774	0.00529788
786	0.00592116
798	0.00514206
810	0.00560952
822	0.00576534
834	0.00607698
846	0.00607698
858	0.007791
870	0.00903756
882	0.00716772
894	0.007791
906	0.00560952
918	0.0286709
930	0.162053
942	1.23113
954	0.089129
966	0.00576534
978	0.0204124
990	0.0152704
1002	0.00607698
1014	0.00638862
1026	0.00436296
1038	0.00514206
1050	0.0062328
1062	0.00529788
1074	0.0054537
1086	0.0054537
1098	0.00483042
1110	0.00576534
1122	0.00529788
1134	0.00529788
1146	0.00560952
1158	0.00498624
1170	0.00514206
1182	0.00498624
1194	0.00483042
1206	0.00529788
1218	0.00514206
1230	0.00514206
1242	0.00592116
1254	0.00638862
1266	0.0054537
1278	0.00514206
1290	0.00483042
1302	0.00483042
1314	0.00514206
1326	0.00451878
1338	0.00483042
1350	0.0046746
1362	0.0046746
1374	0.0046746
1386	0.00498624
1398	0.00451878
1410	0.0046746
1422	0.00483042
1434	0.00436296
1446	0.00451878
1458	0.00436296
1470	0.00451878
1482	0.00451878
1494	0.00436296
1506	0.00420714
1518	0.00420714
1530	0.00436296
1542	0.0046746
1554	0.00576534
1566	0.0070119
1578	0.00810264
1590	0.0070119
1602	0.00560952
1614	0.00483042
1626	0.00451878
1638	0.00436296
1650	0.00451878
1662	0.0038955
1674	0.00420714
1686	0.00420714
1698	0.00483042
1710	0.00747936
1722	0.00514206
1734	0.00405132
1746	0.00373968
1758	0.00373968
1770	0.0038955
1782	0.00373968
1794	0.00358386
1806	0.00358386
1818	0.00358386
1830	0.00373968
1842	0.00373968
1854	0.0038955
1866	0.00327222
1878	0.00327222
1890	0.00358386
1902	0.0038955
1914	0.00342804
1926	0.00358386
1938	0.00327222
1950	0.00342804
1962	0.0031164
1974	0.00342804
1986	0.00327222
1998	0.0031164
2010	0.00327222
2022	0.0031164
2034	0.00296058
2046	0.0031164
2058	0.0031164
2070	0.00327222
2082	0.00327222
2094	0.0031164
2106	0.00296058
2118	0.0031164
2130	0.00296058
2142	0.0031164
2154	0.00264894
2166	0.00296058
2178	0.00280476
2190	0.00280476
2202	0.0031164
2214	0.00264894
2226	0.00249312
2238	0.00264894
2250	0.00264894
2262	0.00249312
2274	0.00249312
2286	0.00202566
2298	0.0007791
2310	0.00031164
2322	0.00249312
2334	0.00373968
2346	0.00296058
2358	0.00296058
2370	0.00264894
2382	0.00186984
2394	0.00249312
2406	0.00264894
2418	0.00249312
2430	0.0023373
2442	0.00249312
2454	0.00264894
2466	0.00249312
2478	0.0023373
2490	0.0023373
2502	0.00249312
2514	0.0023373
2526	0.0023373
2538	0.00249312
2550	0.00218148
2562	0.00218148
2574	0.00218148
2586	0.00249312
2598	0.00249312
2610	0.0023373
2622	0.00218148
2634	0.00218148
2646	0.0023373
2658	0.0023373
2670	0.0023373
2682	0.0023373
2694	0.00249312
2706	0.00249312
2718	0.00264894
2730	0.0023373
2742	0.00218148
2754	0.0023373
2766	0.0023373
2778	0.0023373
2790	0.00218148
2802	0.00202566
2814	0.0023373
2826	0.00202566
2838	0.00202566
2850	0.00186984
2862	0.0015582
2874	0.00202566
2886	0.00186984
2898	0.0023373
2910	0.00249312
2922	0.00186984
2934	0.00171402
2946	0.00186984
2958	0.00186984
2970	0.00202566
2982	0.00171402
2994	0.0015582
3006	0.00202566
3018	0.00186984
3030	0.00171402
3042	0.00140238
3054	0.0015582
3066	0.00186984
3078	0.00202566
3090	0.00171402
3102	0.0015582
3114	0.00171402
3126	0.00171402
3138	0.00171402
3150	0.00171402
3162	0.00218148
3174	0.0015582
3186	0.00171402
3198	0.00186984
3210	0.00186984
3222	0.00171402
3234	0.00171402
3246	0.00202566
3258	0.00218148
3270	0.00124656
3282	0.00140238
3294	0.00140238
3306	0.0015582
3318	0.00140238
3330	0.0015582
3342	0.00093492
3354	0.00124656
3366	0.00109074
3378	0.00124656
3390	0.00124656
3402	0.00093492
3414	0.00062328
3426	0.00124656
3438	0.00124656
3450	0.0007791
3462	0.0007791
3474	0.0007791
3486	0.00109074
3498	0.00093492
3510	0.00124656
3522	0.00062328
3534	0.00062328
3546	0.00093492
3558	0.00171402
3570	0.00109074
3582	0.00124656
3594	0.00140238
3606	0.0007791
3618	0.00140238
3630	0.00109074
3642	0.00109074
3654	0.0015582
3666	0.00062328
3678	0.00186984
3690	0.00093492
3702	0.00109074
3714	0.00109074
3726	0.00093492
3738	0.00140238
3750	0.00046746
3762	0.00031164
3774	0.00093492
3786	0.0007791
3798	0.00046746
3810	0.00046746
3822	0.00202566
3834	0.00093492
3846	0.00093492
3858	0.00093492
3870	0.00093492
3882	0.00171402
3894	0.00093492
3906	0.00124656
3918	0.00046746
3930	0.0015582
3942	0.00046746
3954	0.00062328
3966	0.00109074
