Infrared Spectrum: Acetonitrile, diisobutylamino-,
Formula: C 10 H 20 N 2
CAS: 25553-97-3
Origin: Sadtler Research Labs Under US-EPA Contract
1/CM	ABSORBANCE
450	0.0336836
462	0.0125334
474	0.0161368
486	0.00313336
498	0.00141001
510	0.0043867
522	0.00564005
534	0.0109668
546	0.0100268
558	0.00799007
570	0.00548338
582	0.00548338
594	0.00501338
606	0.00767673
618	0.0109668
630	0.0120634
642	0.00971342
654	0.0104968
666	0.0133168
678	0.0158235
690	0.0166068
702	0.0211502
714	0.106691
726	0.0170768
738	0.0183302
750	0.0155101
762	0.0130034
774	0.0117501
786	0.00955675
798	0.0108101
810	0.0261636
822	0.0440237
834	0.0488804
846	0.104028
858	0.108571
870	0.113114
882	0.040107
894	0.0247535
906	0.0267902
918	0.0341536
930	0.0570272
942	0.0527971
954	0.0626672
966	0.129094
978	0.103401
990	0.0318036
1002	0.0153535
1014	0.0136301
1026	0.0153535
1038	0.0205235
1050	0.0318036
1062	0.075044
1074	0.201318
1086	0.450891
1098	0.40906
1110	0.169828
1122	0.113741
1134	0.0979175
1146	0.075984
1158	0.0961942
1170	0.0925908
1182	0.0639205
1194	0.076454
1206	0.072694
1218	0.0310203
1230	0.0242835
1242	0.0274169
1254	0.0376003
1266	0.0440237
1278	0.0579672
1290	0.0670539
1302	0.0722239
1314	0.100581
1326	0.147268
1338	0.110294
1350	0.0784907
1362	0.117814
1374	0.202258
1386	0.187532
1398	0.190508
1410	0.0692473
1422	0.0668972
1434	0.137555
1446	0.136458
1458	0.208212
1470	0.33903
1482	0.172178
1494	0.0454337
1506	0.0260069
1518	0.0151968
1530	0.00924341
1542	0.00611005
1554	0.00548338
1566	0.0043867
1578	0.00454337
1590	0.0039167
1602	0.00454337
1614	0.00423004
1626	0.00360336
1638	0.00407337
1650	0.00235002
1662	0.00485671
1674	0.00501338
1686	0.00689339
1698	0.0125334
1710	0.0186435
1722	0.00940008
1734	0.00658006
1746	0.0043867
1758	0.00235002
1770	0.00250669
1782	0.00250669
1794	0.00203668
1806	0.00156668
1818	0.00141001
1830	0.000313336
1842	0
1854	0.00078334
1866	0.000313336
1878	0.000940008
1890	0.00109668
1902	0.00203668
1914	0.00219335
1926	0.00329003
1938	0.00313336
1950	0.00188002
1962	0.000940008
1974	0.00078334
1986	0.00125334
1998	0.00125334
2010	0.00141001
2022	0.000940008
2034	0.000940008
2046	0.00109668
2058	0.000626672
2070	0.000313336
2082	0.000470004
2094	0.000313336
2106	0.000470004
2118	0.000313336
2130	0.00109668
2142	0.00156668
2154	0.00235002
2166	0.00282002
2178	0.00297669
2190	0.00313336
2202	0.00250669
2214	0.00250669
2226	0.00297669
2238	0.00329003
2250	0.00329003
2262	0.00313336
2274	0.0039167
2286	0.00485671
2298	0.00407337
2310	0.00235002
2322	0.00172335
2334	0.00156668
2346	0.00313336
2358	0.0039167
2370	0.0039167
2382	0.00454337
2394	0.00501338
2406	0.00517004
2418	0.00407337
2430	0.00329003
2442	0.00203668
2454	0.00188002
2466	0.00203668
2478	0.00266336
2490	0.00282002
2502	0.00313336
2514	0.0034467
2526	0.00376003
2538	0.00407337
2550	0.00517004
2562	0.00611005
2574	0.00846007
2586	0.0115934
2598	0.0141001
2610	0.0150401
2622	0.0162935
2634	0.0175468
2646	0.0178602
2658	0.0198968
2670	0.0216202
2682	0.0235002
2694	0.0275736
2706	0.0341536
2718	0.0457471
2730	0.0637639
2742	0.0689339
2754	0.0708139
2766	0.0822507
2778	0.102618
2790	0.135674
2802	0.193485
2814	0.245969
2826	0.318663
2838	0.318819
2850	0.223879
2862	0.199125
2874	0.371616
2886	0.544265
2898	0.428957
2910	0.532201
2922	0.591735
2934	0.665996
2946	0.775193
2958	1.12613
2970	1.5413
2982	0.695919
2994	0.170925
3006	0.0813107
3018	0.0529538
3030	0.0393237
3042	0.0297669
3054	0.0233435
3066	0.0217769
3078	0.0222469
3090	0.0217769
3102	0.0200535
3114	0.0175468
3126	0.0169201
3138	0.0167635
3150	0.0178602
3162	0.0181735
3174	0.0191135
3186	0.0186435
3198	0.0155101
3210	0.0115934
3222	0.00908674
3234	0.00814674
3246	0.00877341
3258	0.0101834
3270	0.0119068
3282	0.0117501
3294	0.0104968
3306	0.00814674
3318	0.00908674
3330	0.0141001
3342	0.0150401
3354	0.0133168
3366	0.0104968
3378	0.00846007
3390	0.00658006
3402	0.00595338
3414	0.00470004
3426	0.0039167
3438	0.00360336
3450	0.00313336
3462	0.00329003
3474	0.00313336
3486	0.00250669
3498	0.00329003
3510	0.0034467
3522	0.00297669
3534	0.00250669
3546	0.00282002
3558	0.00282002
3570	0.00313336
3582	0.00282002
3594	0.00250669
3606	0.00188002
3618	0.00250669
3630	0.0039167
3642	0.00313336
3654	0.00235002
3666	0.00266336
3678	0.00297669
3690	0.00282002
3702	0.00297669
3714	0.00313336
3726	0.0034467
3738	0.0043867
3750	0.00297669
3762	0.0034467
3774	0.00329003
3786	0.0043867
3798	0.00485671
3810	0.00501338
3822	0.00485671
3834	0.00517004
3846	0.00485671
3858	0.00454337
3870	0.00423004
3882	0.00407337
3894	0.00485671
3906	0.0043867
3918	0.00470004
3930	0.00376003
3942	0.00313336
3954	0.00282002
3966	0.00266336
