Infrared Spectrum: Naphtho[1,2-b]furan, 2,3-dihydro-2,2-dimethyl-,
Formula: C 14 H 14 O
CAS: 25594-14-3
Origin: Sadtler Research Labs Under US-EPA Contract
1/CM	ABSORBANCE
450	0.0219025
462	0.00756158
474	0.00241188
486	0.0117987
498	0.0149928
510	0.0136891
522	0.0125809
534	0.00717046
546	0.00984309
558	0.0572985
570	0.0580155
582	0.0103646
594	0.00436746
606	0.002803
618	0.00541044
630	0.00938678
642	0.0351353
654	0.0969316
666	0.0437398
678	0.00580155
690	0.00495414
702	0.00847418
714	0.0065186
726	0.0521488
738	0.101103
750	0.240015
762	0.137347
774	0.205857
786	0.225022
798	0.461582
810	0.129199
822	0.0174047
834	0.0185128
846	0.0645341
858	0.105536
870	0.0860455
882	0.29073
894	0.0461517
906	0.030833
918	0.0205988
930	0.0232714
942	0.0322019
954	0.0264003
966	0.0314197
978	0.0852633
990	0.160032
1002	0.0566466
1014	0.0209247
1026	0.0190995
1038	0.0111468
1050	0.0797877
1062	0.35031
1074	0.504996
1086	0.19445
1098	0.025227
1110	0.0309633
1122	0.136434
1134	0.258462
1146	0.247185
1158	0.124831
1170	0.0625134
1182	0.0402849
1194	0.023141
1206	0.0252922
1218	0.037156
1230	0.0450435
1242	0.0634912
1254	0.0720957
1266	0.0990175
1278	0.228542
1290	0.579895
1302	0.409564
1314	0.0657727
1326	0.0302463
1338	0.0704009
1350	0.0878055
1362	0.206314
1374	0.542022
1386	0.486092
1398	0.586022
1410	0.0973879
1422	0.0333752
1434	0.0955627
1446	0.203511
1458	0.163747
1470	0.164204
1482	0.0291381
1494	0.0116683
1506	0.0365042
1518	0.120855
1530	0.0537133
1542	0.0116683
1554	0.0181869
1566	0.0993435
1578	0.293924
1590	0.158011
1602	0.0818084
1614	0.0146017
1626	0.0144061
1638	0.0243796
1650	0.0106905
1662	0.0065186
1674	0.00423709
1686	0.011929
1698	0.00358523
1710	0.00938678
1722	0.0170135
1734	0.0165572
1746	0.00528007
1758	0.00169484
1770	0.00345486
1782	0
1794	0.00162965
1806	0.00984309
1818	0.0106905
1830	0.0125809
1842	0.00338967
1854	0.00593193
1866	0.011212
1878	0.00866974
1890	0.00730083
1902	0.00945197
1914	0.0106905
1926	0.0129068
1938	0.015058
1950	0.00880011
1962	0.00104298
1974	0.00065186
1986	0.00117335
1998	0.00136891
2010	0.00182521
2022	0.00182521
2034	0.00189039
2046	0.00195558
2058	0.00123853
2070	0.000521488
2082	0.000717046
2094	0.00143409
2106	0.00097779
2118	0.00195558
2130	0.002803
2142	0.00352004
2154	0.00299856
2166	0.00286818
2178	0.00254225
2190	0.00156446
2202	0.00143409
2214	0.00202077
2226	0.0023467
2238	0.00260744
2250	0.00286818
2262	0.00267263
2274	0.0041719
2286	0.00514969
2298	0.00488895
2310	0.00456302
2322	0.00541044
2334	0.00462821
2346	0.00658379
2358	0.00638823
2370	0.00586674
2382	0.00567118
2394	0.00410672
2406	0.00312893
2418	0.00254225
2430	0.00273781
2442	0.00365042
2454	0.00423709
2466	0.00404153
2478	0.00338967
2490	0.00260744
2502	0.00299856
2514	0.00345486
2526	0.00404153
2538	0.00391116
2550	0.00345486
2562	0.00378079
2574	0.00475858
2586	0.00508451
2598	0.0037156
2610	0.00332449
2622	0.00397635
2634	0.00521488
2646	0.00586674
2658	0.005606
2670	0.00554081
2682	0.00488895
2694	0.00443265
2706	0.00495414
2718	0.00625786
2730	0.00782232
2742	0.00775713
2754	0.00593193
2766	0.00658379
2778	0.00645341
2790	0.00664897
2802	0.00951716
2814	0.0152535
2826	0.0202077
2838	0.0271174
2850	0.0488895
2862	0.148624
2874	0.137151
2886	0.0876752
2898	0.0900871
2910	0.112511
2922	0.187866
2934	0.320845
2946	0.241905
2958	0.108209
2970	0.195037
2982	0.578656
2994	0.169353
3006	0.0408716
3018	0.0611445
3030	0.0826558
3042	0.0866974
3054	0.213223
3066	0.344573
3078	0.218438
3090	0.0704661
3102	0.0352004
3114	0.0153839
3126	0.0074312
3138	0.00619267
3150	0.00671416
3162	0.00762676
3174	0.00723565
3186	0.00769195
3198	0.00840899
3210	0.00788751
3222	0.00658379
3234	0.00762676
3246	0.00547562
3258	0.00338967
3270	0.00286818
3282	0.00306374
3294	0.00319411
3306	0.0023467
3318	0.00189039
3330	0.00195558
3342	0.00195558
3354	0.00149928
3366	0.00221632
3378	0.00195558
3390	0.00260744
3402	0.00267263
3414	0.00254225
3426	0.002803
3438	0.00228151
3450	0.00273781
3462	0.00215114
3474	0.0023467
3486	0.00254225
3498	0.00247707
3510	0.00215114
3522	0.00228151
3534	0.00215114
3546	0.00260744
3558	0.00195558
3570	0.00247707
3582	0.00143409
3594	0.00149928
3606	0.00241188
3618	0.00241188
3630	0.00254225
3642	0.00241188
3654	0.00221632
3666	0.00202077
3678	0.00176002
3690	0.00176002
3702	0.00176002
3714	0.0023467
3726	0.002803
3738	0.00162965
3750	0.00117335
3762	0.0023467
3774	0.00195558
3786	0.00260744
3798	0.00338967
3810	0.00306374
3822	0.00391116
3834	0.00176002
3846	0.00221632
3858	0.00228151
3870	0.00228151
3882	0.00260744
3894	0.00338967
3906	0.0032593
3918	0.00404153
3930	0.00365042
3942	0.0041719
3954	0.00358523
3966	0.00065186
