Infrared Spectrum: 1,2-Diphenylethylamine
Formula: C 14 H 15 N
CAS: 25611-78-3
Origin: Sadtler Research Labs Under US-EPA Contract
1/CM	ABSORBANCE
450	0
462	0.0585594
474	0.0636087
486	0.0452474
498	0.065576
510	0.079347
522	0.0883964
534	0.126824
546	0.145316
558	0.106692
570	0.0735763
582	0.0611824
594	0.0617726
606	0.0766583
618	0.0624939
630	0.0638054
642	0.0541002
654	0.0739697
666	0.104397
678	0.14007
690	0.323814
702	0.60225
714	0.241451
726	0.220007
738	0.310634
750	0.340733
762	0.320011
774	0.186105
786	0.154694
798	0.158628
810	0.143611
822	0.113315
834	0.0894457
846	0.0731828
858	0.068199
870	0.0652481
882	0.0605922
894	0.0647235
906	0.073773
918	0.0650514
930	0.0598709
942	0.0582315
954	0.0579036
966	0.053051
978	0.0553461
990	0.0557396
1002	0.061248
1014	0.0613791
1026	0.115676
1038	0.0799371
1050	0.0745599
1062	0.106102
1074	0.120725
1086	0.0859701
1098	0.0551494
1110	0.0441982
1122	0.0331815
1134	0.0449851
1146	0.0380997
1158	0.0421654
1170	0.0426244
1182	0.0607234
1194	0.0671498
1206	0.0674121
1218	0.072068
1230	0.073314
1242	0.0665596
1254	0.0632153
1266	0.0640678
1278	0.0676744
1290	0.0620349
1302	0.0686581
1314	0.0760026
1326	0.0838717
1338	0.0834127
1350	0.0769206
1362	0.0781666
1374	0.0907572
1386	0.0740353
1398	0.0527231
1410	0.0479361
1422	0.0503624
1434	0.0687892
1446	0.122693
1458	0.132726
1470	0.0646579
1482	0.0838061
1494	0.224532
1506	0.11725
1518	0.0626251
1530	0.0656416
1542	0.0649858
1554	0.0630841
1566	0.0702975
1578	0.0830192
1590	0.118889
1602	0.193121
1614	0.150694
1626	0.126758
1638	0.0899703
1650	0.0668219
1662	0.0563298
1674	0.0468213
1686	0.04269
1698	0.0430834
1710	0.04269
1722	0.0428211
1734	0.0485918
1746	0.0499689
1758	0.0474114
1770	0.0428211
1782	0.0440671
1794	0.0570511
1806	0.0531166
1818	0.0429523
1830	0.0382964
1842	0.0373783
1854	0.0386243
1866	0.0463622
1878	0.0495099
1890	0.0462311
1902	0.0379029
1914	0.0374439
1926	0.0428867
1938	0.0555429
1950	0.0550183
1962	0.0454442
1974	0.0343618
1986	0.0333782
1998	0.0318044
2010	0.0308207
2022	0.0314765
2034	0.0317388
2046	0.0310174
2058	0.0305584
2070	0.0302961
2082	0.0302961
2094	0.0302961
2106	0.0300338
2118	0.0296404
2130	0.0297715
2142	0.0299682
2154	0.0304273
2166	0.0297059
2178	0.029378
2190	0.0298371
2202	0.0299027
2214	0.0299682
2226	0.0288534
2238	0.0295748
2250	0.0299682
2262	0.0302305
2274	0.030165
2286	0.031083
2298	0.0331159
2310	0.0376406
2322	0.0356733
2334	0.0314765
2346	0.032788
2358	0.0315421
2370	0.0346241
2382	0.0325257
2394	0.0298371
2406	0.0299682
2418	0.0309519
2430	0.0308863
2442	0.0309519
2454	0.0308207
2466	0.0317388
2478	0.0316732
2490	0.0320667
2502	0.0321322
2514	0.0327224
2526	0.0338372
2538	0.0343618
2550	0.0339684
2562	0.0339684
2574	0.0363291
2586	0.037575
2598	0.0385587
2610	0.038821
2622	0.0369849
2634	0.0379685
2646	0.0369849
2658	0.0356733
2670	0.0347553
2682	0.0356078
2694	0.0360668
2706	0.0358045
2718	0.0355422
2730	0.0362635
2742	0.0376406
2754	0.0388866
2766	0.0387554
2778	0.0406571
2790	0.0433457
2802	0.0456409
2814	0.0507558
2826	0.0575102
2838	0.0669531
2850	0.0994132
2862	0.126627
2874	0.102889
2886	0.0864292
2898	0.0954787
2910	0.120791
2922	0.163088
2934	0.165579
2946	0.145448
2958	0.0859701
2970	0.0580348
2982	0.0544937
2994	0.0589528
3006	0.0852488
3018	0.13666
3030	0.323683
3042	0.286436
3054	0.172727
3066	0.305912
3078	0.317978
3090	0.197712
3102	0.123086
3114	0.0809208
3126	0.048723
3138	0.0402637
3150	0.0378374
3162	0.0382308
3174	0.0362635
3186	0.033247
3198	0.0343618
3210	0.032329
3222	0.0317388
3234	0.0324601
3246	0.032329
3258	0.0321978
3270	0.0314765
3282	0.0310174
3294	0.0317388
3306	0.0320011
3318	0.0324601
3330	0.0340339
3342	0.037116
3354	0.0339028
3366	0.0337716
3378	0.0322634
3390	0.032788
3402	0.0370504
3414	0.0370504
3426	0.0335093
3438	0.0325913
3450	0.0330503
3462	0.0326568
3474	0.0329847
3486	0.0319355
3498	0.0308207
3510	0.0321322
3522	0.0331159
3534	0.0323945
3546	0.032329
3558	0.0321322
3570	0.0329192
3582	0.0335093
3594	0.0316732
3606	0.0322634
3618	0.0327224
3630	0.0321978
3642	0.0365258
3654	0.0329847
3666	0.0337716
3678	0.0323945
3690	0.0300338
3702	0.0329192
3714	0.0302961
3726	0.0324601
3738	0.0306896
3750	0.0285256
3762	0.0316732
3774	0.0320667
3786	0.032329
3798	0.0300994
3810	0.0331815
3822	0.0287223
3834	0.0298371
3846	0.0310174
3858	0.0318044
3870	0.0315421
3882	0.0307551
3894	0.0327224
3906	0.0323945
3918	0.0342962
3930	0.0311486
3942	0.0317388
3954	0.029378
3966	0.0330503
