Infrared Spectrum: Benzofuran, 2,5-dimethyl-3-(6-methoxy-m-tolyl)-,
Formula: C 18 H 18 O 2
CAS: 25633-57-2
Origin: Sadtler Research Labs Under US-EPA Contract
1/CM	ABSORBANCE
450	0
462	0.00476632
474	0.00555474
486	0.0052322
498	0.00369121
510	0.00566225
522	0.0162342
534	0.0144065
546	0.0122921
558	0.0163775
570	0.0113245
582	0.0278095
594	0.011002
606	0.00573392
618	0.00440795
630	0.00383456
642	0.00498134
654	0.0125071
666	0.0456563
678	0.00938929
690	0.00698822
702	0.00709573
714	0.0071674
726	0.0162342
738	0.045513
750	0.0166642
762	0.027487
774	0.024405
786	0.0458714
798	0.206134
810	0.0788414
822	0.0484875
834	0.0240825
846	0.0230432
858	0.0341527
870	0.0630373
882	0.0280962
894	0.023079
906	0.0104644
918	0.0137256
930	0.0306048
942	0.0681978
954	0.0362312
966	0.0284546
978	0.0383456
990	0.0302464
1002	0.0367688
1014	0.0610304
1026	0.104752
1038	0.112887
1050	0.0920294
1062	0.0344752
1074	0.0204271
1086	0.018241
1098	0.0186352
1110	0.0319308
1122	0.058486
1134	0.0494192
1146	0.0540422
1158	0.0535046
1170	0.129802
1182	0.162557
1194	0.114105
1206	0.0881232
1218	0.0773362
1230	0.159582
1242	0.218534
1254	0.35837
1266	0.211367
1278	0.143706
1290	0.0786264
1302	0.0284546
1314	0.0174526
1326	0.0162342
1338	0.0216455
1350	0.0273078
1362	0.019352
1374	0.0198537
1386	0.03297
1398	0.0315007
1410	0.0482724
1422	0.04838
1434	0.0678753
1446	0.108837
1458	0.106973
1470	0.226346
1482	0.167
1494	0.218391
1506	0.239176
1518	0.0633957
1530	0.0310707
1542	0.0225415
1554	0.0186352
1566	0.017596
1578	0.0255159
1590	0.0425385
1602	0.0434344
1614	0.0424668
1626	0.0461939
1638	0.030569
1650	0.0129372
1662	0.00802749
1674	0.00537555
1686	0.00533971
1698	0.00559057
1710	0.00673736
1722	0.0117545
1734	0.0113962
1746	0.00598478
1758	0.00404958
1770	0.004838
1782	0.004838
1794	0.00555474
1806	0.00487383
1818	0.00670152
1830	0.00713156
1842	0.00702405
1854	0.0158041
1866	0.00673736
1878	0.00480216
1890	0.00383456
1902	0.00272361
1914	0.00247275
1926	0.00215022
1938	0.00215022
1950	0.00222189
1962	0.00272361
1974	0.00422877
1986	0.00537555
1998	0.00408542
2010	0.00419293
2022	0.00476632
2034	0.00447963
2046	0.00473048
2058	0.0042646
2070	0.00437211
2082	0.00430044
2094	0.003297
2106	0.00308198
2118	0.00336868
2130	0.00293863
2142	0.00243692
2154	0.00254443
2166	0.00268778
2178	0.00250859
2190	0.00254443
2202	0.00215022
2214	0.00232941
2226	0.00247275
2238	0.00315366
2250	0.00272361
2262	0.00286696
2274	0.00286696
2286	0.00301031
2298	0.00297447
2310	0.00268778
2322	0.00322533
2334	0.00222189
2346	0.00333284
2358	0.00340452
2370	0.00326117
2382	0.00344035
2394	0.00293863
2406	0.00275945
2418	0.00308198
2430	0.00304615
2442	0.00361954
2454	0.00430044
2466	0.00440795
2478	0.00512469
2490	0.00533971
2502	0.00562641
2514	0.0055189
2526	0.0055189
2538	0.00544722
2550	0.00498134
2562	0.00458714
2574	0.00419293
2586	0.00415709
2598	0.00408542
2610	0.00408542
2622	0.00447963
2634	0.00519637
2646	0.00501718
2658	0.00401374
2670	0.00344035
2682	0.00347619
2694	0.00383456
2706	0.00419293
2718	0.00490967
2730	0.00662985
2742	0.0118262
2754	0.00989101
2766	0.0078483
2778	0.008135
2790	0.00956848
2802	0.0111811
2814	0.0160908
2826	0.0278812
2838	0.0602778
2850	0.0583068
2862	0.0629656
2874	0.0891983
2886	0.0876931
2898	0.0773004
2910	0.0951831
2922	0.141234
2934	0.242186
2946	0.154457
2958	0.114714
2970	0.0710648
2982	0.0621055
2994	0.0787697
3006	0.098946
3018	0.0824968
3030	0.111417
3042	0.105862
3054	0.0562999
3066	0.0498134
3078	0.0464448
3090	0.0313574
3102	0.0237958
3114	0.0144781
3126	0.0091026
3138	0.00634315
3150	0.00516053
3162	0.00451546
3174	0.00361954
3186	0.00347619
3198	0.00351203
3210	0.00347619
3222	0.00301031
3234	0.00308198
3246	0.00250859
3258	0.00250859
3270	0.0026161
3282	0.00232941
3294	0.00268778
3306	0.00258026
3318	0.00236524
3330	0.00265194
3342	0.00301031
3354	0.00247275
3366	0.00293863
3378	0.00265194
3390	0.00318949
3402	0.00250859
3414	0.00283112
3426	0.00322533
3438	0.00240108
3450	0.0026161
3462	0.0026161
3474	0.00286696
3486	0.00258026
3498	0.00311782
3510	0.00297447
3522	0.00301031
3534	0.00293863
3546	0.00308198
3558	0.00318949
3570	0.00340452
3582	0.00379872
3594	0.00301031
3606	0.00361954
3618	0.00265194
3630	0.00361954
3642	0.00336868
3654	0.00268778
3666	0.00308198
3678	0.00297447
3690	0.00297447
3702	0.00333284
3714	0.0026161
3726	0.00415709
3738	0.00376289
3750	0.00311782
3762	0.00258026
3774	0.00344035
3786	0.00354786
3798	0.00197104
3810	0.00275945
3822	0.00322533
3834	0.00304615
3846	0.00340452
3858	0.00232941
3870	0.00458714
3882	0.00404958
3894	0.00279529
3906	0.00412125
3918	0.0035837
3930	0.0042646
3942	0.00347619
3954	0.00433628
3966	0.003297
