Infrared Spectrum: Acetanilide, 2,3'-dichloro-,
Formula: C 8 H 7 Cl 2 N O
CAS: 2564-05-8
Origin: Sadtler Research Labs Under US-EPA Contract
1/CM	ABSORBANCE
450	0
462	0.0553285
474	0.104998
486	0.141555
498	0.103741
510	0.0921543
522	0.0951183
534	0.103202
546	0.0973638
558	0.067005
570	0.091795
582	0.0842502
594	0.0720348
606	0.0704181
618	0.0649391
630	0.0570351
642	0.055059
654	0.0732025
666	0.107244
678	0.174878
690	0.115687
702	0.0799389
714	0.0845197
726	0.0824538
738	0.105088
750	0.0703283
762	0.181075
774	0.442538
786	0.214667
798	0.0838909
810	0.066017
822	0.0634122
834	0.0599991
846	0.074909
858	0.0991602
870	0.102394
882	0.112453
894	0.100957
906	0.0998787
918	0.127453
930	0.0749989
942	0.0649391
954	0.0665559
966	0.0782323
978	0.0584722
990	0.0546998
1002	0.0671846
1014	0.0535321
1026	0.0485921
1038	0.0469753
1050	0.0526339
1062	0.0608075
1074	0.109849
1086	0.12907
1098	0.155028
1110	0.101046
1122	0.0838909
1134	0.0767952
1146	0.0728432
1158	0.0732923
1170	0.0860466
1182	0.0846993
1194	0.102394
1206	0.142004
1218	0.189877
1230	0.195446
1242	0.187003
1254	0.1888
1266	0.214398
1278	0.186374
1290	0.191764
1302	0.197332
1314	0.104729
1326	0.0840706
1338	0.0726636
1350	0.0631428
1362	0.0610769
1374	0.0667355
1386	0.088831
1398	0.183949
1410	0.320025
1422	0.417569
1434	0.269906
1446	0.141914
1458	0.157004
1470	0.235416
1482	0.465532
1494	0.424754
1506	0.512148
1518	0.827323
1530	0.85337
1542	0.564153
1554	0.233978
1566	0.174698
1578	0.263798
1590	0.665649
1602	0.709031
1614	0.186015
1626	0.105268
1638	0.0892801
1650	0.0869448
1662	0.0902681
1674	0.111825
1686	0.155028
1698	0.211614
1710	0.34724
1722	0.701756
1734	0.5708
1746	0.230745
1758	0.130956
1770	0.0979925
1782	0.0778731
1794	0.0617057
1806	0.0560471
1818	0.0538016
1830	0.0529932
1842	0.0522747
1854	0.0517357
1866	0.0511968
1878	0.0483226
1890	0.048143
1902	0.0486819
1914	0.0509274
1926	0.0487717
1938	0.0485023
1950	0.0457179
1962	0.04464
1974	0.0425742
1986	0.0422149
1998	0.0433826
2010	0.043652
2022	0.0437419
2034	0.0429335
2046	0.0424844
2058	0.0430233
2070	0.0437419
2082	0.0425742
2094	0.0431131
2106	0.0430233
2118	0.043652
2130	0.043652
2142	0.0440113
2154	0.045179
2166	0.0457179
2178	0.0459873
2190	0.0457179
2202	0.0441011
2214	0.0438317
2226	0.0437419
2238	0.0445502
2250	0.0457179
2262	0.0494004
2274	0.0529932
2286	0.0495801
2298	0.0484124
2310	0.0484124
2322	0.0485921
2334	0.0503885
2346	0.0467059
2358	0.0509274
2370	0.0454484
2382	0.0469753
2394	0.0435622
2406	0.0435622
2418	0.0445502
2430	0.0441011
2442	0.0434724
2454	0.0432928
2466	0.0438317
2478	0.0437419
2490	0.0441909
2502	0.0440113
2514	0.0438317
2526	0.0423946
2538	0.0415862
2550	0.0417658
2562	0.0411371
2574	0.0408676
2586	0.0408676
2598	0.0410473
2610	0.0409575
2622	0.0415862
2634	0.0423047
2646	0.0419455
2658	0.0428437
2670	0.04464
2682	0.0449993
2694	0.0442808
2706	0.0439215
2718	0.043652
2730	0.0441011
2742	0.04464
2754	0.0450891
2766	0.0429335
2778	0.0432928
2790	0.0428437
2802	0.0430233
2814	0.0432928
2826	0.0434724
2838	0.0430233
2850	0.0427538
2862	0.0441909
2874	0.0440113
2886	0.0441909
2898	0.0435622
2910	0.04464
2922	0.0459873
2934	0.0492208
2946	0.0533525
2958	0.0554183
2970	0.0573045
2982	0.0569452
2994	0.0539812
3006	0.0517357
3018	0.0533525
3030	0.0611667
3042	0.0661966
3054	0.0652984
3066	0.0665559
3078	0.0685319
3090	0.075448
3102	0.0629631
3114	0.0560471
3126	0.055059
3138	0.0513765
3150	0.048143
3162	0.0473346
3174	0.0482328
3186	0.0480532
3198	0.0478735
3210	0.0469753
3222	0.0475143
3234	0.0480532
3246	0.0487717
3258	0.0484124
3270	0.0503885
3282	0.0503885
3294	0.0516459
3306	0.0515561
3318	0.0529034
3330	0.0546998
3342	0.055059
3354	0.0544303
3366	0.053083
3378	0.0551489
3390	0.0618853
3402	0.0742803
3414	0.113621
3426	0.248888
3438	0.19832
3450	0.0817353
3462	0.0573943
3474	0.050119
3486	0.0470652
3498	0.0454484
3510	0.0465262
3522	0.0455382
3534	0.0450891
3546	0.0443706
3558	0.0460771
3570	0.0442808
3582	0.0458077
3594	0.0454484
3606	0.045179
3618	0.0462568
3630	0.0453586
3642	0.0435622
3654	0.0438317
3666	0.0431131
3678	0.0484124
3690	0.0449993
3702	0.0449095
3714	0.0448197
3726	0.0480532
3738	0.0479633
3750	0.041676
3762	0.0458975
3774	0.0449993
3786	0.0432029
3798	0.0409575
3810	0.0457179
3822	0.0462568
3834	0.0462568
3846	0.0417658
3858	0.0496699
3870	0.0467957
3882	0.0430233
3894	0.046167
3906	0.043652
3918	0.04464
3930	0.0497597
3942	0.0464364
3954	0.0467957
3966	0.0476939
