Infrared Spectrum: Pentadecylamine
Formula: C 15 H 33 N
CAS: 2570-26-5
Origin: Sadtler Research Labs Under US-EPA Contract
1/CM	ABSORBANCE
450	0
462	0.0171552
474	0.0175481
486	0.0155838
498	0.0170243
510	0.0182029
522	0.0156711
534	0.0168497
546	0.0165005
558	0.0162385
570	0.0178973
582	0.0186394
594	0.0170679
606	0.0162822
618	0.0173735
630	0.0165441
642	0.0164568
654	0.0177227
666	0.0179846
678	0.0171989
690	0.0205164
702	0.0213458
714	0.0250999
726	0.0286794
738	0.0303381
750	0.0339176
762	0.0367113
774	0.0388066
786	0.0360566
798	0.02785
810	0.0244451
822	0.0214768
834	0.0197744
846	0.0189886
858	0.0173298
870	0.0171989
882	0.0165441
894	0.0164132
906	0.0159766
918	0.0165441
930	0.0167187
942	0.0159766
954	0.0156711
966	0.0174171
978	0.015933
990	0.0161512
1002	0.0171552
1014	0.0176791
1026	0.017941
1038	0.018945
1050	0.0196434
1062	0.0211712
1074	0.0230046
1086	0.0224371
1098	0.0209093
1110	0.0188577
1122	0.0181156
1134	0.0171989
1146	0.0168497
1158	0.0162822
1170	0.0161076
1182	0.0158893
1194	0.0161949
1206	0.0164568
1218	0.0167624
1230	0.0170243
1242	0.0177664
1254	0.0184211
1266	0.0193378
1278	0.0196434
1290	0.0206037
1302	0.0223062
1314	0.0220879
1326	0.0212149
1338	0.0235721
1350	0.0276754
1362	0.0286357
1374	0.0269333
1386	0.0263658
1398	0.0231792
1410	0.0206474
1422	0.0217823
1434	0.0260602
1446	0.0351399
1458	0.0475807
1470	0.0442195
1482	0.0278063
1494	0.0235284
1506	0.0239649
1518	0.0232229
1530	0.0223062
1542	0.0214331
1554	0.0204291
1566	0.0203418
1578	0.0206474
1590	0.0216077
1602	0.022699
1614	0.025711
1626	0.0279373
1638	0.0236594
1650	0.0216514
1662	0.0220443
1674	0.0218697
1686	0.0202109
1698	0.0186394
1710	0.0173298
1722	0.0126591
1734	0.0116114
1746	0.0116114
1758	0.0121353
1770	0.0118297
1782	0.0114368
1794	0.0129646
1806	0.0139686
1818	0.0144925
1830	0.014798
1842	0.0145798
1854	0.014798
1866	0.014929
1878	0.014798
1890	0.014798
1902	0.0147107
1914	0.0146671
1926	0.0144488
1938	0.0142742
1950	0.0140996
1962	0.0140996
1974	0.013794
1986	0.013794
1998	0.0137504
2010	0.0138377
2022	0.0138813
2034	0.013794
2046	0.0134885
2058	0.0132266
2070	0.0132702
2082	0.0130083
2094	0.0128773
2106	0.0124845
2118	0.0122226
2130	0.0122226
2142	0.012048
2154	0.0119606
2166	0.011786
2178	0.0114368
2190	0.0116114
2202	0.0112622
2214	0.0113495
2226	0.0112186
2238	0.0112186
2250	0.0115678
2262	0.0116114
2274	0.0118297
2286	0.0131829
2298	0.0148417
2310	0.0170243
2322	0.0162822
2334	0.0139686
2346	0.0133139
2358	0.0134012
2370	0.011044
2382	0.0134012
2394	0.0111749
2406	0.0112622
2418	0.0116551
2430	0.0118733
2442	0.0118733
2454	0.0121789
2466	0.011917
2478	0.0123535
2490	0.0123099
2502	0.0126154
2514	0.0130519
2526	0.0130083
2538	0.0130956
2550	0.0132266
2562	0.0137067
2574	0.0136631
2586	0.0138813
2598	0.0141869
2610	0.0145361
2622	0.014929
2634	0.0152345
2646	0.0155838
2658	0.0161076
2670	0.0165441
2682	0.0171116
2694	0.016806
2706	0.0165878
2718	0.0167624
2730	0.0173735
2742	0.017941
2754	0.0188577
2766	0.0193815
2778	0.0201236
2790	0.0219133
2802	0.0248816
2814	0.0292905
2826	0.0373225
2838	0.0514657
2850	0.100443
2862	0.187311
2874	0.12921
2886	0.0945066
2898	0.102189
2910	0.156929
2922	0.282385
2934	0.43652
2946	0.236812
2958	0.118777
2970	0.0978678
2982	0.0487593
2994	0.0311239
3006	0.0244451
3018	0.0209966
3030	0.0193378
3042	0.0180283
3054	0.0169806
3066	0.0162385
3078	0.0156274
3090	0.0150599
3102	0.0146671
3114	0.0143615
3126	0.0140559
3138	0.0142306
3150	0.0140996
3162	0.0139686
3174	0.0138377
3186	0.0135321
3198	0.0135321
3210	0.0133575
3222	0.0132266
3234	0.0134012
3246	0.0132266
3258	0.0131829
3270	0.0133575
3282	0.012921
3294	0.0131829
3306	0.0128773
3318	0.0136631
3330	0.0130956
3342	0.0142306
3354	0.0132702
3366	0.0130083
3378	0.0132702
3390	0.0131829
3402	0.0126154
3414	0.0131393
3426	0.0121353
3438	0.0123099
3450	0.0125281
3462	0.0118297
3474	0.011786
3486	0.0116551
3498	0.0115241
3510	0.0115678
3522	0.0113495
3534	0.0112622
3546	0.0114805
3558	0.0116551
3570	0.011786
3582	0.0120916
3594	0.0115241
3606	0.0114368
3618	0.0114805
3630	0.0124845
3642	0.0123099
3654	0.012048
3666	0.0121353
3678	0.0109567
3690	0.011917
3702	0.0118733
3714	0.0116987
3726	0.0122662
3738	0.0121353
3750	0.0110003
3762	0.0115241
3774	0.0110876
3786	0.0116114
3798	0.011786
3810	0.0115678
3822	0.0111749
3834	0.0110003
3846	0.0121353
3858	0.0110876
3870	0.0115678
3882	0.011917
3894	0.0118733
3906	0.0109567
3918	0.0113932
3930	0.0116114
3942	0.0123535
3954	0.011786
3966	0.0122662
