Infrared Spectrum: 3,4-Dimethylbenzophenone
Formula: C 15 H 14 O
CAS: 2571-39-3
Origin: Sadtler Research Labs Under US-EPA Contract
1/CM	ABSORBANCE
450	0.00158595
462	0.00056641
474	0.00407815
486	0.00339846
498	0.00504105
510	0.00560746
522	0.0134806
534	0.0160294
546	0.00447464
558	0.00260549
570	0.00623051
582	0.0128575
594	0.00985553
606	0.0134239
618	0.0438401
630	0.0648539
642	0.0122345
654	0.0216369
666	0.0260549
678	0.0660434
690	0.163636
702	0.18312
714	0.0689321
726	0.134522
738	0.0637211
750	0.0259982
762	0.0207872
774	0.027301
786	0.0636078
798	0.0497874
810	0.057434
822	0.08836
834	0.0752192
846	0.099405
858	0.0652504
870	0.0758989
882	0.0236759
894	0.0332483
906	0.0288869
918	0.0232228
930	0.0253752
942	0.0308127
954	0.0769185
966	0.106825
978	0.0665532
990	0.0350041
1002	0.0594164
1014	0.0468421
1026	0.0489378
1038	0.0327385
1050	0.0311526
1062	0.0376096
1074	0.0449163
1086	0.05143
1098	0.0571508
1110	0.0778247
1122	0.0932877
1134	0.0395921
1146	0.0445765
1158	0.037553
1170	0.039762
1182	0.0932877
1194	0.032342
1206	0.0382327
1218	0.0811666
1230	0.0632114
1242	0.0819029
1254	0.136165
1266	0.463437
1278	0.309317
1290	0.194902
1302	0.266553
1314	0.16137
1326	0.0583402
1338	0.0337014
1350	0.024299
1362	0.0220333
1374	0.0301897
1386	0.0406116
1398	0.055848
1410	0.0678559
1422	0.0358538
1434	0.0424808
1446	0.0852447
1458	0.0714809
1470	0.040385
1482	0.0298498
1494	0.035344
1506	0.030133
1518	0.024299
1530	0.0247521
1542	0.0346643
1554	0.034551
1566	0.0493343
1578	0.0657036
1590	0.0575473
1602	0.0999147
1614	0.0960065
1626	0.0412346
1638	0.0407815
1650	0.056641
1662	0.107505
1674	0.33084
1686	0.309826
1698	0.0872838
1710	0.0377229
1722	0.0283771
1734	0.023506
1746	0.0147833
1758	0.0130274
1770	0.0146134
1782	0.0131974
1794	0.0139337
1806	0.0134806
1818	0.0111583
1830	0.0078731
1842	0.0056641
1854	0.00577738
1866	0.00572074
1878	0.00623051
1890	0.00979889
1902	0.0117813
1914	0.010252
1926	0.00583402
1938	0.00555082
1950	0.0091192
1962	0.0101954
1974	0.00645707
1986	0.00379495
1998	0.0031719
2010	0.00260549
2022	0.00243556
2034	0.002209
2046	0.002209
2058	0.00198244
2070	0.00237892
2082	0.002209
2094	0.00209572
2106	0.00130274
2118	0.00237892
2130	0.00169923
2142	0.00147267
2154	0.00141603
2166	0.000623051
2178	0.00107618
2190	0.00101954
2202	0.000849615
2214	0.000679692
2226	0.00107618
2238	0.00113282
2250	0.00164259
2262	0.00147267
2274	0.00164259
2286	0.00169923
2298	0.00266213
2310	0.00334182
2322	0.00504105
2334	0.00577738
2346	0.00623051
2358	0.00758989
2370	0.00792974
2382	0.00464456
2394	0.00328518
2406	0.00334182
2418	0.00334182
2430	0.0024922
2442	0.00271877
2454	0.00334182
2466	0.00283205
2478	0.00226564
2490	0.00288869
2502	0.00226564
2514	0.00232228
2526	0.00232228
2538	0.00232228
2550	0.00334182
2562	0.00396487
2574	0.00447464
2586	0.00447464
2598	0.00385159
2610	0.00339846
2622	0.00288869
2634	0.00237892
2646	0.00243556
2658	0.00237892
2670	0.00300197
2682	0.00300197
2694	0.00322854
2706	0.00362502
2718	0.00396487
2730	0.00509769
2742	0.00821295
2754	0.00640043
2766	0.00623051
2778	0.00606059
2790	0.00668364
2802	0.00651372
2814	0.00674028
2826	0.00855279
2838	0.0112149
2850	0.0166525
2862	0.0278674
2874	0.0438401
2886	0.0493343
2898	0.0429905
2910	0.0410647
2922	0.0553383
2934	0.102577
2946	0.0782779
2958	0.0640043
2970	0.0527328
2982	0.0610024
2994	0.0421409
3006	0.0305295
3018	0.043387
3030	0.0762388
3042	0.0629282
3054	0.0529027
3066	0.0838287
3078	0.0924381
3090	0.0585102
3102	0.0326252
3114	0.0173321
3126	0.0091192
3138	0.00589066
3150	0.00589066
3162	0.0053809
3174	0.00379495
3186	0.00271877
3198	0.00215236
3210	0.00181251
3222	0.00232228
3234	0.00192579
3246	0.00164259
3258	0.00147267
3270	0.00135938
3282	0.00186915
3294	0.00135938
3306	0.00164259
3318	0.00294533
3330	0.00453128
3342	0.00753325
3354	0.00458792
3366	0.00294533
3378	0.00198244
3390	0.00192579
3402	0.00158595
3414	0.00181251
3426	0.00152931
3438	0.00152931
3450	0.00158595
3462	0.00186915
3474	0.00118946
3486	0.00164259
3498	0.00152931
3510	0.00118946
3522	0.00164259
3534	0.00101954
3546	0.00266213
3558	0.000623051
3570	0.0024922
3582	0.00203908
3594	0.00271877
3606	0.00118946
3618	0.00339846
3630	0.00419143
3642	0.00181251
3654	0.00419143
3666	0.00283205
3678	0.00521097
3690	0.00504105
3702	0.00526761
3714	0.00532425
3726	0.00498441
3738	0.00657036
3750	0.00640043
3762	0.00577738
3774	0.00305861
3786	0.00351174
3798	0.0047012
3810	0.00543754
3822	0.00628715
3834	0.00628715
3846	0.00560746
3858	0.00679692
3870	0.00645707
3882	0.00764654
3894	0.00702348
3906	0.00628715
3918	0.00741997
3930	0.00696684
3942	0.00549418
3954	0
3966	0.000453128
