Infrared Spectrum: Heptanenitrile, 3-ethyl-,
Formula: C 9 H 17 N
CAS: 2571-05-3
Origin: Sadtler Research Labs Under US-EPA Contract
1/CM	ABSORBANCE
450	0
462	0.0127889
474	0.0404982
486	0.0366615
498	0.0335354
510	0.0221674
522	0.0271409
534	0.0217411
546	0.0296987
558	0.0191834
570	0.027283
582	0.0248673
594	0.0242989
606	0.0224516
618	0.0240147
630	0.0269988
642	0.0309776
654	0.0213148
666	0.021599
678	0.0227358
690	0.0241568
702	0.0251515
714	0.0322565
726	0.0495926
738	0.0474611
750	0.0399298
762	0.0474611
774	0.053145
786	0.0494505
798	0.032967
810	0.0298408
822	0.0294145
834	0.0279935
846	0.0260041
858	0.0336775
870	0.0323986
882	0.037372
894	0.0345301
906	0.0346722
918	0.0414929
930	0.0427718
942	0.0420613
954	0.0365194
966	0.0368036
978	0.0358089
990	0.0368036
1002	0.0325407
1014	0.0291303
1026	0.027283
1038	0.0278514
1050	0.0311197
1062	0.0285619
1074	0.0306934
1086	0.0274251
1098	0.030125
1110	0.0385088
1122	0.0323986
1134	0.025862
1146	0.0302671
1158	0.0308355
1170	0.0238726
1182	0.0261462
1194	0.0269988
1206	0.0311197
1218	0.0370878
1230	0.0439086
1242	0.0410666
1254	0.038793
1266	0.0380825
1278	0.043056
1290	0.0451875
1302	0.0508714
1314	0.0557028
1326	0.0598237
1338	0.0623815
1350	0.0728968
1362	0.0728968
1374	0.0744599
1386	0.125473
1398	0.087533
1410	0.0505872
1422	0.079007
1434	0.162135
1446	0.158014
1458	0.224943
1470	0.269704
1482	0.126468
1494	0.0524345
1506	0.0372299
1518	0.0302671
1530	0.0257199
1542	0.0250094
1554	0.0237305
1566	0.021599
1578	0.0233042
1590	0.0221674
1602	0.0220253
1614	0.0204623
1626	0.0190413
1638	0.0198939
1650	0.0211728
1662	0.0164835
1674	0.0180466
1686	0.0188992
1698	0.0191834
1710	0.0187571
1722	0.0221674
1734	0.0204623
1746	0.0173361
1758	0.0166256
1770	0.0154888
1782	0.014352
1794	0.0152046
1806	0.0146362
1818	0.0146362
1830	0.0144941
1842	0.0136415
1854	0.014352
1866	0.0142099
1878	0.0136415
1890	0.0137836
1902	0.0134994
1914	0.0125047
1926	0.0132152
1938	0.0132152
1950	0.0125047
1962	0.0122205
1974	0.0123626
1986	0.0122205
1998	0.0119363
2010	0.0122205
2022	0.0125047
2034	0.0130731
2046	0.0132152
2058	0.0132152
2070	0.0126468
2082	0.0127889
2094	0.0133573
2106	0.0133573
2118	0.0133573
2130	0.0160572
2142	0.0194676
2154	0.0144941
2166	0.0127889
2178	0.0125047
2190	0.0123626
2202	0.0125047
2214	0.0127889
2226	0.0142099
2238	0.0220253
2250	0.0419192
2262	0.0319723
2274	0.0170519
2286	0.0142099
2298	0.012931
2310	0.0130731
2322	0.0136415
2334	0.0142099
2346	0.0156309
2358	0.0169098
2370	0.015773
2382	0.0149204
2394	0.0152046
2406	0.0153467
2418	0.0156309
2430	0.0152046
2442	0.014352
2454	0.014352
2466	0.0133573
2478	0.0134994
2490	0.0134994
2502	0.0134994
2514	0.0139257
2526	0.0147783
2538	0.0156309
2550	0.0167677
2562	0.0174782
2574	0.0184729
2586	0.020036
2598	0.0208886
2610	0.021599
2622	0.0218832
2634	0.0214569
2646	0.0218832
2658	0.0228779
2670	0.024441
2682	0.0271409
2694	0.0271409
2706	0.0269988
2718	0.0274251
2730	0.0291303
2742	0.0346722
2754	0.037372
2766	0.0335354
2778	0.0341038
2790	0.0389351
2802	0.0468927
2814	0.0558449
2826	0.0692022
2838	0.0942116
2850	0.161567
2862	0.367042
2874	0.566407
2886	0.633619
2898	0.514256
2910	0.487542
2922	0.799449
2934	1.34326
2946	1.28585
2958	0.897924
2970	1.37765
2982	0.886129
2994	0.23219
3006	0.119221
3018	0.0854015
3030	0.0686338
3042	0.0557028
3054	0.0463243
3066	0.0410666
3078	0.0377983
3090	0.0360931
3102	0.0338196
3114	0.0311197
3126	0.0291303
3138	0.0264304
3150	0.0261462
3162	0.0265725
3174	0.0262883
3186	0.025862
3198	0.0247252
3210	0.0217411
3222	0.0194676
3234	0.0180466
3246	0.0164835
3258	0.0167677
3270	0.0154888
3282	0.0152046
3294	0.0153467
3306	0.0153467
3318	0.0152046
3330	0.0160572
3342	0.0150625
3354	0.0146362
3366	0.0144941
3378	0.0144941
3390	0.0127889
3402	0.0132152
3414	0.0132152
3426	0.0147783
3438	0.0140678
3450	0.0139257
3462	0.0136415
3474	0.0142099
3486	0.0137836
3498	0.0132152
3510	0.0139257
3522	0.0140678
3534	0.0134994
3546	0.014352
3558	0.0123626
3570	0.0149204
3582	0.0136415
3594	0.0156309
3606	0.0126468
3618	0.0136415
3630	0.0169098
3642	0.0137836
3654	0.0177624
3666	0.0149204
3678	0.0139257
3690	0.0173361
3702	0.0149204
3714	0.0150625
3726	0.0123626
3738	0.0126468
3750	0.0190413
3762	0.0123626
3774	0.0127889
3786	0.0120784
3798	0.0150625
3810	0.0123626
3822	0.0166256
3834	0.0152046
3846	0.0134994
3858	0.0147783
3870	0.0125047
3882	0.0133573
3894	0.0119363
3906	0.0144941
3918	0.0132152
3930	0.0149204
3942	0.0130731
3954	0.0139257
3966	0.0120784
