Infrared Spectrum: Morpholine, 4-hexadecyl-
Formula: C 20 H 41 N O
CAS: 25727-91-7
Origin: Sadtler Research Labs Under US-EPA Contract
1/CM	ABSORBANCE
450	0.00890255
462	0.00198887
474	0.000852372
486	0.00691368
498	0.00606131
510	0.00464069
522	0.00397774
534	0.00388303
546	0.00435657
558	0.00293595
570	0.00217828
582	0.00274653
594	0.00331478
606	0.00861843
618	0.0120279
630	0.0104179
642	0.00303066
654	0.00312536
666	0.00246241
678	0.00331478
690	0.00454598
702	0.00729252
714	0.0156268
726	0.0159109
738	0.0110808
750	0.0109861
762	0.0094708
774	0.00842901
786	0.00966022
798	0.00937609
810	0.00606131
822	0.00369361
834	0.00378832
846	0.00890255
858	0.0256659
870	0.043471
882	0.0194151
894	0.0143009
906	0.0193204
918	0.0222564
930	0.0114597
942	0.00918668
954	0.00984963
966	0.0127856
978	0.0156268
990	0.0208358
1002	0.036652
1014	0.0364626
1026	0.0234876
1038	0.0203622
1050	0.0112703
1062	0.0148692
1074	0.0241505
1086	0.0223511
1098	0.038262
1110	0.0890255
1122	0.183734
1134	0.152385
1146	0.0938556
1158	0.0340949
1170	0.0153427
1182	0.00975492
1194	0.0094708
1206	0.0134485
1218	0.0106073
1230	0.0126909
1242	0.0193204
1254	0.0286965
1266	0.0387356
1278	0.0445128
1290	0.0400615
1302	0.0471646
1314	0.037315
1326	0.029833
1338	0.034379
1350	0.0500058
1362	0.0536047
1374	0.0383567
1386	0.0235823
1398	0.0224458
1410	0.0121226
1422	0.0133538
1434	0.0248135
1446	0.0622232
1458	0.0928138
1470	0.0661062
1482	0.0192257
1494	0.0071031
1506	0.00407244
1518	0.00265182
1530	0.00161004
1542	0.00104179
1554	0.0011365
1566	0.000189416
1578	0.00047354
1590	0.000284124
1602	0.00047354
1614	0.000662956
1626	0.00047354
1638	0.000662956
1650	0.000852372
1662	0.000378832
1674	0.000662956
1686	0.000757664
1698	0.0012312
1710	0.00198887
1722	0.00265182
1734	0.0035989
1746	0.00426186
1758	0.0023677
1770	0.00179945
1782	0.0011365
1794	0.000852372
1806	0.00047354
1818	0.000284124
1830	0.00047354
1842	0
1854	9.4708e-05
1866	0.000189416
1878	0.00047354
1890	0.00047354
1902	0.000852372
1914	0.00104179
1926	0.0011365
1938	0.00151533
1950	0.00094708
1962	0.0012312
1974	0.00198887
1986	0.00208358
1998	0.00151533
2010	0.00094708
2022	0.0011365
2034	0.0012312
2046	0.00142062
2058	0.00104179
2070	0.00104179
2082	0.000852372
2094	0.000852372
2106	0.000852372
2118	0.000852372
2130	0.00094708
2142	0.00094708
2154	0.00094708
2166	0.000852372
2178	0.000852372
2190	0.000852372
2202	0.000662956
2214	0.00104179
2226	0.00132591
2238	0.00142062
2250	0.00198887
2262	0.00170474
2274	0.00208358
2286	0.0023677
2298	0.00312536
2310	0.00388303
2322	0.00483011
2334	0.00388303
2346	0.00492482
2358	0.00464069
2370	0.00445128
2382	0.00340949
2394	0.00293595
2406	0.00284124
2418	0.00246241
2430	0.00274653
2442	0.00255712
2454	0.00265182
2466	0.00312536
2478	0.00322007
2490	0.00322007
2502	0.00378832
2514	0.00435657
2526	0.00445128
2538	0.00511423
2550	0.00568248
2562	0.00625073
2574	0.00662956
2586	0.00738722
2598	0.0082396
2610	0.00928138
2622	0.0108914
2634	0.013638
2646	0.0167633
2658	0.0206463
2670	0.0233929
2682	0.0296436
2694	0.0310642
2706	0.0302119
2718	0.0324848
2730	0.038262
2742	0.0444181
2754	0.0566354
2766	0.0718834
2778	0.0787971
2790	0.103421
2802	0.155511
2814	0.173789
2826	0.120279
2838	0.118859
2850	0.208452
2862	0.471172
2874	0.297478
2886	0.206842
2898	0.231277
2910	0.336308
2922	0.564176
2934	0.94708
2946	0.591451
2958	0.312915
2970	0.33413
2982	0.113365
2994	0.0475434
3006	0.0266129
3018	0.0179945
3030	0.0121226
3042	0.00909197
3054	0.00691368
3066	0.00558777
3078	0.00454598
3090	0.0035042
3102	0.00322007
3114	0.00322007
3126	0.00322007
3138	0.00303066
3150	0.00274653
3162	0.00246241
3174	0.00255712
3186	0.0023677
3198	0.0023677
3210	0.00179945
3222	0.00208358
3234	0.00189416
3246	0.0012312
3258	0.00132591
3270	0.00132591
3282	0.00189416
3294	0.0011365
3306	0.00132591
3318	0.0012312
3330	0.00104179
3342	0.00151533
3354	0.00132591
3366	0.00161004
3378	0.00142062
3390	0.00170474
3402	0.00170474
3414	0.00170474
3426	0.00189416
3438	0.00142062
3450	0.00151533
3462	0.00189416
3474	0.00132591
3486	0.0012312
3498	0.000852372
3510	0.0011365
3522	0.00132591
3534	0.00170474
3546	0.00161004
3558	0.00132591
3570	0.00179945
3582	0.00198887
3594	0.00217828
3606	0.00284124
3618	0.00303066
3630	0.00312536
3642	0.00255712
3654	0.00198887
3666	0.00284124
3678	0.00227299
3690	0.00284124
3702	0.0023677
3714	0.00217828
3726	0.00331478
3738	0.00227299
3750	0.00322007
3762	0.00179945
3774	0.0023677
3786	0.00217828
3798	0.00255712
3810	0.00227299
3822	0.00198887
3834	0.00284124
3846	0.00179945
3858	0.00340949
3870	0.00284124
3882	0.00208358
3894	0.0023677
3906	0.00274653
3918	0.00284124
3930	0.00265182
3942	0.00274653
3954	0.00312536
3966	0.00312536
