Infrared Spectrum: Benzoxazine, (1H)2,3-, 7-chloro-4-dimethylamino-,
Formula: C 10 H 11 Cl N 2 O
CAS: 25804-89-1
Origin: Sadtler Research Labs Under US-EPA Contract
1/CM	ABSORBANCE
450	0
462	0.00320841
474	0.00974406
486	0.0209141
498	0.0307176
510	0.0365996
522	0.0141408
534	0.00427788
546	0.00588208
558	0.00849635
570	0.0389762
582	0.0205576
594	0.0075457
606	0.00849635
618	0.0248355
630	0.0659506
642	0.0388574
654	0.0512157
666	0.02234
678	0.0355302
690	0.00778336
702	0.00576326
714	0.0095064
726	0.0224589
738	0.0565037
750	0.0155073
762	0.0103976
774	0.019904
786	0.0149132
798	0.00926874
810	0.016755
822	0.101421
834	0.16559
846	0.0644653
858	0.203437
870	0.178899
882	0.134813
894	0.167907
906	0.0434324
918	0.0320247
930	0.0796755
942	0.0717733
954	0.0272121
966	0.0201417
978	0.0215676
990	0.0648812
1002	0.108492
1014	0.0912614
1026	0.188821
1038	0.0637523
1050	0.0873401
1062	0.145923
1074	0.126554
1086	0.280023
1098	0.255782
1110	0.0663666
1122	0.0378474
1134	0.0848446
1146	0.116691
1158	0.0716545
1170	0.0392139
1182	0.0483638
1194	0.116572
1206	0.230708
1218	0.0897761
1230	0.0487203
1242	0.0914397
1254	0.056979
1266	0.0504433
1278	0.0374909
1290	0.033213
1302	0.0316682
1314	0.0305393
1326	0.0449772
1338	0.0999954
1350	0.10558
1362	0.239977
1374	0.58809
1386	0.34027
1398	0.139091
1410	0.17777
1422	0.114017
1434	0.0988666
1446	0.207834
1458	0.174799
1470	0.158103
1482	0.168917
1494	0.104452
1506	0.0765859
1518	0.113958
1530	0.158282
1542	0.0752788
1554	0.0519287
1566	0.067139
1578	0.160718
1590	0.258871
1602	0.209022
1614	0.0773583
1626	0.0353519
1638	0.0276874
1650	0.0285192
1662	0.0281627
1674	0.0272121
1686	0.0262614
1698	0.0294698
1710	0.0315494
1722	0.0319059
1734	0.029351
1746	0.0253702
1758	0.0233501
1770	0.0245384
1782	0.0169333
1794	0.012596
1806	0.0103382
1818	0.00724863
1830	0.0067139
1842	0.00534735
1854	0.00516911
1866	0.00576326
1878	0.00469378
1890	0.00635741
1902	0.00837752
1914	0.0115265
1926	0.00641682
1938	0.00499086
1950	0.00534735
1962	0.00493144
1974	0.00469378
1986	0.00534735
1998	0.00659506
2010	0.00718921
2022	0.00766454
2034	0.00576326
2046	0.00522852
2058	0.00392139
2070	0.00362431
2082	0.00368373
2094	0.00421847
2106	0.00505027
2118	0.00487203
2130	0.00451554
2142	0.00421847
2154	0.00368373
2166	0.00314899
2178	0.00297075
2190	0.00320841
2202	0.00362431
2214	0.0039808
2226	0.00487203
2238	0.00445613
2250	0.00350549
2262	0.00297075
2274	0.00338666
2286	0.00415905
2298	0.00528793
2310	0.00665448
2322	0.00582267
2334	0.0055256
2346	0.00760512
2358	0.00623857
2370	0.00505027
2382	0.00588208
2394	0.00368373
2406	0.00362431
2418	0.00386198
2430	0.00421847
2442	0.00409963
2454	0.00374314
2466	0.00374314
2478	0.00344607
2490	0.00338666
2502	0.00421847
2514	0.00487203
2526	0.00528793
2538	0.00487203
2550	0.00516911
2562	0.00582267
2574	0.00588208
2586	0.00534735
2598	0.00546618
2610	0.00493144
2622	0.00546618
2634	0.00564442
2646	0.00659506
2658	0.00938757
2670	0.00956582
2682	0.00766454
2694	0.00766454
2706	0.00819927
2718	0.00944698
2730	0.011883
2742	0.0146161
2754	0.0168739
2766	0.0199634
2778	0.0279845
2790	0.0423035
2802	0.0860923
2814	0.100649
2826	0.119899
2838	0.22043
2850	0.176938
2862	0.166718
2874	0.165887
2886	0.21122
2898	0.157687
2910	0.134753
2922	0.120434
2934	0.107185
2946	0.134872
2958	0.24883
2970	0.20213
2982	0.129584
2994	0.0636335
3006	0.114077
3018	0.0592962
3030	0.0269744
3042	0.023766
3054	0.0226965
3066	0.0203199
3078	0.0225183
3090	0.0270932
3102	0.0182998
3114	0.0114671
3126	0.00843693
3138	0.00760512
3150	0.0067139
3162	0.00653565
3174	0.00600091
3186	0.00653565
3198	0.00617916
3210	0.00505027
3222	0.0055256
3234	0.00505027
3246	0.00481262
3258	0.0047532
3270	0.00427788
3282	0.00421847
3294	0.00415905
3306	0.00487203
3318	0.00463437
3330	0.00481262
3342	0.00433729
3354	0.00404022
3366	0.00439671
3378	0.0047532
3390	0.00421847
3402	0.0039808
3414	0.00362431
3426	0.00433729
3438	0.00415905
3450	0.00404022
3462	0.00445613
3474	0.00564442
3486	0.00493144
3498	0.00409963
3510	0.00338666
3522	0.00409963
3534	0.0035649
3546	0.0039808
3558	0.00380256
3570	0.00493144
3582	0.00386198
3594	0.00427788
3606	0.00314899
3618	0.00409963
3630	0.00570384
3642	0.00392139
3654	0.00380256
3666	0.0039808
3678	0.00558501
3690	0.00404022
3702	0.00457496
3714	0.00558501
3726	0.00493144
3738	0.00510969
3750	0.00421847
3762	0.00374314
3774	0.00392139
3786	0.0027925
3798	0.00392139
3810	0.00415905
3822	0.00516911
3834	0.00499086
3846	0.00499086
3858	0.00623857
3870	0.00588208
3882	0.00487203
3894	0.00689214
3906	0.00558501
3918	0.0059415
3930	0.00588208
3942	0.00451554
3954	0.00505027
3966	0.00653565
