Infrared Spectrum: Phenol, 3-methyl-4-nitro-
Formula: C 7 H 7 N O 3
CAS: 2581-34-2
Origin: Sadtler Research Labs Under US-EPA Contract
1/CM	ABSORBANCE
450	0
462	0.0170821
474	0.0180174
486	0.0198881
498	0.0213157
510	0.0275185
522	0.0307183
534	0.0292907
546	0.0298814
558	0.0323428
570	0.0346565
582	0.0382502
594	0.04081
606	0.0674424
618	0.124695
630	0.0470127
642	0.0328843
654	0.0304721
666	0.0296353
678	0.0368225
690	0.0543477
702	0.0366256
714	0.0259432
726	0.031949
738	0.0396778
750	0.0599597
762	0.0492772
774	0.0365764
786	0.0310136
798	0.0372164
810	0.0607966
822	0.0681808
834	0.133014
846	0.140497
858	0.0799463
870	0.0735466
882	0.0442067
894	0.0278138
906	0.0250078
918	0.0283061
930	0.0342135
942	0.0571537
954	0.0935824
966	0.0477512
978	0.0265831
990	0.0261893
1002	0.0334258
1014	0.0473081
1026	0.0438129
1038	0.0370195
1050	0.0338689
1062	0.0422376
1074	0.0924502
1086	0.0870843
1098	0.0357395
1110	0.0339673
1122	0.0399731
1134	0.0601566
1146	0.116178
1158	0.23531
1170	0.250472
1182	0.218031
1194	0.310333
1206	0.22763
1218	0.103576
1230	0.0756142
1242	0.0973238
1254	0.218818
1266	0.248454
1278	0.146503
1290	0.298617
1302	0.263764
1314	0.139758
1326	0.113717
1338	0.224874
1350	0.487062
1362	0.301177
1374	0.0873305
1386	0.070396
1398	0.0622734
1410	0.0573506
1422	0.0998836
1434	0.126614
1446	0.107071
1458	0.106874
1470	0.0943701
1482	0.15561
1494	0.203952
1506	0.188248
1518	0.242546
1530	0.401307
1542	0.467518
1554	0.268637
1566	0.197355
1578	0.246583
1590	0.348534
1602	0.311023
1614	0.208136
1626	0.184851
1638	0.0987021
1650	0.0343611
1662	0.0191005
1674	0.018559
1686	0.0200358
1698	0.0165898
1710	0.0103379
1722	0.00964869
1734	0.0142761
1746	0.0176236
1758	0.0154576
1770	0.014473
1782	0.0130454
1794	0.0105348
1806	0.0103379
1818	0.00979637
1830	0.00876258
1842	0.00989483
1854	0.00767957
1866	0.00925486
1878	0.0100917
1890	0.0117163
1902	0.0119132
1914	0.0111255
1926	0.0082703
1938	0.00699038
1950	0.00620273
1962	0.00516894
1974	0.00551354
1986	0.00551354
1998	0.00566122
2010	0.00561199
2022	0.00610427
2034	0.00600582
2046	0.00546431
2058	0.00408592
2070	0.00433206
2082	0.00467666
2094	0.00497203
2106	0.00541508
2118	0.00536585
2130	0.00482434
2142	0.00477512
2154	0.00511971
2166	0.00541508
2178	0.00516894
2190	0.00561199
2202	0.0061535
2214	0.00684269
2226	0.00605504
2238	0.0061535
2250	0.00556276
2262	0.00423361
2274	0.00452898
2286	0.00694115
2298	0.0113717
2310	0.0147192
2322	0.0144238
2334	0.0126024
2346	0.0145715
2358	0.0135869
2370	0.0118639
2382	0.0150638
2394	0.00777802
2406	0.0082703
2418	0.00999328
2430	0.0109778
2442	0.00940255
2454	0.0086149
2466	0.00831953
2478	0.0086149
2490	0.00881181
2502	0.00876258
2514	0.00699038
2526	0.00674424
2538	0.00708883
2550	0.00792571
2562	0.00817185
2574	0.0082703
2586	0.00758111
2598	0.0070396
2610	0.00669501
2622	0.0077288
2634	0.00708883
2646	0.00669501
2658	0.00659655
2670	0.00718729
2682	0.00723652
2694	0.00689192
2706	0.00625196
2718	0.00644887
2730	0.00723652
2742	0.00831953
2754	0.0086149
2766	0.00841799
2778	0.00777802
2790	0.00817185
2802	0.00831953
2814	0.00856567
2826	0.00900872
2838	0.0111255
2850	0.0128485
2862	0.0170329
2874	0.0217095
2886	0.020725
2898	0.0164914
2910	0.0168852
2922	0.020725
2934	0.0318505
2946	0.0414992
2958	0.0329335
2970	0.0233341
2982	0.030669
2994	0.0361826
3006	0.0272723
3018	0.0260908
3030	0.0336227
3042	0.0296353
3054	0.0249094
3066	0.0230387
3078	0.0236294
3090	0.0184113
3102	0.011667
3114	0.00930409
3126	0.00876258
3138	0.0082703
3150	0.00748266
3162	0.00723652
3174	0.00699038
3186	0.00684269
3198	0.00610427
3210	0.00777802
3222	0.00846722
3234	0.0089595
3246	0.00753188
3258	0.00728574
3270	0.00674424
3282	0.00733497
3294	0.00763034
3306	0.0089595
3318	0.00999328
3330	0.00974714
3342	0.00886104
3354	0.00841799
3366	0.00871336
3378	0.00841799
3390	0.00802416
3402	0.00851644
3414	0.00763034
3426	0.00689192
3438	0.0064981
3450	0.00644887
3462	0.00610427
3474	0.00659655
3486	0.00669501
3498	0.00585813
3510	0.00630118
3522	0.00664578
3534	0.00556276
3546	0.00625196
3558	0.00561199
3570	0.00674424
3582	0.00561199
3594	0.00684269
3606	0.00600582
3618	0.0104856
3630	0.0368718
3642	0.213256
3654	0.237525
3666	0.0374133
3678	0.00782725
3690	0.00507048
3702	0.00669501
3714	0.00659655
3726	0.00831953
3738	0.0061535
3750	0.0049228
3762	0.00497203
3774	0.00531662
3786	0.00487357
3798	0.00585813
3810	0.00585813
3822	0.00531662
3834	0.00664578
3846	0.00610427
3858	0.00802416
3870	0.00585813
3882	0.00610427
3894	0.00556276
3906	0.00728574
3918	0.0070396
3930	0.00610427
3942	0.00792571
3954	0.00541508
3966	0.00876258
