Infrared Spectrum: Naphthalene, 1-bromo-2-methyl-
Formula: C 11 H 9 Br
CAS: 2586-62-1
Origin: Sadtler Research Labs Under US-EPA Contract
1/CM	ABSORBANCE
450	0
462	0.00946665
474	0.026575
486	0.0389501
498	0.0260048
510	0.0316505
522	0.0828617
534	0.0942103
546	0.028514
558	0.0196747
570	0.020359
582	0.022469
594	0.0209293
606	0.0207582
618	0.0268602
630	0.048816
642	0.123979
654	0.0561156
666	0.024408
678	0.0169373
690	0.0197887
702	0.0278297
714	0.0432843
726	0.073395
738	0.267005
750	0.101852
762	0.183858
774	0.111661
786	0.0457365
798	0.278183
810	0.384312
822	0.106985
834	0.0286281
846	0.0306811
858	0.0565147
870	0.0333614
882	0.04893
894	0.0921002
906	0.0412883
918	0.0321638
930	0.0301108
942	0.0410031
954	0.0739653
966	0.165666
978	0.0846296
990	0.0497854
1002	0.0477324
1014	0.0583967
1026	0.0908456
1038	0.106072
1050	0.0401477
1062	0.0294264
1074	0.0233245
1086	0.0200168
1098	0.0187622
1110	0.0199028
1122	0.0253775
1134	0.0736802
1146	0.0662095
1158	0.0327911
1170	0.0266321
1182	0.0226971
1194	0.0214996
1206	0.0315935
1218	0.075448
1230	0.0725396
1242	0.0342738
1254	0.0911307
1266	0.0934689
1278	0.0347301
1290	0.0230393
1302	0.0272594
1314	0.0564577
1326	0.136468
1338	0.0948376
1350	0.10727
1362	0.0796681
1374	0.0594232
1386	0.0531501
1398	0.0334184
1410	0.0295405
1422	0.0414023
1434	0.0501276
1446	0.0607348
1458	0.0575413
1470	0.0515533
1482	0.0411172
1494	0.0983733
1506	0.178954
1518	0.0530931
1530	0.0384369
1542	0.0479605
1554	0.0976319
1566	0.09786
1578	0.0351863
1590	0.0432843
1602	0.0622175
1614	0.0452802
1626	0.0630159
1638	0.0364409
1650	0.0208152
1662	0.0241799
1674	0.0225831
1686	0.0298827
1698	0.0312513
1710	0.0239518
1722	0.020416
1734	0.0242939
1746	0.0412312
1758	0.0217847
1770	0.0197887
1782	0.0212144
1794	0.0208722
1806	0.0261759
1818	0.0274875
1830	0.0298256
1842	0.0219558
1854	0.0164241
1866	0.0154546
1878	0.0177927
1890	0.0279437
1902	0.0323349
1914	0.0301108
1926	0.0261188
1938	0.0261188
1950	0.0292554
1962	0.0158538
1974	0.0141429
1986	0.0148273
1998	0.0136867
2010	0.0131164
2022	0.0142
2034	0.0145992
2046	0.0135727
2058	0.0146562
2070	0.0141429
2082	0.0138578
2094	0.0149984
2106	0.0149984
2118	0.0139719
2130	0.0135156
2142	0.0129454
2154	0.0132875
2166	0.0126602
2178	0.0128313
2190	0.0135727
2202	0.0128883
2214	0.0127172
2226	0.0132875
2238	0.0131164
2250	0.0133446
2262	0.0135156
2274	0.0145421
2286	0.0164241
2298	0.0165951
2310	0.0156257
2322	0.0156257
2334	0.0159678
2346	0.0189903
2358	0.0151124
2370	0.0178498
2382	0.0169373
2394	0.0153976
2406	0.0153976
2418	0.0153976
2430	0.0152835
2442	0.0154546
2454	0.0160819
2466	0.0159678
2478	0.0161389
2490	0.0165381
2502	0.0152835
2514	0.0160249
2526	0.0160249
2538	0.0156257
2550	0.0152265
2562	0.0155116
2574	0.0157397
2586	0.0156257
2598	0.0156827
2610	0.0161389
2622	0.0147132
2634	0.0148843
2646	0.0150554
2658	0.0143711
2670	0.0149413
2682	0.0158538
2694	0.016196
2706	0.0156257
2718	0.0159678
2730	0.0171084
2742	0.0195606
2754	0.0214996
2766	0.0175646
2778	0.0165951
2790	0.0167092
2802	0.0169373
2814	0.0178498
2826	0.0199028
2838	0.0230393
2850	0.0303389
2862	0.0456224
2874	0.0617043
2886	0.0525798
2898	0.04893
2910	0.0521806
2922	0.0752199
2934	0.150155
2946	0.111889
2958	0.0775011
2970	0.0792689
2982	0.0830328
2994	0.0759043
3006	0.0687758
3018	0.0867966
3030	0.0828047
3042	0.116736
3054	0.271738
3066	0.355056
3078	0.191386
3090	0.0955789
3102	0.0602216
3114	0.0457935
3126	0.0287421
3138	0.0227542
3150	0.0199598
3162	0.0188192
3174	0.0185911
3186	0.018363
3198	0.0181919
3210	0.0172795
3222	0.0185341
3234	0.0167662
3246	0.0176787
3258	0.0168233
3270	0.0169373
3282	0.0152835
3294	0.0160249
3306	0.0149984
3318	0.018363
3330	0.0155686
3342	0.0165381
3354	0.0144281
3366	0.0176217
3378	0.0160819
3390	0.0152835
3402	0.0157968
3414	0.0150554
3426	0.0148273
3438	0.0170514
3450	0.0152835
3462	0.0166522
3474	0.0159678
3486	0.0177927
3498	0.0175646
3510	0.0179638
3522	0.0144851
3534	0.014314
3546	0.0176217
3558	0.0179068
3570	0.0172225
3582	0.014314
3594	0.0173365
3606	0.0179068
3618	0.0164811
3630	0.0159108
3642	0.0171084
3654	0.0168803
3666	0.0170514
3678	0.0151124
3690	0.0171654
3702	0.0177927
3714	0.0157968
3726	0.0193325
3738	0.0190474
3750	0.0177927
3762	0.0188763
3774	0.0193325
3786	0.0165951
3798	0.0168233
3810	0.0167662
3822	0.0176217
3834	0.0195036
3846	0.0175646
3858	0.0196747
3870	0.0205301
3882	0.0192755
3894	0.0195606
3906	0.0199028
3918	0.0173935
3930	0.0176217
3942	0.0188192
3954	0.0232104
3966	0.020359
