Infrared Spectrum: 2-Pyridinamine, 5-nitro-N-propyl-
Formula: C 8 H 11 N 3 O 2
CAS: 25948-11-2
Origin: Sadtler Research Labs Under US-EPA Contract
1/CM	ABSORBANCE
450	0.0334158
462	0.0309588
474	0.0312864
486	0.0265361
498	0.0203116
510	0.0194926
522	0.0235876
534	0.0255533
546	0.0217858
558	0.0206392
570	0.0150699
582	0.0101558
594	0.00917297
606	0.00868156
618	0.019984
630	0.0283379
642	0.0380023
654	0.0622451
666	0.0746942
678	0.0334158
690	0.00425888
702	0.0054055
714	0.0204754
726	0.0322692
738	0.0137595
750	0.0301398
762	0.0728923
774	0.0473391
786	0.0234238
798	0.0296483
810	0.0959886
822	0.14775
834	0.0927125
846	0.0933677
858	0.114171
870	0.0435716
882	0.0285017
894	0.0262085
906	0.0230962
918	0.0209668
930	0.0234238
942	0.0355453
954	0.0380023
966	0.0309588
978	0.0309588
990	0.0479943
1002	0.0782978
1014	0.0568396
1026	0.0411146
1038	0.0311226
1050	0.0289931
1062	0.0427526
1074	0.0707629
1086	0.0715819
1098	0.0966438
1110	0.276499
1122	0.174942
1134	0.138086
1146	0.12793
1158	0.0769874
1170	0.0401317
1182	0.0339072
1194	0.0368557
1206	0.0445544
1218	0.0683059
1230	0.110567
1242	0.105489
1254	0.135956
1266	0.21966
1278	0.374454
1290	0.699766
1302	0.224246
1314	0.254386
1326	0.588544
1338	1.19887
1350	1.54548
1362	0.39067
1374	0.140707
1386	0.11499
1398	0.110076
1410	0.177235
1422	0.127439
1434	0.112369
1446	0.13825
1458	0.164786
1470	0.225229
1482	0.284362
1494	0.442268
1506	0.720078
1518	0.707465
1530	0.718112
1542	0.507134
1554	0.223263
1566	0.241118
1578	0.607218
1590	1.23229
1602	1.41428
1614	0.810661
1626	0.141526
1638	0.064047
1650	0.0335796
1662	0.0173631
1674	0.0135956
1686	0.0127766
1698	0.013268
1710	0.00720733
1722	0.00917297
1734	0.0131042
1746	0.00868156
1758	0.00720733
1770	0.00900916
1782	0.00884536
1794	0.0054055
1806	0.00245704
1818	0.000819015
1830	0.00180183
1842	0.000982818
1854	0.000819015
1866	0.00327606
1878	0.00343986
1890	0.00638832
1902	0.00589691
1914	0.00589691
1926	0.00720733
1938	0.00409508
1950	0.00147423
1962	0.00131042
1974	0.00212944
1986	0.00229324
1998	0.00327606
2010	0.00294845
2022	0.00196564
2034	0.000327606
2046	0.000163803
2058	0.000163803
2070	0.000327606
2082	0.000163803
2094	0.000819015
2106	0.00131042
2118	0.00229324
2130	0.00262085
2142	0.00311226
2154	0.00294845
2166	0.00212944
2178	0.00131042
2190	0.00163803
2202	0.00245704
2214	0.00212944
2226	0.00196564
2238	0.00212944
2250	0.00131042
2262	0.00147423
2274	0.00196564
2286	0.00327606
2298	0.0054055
2310	0.00687973
2322	0.0057331
2334	0.0052417
2346	0.00786254
2358	0.00802635
2370	0.00851776
2382	0.00819015
2394	0.00589691
2406	0.00671592
2418	0.00769874
2430	0.00966438
2442	0.012449
2454	0.0158889
2466	0.0163803
2478	0.0131042
2490	0.0131042
2502	0.0142509
2514	0.0127766
2526	0.0109748
2538	0.00819015
2550	0.00737113
2562	0.00851776
2574	0.00786254
2586	0.00786254
2598	0.00802635
2610	0.00819015
2622	0.00753494
2634	0.00671592
2646	0.00589691
2658	0.0052417
2670	0.0055693
2682	0.0057331
2694	0.00606071
2706	0.00606071
2718	0.00687973
2730	0.00851776
2742	0.00966438
2754	0.010811
2766	0.0111386
2778	0.0113024
2790	0.012449
2802	0.0153975
2814	0.0203116
2826	0.0253895
2838	0.031614
2850	0.0443906
2862	0.0709267
2874	0.108438
2886	0.130223
2898	0.111222
2910	0.0951695
2922	0.117611
2934	0.16495
2946	0.187063
2958	0.170847
2970	0.209668
2982	0.184115
2994	0.0663402
3006	0.0314502
3018	0.0222772
3030	0.0206392
3042	0.0234238
3054	0.0214582
3066	0.019984
3078	0.0209668
3090	0.0273551
3102	0.0181821
3114	0.00933677
3126	0.00671592
3138	0.0054055
3150	0.00475029
3162	0.0052417
3174	0.00753494
3186	0.0101558
3198	0.00884536
3210	0.00458648
3222	0.00376747
3234	0.00425888
3246	0.0054055
3258	0.0057331
3270	0.00753494
3282	0.00851776
3294	0.00982818
3306	0.0111386
3318	0.0122852
3330	0.0137595
3342	0.0150699
3354	0.0173631
3366	0.0214582
3378	0.0253895
3390	0.0306312
3402	0.0352176
3414	0.0404593
3426	0.0561844
3438	0.0753494
3450	0.0658488
3462	0.0715819
3474	0.0637194
3486	0.0306312
3498	0.0117938
3510	0.00704353
3522	0.00475029
3534	0.00327606
3546	0.00294845
3558	0.00311226
3570	0.00294845
3582	0.00196564
3594	0.00180183
3606	0.00262085
3618	0.00180183
3630	0.00262085
3642	0.00114662
3654	0.00180183
3666	0.00245704
3678	0.00212944
3690	0.00180183
3702	0.00327606
3714	0.00278465
3726	0.00311226
3738	0.00163803
3750	0.00245704
3762	0.00212944
3774	0.00311226
3786	0.00114662
3798	0.000491409
3810	0.00212944
3822	0.000982818
3834	0.00245704
3846	0.00180183
3858	0.00294845
3870	0.00212944
3882	0.00262085
3894	0.00180183
3906	0.00245704
3918	0.00163803
3930	0.00327606
3942	0.00311226
3954	0.00294845
3966	0.00245704
