Infrared Spectrum: Pyridine, 2-(3-methoxypropylamino)-5-nitro-
Formula: C 9 H 13 N 3 O 3
CAS: 25948-13-4
Origin: Sadtler Research Labs Under US-EPA Contract
1/CM	ABSORBANCE
450	0.00775762
462	0.010215
474	0.0161416
486	0.0185508
498	0.0152261
510	0.0156116
522	0.0225983
534	0.0271758
546	0.02096
558	0.0195627
570	0.0169126
582	0.018069
594	0.0171053
606	0.0168162
618	0.0130579
630	0.0190327
642	0.0203336
654	0.0262121
666	0.0288622
678	0.0190327
690	0.0103596
702	0.0123833
714	0.0145516
726	0.0200445
738	0.0122387
750	0.0134433
762	0.0317051
774	0.0165271
786	0.010986
798	0.0132506
810	0.0310787
822	0.0535324
834	0.0314642
846	0.0285731
858	0.0392218
870	0.0174908
882	0.0118051
894	0.0146961
906	0.0189845
918	0.0211046
930	0.0204782
942	0.0234656
954	0.0222128
966	0.0212973
978	0.0216346
990	0.0271758
1002	0.0358489
1014	0.0269349
1026	0.0310305
1038	0.0369089
1050	0.0405709
1062	0.0433174
1074	0.0530988
1086	0.0656266
1098	0.0912605
1110	0.159055
1122	0.189556
1134	0.121761
1146	0.054737
1158	0.0437993
1170	0.0328615
1182	0.04033
1194	0.0430283
1206	0.0372944
1218	0.0400409
1230	0.0441365
1242	0.0448111
1254	0.06076
1266	0.0880322
1278	0.128507
1290	0.269879
1302	0.0838402
1314	0.103066
1326	0.228103
1338	0.367066
1350	0.42532
1362	0.105523
1374	0.0442811
1386	0.0427874
1398	0.0401855
1410	0.0532915
1422	0.0411973
1434	0.0400891
1446	0.0516532
1458	0.0592181
1470	0.0782026
1482	0.0941515
1494	0.131446
1506	0.216828
1518	0.198422
1530	0.228778
1542	0.167777
1554	0.0698186
1566	0.0785399
1578	0.182617
1590	0.349238
1602	0.451532
1614	0.236776
1626	0.0345479
1638	0.0118533
1650	0.00530024
1662	0.000192736
1674	0.00159007
1686	0.00356562
1698	0.00621574
1710	0.00799854
1722	0.00997409
1734	0.0120942
1746	0.00982954
1758	0.0096368
1770	0.0111787
1782	0.0104559
1794	0.00929951
1806	0.00901041
1818	0.00833583
1830	0.00785399
1842	0.00790218
1854	0.00698668
1866	0.00804673
1878	0.00804673
1890	0.00905859
1902	0.00857675
1914	0.00867312
1926	0.00920314
1938	0.0081431
1950	0.00727578
1962	0.00698668
1974	0.00717942
1986	0.0069385
1998	0.00727578
2010	0.00732397
2022	0.00742034
2034	0.00689031
2046	0.00698668
2058	0.00664939
2070	0.00679394
2082	0.00669758
2094	0.00626392
2106	0.00640847
2118	0.00640847
2130	0.006023
2142	0.00616755
2154	0.00597482
2166	0.00578208
2178	0.00554116
2190	0.00558934
2202	0.00525206
2214	0.00549298
2226	0.00530024
2238	0.00515569
2250	0.00491477
2262	0.0051075
2274	0.00544479
2286	0.00626392
2298	0.00703486
2310	0.00823946
2322	0.00823946
2334	0.00823946
2346	0.00819128
2358	0.00939588
2370	0.0072276
2382	0.00756489
2394	0.00563753
2406	0.00611937
2418	0.00597482
2430	0.00664939
2442	0.00799854
2454	0.00867312
2466	0.00838402
2478	0.00775762
2490	0.00775762
2502	0.00770944
2514	0.00746852
2526	0.00708305
2538	0.00640847
2550	0.00655302
2562	0.00636029
2574	0.00655302
2586	0.00679394
2598	0.00732397
2610	0.00732397
2622	0.00717942
2634	0.00664939
2646	0.00616755
2658	0.00621574
2670	0.00611937
2682	0.00660121
2694	0.00732397
2706	0.00756489
2718	0.00886586
2730	0.0112269
2742	0.0119014
2754	0.012046
2766	0.0124797
2778	0.0138288
2790	0.017539
2802	0.0245738
2814	0.0357525
2826	0.0462085
2838	0.0518942
2850	0.0507378
2862	0.0619164
2874	0.0748298
2886	0.0786845
2898	0.0629765
2910	0.0616273
2922	0.0697222
2934	0.0847557
2946	0.0806118
2958	0.0674094
2970	0.0486658
2982	0.03927
2994	0.0352707
3006	0.0215382
3018	0.012576
3030	0.0127688
3042	0.0132024
3054	0.0127206
3066	0.0143106
3078	0.0146961
3090	0.0145998
3102	0.0107932
3114	0.00795036
3126	0.00689031
3138	0.00679394
3150	0.0069385
3162	0.00713123
3174	0.00833583
3186	0.00901041
3198	0.0084322
3210	0.00790218
3222	0.00823946
3234	0.00968498
3246	0.0106487
3258	0.0115642
3270	0.0125278
3282	0.0142143
3294	0.0153225
3306	0.0168162
3318	0.0172499
3330	0.0177317
3342	0.0192254
3354	0.0203818
3366	0.0225501
3378	0.0254412
3390	0.0278504
3402	0.0333915
3414	0.0357043
3426	0.043462
3438	0.0468348
3450	0.0291995
3462	0.0210082
3474	0.0182617
3486	0.0105041
3498	0.00708305
3510	0.00616755
3522	0.00616755
3534	0.00525206
3546	0.00660121
3558	0.00597482
3570	0.00626392
3582	0.00515569
3594	0.00636029
3606	0.00578208
3618	0.00587845
3630	0.00698668
3642	0.00544479
3654	0.00645666
3666	0.0051075
3678	0.00558934
3690	0.00558934
3702	0.00645666
3714	0.00674576
3726	0.0075167
3738	0.0069385
3750	0.00544479
3762	0.00496295
3774	0.00525206
3786	0.00505932
3798	0.00558934
3810	0.00515569
3822	0.00544479
3834	0.00587845
3846	0.00732397
3858	0.00660121
3870	0.00915496
3882	0.00713123
3894	0.00770944
3906	0.00867312
3918	0.00838402
3930	0.0081431
3942	0.00737215
3954	0.00862494
3966	0.00848038
