Infrared Spectrum: .alpha.-Bromo-.gamma.-valerolactone
Formula: C 5 H 7 Br O 2
CAS: 25966-39-6
Origin: Sadtler Research Labs Under US-EPA Contract
1/CM	ABSORBANCE
450	0.0172552
462	0.0256992
474	0.0247814
486	0.0385489
498	0.0163374
510	0.00844404
522	0.00513985
534	0.0132168
546	0.0324912
558	0.0592918
570	0.0354282
582	0.0141346
594	0.0183566
606	0.0214772
618	0.0297377
630	0.0137675
642	0.0159702
654	0.0313898
666	0.0567219
678	0.0352447
690	0.0172552
702	0.00458915
714	0.00091783
726	0.0108304
738	0.0113811
750	0.0339597
762	0.0198251
774	0.00183566
786	0.00146853
798	0.00238636
810	0.0218444
822	0.0396503
834	0.0312062
846	0.00734264
858	0.0122989
870	0.029187
882	0.0519492
894	0.0693879
906	0.0794841
918	0.146486
930	0.179528
942	0.274431
954	0.289851
966	0.121521
978	0.0537848
990	0.0480943
1002	0.0714072
1014	0.0686537
1026	0.0436887
1038	0.0636974
1050	0.123723
1062	0.131433
1074	0.161355
1086	0.304536
1098	0.323076
1110	0.305087
1122	0.29444
1134	0.265436
1146	0.326564
1158	0.54721
1170	0.886073
1182	0.809526
1194	0.284344
1206	0.163741
1218	0.128129
1230	0.105
1242	0.0690208
1254	0.0491957
1266	0.0512149
1278	0.0556205
1290	0.100043
1302	0.0809526
1314	0.0343268
1326	0.0647988
1338	0.166861
1350	0.132718
1362	0.0837061
1374	0.0752621
1386	0.139143
1398	0.125192
1410	0.0301048
1422	0.0229458
1434	0.0458915
1446	0.0741607
1458	0.0715907
1470	0.0446065
1482	0.0201923
1494	0.0132168
1506	0.0163374
1518	0.00991256
1530	0.00715907
1542	0.00752621
1554	0.00642481
1566	0.00642481
1578	0.00550698
1590	0.00403845
1602	0.00183566
1614	0.00624124
1626	0.00991256
1638	0.0100961
1650	0.0132168
1662	0.0124825
1674	0.0167045
1686	0.019458
1698	0.0242307
1710	0.0266171
1722	0.0367132
1734	0.04993
1746	0.059659
1758	0.0774649
1770	0.115647
1782	0.175489
1794	0.346205
1806	1.01273
1818	1.83566
1830	1.15775
1842	0.325463
1854	0.103531
1866	0.0510313
1878	0.0374475
1890	0.0268006
1902	0.0198251
1914	0.0137675
1926	0.0086276
1938	0.00826047
1950	0.00587411
1962	0.00605768
1974	0.00569055
1986	0.00440558
1998	0.00624124
2010	0.00569055
2022	0.00513985
2034	0.00256992
2046	0.00330419
2058	0.00385489
2070	0.00330419
2082	0.00312062
2094	0.00367132
2106	0.00330419
2118	0.00367132
2130	0.00275349
2142	0.00275349
2154	0.00146853
2166	0.00256992
2178	0.00238636
2190	0.00256992
2202	0.00348775
2214	0.00422202
2226	0.00385489
2238	0.00422202
2250	0.00532341
2262	0.00752621
2274	0.00770977
2286	0.00844404
2298	0.0086276
2310	0.00844404
2322	0.00770977
2334	0.00844404
2346	0.00991256
2358	0.00679194
2370	0.00385489
2382	0.00569055
2394	0.00312062
2406	0.00238636
2418	0.00165209
2430	0.00201923
2442	0.00348775
2454	0.00367132
2466	0.00422202
2478	0.00422202
2490	0.00367132
2502	0.00330419
2514	0.00367132
2526	0.00238636
2538	0.00091783
2550	0.000734264
2562	0.0011014
2574	0.00091783
2586	0.00091783
2598	0.000550698
2610	0
2622	0.00091783
2634	0.00165209
2646	0.00293706
2658	0.00275349
2670	0.00220279
2682	0.00146853
2694	0.00128496
2706	0.00256992
2718	0.00385489
2730	0.00330419
2742	0.00330419
2754	0.00422202
2766	0.00550698
2778	0.00440558
2790	0.00367132
2802	0.00385489
2814	0.00422202
2826	0.00642481
2838	0.00844404
2850	0.013951
2862	0.0220279
2874	0.0271678
2886	0.0339597
2898	0.0330419
2910	0.0530506
2922	0.0893966
2934	0.135472
2946	0.129414
2958	0.0805855
2970	0.0837061
2982	0.169248
2994	0.238269
3006	0.11326
3018	0.0247814
3030	0.0163374
3042	0.0104633
3054	0.00660838
3066	0.00513985
3078	0.00550698
3090	0.00550698
3102	0.00550698
3114	0.00403845
3126	0.00256992
3138	0.00256992
3150	0.00330419
3162	0.00385489
3174	0.00293706
3186	0.00256992
3198	0.00293706
3210	0.00312062
3222	0.00293706
3234	0.00275349
3246	0.00128496
3258	0.000734264
3270	0.00183566
3282	0.00146853
3294	0.00128496
3306	0.00146853
3318	0.000367132
3330	0.00128496
3342	0.00201923
3354	0.000734264
3366	0
3378	0.00091783
3390	0.00201923
3402	0.00201923
3414	0.00293706
3426	0.00146853
3438	0.00165209
3450	0.00220279
3462	0.00312062
3474	0.00330419
3486	0.00201923
3498	0.00165209
3510	0.00256992
3522	0.00367132
3534	0.00513985
3546	0.00550698
3558	0.00605768
3570	0.013951
3582	0.0196416
3594	0.0161538
3606	0.0190909
3618	0.0214772
3630	0.0154195
3642	0.00936187
3654	0.00513985
3666	0.00587411
3678	0.00367132
3690	0.00293706
3702	0.00367132
3714	0.00458915
3726	0.00605768
3738	0.00348775
3750	0.00293706
3762	0.00256992
3774	0.00550698
3786	0.00605768
3798	0.00330419
3810	0.00605768
3822	0.000367132
3834	0.00385489
3846	0.00605768
3858	0.00697551
3870	0.00605768
3882	0.00385489
3894	0.00165209
3906	0.00770977
3918	0.00770977
3930	0.00715907
3942	0.00422202
3954	0.00256992
3966	0.00770977
