Infrared Spectrum: Thioxanthene
Formula: C 13 H 10 S
CAS: 261-31-4
Origin: Sadtler Research Labs Under US-EPA Contract
1/CM	ABSORBANCE
450	0
462	0.015831
474	0.0212832
486	0.0184586
498	0.014583
510	0.0328445
522	0.0187214
534	0.00867095
546	0.00689735
558	0.010773
570	0.00788268
582	0.0136633
594	0.0101818
606	0.0155026
618	0.0483471
630	0.0326474
642	0.0124809
654	0.0108387
666	0.0113642
678	0.0308081
690	0.0763963
702	0.0222029
714	0.0246334
726	0.0482157
738	0.428095
750	0.439525
762	0.0523541
774	0.0157654
786	0.0120868
798	0.0137947
810	0.00788268
822	0.0138604
834	0.0220058
846	0.0144516
858	0.0145173
870	0.0135319
882	0.00913077
894	0.00840819
906	0.00972197
918	0.0108387
930	0.0145173
942	0.0224656
954	0.0212832
966	0.0120868
978	0.0114956
990	0.0134006
1002	0.015831
1014	0.0326474
1026	0.0335014
1038	0.0714696
1050	0.036326
1062	0.0806004
1074	0.0307425
1086	0.0205607
1098	0.0219401
1110	0.0622732
1122	0.101555
1134	0.0288375
1146	0.019641
1158	0.0264727
1170	0.0227284
1182	0.0185243
1194	0.0288375
1206	0.0359976
1218	0.0147143
1230	0.0151085
1242	0.0180645
1254	0.0224656
1266	0.029363
1278	0.0454568
1290	0.0180645
1302	0.0101818
1314	0.0120211
1326	0.0154369
1338	0.0169478
1350	0.0103789
1362	0.0155026
1374	0.0179988
1386	0.0158967
1398	0.0170791
1410	0.0197067
1422	0.0453254
1434	0.078564
1446	0.145238
1458	0.243443
1470	0.249815
1482	0.0817828
1494	0.0306768
1506	0.0152398
1518	0.0144516
1530	0.012678
1542	0.0149771
1554	0.0197067
1566	0.0513688
1578	0.0471647
1590	0.0544562
1602	0.0327788
1614	0.015634
1626	0.0122182
1638	0.012678
1650	0.0125466
1662	0.0149114
1674	0.0199695
1686	0.0214803
1698	0.0151085
1710	0.012875
1722	0.012678
1734	0.0128094
1746	0.0120211
1758	0.0117583
1770	0.0162909
1782	0.0206263
1794	0.0212832
1806	0.0156997
1818	0.0170135
1830	0.0176703
1842	0.0135976
1854	0.0132035
1866	0.0101818
1878	0.0153055
1890	0.0183272
1902	0.020495
1914	0.0172105
1926	0.0171448
1938	0.028509
1950	0.0115613
1962	0.00755424
1974	0.00755424
1986	0.00755424
1998	0.00768561
2010	0.00735717
2022	0.0071601
2034	0.00742286
2046	0.0071601
2058	0.00702872
2070	0.00709441
2082	0.00702872
2094	0.00702872
2106	0.00729148
2118	0.0071601
2130	0.00709441
2142	0.0071601
2154	0.00755424
2166	0.00735717
2178	0.00722579
2190	0.00722579
2202	0.00702872
2214	0.00683166
2226	0.00742286
2238	0.00788268
2250	0.0077513
2262	0.00801406
2274	0.00840819
2286	0.00919646
2298	0.0102475
2310	0.0115613
2322	0.0136633
2334	0.0114299
2346	0.0104446
2358	0.00998473
2370	0.0089337
2382	0.00853957
2394	0.00794837
2406	0.00860526
2418	0.00827681
2430	0.00926215
2442	0.00998473
2454	0.00827681
2466	0.00807975
2478	0.00807975
2490	0.00794837
2502	0.00801406
2514	0.00827681
2526	0.00853957
2538	0.00926215
2550	0.0102475
2562	0.0117583
2574	0.0105102
2586	0.00853957
2598	0.0089337
2610	0.00899939
2622	0.00952491
2634	0.00906508
2646	0.00945922
2658	0.00998473
2670	0.00945922
2682	0.00847388
2694	0.00814544
2706	0.0083425
2718	0.00853957
2730	0.00814544
2742	0.00821112
2754	0.00860526
2766	0.00880233
2778	0.00906508
2790	0.00998473
2802	0.0130064
2814	0.0252246
2826	0.0356034
2838	0.0207577
2850	0.0179331
2862	0.0364574
2874	0.0478216
2886	0.0208891
2898	0.0129407
2910	0.0118897
2922	0.0120211
2934	0.0160281
2946	0.0455882
2958	0.0828995
2970	0.0317935
2982	0.0153712
2994	0.0195753
3006	0.0476902
3018	0.0997816
3030	0.0668714
3042	0.045194
3054	0.0698931
3066	0.24745
3078	0.285747
3090	0.0679881
3102	0.0245677
3114	0.0151085
3126	0.014583
3138	0.0168821
3150	0.0166193
3162	0.0109044
3174	0.0105102
3186	0.0102475
3198	0.00899939
3210	0.00840819
3222	0.00853957
3234	0.00853957
3246	0.00827681
3258	0.00821112
3270	0.00781699
3282	0.00867095
3294	0.0077513
3306	0.00794837
3318	0.00807975
3330	0.0071601
3342	0.00755424
3354	0.0077513
3366	0.0077513
3378	0.0077513
3390	0.00709441
3402	0.00722579
3414	0.00683166
3426	0.00755424
3438	0.00794837
3450	0.0077513
3462	0.00794837
3474	0.00781699
3486	0.00781699
3498	0.00807975
3510	0.00722579
3522	0.00794837
3534	0.00847388
3546	0.00788268
3558	0.00794837
3570	0.00880233
3582	0.00794837
3594	0.00755424
3606	0.0083425
3618	0.00814544
3630	0.00788268
3642	0.0083425
3654	0.00899939
3666	0.00847388
3678	0.00840819
3690	0.00926215
3702	0.00998473
3714	0.00847388
3726	0.00827681
3738	0.00867095
3750	0.00906508
3762	0.00945922
3774	0.00860526
3786	0.00899939
3798	0.00886801
3810	0.0083425
3822	0.00906508
3834	0.00840819
3846	0.00873664
3858	0.00860526
3870	0.00847388
3882	0.00886801
3894	0.0109044
3906	0.0107073
3918	0.00899939
3930	0.00814544
3942	0.0089337
3954	0.00807975
3966	0.0089337
