Infrared Spectrum: 1-Heptadecyne
Formula: C 17 H 32
CAS: 26186-00-5
Origin: Sadtler Research Labs Under US-EPA Contract
1/CM	ABSORBANCE
450	0.00856564
462	0.000104459
474	0.00334269
486	0.00470065
498	0.00741659
510	0.00376052
522	0.00689429
534	0.00574524
546	0.00710321
558	0.00480511
570	0.00282039
582	0.0045962
594	0.00605862
606	0.0114905
618	0.0476333
630	0.209858
642	0.110309
654	0.0217275
666	0.00856564
678	0.00595416
690	0.00376052
702	0.00449174
714	0.0123262
726	0.0115949
738	0.00647646
750	0.00240256
762	0.000522295
774	0.00302931
786	0.00302931
798	0.00313377
810	0.00125351
822	0.00188026
834	0.00156689
846	0.000522295
858	0.00104459
870	0.00240256
882	0.00261147
894	0.00261147
906	0.00344715
918	0.00250702
930	0.00240256
942	0.00323823
954	0.0040739
966	0.00323823
978	0.00302931
990	0.00323823
1002	0.00313377
1014	0.00261147
1026	0.00240256
1038	0.00282039
1050	0.00261147
1062	0.00302931
1074	0.00365607
1086	0.00386498
1098	0.00313377
1110	0.00355161
1122	0.00417836
1134	0.00376052
1146	0.00386498
1158	0.0040739
1170	0.00386498
1182	0.00449174
1194	0.00449174
1206	0.00511849
1218	0.00720767
1230	0.0125351
1242	0.03959
1254	0.0480511
1266	0.0159822
1278	0.0122217
1290	0.0109682
1302	0.013893
1314	0.0167134
1326	0.0185937
1338	0.0211007
1350	0.0289351
1362	0.026637
1374	0.0211007
1386	0.0164001
1398	0.00846118
1410	0.00699875
1422	0.00804334
1434	0.0171313
1446	0.039381
1458	0.066227
1470	0.0640334
1482	0.0223542
1494	0.0101325
1506	0.00699875
1518	0.00490957
1530	0.00396944
1542	0.00344715
1554	0.00323823
1566	0.00240256
1578	0.00282039
1590	0.0017758
1602	0.00208918
1614	0.00198472
1626	0.00156689
1638	0.00167134
1650	0.0017758
1662	0.0017758
1674	0.0017758
1686	0.00198472
1698	0.00240256
1710	0.00313377
1722	0.00261147
1734	0.00282039
1746	0.0022981
1758	0.00188026
1770	0.00188026
1782	0.0017758
1794	0.00125351
1806	0.000731213
1818	0.000522295
1830	0.000731213
1842	0.000522295
1854	0.000522295
1866	0.000626754
1878	0.000522295
1890	0.000522295
1902	0.000417836
1914	0.000208918
1926	0.000417836
1938	0.000208918
1950	0.000313377
1962	0.000208918
1974	0.000208918
1986	0.000417836
1998	0.000417836
2010	0.000731213
2022	0.000731213
2034	0.00125351
2046	0.00114905
2058	0.00125351
2070	0.000940131
2082	0.00146243
2094	0.00219364
2106	0.00522295
2118	0.0109682
2130	0.0081478
2142	0.00208918
2154	0.00104459
2166	0.000731213
2178	0.000731213
2190	0.000731213
2202	0.000731213
2214	0.000417836
2226	0.000731213
2238	0.000522295
2250	0.000313377
2262	0.000313377
2274	0.000731213
2286	0.000626754
2298	0.000731213
2310	0.000940131
2322	0.00146243
2334	0.00135797
2346	0.00208918
2358	0.00156689
2370	0.000731213
2382	0.00125351
2394	0.000940131
2406	0.000626754
2418	0.000835672
2430	0.000835672
2442	0.000522295
2454	0.000626754
2466	0.000626754
2478	0.000835672
2490	0.000835672
2502	0.000940131
2514	0.00146243
2526	0.0017758
2538	0.0022981
2550	0.00167134
2562	0.00198472
2574	0.00219364
2586	0.00271593
2598	0.00313377
2610	0.00386498
2622	0.00428282
2634	0.00543187
2646	0.00616308
2658	0.00658092
2670	0.00783442
2682	0.00846118
2694	0.00898347
2706	0.00668538
2718	0.00647646
2730	0.00689429
2742	0.00846118
2754	0.00804334
2766	0.00908793
2778	0.00940131
2790	0.0128485
2802	0.0167134
2814	0.0225631
2826	0.0323823
2838	0.050976
2850	0.124724
2862	0.388692
2874	0.277861
2886	0.169537
2898	0.164732
2910	0.283502
2922	0.54538
2934	1.04459
2946	0.665613
2958	0.288516
2970	0.227616
2982	0.0939086
2994	0.0460664
3006	0.029353
3018	0.020474
3030	0.0153555
3042	0.0122217
3054	0.00929685
3066	0.00783442
3078	0.00658092
3090	0.0058497
3102	0.00470065
3114	0.00449174
3126	0.00365607
3138	0.00355161
3150	0.00323823
3162	0.00292485
3174	0.00271593
3186	0.00240256
3198	0.00250702
3210	0.00208918
3222	0.0017758
3234	0.00114905
3246	0.0017758
3258	0.0022981
3270	0.00344715
3282	0.00595416
3294	0.011386
3306	0.0295619
3318	0.0353071
3330	0.109055
3342	0.0263237
3354	0.0128485
3366	0.00741659
3378	0.00365607
3390	0.00198472
3402	0.00219364
3414	0.00198472
3426	0.00156689
3438	0.0022981
3450	0.00188026
3462	0.00188026
3474	0.00167134
3486	0.00219364
3498	0.00219364
3510	0.00250702
3522	0.00114905
3534	0.00219364
3546	0.000731213
3558	0.00114905
3570	0.0017758
3582	0.00198472
3594	0.0017758
3606	0.00219364
3618	0.00261147
3630	0.00302931
3642	0.00313377
3654	0.00323823
3666	0.00198472
3678	0.00355161
3690	0.00302931
3702	0.00344715
3714	0.00365607
3726	0.00334269
3738	0.00365607
3750	0.00292485
3762	0.00334269
3774	0.00323823
3786	0.00292485
3798	0.00355161
3810	0.00219364
3822	0.00302931
3834	0.00323823
3846	0.00302931
3858	0.0017758
3870	0.00438728
3882	0.00323823
3894	0.00365607
3906	0.00501403
3918	0.00355161
3930	0.00334269
3942	0.00501403
3954	0.00334269
3966	0.0022981
