Infrared Spectrum: 1-Tridecyne
Formula: C 13 H 24
CAS: 26186-02-7
Origin: Sadtler Research Labs Under US-EPA Contract
1/CM	ABSORBANCE
450	0.0154131
462	0.000756472
474	0.00302589
486	0.00245853
498	0.00501163
510	0.0078484
522	0.00851031
534	0.00661913
546	0.00624089
558	0.00955046
570	0.00747016
582	0.00652457
594	0.00917222
606	0.0151294
618	0.0628817
630	0.300414
642	0.148363
654	0.0265711
666	0.0125763
678	0.00907766
690	0.00860487
702	0.00813207
714	0.0148458
726	0.0170206
738	0.0114416
750	0.00794296
762	0.00747016
774	0.00557898
786	0.00463339
798	0.00472795
810	0.00349868
822	0.00321501
834	0.0041606
846	0.00349868
858	0.00321501
870	0.00387692
882	0.00387692
894	0.00378236
906	0.00510619
918	0.00538986
930	0.00472795
942	0.00472795
954	0.00501163
966	0.00510619
978	0.00501163
990	0.00501163
1002	0.0057681
1014	0.00624089
1026	0.00756472
1038	0.00832119
1050	0.00879399
1062	0.00992869
1074	0.0108743
1086	0.0109688
1098	0.0108743
1110	0.0109688
1122	0.0109688
1134	0.0106852
1146	0.0104015
1158	0.00983414
1170	0.0104015
1182	0.00992869
1194	0.0089831
1206	0.00973958
1218	0.0117253
1230	0.0176825
1242	0.0532367
1254	0.0694063
1266	0.0239234
1278	0.0189118
1290	0.0168315
1302	0.0185336
1314	0.0196683
1326	0.0222214
1338	0.0246799
1350	0.0307317
1362	0.0294078
1374	0.0260037
1386	0.0234506
1398	0.0119144
1410	0.0101178
1422	0.0122927
1434	0.0270439
1446	0.0492652
1458	0.0704465
1470	0.0695009
1482	0.0254364
1494	0.0101178
1506	0.00624089
1518	0.00330956
1530	0.00245853
1542	0.00245853
1554	0.00189118
1566	0.0016075
1578	0.00198574
1590	0.00189118
1602	0.0016075
1614	0.00179662
1626	0.00179662
1638	0.00179662
1650	0.00179662
1662	0.00189118
1674	0.00293133
1686	0.00567354
1698	0.0133328
1710	0.012009
1722	0.00652457
1734	0.00624089
1746	0.00567354
1758	0.00709192
1770	0.00955046
1782	0.0113471
1794	0.00624089
1806	0.00453883
1818	0.00274221
1830	0.00104015
1842	0.000567354
1854	0.000378236
1866	0.000189118
1878	0.000378236
1890	0.000283677
1902	0.000283677
1914	0
1926	9.4559e-05
1938	0.000189118
1950	9.4559e-05
1962	9.4559e-05
1974	9.4559e-05
1986	0.000472795
1998	0.000472795
2010	0.000567354
2022	0.000756472
2034	0.00132383
2046	0.00151294
2058	0.00151294
2070	0.00132383
2082	0.00293133
2094	0.00520074
2106	0.00775384
2118	0.0147512
2130	0.0129546
2142	0.00264765
2154	0.00141839
2166	0.000851031
2178	0.000756472
2190	0.00104015
2202	0.00094559
2214	0.00113471
2226	0.000851031
2238	0.000756472
2250	0.000756472
2262	0.000472795
2274	0.00094559
2286	0.000472795
2298	0
2310	0.000189118
2322	0.00104015
2334	0.000567354
2346	0.000472795
2358	0.00198574
2370	0
2382	0
2394	0.000851031
2406	0.00094559
2418	0.000851031
2430	0.00094559
2442	0.00104015
2454	0.00094559
2466	0.00094559
2478	0.000851031
2490	0.00113471
2502	0.00141839
2514	0.00170206
2526	0.0020803
2538	0.00245853
2550	0.00236397
2562	0.00236397
2574	0.00293133
2586	0.00340412
2598	0.00330956
2610	0.00425516
2622	0.00434971
2634	0.00538986
2646	0.00624089
2658	0.00699737
2670	0.00813207
2682	0.00879399
2694	0.00964502
2706	0.00765928
2718	0.00690281
2730	0.0078484
2742	0.00917222
2754	0.00926678
2766	0.00936134
2778	0.0103069
2790	0.0132383
2802	0.0174934
2814	0.0225996
2826	0.0311099
2838	0.0481305
2850	0.117442
2862	0.354123
2874	0.305993
2886	0.192711
2898	0.1651
2910	0.267886
2922	0.513266
2934	0.94559
2946	0.717608
2958	0.341547
2970	0.30552
2982	0.116591
2994	0.0509673
3006	0.0312045
3018	0.0222214
3030	0.0170206
3042	0.0138056
3054	0.0107797
3066	0.00869943
3078	0.00765928
3090	0.00680825
3102	0.0057681
3114	0.00501163
3126	0.00434971
3138	0.00406604
3150	0.00406604
3162	0.00359324
3174	0.00349868
3186	0.00312045
3198	0.00293133
3210	0.00293133
3222	0.00217486
3234	0.00179662
3246	0.00217486
3258	0.00274221
3270	0.00406604
3282	0.00718648
3294	0.0132383
3306	0.0385801
3318	0.0496435
3330	0.159805
3342	0.0337576
3354	0.0171152
3366	0.00964502
3378	0.00321501
3390	0.00226942
3402	0.00217486
3414	0.00141839
3426	0.0016075
3438	0.00141839
3450	0.00122927
3462	0.0016075
3474	0.00141839
3486	0.00104015
3498	0.00104015
3510	0.00113471
3522	0.000661913
3534	0.000661913
3546	0
3558	0.00132383
3570	0.00293133
3582	0.00510619
3594	0.00179662
3606	0.00198574
3618	0.0020803
3630	0.00217486
3642	0.00236397
3654	0.00330956
3666	0.00349868
3678	0.00293133
3690	0.00236397
3702	0.00255309
3714	0.00255309
3726	0.00141839
3738	0.00236397
3750	0.00141839
3762	0.00217486
3774	0.00226942
3786	0.00283677
3798	0.0020803
3810	0.00245853
3822	0.00217486
3834	0.0016075
3846	0.00198574
3858	0.00274221
3870	0.00141839
3882	0.00151294
3894	0.00198574
3906	0.00236397
3918	0.00321501
3930	0.00349868
3942	0.0041606
3954	0.00283677
3966	0.00236397
