Infrared Spectrum: Butanoic acid, 3-bromo-
Formula: C 4 H 7 Br O 2
CAS: 2623-86-1
Origin: Sadtler Research Labs Under US-EPA Contract
1/CM	ABSORBANCE
450	0.042923
462	0.0339727
474	0.0301231
486	0.0283908
498	0.0431155
510	0.0639996
522	0.0872897
534	0.116835
546	0.15947
558	0.217791
570	0.309219
582	0.263986
594	0.108462
606	0.126844
618	0.150519
630	0.176793
642	0.1459
654	0.105575
666	0.0710251
678	0.0706402
690	0.0647695
702	0.0526433
714	0.0393622
726	0.0328178
738	0.0118375
750	0.0156871
762	0.00895032
774	0.00827664
786	0.00837288
798	0.0115488
810	0.012415
822	0.0213653
834	0.0266585
846	0.0257923
858	0.0329141
870	0.0337802
882	0.0368599
894	0.0311818
906	0.0358013
918	0.0327216
930	0.0392659
942	0.0414794
954	0.0680417
966	0.0956626
978	0.0762221
990	0.0556267
1002	0.0771845
1014	0.098646
1026	0.0559154
1038	0.0609199
1050	0.0940265
1062	0.152925
1074	0.214423
1086	0.258597
1098	0.343192
1110	0.396701
1122	0.456274
1134	0.624213
1146	0.598035
1158	0.417393
1170	0.287469
1182	0.259848
1194	0.229725
1206	0.18276
1218	0.14051
1230	0.132619
1242	0.134255
1254	0.142339
1266	0.120974
1278	0.10009
1290	0.110195
1302	0.122032
1314	0.111253
1326	0.110484
1338	0.129058
1350	0.160817
1362	0.186224
1374	0.229917
1386	0.224432
1398	0.130309
1410	0.0782431
1422	0.0755484
1434	0.0760296
1446	0.0799754
1458	0.0668868
1470	0.0530282
1482	0.0296419
1494	0.0202104
1506	0.0161683
1518	0.0154946
1530	0.0173232
1542	0.00086616
1554	0.0156871
1566	0.0142435
1578	0.00779544
1590	0.0135698
1602	0.0156871
1614	0.0184781
1626	0.0207878
1638	0.0254074
1650	0.0606312
1662	0.0873859
1674	0.0780506
1686	0.0257923
1698	0.0333953
1710	0.0595726
1722	0.101437
1734	0.186609
1746	0.372641
1758	0.637301
1770	0.858461
1782	0.925636
1794	0.59178
1806	0.243872
1818	0.109425
1830	0.060535
1842	0.0419606
1854	0.0358013
1866	0.0311818
1878	0.0239638
1890	0.0165533
1902	0.014821
1914	0.0111638
1926	0.0121262
1938	0.0117413
1950	0.0126074
1962	0.0104902
1974	0.0111638
1986	0.0107789
1998	0.0115488
2010	0.0107789
2022	0.0106826
2034	0.0101052
2046	0.00991272
2058	0.00875784
2070	0.00779544
2082	0.00712176
2094	0.00712176
2106	0.007218
2118	0.00712176
2130	0.00644808
2142	0.0062556
2154	0.0076992
2166	0.00712176
2178	0.00741048
2190	0.00750672
2202	0.0091428
2214	0.00875784
2226	0.010009
2238	0.00808416
2250	0.00943152
2262	0.0076992
2274	0.00837288
2286	0.00885408
2298	0.0138586
2310	0.0185743
2322	0.0193442
2334	0.011645
2346	0.0146285
2358	0.0250224
2370	0.00991272
2382	0.00789168
2394	0.00596688
2406	0.004812
2418	0.00471576
2430	0.00442704
2442	0.00413832
2454	0.0052932
2466	0.00500448
2478	0.00471576
2490	0.0043308
2502	0.00567816
2514	0.00413832
2526	0.00615936
2538	0.00375336
2550	0.00413832
2562	0.00269472
2574	0.00519696
2586	0.00221352
2598	0.00250224
2610	0.00153984
2622	0.00356088
2634	0.0014436
2646	0.00173232
2658	0.00105864
2670	0.00221352
2682	0.00259848
2694	0.00298344
2706	0.00202104
2718	0.0028872
2730	0.00356088
2742	0.00452328
2754	0.00346464
2766	0.00259848
2778	0.00153984
2790	0.002406
2802	0.00230976
2814	0.00202104
2826	0.00452328
2838	0.0062556
2850	0.00798792
2862	0.0131849
2874	0.026851
2886	0.030893
2898	0.0281021
2910	0.0327216
2922	0.0571666
2934	0.0737198
2946	0.066983
2958	0.0494674
2970	0.0620748
2982	0.0761258
2994	0.0975874
3006	0.065347
3018	0.0328178
3030	0.0160721
3042	0.0169382
3054	0.0154946
3066	0.0160721
3078	0.0145322
3090	0.0122225
3102	0.0106826
3114	0.00895032
3126	0.00904656
3138	0.0086616
3150	0.0102014
3162	0.00789168
3174	0.00741048
3186	0.00587064
3198	0.0109714
3210	0.00827664
3222	0.00798792
3234	0.0067368
3246	0.00991272
3258	0.00885408
3270	0.009624
3282	0.00538944
3294	0.0081804
3306	0.00760296
3318	0.00789168
3330	0.00327216
3342	0.00567816
3354	0.00490824
3366	0.00750672
3378	0.0062556
3390	0.00538944
3402	0.0057744
3414	0.0091428
3426	0.00895032
3438	0.00789168
3450	0.00750672
3462	0.00856536
3474	0.0105864
3486	0.0114526
3498	0.0117413
3510	0.0138586
3522	0.0160721
3534	0.016842
3546	0.0230976
3558	0.0527395
3570	0.322596
3582	0.366674
3594	0.151963
3606	0.0418644
3618	0.0178044
3630	0.00567816
3642	0.0111638
3654	0.0062556
3666	0.0086616
3678	0.00086616
3690	0.002406
3702	0.00548568
3714	0.00375336
3726	0.007218
3738	0.00346464
3750	0.00057744
3762	0.00442704
3774	0.00654432
3786	0.00702552
3798	0.00423456
3810	0.00423456
3822	0.00057744
3834	0.00307968
3846	0.00250224
3858	0.0009624
3870	0.00173232
3882	0.00269472
3894	0.00356088
3906	0.00346464
3918	0.00644808
3930	0.00827664
3942	0.00827664
3954	0
3966	0.00057744
