Infrared Spectrum: 2-Bromoheptanoic acid
Formula: C 7 H 13 Br O 2
CAS: 2624-01-3
Origin: Sadtler Research Labs Under US-EPA Contract
1/CM	ABSORBANCE
450	0
462	0.00282789
474	0.00622136
486	0.0134796
498	0.0210206
510	0.0301642
522	0.0461889
534	0.0733366
546	0.1068
558	0.131591
570	0.113398
582	0.125747
594	0.137624
606	0.144128
618	0.150821
630	0.166751
642	0.160247
654	0.0923777
666	0.0768243
678	0.0486397
690	0.0230944
702	0.0186641
714	0.0253567
726	0.0443036
738	0.0409101
750	0.0296928
762	0.0256395
774	0.0192297
786	0.014328
798	0.0127255
810	0.012914
822	0.00914351
834	0.00697546
846	0.00914351
858	0.0115943
870	0.0139509
882	0.0141394
894	0.0117829
906	0.0118771
918	0.0101804
930	0.00782383
942	0.00782383
954	0.0117829
966	0.0183813
978	0.0234715
990	0.0239428
1002	0.0252625
1014	0.0294101
1026	0.0315781
1038	0.0348773
1050	0.0464717
1062	0.0610824
1074	0.0933204
1086	0.185038
1098	0.405614
1110	0.427483
1122	0.365363
1134	0.342646
1146	0.270158
1158	0.268084
1170	0.184755
1182	0.122542
1194	0.0969024
1206	0.100296
1218	0.0987876
1230	0.0887957
1242	0.0768243
1254	0.06523
1266	0.0675866
1278	0.0772014
1290	0.0868162
1302	0.0921892
1314	0.100673
1326	0.112927
1338	0.126218
1350	0.106706
1362	0.108685
1374	0.109816
1386	0.119525
1398	0.0730538
1410	0.0342175
1422	0.0270535
1434	0.0393077
1446	0.0564635
1458	0.0772014
1470	0.0757875
1482	0.030824
1494	0.0120657
1506	0.00904925
1518	0.00593857
1530	0.00499594
1542	0.00320494
1554	0.00339347
1566	0.00235658
1578	0.00339347
1590	0.00273363
1602	0.00282789
1614	0.00273363
1626	0.00358199
1638	0.0032992
1650	0.00527873
1662	0.00556152
1674	0.00565578
1686	0.00820088
1698	0.0131026
1710	0.0222461
1722	0.0494881
1734	0.0979393
1746	0.148558
1758	0.26224
1770	0.660689
1782	0.939331
1794	0.411929
1806	0.186546
1818	0.108968
1830	0.0535414
1842	0.0237543
1854	0.0138567
1866	0.00886072
1878	0.00650415
1890	0.00490168
1902	0.00443036
1914	0.00377052
1926	0.00348773
1938	0.00377052
1950	0.00311068
1962	0.00273363
1974	0.00292215
1986	0.00273363
1998	0.00273363
2010	0.00311068
2022	0.00292215
2034	0.00311068
2046	0.00245084
2058	0.00226231
2070	0.00226231
2082	0.001791
2094	0.00188526
2106	0.00188526
2118	0.00188526
2130	0.00207379
2142	0.00245084
2154	0.00245084
2166	0.00311068
2178	0.00320494
2190	0.00395905
2202	0.00424184
2214	0.00424184
2226	0.00414757
2238	0.00377052
2250	0.00320494
2262	0.00339347
2274	0.0032992
2286	0.00443036
2298	0.00584431
2310	0.00659841
2322	0.00499594
2334	0.00273363
2346	0.00631562
2358	0.00405331
2370	0.00443036
2382	0.00603283
2394	0.00452462
2406	0.00452462
2418	0.00424184
2430	0.00443036
2442	0.00461889
2454	0.00518447
2466	0.00490168
2478	0.00499594
2490	0.00499594
2502	0.00499594
2514	0.00452462
2526	0.00480741
2538	0.00471315
2550	0.00461889
2562	0.00518447
2574	0.0050902
2586	0.00499594
2598	0.0050902
2610	0.0050902
2622	0.00556152
2634	0.00603283
2646	0.00650415
2658	0.00725825
2670	0.00772957
2682	0.00857793
2694	0.00829514
2706	0.00820088
2718	0.00838941
2730	0.00952056
2742	0.0109345
2754	0.0113116
2766	0.0103689
2778	0.0112173
2790	0.0134796
2802	0.0170616
2814	0.0208321
2826	0.0261109
2838	0.0361027
2850	0.0657956
2862	0.156005
2874	0.221047
2886	0.199083
2898	0.139415
2910	0.171559
2922	0.275531
2934	0.451991
2946	0.450671
2958	0.34849
2970	0.466319
2982	0.21935
2994	0.0832342
3006	0.0531643
3018	0.0373281
3030	0.0297871
3042	0.0227174
3054	0.0183813
3066	0.0162132
3078	0.0153649
3090	0.0139509
3102	0.0121599
3114	0.0118771
3126	0.0105575
3138	0.0105575
3150	0.0102747
3162	0.00980335
3174	0.00933204
3186	0.00886072
3198	0.00857793
3210	0.00782383
3222	0.00744678
3234	0.00678694
3246	0.00631562
3258	0.00603283
3270	0.00584431
3282	0.00575004
3294	0.00518447
3306	0.00480741
3318	0.00480741
3330	0.00480741
3342	0.00499594
3354	0.00452462
3366	0.00414757
3378	0.00490168
3390	0.00395905
3402	0.00424184
3414	0.0043361
3426	0.00499594
3438	0.00480741
3450	0.00499594
3462	0.00527873
3474	0.00612709
3486	0.00980335
3498	0.0172501
3510	0.0212092
3522	0.0181928
3534	0.0203608
3546	0.0227174
3558	0.0324265
3570	0.2596
3582	0.441622
3594	0.0633447
3606	0.0144222
3618	0.0146108
3630	0.0149878
3642	0.00593857
3654	0.00904925
3666	0.00358199
3678	0.0100861
3690	0.0102747
3702	0.00565578
3714	0.00999188
3726	0.0102747
3738	0.0119714
3750	0.012537
3762	0.00527873
3774	0.00490168
3786	0.00499594
3798	0.00772957
3810	0.00565578
3822	0.00716399
3834	0.00669267
3846	0.00452462
3858	0.00857793
3870	0.00857793
3882	0.00970909
3894	0.00612709
3906	0.0106517
3918	0.00593857
3930	0.00669267
3942	0.00575004
3954	0.00480741
3966	0.00537299
