Infrared Spectrum: 5,6-Dimethyl-2,1,3-benzoselenadiazole
Formula: C 8 H 8 N 2 Se
CAS: 2626-34-8
Origin: Sadtler Research Labs Under US-EPA Contract
1/CM	ABSORBANCE
450	0
462	0.0118253
474	0.0115035
486	0.0173759
498	0.0475424
510	0.0415091
522	0.0152844
534	0.00820529
546	0.00619419
558	0.0060333
570	0.0388545
582	0.0896951
594	0.0113426
606	0.0174563
618	0.0106991
630	0.00828573
642	0.00651596
654	0.00989461
666	0.00547019
678	0.00659641
690	0.0362802
702	0.133859
714	0.114472
726	0.0348323
738	0.191135
750	0.80444
762	0.135789
774	0.0310514
786	0.0248572
798	0.0185021
810	0.0198697
822	0.015043
834	0.0596894
846	0.251468
858	0.288472
870	0.102325
882	0.0278336
894	0.013595
906	0.0112622
918	0.0174563
930	0.0221221
942	0.0104577
954	0.0118253
966	0.0175368
978	0.0194674
990	0.036602
1002	0.204408
1014	0.196846
1026	0.084064
1038	0.0473011
1050	0.0231679
1062	0.0147213
1074	0.0101359
1086	0.00860751
1098	0.00852706
1110	0.0171346
1122	0.0302469
1134	0.0236505
1146	0.015043
1158	0.0143995
1170	0.0169737
1182	0.0148017
1194	0.0174563
1206	0.0166519
1218	0.0152844
1230	0.017215
1242	0.0182608
1254	0.0270292
1266	0.0798809
1278	0.358056
1290	0.415976
1302	0.0855924
1314	0.0232483
1326	0.023731
1338	0.0476228
1350	0.145362
1362	0.0711125
1374	0.0677338
1386	0.0795591
1398	0.0439224
1410	0.0518864
1422	0.0752956
1434	0.159199
1446	0.349931
1458	0.318156
1470	0.164347
1482	0.140536
1494	0.162658
1506	0.103934
1518	0.0414287
1530	0.0233288
1542	0.0252594
1554	0.0227657
1566	0.0199501
1578	0.0185021
1590	0.0196283
1602	0.0239723
1614	0.0288794
1626	0.0376478
1638	0.0290403
1650	0.0143995
1662	0.0123884
1674	0.0176977
1686	0.0143995
1698	0.0277532
1710	0.053093
1722	0.0536561
1734	0.0246963
1746	0.012147
1758	0.00973372
1770	0.00989461
1782	0.0109404
1794	0.0106991
1806	0.00820529
1818	0.0060333
1830	0.0053093
1842	0.00555064
1854	0.0060333
1866	0.00764218
1878	0.0108599
1890	0.0132733
1902	0.00884884
1914	0.00579197
1926	0.0047462
1938	0.00426353
1950	0.0040222
1962	0.00498753
1974	0.00659641
1986	0.00748129
1998	0.00788351
2010	0.00788351
2022	0.00659641
2034	0.00506797
2046	0.00563108
2058	0.00587241
2070	0.00571152
2082	0.00659641
2094	0.00627463
2106	0.00547019
2118	0.00498753
2130	0.00555064
2142	0.00611374
2154	0.00611374
2166	0.00611374
2178	0.00659641
2190	0.0102164
2202	0.0105382
2214	0.00579197
2226	0.00514842
2238	0.00522886
2250	0.00458531
2262	0.0040222
2274	0.00434398
2286	0.00482664
2298	0.00579197
2310	0.0053093
2322	0.00450486
2334	0.0040222
2346	0.00410264
2358	0.00579197
2370	0.0040222
2382	0.00651596
2394	0.0080444
2406	0.0080444
2418	0.00748129
2430	0.0067573
2442	0.00764218
2454	0.00844662
2466	0.00788351
2478	0.00796396
2490	0.00836618
2502	0.00965328
2514	0.00957284
2526	0.00780307
2538	0.00627463
2550	0.00707907
2562	0.00828573
2574	0.00788351
2586	0.00723996
2598	0.00683774
2610	0.00772262
2622	0.00925106
2634	0.0127906
2646	0.012147
2658	0.00917062
2670	0.00925106
2682	0.0107795
2694	0.0143995
2706	0.0143995
2718	0.0116644
2730	0.0149626
2742	0.0259834
2754	0.0231679
2766	0.0167324
2778	0.0210763
2790	0.0178586
2802	0.0191457
2814	0.0220417
2826	0.026627
2838	0.0342691
2850	0.0560695
2862	0.112782
2874	0.168048
2886	0.131285
2898	0.109082
2910	0.128147
2922	0.271016
2934	0.433754
2946	0.286542
2958	0.283485
2970	0.245274
2982	0.289035
2994	0.229829
3006	0.0923497
3018	0.0670099
3030	0.0916257
3042	0.099831
3054	0.113909
3066	0.115196
3078	0.0514037
3090	0.0494731
3102	0.0457726
3114	0.0343496
3126	0.0285576
3138	0.0252594
3150	0.0206741
3162	0.0156866
3174	0.011423
3186	0.00957284
3198	0.00852706
3210	0.00772262
3222	0.00740085
3234	0.00756174
3246	0.00860751
3258	0.00949239
3270	0.00828573
3282	0.00683774
3294	0.00619419
3306	0.00506797
3318	0.00490708
3330	0.00571152
3342	0.0053093
3354	0.00547019
3366	0.00506797
3378	0.00458531
3390	0.00490708
3402	0.00498753
3414	0.00490708
3426	0.0047462
3438	0.00506797
3450	0.00579197
3462	0.00611374
3474	0.00571152
3486	0.00547019
3498	0.00563108
3510	0.00595286
3522	0.00571152
3534	0.00498753
3546	0.00538975
3558	0.00522886
3570	0.00627463
3582	0.00707907
3594	0.00563108
3606	0.00498753
3618	0.0053093
3630	0.00555064
3642	0.00547019
3654	0.00579197
3666	0.00466575
3678	0.00434398
3690	0.00514842
3702	0.0040222
3714	0.00490708
3726	0.00522886
3738	0.00410264
3750	0.00547019
3762	0.00490708
3774	0.00490708
3786	0.00522886
3798	0.00579197
3810	0.0067573
3822	0.0060333
3834	0.00458531
3846	0.00611374
3858	0.00571152
3870	0.00506797
3882	0.0060333
3894	0.00595286
3906	0.00579197
3918	0.00611374
3930	0.0073204
3942	0.00651596
3954	0.0053093
3966	0.00659641
