Infrared Spectrum: Ethanone, 2-bromo-1-(4-methoxyphenyl)-
Formula: C 9 H 9 Br O 2
CAS: 2632-13-5
Origin: Sadtler Research Labs Under US-EPA Contract
1/CM	ABSORBANCE
450	0
462	0.00581914
474	0.0120396
486	0.0204673
498	0.0286944
510	0.0385267
522	0.0564858
534	0.0555828
546	0.0531749
558	0.0667194
570	0.0904977
582	0.122302
594	0.157819
606	0.104544
618	0.0560845
630	0.0509676
642	0.0393294
654	0.0335102
666	0.0328079
678	0.041336
690	0.0402323
702	0.0334099
714	0.0265874
726	0.0255841
738	0.0273901
750	0.0264871
762	0.0338112
774	0.0299987
786	0.0339115
798	0.0640105
810	0.071435
822	0.0821703
834	0.143572
846	0.143572
858	0.0524726
870	0.0277914
882	0.0245808
894	0.0233769
906	0.0213703
918	0.02127
930	0.0221729
942	0.0317043
954	0.049262
966	0.0411353
978	0.0593954
990	0.0759498
1002	0.102437
1014	0.123205
1026	0.153204
1038	0.176982
1050	0.105748
1062	0.0460515
1074	0.0381254
1086	0.0347142
1098	0.040734
1110	0.0848792
1122	0.0781571
1134	0.0637096
1146	0.0682244
1158	0.12762
1170	0.551113
1182	0.371221
1194	0.128924
1206	0.117486
1218	0.111667
1230	0.171665
1242	0.418878
1254	0.935577
1266	0.74475
1278	0.421687
1290	0.302395
1302	0.279419
1314	0.238484
1326	0.123506
1338	0.069328
1350	0.070532
1362	0.0904977
1374	0.0500647
1386	0.0339115
1398	0.0416369
1410	0.0782574
1422	0.12451
1434	0.141265
1446	0.0850798
1458	0.0748462
1470	0.106651
1482	0.0638099
1494	0.069629
1506	0.240792
1518	0.19143
1530	0.0466534
1542	0.0400317
1554	0.051068
1566	0.0996277
1578	0.226545
1590	0.33139
1602	0.629571
1614	0.390785
1626	0.100932
1638	0.0439445
1650	0.040734
1662	0.0520713
1674	0.0823709
1686	0.271292
1698	0.481584
1710	0.239889
1722	0.0888924
1734	0.0338112
1746	0.0221729
1758	0.019163
1770	0.0158521
1782	0.0117386
1794	0.00842772
1806	0.00892937
1818	0.00742442
1830	0.00491617
1842	0.00511683
1854	0.00662178
1866	0.00682244
1878	0.00722376
1890	0.00862838
1902	0.00983234
1914	0.00933069
1926	0.0101333
1938	0.010936
1950	0.00913003
1962	0.00732409
1974	0.0080264
1986	0.00762508
1998	0.00642112
2010	0.00612013
2022	0.00662178
2034	0.00752475
2046	0.0108356
2058	0.0141465
2070	0.0141465
2082	0.0105346
2094	0.00692277
2106	0.00561848
2118	0.00451485
2130	0.00280924
2142	0.00130429
2154	0.00190627
2166	0.00260858
2178	0.00371221
2190	0.00391287
2202	0.00240792
2214	0.00170561
2226	0.00080264
2238	0.00040132
2250	0.00060198
2262	0.0010033
2274	0.00180594
2286	0.00381254
2298	0.00642112
2310	0.00712343
2322	0.00431419
2334	0.00311023
2346	0.00381254
2358	0.00371221
2370	0.00381254
2382	0.00481584
2394	0.00321056
2406	0.0040132
2418	0.00381254
2430	0.00431419
2442	0.00250825
2454	0.00240792
2466	0.00240792
2478	0.00280924
2490	0.00321056
2502	0.00411353
2514	0.00521716
2526	0.0060198
2538	0.00682244
2550	0.00943102
2562	0.0130429
2574	0.0118389
2586	0.00923036
2598	0.00712343
2610	0.00612013
2622	0.00571881
2634	0.00471551
2646	0.00371221
2658	0.00240792
2670	0.00180594
2682	0.00210693
2694	0.00250825
2706	0.00260858
2718	0.00230759
2730	0.00311023
2742	0.00321056
2754	0.00471551
2766	0.00511683
2778	0.00622046
2790	0.00581914
2802	0.00762508
2814	0.0101333
2826	0.0149492
2838	0.0316039
2850	0.0727392
2862	0.0345135
2874	0.0199657
2886	0.0196647
2898	0.0257848
2910	0.0405333
2922	0.0544792
2934	0.0556832
2946	0.0900963
2958	0.0933069
2970	0.0842772
2982	0.0563855
2994	0.039831
3006	0.059295
3018	0.0918019
3030	0.0327076
3042	0.0322059
3054	0.0322059
3066	0.0296977
3078	0.0357175
3090	0.0305003
3102	0.0256845
3114	0.0192634
3126	0.0128422
3138	0.00862838
3150	0.00812673
3162	0.00581914
3174	0.00481584
3186	0.00341122
3198	0.00260858
3210	0.00240792
3222	0.0020066
3234	0.00140462
3246	0.00120396
3258	0.00110363
3270	0.00130429
3282	0.00160528
3294	0.00170561
3306	0.00160528
3318	0.00150495
3330	0.00180594
3342	0.00150495
3354	0.00250825
3366	0.00612013
3378	0.00591947
3390	0.00461518
3402	0.00180594
3414	0.00180594
3426	0.00190627
3438	0.00170561
3450	0.00080264
3462	0.00040132
3474	0.00040132
3486	0.00030099
3498	0.00070231
3510	0.00110363
3522	0.00080264
3534	0.00150495
3546	0.00331089
3558	0.00240792
3570	0.00210693
3582	0.00240792
3594	0.00130429
3606	0.00160528
3618	0.00120396
3630	0.00090297
3642	0.0050165
3654	0.00531749
3666	0.00150495
3678	0.00240792
3690	0.0020066
3702	0.00190627
3714	0.00180594
3726	0.00130429
3738	0.00260858
3750	0.00070231
3762	0.00030099
3774	0.00080264
3786	0.00050165
3798	0.00030099
3810	0.00060198
3822	0.00030099
3834	0.0010033
3846	0.0010033
3858	0.00190627
3870	0.00230759
3882	0.00270891
3894	0.0010033
3906	0.00220726
3918	0.00290957
3930	0.00240792
3942	0.00521716
3954	0.00280924
3966	0.00210693
