Infrared Spectrum: Phenol, 2,6-diallyl-,
Formula: C 12 H 14 O
CAS: 26338-58-9
Origin: Sadtler Research Labs Under US-EPA Contract
1/CM	ABSORBANCE
450	0.0187018
462	0.0220447
474	0.0240323
486	0.0402948
498	0.050504
510	0.0494198
522	0.0615263
534	0.0423727
546	0.0569186
558	0.0526723
570	0.033067
582	0.0277365
594	0.0432762
606	0.0517688
618	0.0347836
630	0.0345126
642	0.0425534
654	0.0565572
666	0.0467997
678	0.0517688
690	0.0230385
702	0.00262006
714	0.000542082
726	0.0323442
738	0.290014
750	0.571987
762	0.152957
774	0.125944
786	0.127931
798	0.037765
810	0.0204184
822	0.0647788
834	0.155306
846	0.0723679
858	0.0302662
870	0.0579124
882	0.0905277
894	0.163257
906	0.447218
918	0.768943
930	0.400237
942	0.127841
954	0.0852876
966	0.111308
978	0.149163
990	0.344674
1002	0.376657
1014	0.076795
1026	0.0381264
1038	0.0352353
1050	0.0427341
1062	0.0899856
1074	0.157927
1086	0.128654
1098	0.127841
1110	0.124408
1122	0.0603518
1134	0.0381264
1146	0.0447218
1158	0.0875462
1170	0.190542
1182	0.433575
1194	0.717988
1206	0.7862
1218	0.434027
1230	0.211773
1242	0.22379
1254	0.490946
1266	0.463932
1278	0.185753
1290	0.162896
1302	0.182501
1314	0.204004
1326	0.250803
1338	0.114379
1350	0.0295435
1362	0.0187922
1374	0.0167142
1386	0.0223157
1398	0.0397527
1410	0.0980265
1422	0.143471
1434	0.32281
1446	0.394094
1458	0.695582
1470	0.805624
1482	0.204817
1494	0.105074
1506	0.103718
1518	0.0390299
1530	0.0173466
1542	0.0105706
1554	0.0111127
1566	0.0101189
1578	0.0253875
1590	0.0932381
1602	0.0955871
1614	0.0618877
1626	0.120613
1638	0.378915
1650	0.201655
1662	0.0497812
1674	0.0483356
1686	0.0268331
1698	0.0180694
1710	0.0125582
1722	0.0030718
1734	0.00505943
1746	0.00984782
1758	0.0124679
1770	0.0160818
1782	0.0149073
1794	0.0126486
1806	0.0143652
1818	0.0300856
1830	0.0570993
1842	0.0617973
1854	0.0513171
1866	0.024484
1878	0.00948643
1890	0.00641464
1902	0.0154493
1914	0.0254779
1926	0.00487874
1938	0.00207798
1950	0.00262006
1962	0.00171659
1974	0.00524013
1986	0.00623394
1998	0.00469804
2010	0.00316214
2022	0.0028911
2034	0.00108416
2046	0.0013552
2058	0.00108416
2070	0.00180694
2082	0.00117451
2094	0.00487874
2106	0.00406561
2118	0.00325249
2130	0.00144555
2142	0.0013552
2154	0.00216833
2166	0.000632429
2178	0.00406561
2190	0.00533047
2202	0.00496908
2214	0.00451735
2226	0.00252972
2238	0.00252972
2250	0.0015359
2262	0.00262006
2274	0.00216833
2286	0.00496908
2298	0.00822158
2310	0.00939609
2322	0.00840227
2334	0.00641464
2346	0.00487874
2358	0.00767949
2370	9.0347e-05
2382	0.00325249
2394	0.00758915
2406	0.00813123
2418	0.00686637
2430	0.00677602
2442	0.00632429
2454	0.00578221
2466	0.00578221
2478	0.00786019
2490	0.00867331
2502	0.00912505
2514	0.0112934
2526	0.0103899
2538	0.00767949
2550	0.00686637
2562	0.00514978
2574	0.00361388
2586	0.00262006
2598	0.00262006
2610	0.00415596
2622	0.00641464
2634	0.00713741
2646	0.0101189
2658	0.00731811
2670	0.0028911
2682	0.000722776
2694	0.00243937
2706	0.00397527
2718	0.004427
2730	0.0059629
2742	0.00569186
2754	0.00487874
2766	0.00343319
2778	0.00379457
2790	0.00496908
2802	0.0131907
2814	0.0216833
2826	0.039572
2838	0.0969423
2850	0.154403
2862	0.125131
2874	0.0860103
2886	0.104531
2898	0.181055
2910	0.28116
2922	0.34892
2934	0.278178
2946	0.153319
2958	0.10679
2970	0.110585
2982	0.231921
2994	0.231921
3006	0.198763
3018	0.3229
3030	0.259657
3042	0.25514
3054	0.254417
3066	0.331845
3078	0.368074
3090	0.518592
3102	0.188464
3114	0.0474322
3126	0.0217736
3138	0.0149073
3150	0.0111127
3162	0.00975748
3174	0.0111127
3186	0.0105706
3198	0.0074988
3210	0.00686637
3222	0.00641464
3234	0.00397527
3246	0.00225867
3258	0.00162625
3270	0.00424631
3282	0.00262006
3294	0.00334284
3306	0.00189729
3318	0.00334284
3330	0.0015359
3342	0.00397527
3354	0.00180694
3366	0.00298145
3378	0.00758915
3390	0.00496908
3402	0.00487874
3414	0.00731811
3426	0.00795054
3438	0.00939609
3450	0.0101189
3462	0.0120162
3474	0.0191536
3486	0.0233999
3498	0.0258392
3510	0.039843
3522	0.0685734
3534	0.0982975
3546	0.126486
3558	0.151964
3570	0.280889
3582	0.587165
3594	0.672272
3606	0.505763
3618	0.227313
3630	0.105074
3642	0.107513
3654	0.151331
3666	0.074988
3678	0.0241226
3690	0.0128293
3702	0.0112934
3714	0.00713741
3726	0.00867331
3738	0.0046077
3750	0.000361388
3762	9.0347e-05
3774	0.00451735
3786	0.00198763
3798	0.00388492
3810	0.00388492
3822	0.00325249
3834	0.00605325
3846	0.00722776
3858	0.00984782
3870	0.0116548
3882	0.0122872
3894	0.0124679
3906	0.0125582
3918	0.00813123
3930	0.00551117
3942	0.00984782
3954	0.0106609
3966	0.00569186
