Infrared Spectrum: Ethanone, 1-(3,4-dichlorophenyl)-
Formula: C 8 H 6 Cl 2 O
CAS: 2642-63-9
Origin: Sadtler Research Labs Under US-EPA Contract
1/CM	ABSORBANCE
450	0.00231564
462	0.00237658
474	0.0223642
486	0.0110298
498	0.007861
510	0.0362581
522	0.0508832
534	0.0453379
546	0.0327846
558	0.0280315
570	0.0349784
582	0.0120657
594	0.00115782
606	0.0268737
618	0.0655693
630	0.0216939
642	0.00853132
654	0.00652037
666	0.0213892
678	0.110907
690	0.0260205
702	0.0195002
714	0.0151126
726	0.00530161
738	0.00749537
750	0.00335159
762	0.00780006
774	0.00383909
786	0.0124923
798	0.0187689
810	0.0822663
822	0.151065
834	0.0976227
846	0.0129189
858	0.0133454
870	0.0227908
882	0.0398535
894	0.0301034
906	0.027544
918	0.0157829
930	0.0146861
942	0.023583
954	0.0686162
966	0.0615474
978	0.0236439
990	0.0170626
1002	0.0152345
1014	0.0216939
1026	0.107312
1038	0.171297
1050	0.0308956
1062	0.0231564
1074	0.0444238
1086	0.062888
1098	0.026508
1110	0.0301034
1122	0.0675802
1134	0.116148
1146	0.0678849
1158	0.0270565
1170	0.0180986
1182	0.018708
1194	0.0173064
1206	0.0273612
1218	0.0681287
1230	0.384092
1242	0.549661
1254	0.224496
1266	0.394025
1278	0.222485
1290	0.0343081
1302	0.0159048
1314	0.0159048
1326	0.0114563
1338	0.0181595
1350	0.0566114
1362	0.117001
1374	0.192138
1386	0.24814
1398	0.102437
1410	0.0397316
1422	0.0377816
1434	0.04223
1446	0.0390613
1458	0.0587442
1470	0.105545
1482	0.0391222
1494	0.0135892
1506	0.0114563
1518	0.0135892
1530	0.0193783
1542	0.0421082
1554	0.0911632
1566	0.0741006
1578	0.0930523
1590	0.106459
1602	0.04418
1614	0.0233393
1626	0.0204752
1638	0.0146861
1650	0.0132235
1662	0.0273612
1674	0.0404019
1686	0.0428394
1698	0.203289
1710	0.593292
1722	0.19817
1734	0.0397925
1746	0.0397925
1758	0.037355
1770	0.0138329
1782	0.00907976
1794	0.0109079
1806	0.00761725
1818	0.0056063
1830	0.00536254
1842	0.00402191
1854	0.00505785
1866	0.00652037
1878	0.00475316
1890	0.00822663
1902	0.00676412
1914	0.00408285
1926	0.00566723
1938	0.00517973
1950	0.0025594
1962	0.0030469
1974	0.00262033
1986	0.00262033
1998	0.00262033
2010	0.00213283
2022	0.00207189
2034	0.00219377
2046	0.00280315
2058	0.00280315
2070	0.00243752
2082	0.00249846
2094	0.00201095
2106	0.00158439
2118	0.00207189
2130	0.00103595
2142	0.00115782
2154	0.00219377
2166	0.00103595
2178	0.00237658
2190	0.00243752
2202	0.00195002
2214	0.00243752
2226	0.00195002
2238	0.00091407
2250	0.00195002
2262	0.00121876
2274	0.00134064
2286	0.00377816
2298	0.00195002
2310	0.00310784
2322	0.00457035
2334	0.00201095
2346	0.00420472
2358	0.00450941
2370	0.00524067
2382	0.00505785
2394	0.00207189
2406	0.00140157
2418	0.00225471
2430	0.00152345
2442	0.00140157
2454	0.0017672
2466	0.00140157
2478	0.00140157
2490	0.00225471
2502	0.00316878
2514	0.00371722
2526	0.0043266
2538	0.00639849
2550	0.00585005
2562	0.00268127
2574	0.00219377
2586	0.00115782
2598	0.00158439
2610	0.00219377
2622	0.000670318
2634	0.00213283
2646	0.00146251
2658	0.000670318
2670	0.00262033
2682	0.00164533
2694	0.000792194
2706	0.00286409
2718	0.000670318
2730	0.00164533
2742	0.00249846
2754	0.00060938
2766	0.00146251
2778	0.00219377
2790	0.000792194
2802	0.00262033
2814	0.00243752
2826	0.00170626
2838	0.00377816
2850	0.00329065
2862	0.00322971
2874	0.00365628
2886	0.00292502
2898	0.00359534
2910	0.00475316
2922	0.00694693
2934	0.0109079
2946	0.00907976
2958	0.00810475
2970	0.0121267
2982	0.0124923
2994	0.00926258
3006	0.0118829
3018	0.0254721
3030	0.0141986
3042	0.00548442
3054	0.00792194
3066	0.0148689
3078	0.0224861
3090	0.016697
3102	0.00987196
3114	0.00615474
3126	0.00639849
3138	0.00329065
3150	0.00365628
3162	0.00396097
3174	0.00115782
3186	0.00316878
3198	0.00237658
3210	0.000670318
3222	0.00310784
3234	0.00219377
3246	0.00188908
3258	0.00377816
3270	0.00182814
3282	0.00243752
3294	0.00329065
3306	0.00225471
3318	0.00347347
3330	0.00347347
3342	0.00207189
3354	0.00310784
3366	0.00341253
3378	0.00322971
3390	0.00816569
3402	0.0130407
3414	0.00682506
3426	0.00286409
3438	0.00341253
3450	0.00383909
3462	0.00243752
3474	0.00396097
3486	0.00408285
3498	0.00268127
3510	0.00487504
3522	0.00262033
3534	0.00286409
3546	0.00420472
3558	0.00195002
3570	0.00280315
3582	0.00335159
3594	0.000975008
3606	0.0030469
3618	0.0035344
3630	0.00091407
3642	0.00396097
3654	0.00359534
3666	0.0025594
3678	0.00499692
3690	0.00335159
3702	0.00377816
3714	0.00475316
3726	0.00335159
3738	0.00359534
3750	0.00383909
3762	0.00396097
3774	0.00499692
3786	0.00426566
3798	0.00316878
3810	0.00463129
3822	0.00420472
3834	0.00420472
3846	0.00457035
3858	0.0048141
3870	0.0048141
3882	0.00450941
3894	0.00597192
3906	0.00645943
3918	0.00450941
3930	0.00743444
3942	0.00621568
3954	0.00103595
3966	0.0012797
