Infrared Spectrum: Pyridine, 4,4'-dithiobis-
Formula: C 10 H 8 N 2 S 2
CAS: 2645-22-9
Origin: Sadtler Research Labs Under US-EPA Contract
1/CM	ABSORBANCE
450	0
462	0.027672
474	0.0429156
486	0.0709996
498	0.0513614
510	0.0339205
522	0.0471042
534	0.0567173
546	0.0376284
558	0.0197755
570	0.0166856
582	0.0154496
594	0.0142137
606	0.0126344
618	0.0132523
630	0.0142823
642	0.0144883
654	0.015587
666	0.0192262
678	0.0292513
690	0.0621418
702	0.106637
714	0.109933
726	0.0301439
738	0.0188829
750	0.0199815
762	0.0204622
774	0.0263674
786	0.0569919
798	0.143029
810	0.123666
822	0.0694203
834	0.0331652
846	0.0245134
858	0.0160676
870	0.015175
882	0.015381
894	0.0166856
906	0.0166856
918	0.0165483
930	0.0169603
942	0.0164109
954	0.0166856
966	0.0170976
978	0.0234148
990	0.0298006
1002	0.0181962
1014	0.0128404
1026	0.012085
1038	0.0114671
1050	0.0115357
1062	0.0375598
1074	0.041405
1086	0.0245134
1098	0.0321352
1110	0.0263674
1122	0.026642
1134	0.02623
1146	0.0242387
1158	0.0232774
1170	0.0239641
1182	0.0246507
1194	0.025612
1206	0.0330279
1218	0.0497821
1230	0.0297319
1242	0.0219041
1254	0.0214921
1266	0.0206682
1278	0.0212861
1290	0.0229341
1302	0.0243074
1314	0.0335772
1326	0.0325472
1338	0.0390704
1350	0.0365984
1362	0.0368044
1374	0.0462802
1386	0.0534214
1398	0.0933157
1410	0.096955
1422	0.0463489
1434	0.0305559
1446	0.0262987
1458	0.0361865
1470	0.082604
1482	0.105744
1494	0.0461429
1506	0.0363924
1518	0.0392764
1530	0.0550007
1542	0.108697
1554	0.224191
1566	0.68665
1578	0.234079
1590	0.0823293
1602	0.0510181
1614	0.0344012
1626	0.0265047
1638	0.0251314
1650	0.0275347
1662	0.0232088
1674	0.0265047
1686	0.0219041
1698	0.0193635
1710	0.015175
1722	0.0156556
1734	0.0191575
1746	0.0161363
1758	0.0166856
1770	0.0181962
1782	0.0161363
1794	0.0168229
1806	0.0152436
1818	0.015175
1830	0.0179902
1842	0.0160676
1854	0.0133897
1866	0.012703
1878	0.011673
1890	0.0131837
1902	0.0146256
1914	0.0192949
1926	0.0227968
1938	0.0188142
1950	0.0144196
1962	0.012703
1974	0.0116044
1986	0.0114671
1998	0.0115357
2010	0.0116044
2022	0.0133897
2034	0.015381
2046	0.0183336
2058	0.0166856
2070	0.0209428
2082	0.0159303
2094	0.0111924
2106	0.0109864
2118	0.0109177
2130	0.0111237
2142	0.0117417
2154	0.0114671
2166	0.011879
2178	0.012085
2190	0.0115357
2202	0.0114671
2214	0.0110551
2226	0.0106431
2238	0.0107117
2250	0.0109864
2262	0.0113297
2274	0.0124284
2286	0.0146256
2298	0.0164796
2310	0.0175782
2322	0.0162049
2334	0.013733
2346	0.0148316
2358	0.014969
2370	0.0142823
2382	0.0162736
2394	0.0138017
2406	0.0159303
2418	0.0175096
2430	0.0142823
2442	0.012497
2454	0.0113984
2466	0.0115357
2478	0.011879
2490	0.011673
2502	0.0116044
2514	0.0121537
2526	0.0118104
2538	0.0115357
2550	0.0118104
2562	0.011879
2574	0.0115357
2586	0.0118104
2598	0.0119477
2610	0.0123597
2622	0.013115
2634	0.0144196
2646	0.0127717
2658	0.0126344
2670	0.0126344
2682	0.0123597
2694	0.0119477
2706	0.011673
2718	0.011879
2730	0.011673
2742	0.0118104
2754	0.0116044
2766	0.011879
2778	0.0115357
2790	0.0113984
2802	0.0117417
2814	0.011879
2826	0.0121537
2838	0.0122224
2850	0.013527
2862	0.013939
2874	0.014351
2886	0.0131837
2898	0.0127717
2910	0.0128404
2922	0.013321
2934	0.014763
2946	0.0205995
2958	0.0217668
2970	0.0182649
2982	0.0173036
2994	0.0211488
3006	0.0347445
3018	0.0450442
3030	0.0548633
3042	0.080544
3054	0.0951697
3066	0.0843206
3078	0.0818487
3090	0.0436709
3102	0.0206682
3114	0.0153123
3126	0.0129777
3138	0.0127717
3150	0.011879
3162	0.0118104
3174	0.0114671
3186	0.0117417
3198	0.0118104
3210	0.0115357
3222	0.0112611
3234	0.0115357
3246	0.0113297
3258	0.011673
3270	0.0115357
3282	0.0117417
3294	0.0116044
3306	0.0113297
3318	0.0115357
3330	0.0111924
3342	0.0113297
3354	0.0111924
3366	0.0112611
3378	0.0109864
3390	0.0111924
3402	0.0110551
3414	0.0115357
3426	0.0114671
3438	0.0113297
3450	0.0108491
3462	0.0113984
3474	0.0113297
3486	0.0107804
3498	0.0109864
3510	0.0118104
3522	0.0112611
3534	0.0108491
3546	0.012085
3558	0.0107804
3570	0.0130463
3582	0.012085
3594	0.0114671
3606	0.0109177
3618	0.0123597
3630	0.0170976
3642	0.015793
3654	0.0167543
3666	0.0119477
3678	0.0128404
3690	0.0119477
3702	0.012291
3714	0.012085
3726	0.012703
3738	0.0132523
3750	0.0123597
3762	0.0113297
3774	0.0117417
3786	0.0113984
3798	0.0116044
3810	0.0106431
3822	0.0124284
3834	0.0113297
3846	0.0112611
3858	0.0112611
3870	0.0130463
3882	0.0113984
3894	0.0126344
3906	0.0123597
3918	0.0106431
3930	0.013115
3942	0.011673
3954	0.0108491
3966	0.0106431
