Infrared Spectrum: Ethanol, 2-[(1-methylheptyl)amino]-
Formula: C 10 H 23 N O
CAS: 26535-68-2
Origin: Sadtler Research Labs Under US-EPA Contract
1/CM	ABSORBANCE
450	0
462	0.0334016
474	0.00912172
486	0.0249506
498	0.0101949
510	0.00751201
522	0.0205239
534	0.0175727
546	0.020658
558	0.0136826
570	0.0158289
582	0.0205239
594	0.0142192
606	0.0156947
618	0.012207
630	0.0274993
642	0.0261579
654	0.03756
666	0.0458769
678	0.0525841
690	0.0709616
702	0.0783395
714	0.0874612
726	0.0894734
738	0.0689495
750	0.0582181
762	0.0399746
774	0.0303163
786	0.0232067
798	0.0211946
810	0.016902
822	0.0199873
834	0.0195849
846	0.0224019
858	0.0307187
870	0.0445355
882	0.0566083
894	0.0462793
906	0.0397063
918	0.032865
930	0.0293773
942	0.032865
954	0.0283042
966	0.0311212
978	0.0334016
990	0.0456086
1002	0.0548645
1014	0.0768639
1026	0.128241
1038	0.202422
1050	0.285322
1062	0.312419
1074	0.209263
1086	0.126497
1098	0.107046
1110	0.126631
1122	0.11818
1134	0.115229
1146	0.147021
1158	0.162045
1170	0.112144
1182	0.0829004
1194	0.0847784
1206	0.0857174
1218	0.0810224
1230	0.0806199
1242	0.0665349
1254	0.0576815
1266	0.0556693
1278	0.0547303
1290	0.0551328
1302	0.0641204
1314	0.0771322
1326	0.10329
1338	0.135619
1350	0.130387
1362	0.136155
1374	0.175996
1386	0.172508
1398	0.131594
1410	0.115229
1422	0.0866564
1434	0.102485
1446	0.154533
1458	0.218921
1470	0.232336
1482	0.124619
1494	0.0541938
1506	0.0352796
1518	0.0222677
1530	0.0160972
1542	0.0123412
1554	0.0116704
1566	0.0120729
1578	0.0107314
1590	0.0119387
1602	0.0107314
1614	0.0127436
1626	0.0191824
1638	0.0194507
1650	0.0170362
1662	0.0233409
1674	0.025353
1686	0.0257555
1698	0.0261579
1710	0.019719
1722	0.0191824
1734	0.0160972
1746	0.0164996
1758	0.00831687
1770	0.00831687
1782	0.00912172
1794	0.0108656
1806	0.00898758
1818	0.00912172
1830	0.00818272
1842	0.00818272
1854	0.00804858
1866	0.00885344
1878	0.00778029
1890	0.00710958
1902	0.00670715
1914	0.00804858
1926	0.00778029
1938	0.00845101
1950	0.00764615
1962	0.00737786
1974	0.00670715
1986	0.00670715
1998	0.00697544
2010	0.00657301
2022	0.00751201
2034	0.00737786
2046	0.00737786
2058	0.00791444
2070	0.00657301
2082	0.00657301
2094	0.00724372
2106	0.00657301
2118	0.00724372
2130	0.00684129
2142	0.00710958
2154	0.00617058
2166	0.00710958
2178	0.00697544
2190	0.00684129
2202	0.00697544
2214	0.00670715
2226	0.00737786
2238	0.00657301
2250	0.00724372
2262	0.00737786
2274	0.00751201
2286	0.00791444
2298	0.00804858
2310	0.00898758
2322	0.00791444
2334	0.00992658
2346	0.00979244
2358	0.0101949
2370	0.0105973
2382	0.00898758
2394	0.0087193
2406	0.00858515
2418	0.00952415
2430	0.00925587
2442	0.00898758
2454	0.00925587
2466	0.00845101
2478	0.00939001
2490	0.00912172
2502	0.00992658
2514	0.0107314
2526	0.0111339
2538	0.0128777
2550	0.0124753
2562	0.0147557
2574	0.015963
2586	0.017841
2598	0.0199873
2610	0.0213287
2622	0.0232067
2634	0.0242799
2646	0.0269627
2658	0.0299139
2670	0.0329992
2682	0.0350113
2694	0.0362186
2706	0.0380966
2718	0.0406453
2730	0.044133
2742	0.0468159
2754	0.0490963
2766	0.0570108
2778	0.0709616
2790	0.0964488
2802	0.124351
2814	0.159764
2826	0.205105
2838	0.256347
2850	0.365674
2862	0.564071
2874	0.559108
2886	0.512695
2898	0.469903
2910	0.598144
2922	0.907343
2934	1.34143
2946	1.03961
2958	0.747311
2970	0.92116
2982	0.45622
2994	0.161106
3006	0.0849125
3018	0.0583522
3030	0.0438648
3042	0.0343406
3054	0.0287066
3066	0.024414
3078	0.0236092
3090	0.0209263
3102	0.0202556
3114	0.017841
3126	0.0177069
3138	0.0162313
3150	0.0156947
3162	0.015963
3174	0.0151582
3186	0.0155606
3198	0.0148899
3210	0.0136826
3222	0.0115363
3234	0.00925587
3246	0.00898758
3258	0.00657301
3270	0.00710958
3282	0.00845101
3294	0.00630472
3306	0.00751201
3318	0.00670715
3330	0.00831687
3342	0.00885344
3354	0.00898758
3366	0.00858515
3378	0.00885344
3390	0.00858515
3402	0.00858515
3414	0.00858515
3426	0.00778029
3438	0.00925587
3450	0.00925587
3462	0.00979244
3474	0.0100607
3486	0.00925587
3498	0.0111339
3510	0.0115363
3522	0.0164996
3534	0.0252189
3546	0.0344748
3558	0.0476208
3570	0.0435965
3582	0.0284383
3594	0.0203897
3606	0.0151582
3618	0.0132802
3630	0.0114022
3642	0.0203897
3654	0.0265603
3666	0.0334016
3678	0.0332675
3690	0.0201215
3702	0.0143533
3714	0.00912172
3726	0.0101949
3738	0.00737786
3750	0.00697544
3762	0.00791444
3774	0.00670715
3786	0.00751201
3798	0.00603644
3810	0.0087193
3822	0.00603644
3834	0.00710958
3846	0.00643886
3858	0.00751201
3870	0.00791444
3882	0.00617058
3894	0.00670715
3906	0.00603644
3918	0.00818272
3930	0.010329
3942	0.00617058
3954	0.00979244
3966	0.00818272
