Infrared Spectrum: Pyrimidine, 2-(p-chlorophenylthio)-,
Formula: C 10 H 7 Cl N 2 S
CAS: 26547-31-9
Origin: Sadtler Research Labs Under US-EPA Contract
1/CM	ABSORBANCE
450	0.0104398
462	0.00842301
474	0.00984662
486	0.0117448
498	0.0295399
510	0.0627574
522	0.0296585
534	0.00866028
546	0.00818575
558	0.0156597
570	0.00462673
582	0.00308448
594	0.0105584
606	0.0052199
618	0.00866028
630	0.0474536
642	0.00474536
654	0.00272858
666	0.00332175
678	0.00201678
690	0.00355902
702	0.00616897
714	0.0059317
726	0.0118634
738	0.0743835
750	0.135124
762	0.0501822
774	0.0686891
786	0.0683332
798	0.084586
810	0.0829252
822	0.173087
834	0.042471
846	0.0138802
858	0.00605033
870	0.00189814
882	0
894	0.000949072
906	0.00260995
918	0.00699941
930	0.00616897
942	0.00581307
954	0.00296585
966	0.00201678
978	0.0163715
990	0.00462673
1002	0.00711804
1014	0.214609
1026	0.0221846
1038	0.00260995
1050	0.00533853
1062	0.0109143
1074	0.0382001
1086	0.159563
1098	0.320905
1110	0.0813829
1122	0.0288281
1134	0.0224218
1146	0.0232523
1158	0.042471
1170	0.124328
1182	0.340361
1194	0.273333
1206	0.305483
1218	0.0661978
1230	0.0199305
1242	0.019456
1254	0.0270486
1266	0.0143547
1278	0.0052199
1290	0.0059317
1302	0.00569443
1314	0.00806711
1326	0.0104398
1338	0.0191001
1350	0.0290653
1362	0.0811457
1374	0.416168
1386	1.18634
1398	0.253165
1410	0.054453
1422	0.0345225
1434	0.0403356
1446	0.042471
1458	0.0384374
1470	0.106415
1482	0.275705
1494	0.0339293
1506	0.0368952
1518	0.0435387
1530	0.071299
1542	0.24842
1554	0.448555
1566	0.692111
1578	0.225761
1590	0.0597915
1602	0.0239641
1614	0.0188628
1626	0.023015
1638	0.0223032
1650	0.0187442
1662	0.00830438
1674	0.0104398
1686	0.0111516
1698	0.013287
1710	0.00652487
1722	0.00984662
1734	0.0162529
1746	0.00901618
1758	0.0104398
1770	0.015897
1782	0.00640624
1794	0.00450809
1806	0.00154224
1818	0.00166088
1830	0.0059317
1842	0.00344039
1854	0.00059317
1866	0.00308448
1878	0.00415219
1890	0.0126938
1902	0.00735531
1914	0.00367765
1926	0.00379629
1938	0.00616897
1950	0.0118634
1962	0.00711804
1974	0.00142361
1986	0.000355902
1998	0.00059317
2010	0.000355902
2022	0.00059317
2034	0
2046	0.00118634
2058	0.000474536
2070	0.000237268
2082	0
2094	0.000355902
2106	0.00059317
2118	0.00142361
2130	0.00355902
2142	0.00237268
2154	0.00201678
2166	0.00130497
2178	0.00118634
2190	0.000949072
2202	0.00166088
2214	0.00166088
2226	0.00272858
2238	0.00367765
2250	0.00249131
2262	0.00260995
2274	0.00415219
2286	0.00498263
2298	0.00296585
2310	0.00355902
2322	0.00355902
2334	0.00201678
2346	0.00284722
2358	0.00355902
2370	0.00296585
2382	0.00260995
2394	0.00237268
2406	0.00332175
2418	0.00296585
2430	0.00213541
2442	0.00142361
2454	0.00391492
2466	0.00142361
2478	0.000474536
2490	0.000711804
2502	0.000949072
2514	0.00177951
2526	0.00284722
2538	0.00355902
2550	0.00344039
2562	0.00367765
2574	0.00367765
2586	0.00272858
2598	0.00225405
2610	0.00189814
2622	0.00225405
2634	0.00189814
2646	0.00142361
2658	0.00213541
2670	0.00225405
2682	0.00154224
2694	0.00154224
2706	0.00142361
2718	0.000949072
2730	0.000355902
2742	0.00106771
2754	0.000237268
2766	0.000118634
2778	0
2790	0.00059317
2802	0.00177951
2814	0.00166088
2826	0.00059317
2838	0.000474536
2850	0.00059317
2862	0.000474536
2874	0.000355902
2886	0.000474536
2898	0.000711804
2910	0.00201678
2922	0.00498263
2934	0.00866028
2946	0.00699941
2958	0.00605033
2970	0.00960935
2982	0.00569443
2994	0.00355902
3006	0.00498263
3018	0.0102025
3030	0.0323871
3042	0.108194
3054	0.0567071
3066	0.0242013
3078	0.0257436
3090	0.0336921
3102	0.0234895
3114	0.0263367
3126	0.015897
3138	0.0106771
3150	0.00355902
3162	0.00166088
3174	0.00130497
3186	0.000949072
3198	0.000949072
3210	0.00142361
3222	0.000830438
3234	0.00059317
3246	0.000949072
3258	0.000237268
3270	0.000830438
3282	0.000474536
3294	0.000355902
3306	0.00059317
3318	0.000949072
3330	0.00059317
3342	0.000949072
3354	0.000711804
3366	0.000949072
3378	0.000830438
3390	0.00059317
3402	0.000474536
3414	0.00106771
3426	0.00059317
3438	0.000711804
3450	0.000355902
3462	0.00106771
3474	0.000949072
3486	0.00059317
3498	0.000474536
3510	0.00106771
3522	0.000474536
3534	0.000474536
3546	0.000830438
3558	0.00059317
3570	0.000355902
3582	0.000711804
3594	0.00106771
3606	0.000830438
3618	0.000949072
3630	0.000474536
3642	0.00118634
3654	0.00130497
3666	0.00118634
3678	0.00106771
3690	0.00154224
3702	0.00130497
3714	0.00166088
3726	0.00142361
3738	0.000355902
3750	0.00106771
3762	0.000711804
3774	0.000830438
3786	0.00130497
3798	0.000830438
3810	0.00166088
3822	0.00142361
3834	0.00308448
3846	0.00177951
3858	0.00118634
3870	0.00106771
3882	0.000830438
3894	0.000474536
3906	0.00177951
3918	0.000830438
3930	0
3942	0.000118634
3954	0.000118634
3966	0.00118634
