Infrared Spectrum: Hexadecane, 1-(5,6,7,8-tetrahydro-2-naphthyl)-,
Formula: C 26 H 44
CAS: 2655-96-1
Origin: Sadtler Research Labs Under US-EPA Contract
1/CM	ABSORBANCE
450	0.00215805
462	0.00585164
474	0.00315408
486	0.0042331
498	0.0039426
510	0.00195055
522	0.00116203
534	0.00145254
546	0.00298807
558	0.00373509
570	0.00211655
582	0.00319558
594	0.00361059
606	0.00294657
618	0.00273907
630	0.00244856
642	0.00174304
654	0.00161854
666	0.00240706
678	0.00273907
690	0.00510462
702	0.00738718
714	0.0100017
726	0.0101677
738	0.00867371
750	0.00659866
762	0.00680616
774	0.00630815
786	0.00610065
798	0.0108733
810	0.0157704
822	0.0153139
834	0.0102092
846	0.00709667
858	0.00576864
870	0.00622515
882	0.0083417
894	0.00610065
906	0.0082587
918	0.00751168
930	0.00510462
942	0.00605915
954	0.00493862
966	0.00477262
978	0.0042331
990	0.00510462
1002	0.00365209
1014	0.00249006
1026	0.00244856
1038	0.00244856
1050	0.00294657
1062	0.00381809
1074	0.00365209
1086	0.00332008
1098	0.00365209
1110	0.00452361
1122	0.00576864
1134	0.00626665
1146	0.00610065
1158	0.00589314
1170	0.00510462
1182	0.00510462
1194	0.00556113
1206	0.00664016
1218	0.00618365
1230	0.00672316
1242	0.00879821
1254	0.00780219
1266	0.00688917
1278	0.00996024
1290	0.0109563
1302	0.0110808
1314	0.0105828
1326	0.0107903
1338	0.0140688
1350	0.0189245
1362	0.0145254
1374	0.0120353
1386	0.00975274
1398	0.0083002
1410	0.00958673
1422	0.0139028
1434	0.022452
1446	0.0370604
1458	0.0463151
1470	0.0307107
1482	0.0134048
1494	0.019049
1506	0.021705
1518	0.00680616
1530	0.00448211
1542	0.0039426
1554	0.0039426
1566	0.00539513
1578	0.00547813
1590	0.0041086
1602	0.00531213
1614	0.00796819
1626	0.0041916
1638	0.00207505
1650	0.00203355
1662	0.00083002
1674	0.00166004
1686	0.00195055
1698	0.00307107
1710	0.00340308
1722	0.00348608
1734	0.00336158
1746	0.00385959
1758	0.00315408
1770	0.00286357
1782	0.00290507
1794	0.00195055
1806	0.00182604
1818	0.00174304
1830	0.00182604
1842	0.00174304
1854	0.00170154
1866	0.00174304
1878	0.00141103
1890	0.00219955
1902	0.00157704
1914	0.00116203
1926	0.000996024
1938	0.000747018
1950	0.000664016
1962	0.000622515
1974	0.000539513
1986	0.000373509
1998	0.000622515
2010	0.000622515
2022	0.000871521
2034	0.000871521
2046	0.00083002
2058	0.000871521
2070	0.000664016
2082	0.000788519
2094	0.000456511
2106	0.000332008
2118	0.000498012
2130	0.000332008
2142	0.000747018
2154	0.000664016
2166	0.00041501
2178	0.000581014
2190	0.000622515
2202	0.000249006
2214	0.000539513
2226	0.000664016
2238	0.000581014
2250	0.000747018
2262	0.000705517
2274	0.00112053
2286	0.00219955
2298	0.00385959
2310	0.0042331
2322	0.00219955
2334	0.000373509
2346	0.000954523
2358	0.00103753
2370	0.000124503
2382	0.00315408
2394	0.00136953
2406	0.00116203
2418	0.00128653
2430	0.00124503
2442	0.000788519
2454	0.00124503
2466	0.00128653
2478	0.00116203
2490	0.00128653
2502	0.00153554
2514	0.00166004
2526	0.00186754
2538	0.00215805
2550	0.00182604
2562	0.00207505
2574	0.00253156
2586	0.00278057
2598	0.00298807
2610	0.00323708
2622	0.00365209
2634	0.00385959
2646	0.00439911
2658	0.00581014
2670	0.00601765
2682	0.00593464
2694	0.00556113
2706	0.00539513
2718	0.00522913
2730	0.00535363
2742	0.00618365
2754	0.00668166
2766	0.00784369
2778	0.00929622
2790	0.0117448
2802	0.0152724
2814	0.0200035
2826	0.0297562
2838	0.0583504
2850	0.131724
2862	0.181193
2874	0.117074
2886	0.0969463
2898	0.123424
2910	0.18663
2922	0.325451
2934	0.41003
2946	0.23888
2958	0.117365
2970	0.0760713
2982	0.0381394
2994	0.0297977
3006	0.0315823
3018	0.021041
3030	0.0150234
3042	0.0153554
3054	0.0117863
3066	0.0080927
3078	0.00622515
3090	0.0041916
3102	0.00340308
3114	0.00352759
3126	0.00302957
3138	0.00261456
3150	0.00195055
3162	0.00195055
3174	0.00145254
3186	0.00157704
3198	0.00170154
3210	0.00124503
3222	0.00128653
3234	0.00116203
3246	0.000913022
3258	0.000747018
3270	0.00132803
3282	0.000581014
3294	0.000913022
3306	0.000788519
3318	0.000788519
3330	0.000498012
3342	0.000705517
3354	0.000954523
3366	0.000539513
3378	0.000996024
3390	0.000996024
3402	0.000705517
3414	0.00120353
3426	0.000747018
3438	0.00132803
3450	0.000788519
3462	0.00124503
3474	0.00124503
3486	0.00124503
3498	0.000913022
3510	0.00141103
3522	0.00103753
3534	0.00116203
3546	0.00170154
3558	0.00161854
3570	0.00120353
3582	0.00149404
3594	0.00145254
3606	0.00145254
3618	0.00174304
3630	0.00128653
3642	0.00199205
3654	0.00240706
3666	0.00178454
3678	0.00136953
3690	0.00161854
3702	0.00207505
3714	0.00136953
3726	0.00124503
3738	0.00116203
3750	0.00253156
3762	0.00228255
3774	0.00215805
3786	0.00190905
3798	0.00190905
3810	0.00149404
3822	0.00190905
3834	0.00253156
3846	0.00145254
3858	0.00186754
3870	0.00116203
3882	0.00240706
3894	0.00286357
3906	0.00261456
3918	0.00290507
3930	0.00170154
3942	0.00207505
3954	0.00161854
3966	0.00282207
