Infrared Spectrum: Undecane, 6-pentyl-1-(5,6,7,8-tetrahydro-2-naphthyl)-,
Formula: C 26 H 44
CAS: 2656-02-2
Origin: Sadtler Research Labs Under US-EPA Contract
1/CM	ABSORBANCE
450	0.00755877
462	0.00806835
474	0.00687933
486	0.00416157
498	0.00552045
510	0.00382185
522	0.00586017
534	0.00603003
546	0.00662454
558	0.00755877
570	0.00917244
582	0.0101067
594	0.00857793
606	0.00942723
618	0.00704919
630	0.00458622
642	0.00484101
654	0.00416157
666	0.00501087
678	0.00645468
690	0.0104464
702	0.0143532
714	0.0191942
726	0.0274324
738	0.0236105
750	0.0152025
762	0.0160518
774	0.0158819
786	0.0163915
798	0.0304049
810	0.0476457
822	0.0427198
834	0.0237804
846	0.0112957
858	0.00959709
870	0.00815328
882	0.013334
894	0.00832314
906	0.012145
918	0.00968202
930	0.00407664
942	0.00552045
954	0.00297255
966	0.0016986
978	0.00135888
990	0.00535059
1002	0.00220818
1014	0.0025479
1026	0.00195339
1038	0.00203832
1050	0.00314241
1062	0.00450129
1074	0.00433143
1086	0.00407664
1098	0.0042465
1110	0.00518073
1122	0.008493
1134	0.00942723
1146	0.00976695
1158	0.0076437
1170	0.00484101
1182	0.00526566
1194	0.00653961
1206	0.00917244
1218	0.00832314
1230	0.0103615
1242	0.0167312
1254	0.0144381
1266	0.0140135
1278	0.0214024
1290	0.0226763
1302	0.0221667
1314	0.0203832
1326	0.0243749
1338	0.0335474
1350	0.0440787
1362	0.0338021
1374	0.0347364
1386	0.0269228
1398	0.0187695
1410	0.023016
1422	0.0377089
1434	0.0647167
1446	0.110239
1458	0.142597
1470	0.0854396
1482	0.0352459
1494	0.0540155
1506	0.0576675
1518	0.0141833
1530	0.00815328
1542	0.0067944
1554	0.00603003
1566	0.00891765
1578	0.0107012
1590	0.00569031
1602	0.00942723
1614	0.0176654
1626	0.00569031
1638	0.0025479
1650	0.00229311
1662	0.00042465
1674	0.0016986
1686	0.0033972
1698	0.00458622
1710	0.00288762
1722	0.00263283
1734	0.00348213
1746	0.00492594
1758	0.00365199
1770	0.00288762
1782	0.00263283
1794	0.00152874
1806	0.00101916
1818	0.00101916
1830	0.00110409
1842	0.00101916
1854	0.00127395
1866	0.00152874
1878	0.00144381
1890	0.00416157
1902	0.00186846
1914	0.00076437
1926	0.00033972
1938	0
1950	0
1962	8.493e-05
1974	0
1986	0
1998	0.00033972
2010	0.00050958
2022	0.00093423
2034	0.00118902
2046	0.00118902
2058	0.0008493
2070	0.0008493
2082	0.0008493
2094	0.00042465
2106	0.00042465
2118	0.00042465
2130	0.00042465
2142	0.00093423
2154	0.00093423
2166	0.00110409
2178	0.00118902
2190	0.00127395
2202	0.00093423
2214	0.00118902
2226	0.00135888
2238	0.00127395
2250	0.0016986
2262	0.00152874
2274	0.00195339
2286	0.00280269
2298	0.00484101
2310	0.00492594
2322	0.00297255
2334	0.00161367
2346	0.00263283
2358	0.00280269
2370	0.00288762
2382	0.00543552
2394	0.00348213
2406	0.00331227
2418	0.00314241
2430	0.00288762
2442	0.00280269
2454	0.00297255
2466	0.00314241
2478	0.00322734
2490	0.00356706
2502	0.00416157
2514	0.00475608
2526	0.00501087
2538	0.00535059
2550	0.00586017
2562	0.00645468
2574	0.00721905
2586	0.00823821
2598	0.00883272
2610	0.0093423
2622	0.0103615
2634	0.0114655
2646	0.0130792
2658	0.0168161
2670	0.0168161
2682	0.015797
2694	0.0147778
2706	0.014608
2718	0.0155422
2730	0.0174106
2742	0.018175
2754	0.019364
2766	0.0225914
2778	0.0268379
2790	0.0336323
2802	0.0433992
2814	0.0588565
2826	0.0905354
2838	0.180052
2850	0.344731
2862	0.44894
2874	0.34626
2886	0.301502
2898	0.370804
2910	0.507117
2922	0.721905
2934	0.8493
2946	0.589754
2958	0.400785
2970	0.270757
2982	0.12731
2994	0.101491
3006	0.0976695
3018	0.0648016
3030	0.0484101
3042	0.0494293
3054	0.0355857
3066	0.0249694
3078	0.019449
3090	0.0130792
3102	0.0115505
3114	0.0113806
3126	0.00900258
3138	0.00713412
3150	0.00577524
3162	0.00560538
3174	0.00501087
3186	0.00458622
3198	0.00433143
3210	0.00348213
3222	0.00322734
3234	0.00237804
3246	0.00220818
3258	0.00161367
3270	0.00212325
3282	0.0016986
3294	0.00178353
3306	0.00144381
3318	0.00220818
3330	0.00178353
3342	0.0016986
3354	0.00203832
3366	0.00195339
3378	0.00203832
3390	0.00220818
3402	0.00186846
3414	0.00178353
3426	0.00161367
3438	0.00161367
3450	0.00118902
3462	0.00186846
3474	0.0016986
3486	0.00135888
3498	0.00135888
3510	0.00161367
3522	0.00110409
3534	0.00195339
3546	0.00161367
3558	0.00178353
3570	0.00152874
3582	0.00178353
3594	0.00186846
3606	0.00237804
3618	0.00288762
3630	0.0016986
3642	0.00288762
3654	0.00305748
3666	0.00280269
3678	0.00237804
3690	0.00246297
3702	0.00220818
3714	0.00144381
3726	0.00161367
3738	0.00246297
3750	0.0033972
3762	0.00271776
3774	0.0025479
3786	0.00297255
3798	0.00297255
3810	0.0025479
3822	0.00246297
3834	0.00212325
3846	0.00203832
3858	0.0025479
3870	0.00110409
3882	0.00246297
3894	0.00237804
3906	0.00237804
3918	0.00263283
3930	0.00220818
3942	0.00212325
3954	0.00178353
3966	0.00237804
