Infrared Spectrum: Hexadecane, 6-(5,6,7,8-tetrahydro-2-naphthyl)-
Formula: C 26 H 44
CAS: 2657-50-3
Origin: Sadtler Research Labs Under US-EPA Contract
1/CM	ABSORBANCE
450	0.017202
462	0.00537037
474	0.0027691
486	0.00398582
498	0.00478298
510	0.00281105
522	0.00251736
534	0.00163628
546	0.00285301
558	0.00344039
570	0.00264323
582	0.00234954
594	0.00411169
606	0.0031467
618	0.00377604
630	0.00285301
642	0.00176215
654	0.00125868
666	0.00188802
678	0.0014265
690	0.00436342
702	0.00490885
714	0.00960792
726	0.00847511
738	0.00797164
750	0.00482494
762	0.00570602
774	0.00490885
786	0.00323061
798	0.00578993
810	0.0159433
822	0.0140133
834	0.0090625
846	0.0056221
858	0.003818
870	0.00331452
882	0.00604166
894	0.00474103
906	0.00520254
918	0.00511863
930	0.00213976
942	0.00264323
954	0.00230758
966	0.00222367
978	0.00264323
990	0.00377604
1002	0.0027691
1014	0.0024754
1026	0.00230758
1038	0.00222367
1050	0.00180411
1062	0.00251736
1074	0.00243345
1086	0.00272714
1098	0.00335648
1110	0.00339844
1122	0.0041956
1134	0.00440538
1146	0.00272714
1158	0.00323061
1170	0.00234954
1182	0.00243345
1194	0.00281105
1206	0.00360822
1218	0.00310474
1230	0.00365017
1242	0.00553819
1254	0.00595775
1266	0.00541232
1278	0.0069647
1290	0.00788773
1302	0.00776186
1314	0.00784577
1326	0.00855902
1338	0.011412
1350	0.0175376
1362	0.0129644
1374	0.0111183
1386	0.0102373
1398	0.00637731
1410	0.00704861
1422	0.0109086
1434	0.0140553
1446	0.0292014
1458	0.0370052
1470	0.0289496
1482	0.0127546
1494	0.0187963
1506	0.0175376
1518	0.00507668
1530	0.0035243
1542	0.00264323
1554	0.00251736
1566	0.00398582
1578	0.00440538
1590	0.00272714
1602	0.00398582
1614	0.00574797
1626	0.00285301
1638	0.00176215
1650	0.00201389
1662	0.000797164
1674	0.00163628
1686	0.00146846
1698	0.00226562
1710	0.00230758
1722	0.00234954
1734	0.0020978
1746	0.00281105
1758	0.00272714
1770	0.0020978
1782	0.00188802
1794	0.00155237
1806	0.00138455
1818	0.00125868
1830	0.00151042
1842	0.0014265
1854	0.00138455
1866	0.00151042
1878	0.00121672
1890	0.00201389
1902	0.00167824
1914	0.00125868
1926	0.00134259
1938	0.00113281
1950	0.00100694
1962	0.00109086
1974	0.000923032
1986	0.000964988
1998	0.00121672
2010	0.00134259
2022	0.00138455
2034	0.00155237
2046	0.00130064
2058	0.00121672
2070	0.00113281
2082	0.00117477
2094	0.000671296
2106	0.00062934
2118	0.000713252
2130	0.000755208
2142	0.000671296
2154	0.000797164
2166	0.000461516
2178	0.000755208
2190	0.000713252
2202	0.000293692
2214	0.000503472
2226	0.000545428
2238	0.00020978
2250	0.000671296
2262	0.000503472
2274	0.000755208
2286	0.00188802
2298	0.00402778
2310	0.00444734
2322	0.00201389
2334	8.3912e-05
2346	0.000755208
2358	0.000503472
2370	0.000125868
2382	0.00310474
2394	0.00113281
2406	0.00100694
2418	0.00109086
2430	0.00100694
2442	0.000797164
2454	0.00109086
2466	0.0010489
2478	0.000797164
2490	0.0010489
2502	0.00117477
2514	0.0014265
2526	0.0014265
2538	0.00167824
2550	0.00151042
2562	0.00176215
2574	0.00197193
2586	0.00226562
2598	0.00230758
2610	0.0024754
2622	0.00289496
2634	0.0027691
2646	0.00323061
2658	0.00448929
2670	0.00465712
2682	0.00453125
2694	0.0041956
2706	0.00415364
2718	0.00402778
2730	0.0041956
2742	0.00507668
2754	0.00520254
2766	0.00587384
2778	0.00730034
2790	0.00868489
2802	0.0112862
2814	0.0146426
2826	0.0204745
2838	0.0366695
2850	0.0880656
2862	0.15788
2874	0.1244
2886	0.0980092
2898	0.103086
2910	0.151545
2922	0.271329
2934	0.41956
2946	0.280182
2958	0.137993
2970	0.123938
2982	0.0497598
2994	0.0316348
3006	0.0338585
3018	0.0232856
3030	0.0155657
3042	0.0151042
3054	0.0125868
3066	0.0087688
3078	0.00675492
3090	0.00478298
3102	0.00423756
3114	0.00394386
3126	0.00310474
3138	0.00226562
3150	0.00205584
3162	0.00197193
3174	0.00159433
3186	0.00138455
3198	0.00146846
3210	0.00113281
3222	0.00100694
3234	0.000964988
3246	0.000545428
3258	0.00020978
3270	0.00062934
3282	0.000461516
3294	0.000713252
3306	0.000545428
3318	0.000671296
3330	0.000461516
3342	0.000923032
3354	0.000755208
3366	0.000377604
3378	0.00041956
3390	0.00109086
3402	0.000713252
3414	0.0010489
3426	0.000671296
3438	0.00121672
3450	0.000461516
3462	0.00121672
3474	0.00167824
3486	0.00109086
3498	0.000755208
3510	0.00121672
3522	0.000797164
3534	0.0010489
3546	0.00113281
3558	0.00109086
3570	0.000923032
3582	0.00134259
3594	0.0010489
3606	0.00083912
3618	0.00117477
3630	0.000251736
3642	0.00192998
3654	0.00239149
3666	0.00167824
3678	0.00125868
3690	0.00159433
3702	0.00134259
3714	0.00117477
3726	0.000545428
3738	0.000964988
3750	0.00234954
3762	0.00180411
3774	0.00167824
3786	0.00134259
3798	0.00239149
3810	0.00151042
3822	0.00226562
3834	0.000587384
3846	0.00146846
3858	0.00201389
3870	0.000545428
3882	0.00197193
3894	0.00176215
3906	0.00192998
3918	0.00188802
3930	0.00213976
3942	0.0017202
3954	0.000755208
3966	0.00188802
