Infrared Spectrum: p-Chlorophenyl 2-chloro-1,1,2-trifluoroethyl sulfone
Formula: C 8 H 5 Cl 2 F 3 O 2 S
CAS: 26574-59-4
Origin: Sadtler Research Labs Under US-EPA Contract
1/CM	ABSORBANCE
450	0.0355423
462	0.0758876
474	0.0991442
486	0.0399408
498	0.00864542
510	0.00475245
522	0.00955546
534	0.0211332
546	0.0345817
558	0.0747753
570	0.146669
582	0.0783143
594	0.21022
606	0.31164
618	0.166639
630	0.11866
642	0.149298
654	0.0255318
666	0.0142574
678	0.00586473
690	0.0040952
702	0.039233
714	0.0229028
726	0.0040952
738	0.0447944
750	0.301376
762	0.10329
774	0.0350367
786	0.0641581
798	0.0972736
810	0.0642087
822	0.0682027
834	0.107587
846	0.0580911
858	0.0622875
870	0.0214366
882	0.00652198
894	0.00278069
906	0.0015673
918	0.00121339
930	0.00166841
942	0.00262902
954	0.0050558
966	0.0075837
978	0.0196671
990	0.0493952
1002	0.0685061
1014	0.0955041
1026	0.0316493
1038	0.018757
1050	0.0253801
1062	0.0517714
1074	0.10152
1086	0.339497
1098	0.376202
1110	0.150815
1122	0.110621
1134	0.12053
1146	0.191665
1158	0.13322
1170	0.371349
1182	0.424738
1194	0.106121
1206	0.0515186
1218	0.0728035
1230	0.102683
1242	0.0532881
1254	0.0282114
1266	0.0421148
1278	0.0608213
1290	0.0218411
1302	0.0120328
1314	0.0105666
1326	0.0137518
1338	0.024369
1350	0.0388791
1362	0.0722474
1374	0.347283
1386	0.321195
1398	0.0970208
1410	0.0235095
1422	0.00773537
1434	0.0105161
1446	0.00965658
1458	0.00990937
1470	0.0370085
1482	0.0980825
1494	0.0136001
1506	0.0102633
1518	0.00778593
1530	0.0102127
1542	0.0206782
1554	0.0297281
1566	0.0432776
1578	0.110216
1590	0.13044
1602	0.0215883
1614	0.0140551
1626	0.0155719
1638	0.0164314
1650	0.0234084
1662	0.0143585
1674	0.00935323
1686	0.00839263
1698	0.006977
1710	0.00515692
1722	0.00475245
1734	0.0040952
1746	0.00126395
1758	0.0015673
1770	0.00303348
1782	0.00576361
1794	0.00515692
1806	0.000657254
1818	0.00050558
1830	0.0025279
1842	0.00308404
1854	0.00116283
1866	0.000556138
1878	0
1890	0.000556138
1902	0.00202232
1914	0.0085443
1926	0.00520747
1938	0.000910044
1950	0.000606696
1962	0.000960602
1974	0.000910044
1986	0.000808928
1998	0.00101116
2010	0.000960602
2022	0.00106172
2034	0.00101116
2046	0.00126395
2058	0.00075837
2070	0.000859486
2082	0.000808928
2094	0.00111228
2106	0.00161786
2118	0.00146618
2130	0.00151674
2142	0.00197176
2154	0.00278069
2166	0.00308404
2178	0.00298292
2190	0.00303348
2202	0.00247734
2214	0.0019212
2226	0.00212344
2238	0.00202232
2250	0.00197176
2262	0.00151674
2274	0.0019212
2286	0.00166841
2298	0.0025279
2310	0.00136507
2322	0.00106172
2334	0.00232567
2346	0.00101116
2358	0.00303348
2370	0.00247734
2382	0.0034885
2394	0.00283125
2406	0.00257846
2418	0.00247734
2430	0.00131451
2442	0.000657254
2454	0.000910044
2466	0.000910044
2478	0.00111228
2490	0.00111228
2502	0.000910044
2514	0.00151674
2526	0.00257846
2538	0.00465134
2550	0.00556138
2562	0.00379185
2574	0.0031346
2586	0.00278069
2598	0.00227511
2610	0.00166841
2622	0.00166841
2634	0.00146618
2646	0.00187065
2658	0.00242678
2670	0.00267957
2682	0.00278069
2694	0.00121339
2706	0.00146618
2718	0.00136507
2730	0.00136507
2742	0.00166841
2754	0.00187065
2766	0.00182009
2778	0.00176953
2790	0.000960602
2802	0.00116283
2814	0.00101116
2826	0.00161786
2838	0.0015673
2850	0.00217399
2862	0.00227511
2874	0.00227511
2886	0.00242678
2898	0.00298292
2910	0.00267957
2922	0.00399408
2934	0.00414576
2946	0.00389297
2958	0.00414576
2970	0.00535915
2982	0.00540971
2994	0.0056625
3006	0.00859486
3018	0.00490413
3030	0.0044491
3042	0.00434799
3054	0.00394352
3066	0.00470189
3078	0.0102127
3090	0.00874653
3102	0.00374129
3114	0.00374129
3126	0.00414576
3138	0.00434799
3150	0.00384241
3162	0.00278069
3174	0.00262902
3186	0.00273013
3198	0.00237623
3210	0.00303348
3222	0.00303348
3234	0.00273013
3246	0.00257846
3258	0.00237623
3270	0.00278069
3282	0.00257846
3294	0.00242678
3306	0.00176953
3318	0.00161786
3330	0.00222455
3342	0.00237623
3354	0.00182009
3366	0.0019212
3378	0.00202232
3390	0.00176953
3402	0.00171897
3414	0.00197176
3426	0.00146618
3438	0.00212344
3450	0.000910044
3462	0.00171897
3474	0.00187065
3486	0.00202232
3498	0.00106172
3510	0.00171897
3522	0.00202232
3534	0.00166841
3546	0.00126395
3558	0.00182009
3570	0.00106172
3582	0.00202232
3594	0.00202232
3606	0.00237623
3618	0.000707812
3630	0.00131451
3642	0.00187065
3654	0.00217399
3666	0.0019212
3678	0.00101116
3690	0.00161786
3702	0.00278069
3714	0.00293236
3726	0.00267957
3738	0.00197176
3750	0.00116283
3762	0.0015673
3774	0.000556138
3786	0.00176953
3798	0.0025279
3810	0.00247734
3822	0.000455022
3834	0.00126395
3846	0.00298292
3858	0.00273013
3870	0.00161786
3882	0.00101116
3894	0.00111228
3906	0.0015673
3918	0.00187065
3930	0.00197176
3942	0.00202232
3954	0.00278069
3966	0.00187065
