Infrared Spectrum: Benzene, 1,4-dichloro-2,5-dimethoxy-
Formula: C 8 H 8 Cl 2 O 2
CAS: 2675-77-6
Origin: Sadtler Research Labs Under US-EPA Contract
1/CM	ABSORBANCE
450	0
462	0.0277122
474	0.0235
486	0.0137453
498	0.0413467
510	0.0309269
522	0.0188443
534	0.0195094
546	0.0526533
558	0.0497712
570	0.0812523
582	0.0428986
594	0.0307052
606	0.0279339
618	0.0270472
630	0.022059
642	0.0226132
654	0.0211722
666	0.0221698
678	0.0304835
690	0.0284882
702	0.0282665
714	0.0327005
726	0.0307052
738	0.0358042
750	0.0539835
762	0.119606
774	0.365358
786	0.283995
798	0.0693915
810	0.0434528
822	0.0380212
834	0.0553137
846	0.0737146
858	0.0908962
870	0.123375
882	0.0920047
894	0.0413467
906	0.0333655
918	0.0361368
930	0.0397948
942	0.0396839
954	0.036691
966	0.0351391
978	0.0391297
990	0.0571981
1002	0.100429
1014	0.230455
1026	0.536066
1038	0.536398
1050	0.266481
1062	0.130248
1074	0.288983
1086	0.498599
1098	0.149203
1110	0.0685047
1122	0.0511014
1134	0.0536509
1146	0.0640707
1158	0.0841344
1170	0.143328
1182	0.220811
1194	0.262712
1206	0.592599
1218	0.896658
1230	0.460245
1242	0.236108
1254	0.172038
1266	0.125814
1278	0.0927806
1290	0.0666202
1302	0.0600802
1314	0.0527641
1326	0.0457806
1338	0.0606344
1350	0.155189
1362	0.446389
1374	0.31071
1386	0.0781485
1398	0.0625188
1410	0.0712759
1422	0.104198
1434	0.282665
1446	0.490063
1458	0.257724
1470	0.401606
1482	0.88657
1494	1.03544
1506	0.695245
1518	0.294969
1530	0.111292
1542	0.0706108
1554	0.0529858
1566	0.0438962
1578	0.0405707
1590	0.0396839
1602	0.0354717
1614	0.0318137
1626	0.0288207
1638	0.0251627
1650	0.0273797
1662	0.0283773
1674	0.0325896
1686	0.0318137
1698	0.0303726
1710	0.0247193
1722	0.024941
1734	0.0261604
1746	0.0240542
1758	0.0200637
1770	0.0193986
1782	0.0187335
1794	0.0196203
1806	0.0177358
1818	0.0178467
1830	0.0193986
1842	0.0177358
1854	0.0155189
1866	0.0162948
1878	0.0138561
1890	0.0134127
1902	0.0135236
1914	0.0150755
1926	0.0160731
1938	0.0166273
1950	0.0172924
1962	0.0189552
1974	0.0171816
1986	0.0155189
1998	0.0148538
2010	0.0157406
2022	0.0164057
2034	0.0170707
2046	0.0221698
2058	0.0268255
2070	0.0310377
2082	0.0336981
2094	0.0270472
2106	0.0191769
2118	0.016849
2130	0.0169599
2142	0.0187335
2154	0.0180684
2166	0.0146321
2178	0.0148538
2190	0.0146321
2202	0.0144104
2214	0.0138561
2226	0.0126368
2238	0.0120825
2250	0.0119717
2262	0.0126368
2274	0.0144104
2286	0.0146321
2298	0.0172924
2310	0.0146321
2322	0.0105307
2334	0.0119717
2346	0.0167382
2358	0.0107524
2370	0.0192877
2382	0.0184009
2394	0.0150755
2406	0.0162948
2418	0.0175141
2430	0.0172924
2442	0.0164057
2454	0.016184
2466	0.0158514
2478	0.0158514
2490	0.0182901
2502	0.0200637
2514	0.0217264
2526	0.0213939
2538	0.0179575
2550	0.0165165
2562	0.0162948
2574	0.0165165
2586	0.0172924
2598	0.0175141
2610	0.0179575
2622	0.0184009
2634	0.0187335
2646	0.0202854
2658	0.0217264
2670	0.0205071
2682	0.0180684
2694	0.016849
2706	0.0166273
2718	0.0167382
2730	0.0171816
2742	0.0177358
2754	0.019066
2766	0.0203962
2778	0.0228349
2790	0.0273797
2802	0.033033
2814	0.0415684
2826	0.0527641
2838	0.091007
2850	0.177691
2862	0.105085
2874	0.0631839
2886	0.0652901
2898	0.0857971
2910	0.116946
2922	0.128141
2934	0.14366
2946	0.233337
2958	0.229125
2970	0.169599
2982	0.1032
2994	0.0901202
3006	0.142219
3018	0.176915
3030	0.0717193
3042	0.0437854
3054	0.0363585
3066	0.0336981
3078	0.0305943
3090	0.0269363
3102	0.0242759
3114	0.0225023
3126	0.0205071
3138	0.0184009
3150	0.0171816
3162	0.0157406
3174	0.0142995
3186	0.0149646
3198	0.0144104
3210	0.0138561
3222	0.0133019
3234	0.0126368
3246	0.0121934
3258	0.0124151
3270	0.0120825
3282	0.0119717
3294	0.0116391
3306	0.0109741
3318	0.0114174
3330	0.0111957
3342	0.0113066
3354	0.0119717
3366	0.0120825
3378	0.0115283
3390	0.0107524
3402	0.0118608
3414	0.0120825
3426	0.01175
3438	0.0126368
3450	0.0127476
3462	0.0127476
3474	0.0126368
3486	0.0114174
3498	0.0125259
3510	0.013967
3522	0.013191
3534	0.0140778
3546	0.0125259
3558	0.013967
3570	0.0135236
3582	0.0138561
3594	0.0141887
3606	0.0146321
3618	0.0128585
3630	0.0152972
3642	0.016849
3654	0.0159623
3666	0.0151863
3678	0.0146321
3690	0.0141887
3702	0.0150755
3714	0.0157406
3726	0.0141887
3738	0.0160731
3750	0.0125259
3762	0.0169599
3774	0.0147429
3786	0.015408
3798	0.0119717
3810	0.0156297
3822	0.0157406
3834	0.0124151
3846	0.0135236
3858	0.0175141
3870	0.0178467
3882	0.0165165
3894	0.0147429
3906	0.0196203
3918	0.0151863
3930	0.0121934
3942	0.016849
3954	0.017625
3966	0.0207288
