Infrared Spectrum: 2-Hydroxyethyl heptyl sulfide
Formula: C 9 H 20 O S
CAS: 26901-97-3
Origin: Sadtler Research Labs Under US-EPA Contract
1/CM	ABSORBANCE
450	0
462	0.158411
474	0.133787
486	0.163894
498	0.146747
510	0.13608
522	0.151133
534	0.140765
546	0.141164
558	0.150435
570	0.13907
582	0.142759
594	0.146647
606	0.137276
618	0.140267
630	0.140765
642	0.138572
654	0.143257
666	0.143158
678	0.139668
690	0.143656
702	0.14236
714	0.146846
726	0.15522
738	0.150635
750	0.150934
762	0.152828
774	0.149538
786	0.143556
798	0.143656
810	0.141961
822	0.144155
834	0.144454
846	0.14236
858	0.143556
870	0.144354
882	0.145152
894	0.149737
906	0.149438
918	0.157613
930	0.175059
942	0.162797
954	0.152529
966	0.150635
978	0.156217
990	0.167084
1002	0.181041
1014	0.203372
1026	0.238364
1038	0.289904
1050	0.306453
1062	0.343838
1074	0.319513
1086	0.211646
1098	0.183832
1110	0.186723
1122	0.203372
1134	0.197091
1146	0.173265
1158	0.167084
1170	0.181439
1182	0.182536
1194	0.16828
1206	0.162697
1218	0.160105
1230	0.165887
1242	0.170972
1254	0.174461
1266	0.184729
1278	0.203372
1290	0.188617
1302	0.180243
1314	0.169078
1326	0.165788
1338	0.179047
1350	0.186823
1362	0.18453
1374	0.1942
1386	0.233877
1398	0.217927
1410	0.18772
1422	0.185826
1434	0.180742
1446	0.189016
1458	0.206761
1470	0.208954
1482	0.164791
1494	0.140865
1506	0.134983
1518	0.131793
1530	0.128104
1542	0.128503
1554	0.125911
1566	0.125811
1578	0.124715
1590	0.124914
1602	0.124615
1614	0.124416
1626	0.123618
1638	0.123917
1650	0.123319
1662	0.12312
1674	0.123917
1686	0.12302
1698	0.123219
1710	0.12312
1722	0.123718
1734	0.123917
1746	0.123917
1758	0.123917
1770	0.12302
1782	0.123319
1794	0.122123
1806	0.121525
1818	0.121425
1830	0.120827
1842	0.120827
1854	0.121026
1866	0.121026
1878	0.120926
1890	0.121026
1902	0.120428
1914	0.120029
1926	0.119132
1938	0.119331
1950	0.11963
1962	0.118833
1974	0.119331
1986	0.120229
1998	0.120328
2010	0.120328
2022	0.120926
2034	0.120926
2046	0.121325
2058	0.120328
2070	0.120129
2082	0.120229
2094	0.11973
2106	0.119531
2118	0.11983
2130	0.119531
2142	0.118833
2154	0.118633
2166	0.118633
2178	0.118534
2190	0.118434
2202	0.118334
2214	0.118135
2226	0.118235
2238	0.117836
2250	0.117637
2262	0.117337
2274	0.117038
2286	0.117238
2298	0.11664
2310	0.117238
2322	0.117637
2334	0.116839
2346	0.11644
2358	0.116939
2370	0.116141
2382	0.116241
2394	0.11664
2406	0.116341
2418	0.116341
2430	0.116341
2442	0.116041
2454	0.116041
2466	0.115045
2478	0.114546
2490	0.114446
2502	0.114247
2514	0.114147
2526	0.114048
2538	0.114247
2550	0.114446
2562	0.114546
2574	0.114745
2586	0.116141
2598	0.11654
2610	0.116839
2622	0.118035
2634	0.118833
2646	0.11973
2658	0.121126
2670	0.122621
2682	0.123817
2694	0.124316
2706	0.124416
2718	0.125911
2730	0.127207
2742	0.129001
2754	0.1294
2766	0.130696
2778	0.130796
2790	0.133687
2802	0.13917
2814	0.146647
2826	0.159906
2838	0.182337
2850	0.249629
2862	0.429174
2874	0.46935
2886	0.409634
2898	0.345433
2910	0.424588
2922	0.675413
2934	0.99692
2946	0.792153
2958	0.60214
2970	0.591772
2982	0.303064
2994	0.187122
3006	0.156317
3018	0.141762
3030	0.134285
3042	0.129301
3054	0.125213
3066	0.123219
3078	0.121425
3090	0.119531
3102	0.119331
3114	0.118135
3126	0.117936
3138	0.117637
3150	0.117038
3162	0.116839
3174	0.116739
3186	0.116041
3198	0.115543
3210	0.115244
3222	0.114446
3234	0.114546
3246	0.114147
3258	0.114446
3270	0.114446
3282	0.114745
3294	0.113948
3306	0.114446
3318	0.115244
3330	0.115244
3342	0.115543
3354	0.115144
3366	0.116041
3378	0.115643
3390	0.115244
3402	0.114845
3414	0.115842
3426	0.115543
3438	0.115344
3450	0.115842
3462	0.115643
3474	0.116041
3486	0.11664
3498	0.117138
3510	0.118534
3522	0.119032
3534	0.120627
3546	0.125911
3558	0.137774
3570	0.141563
3582	0.138472
3594	0.134285
3606	0.130995
3618	0.127905
3630	0.126808
3642	0.1294
3654	0.13279
3666	0.146148
3678	0.133089
3690	0.122621
3702	0.118434
3714	0.116939
3726	0.116141
3738	0.116041
3750	0.114845
3762	0.115144
3774	0.114446
3786	0.115543
3798	0.114147
3810	0.116041
3822	0.113649
3834	0.113749
3846	0.114048
3858	0.113649
3870	0.114048
3882	0.114247
3894	0.114247
3906	0.115344
3918	0.114347
3930	0.115144
3942	0.115344
3954	0.116041
3966	0.117238
