Infrared Spectrum: [1,1'-Biphenyl]-ar,ar'-diol
Formula: C 12 H 10 O 2
CAS: 26983-52-8
Origin: Sadtler Research Labs Under US-EPA Contract
1/CM	ABSORBANCE
450	0.0237342
462	0.0103794
474	0.013424
486	0.014116
498	0.0157767
510	0.0131472
522	0.0162611
534	0.0296851
546	0.0196517
558	0.0138392
570	0.016953
582	0.00844191
594	0.00567407
606	0.00788834
618	0.0278168
630	0.0167454
642	0.00941066
654	0.00961824
666	0.0101026
678	0.0112098
690	0.0129397
702	0.0253949
714	0.0294775
726	0.0411024
738	0.11189
750	0.419881
762	0.276507
774	0.0431783
786	0.0238726
798	0.0269864
810	0.059647
822	0.0718946
834	0.04906
846	0.0412408
858	0.024703
870	0.0103102
882	0.00318302
894	0.00249106
906	0.00442854
918	0.0121785
930	0.026848
942	0.0238034
954	0.00463613
966	0.00207588
978	0.00387498
990	0.0107254
1002	0.048714
1014	0.0452542
1026	0.0217275
1038	0.0389573
1050	0.025049
1062	0.0131472
1074	0.0154999
1086	0.0247722
1098	0.0359127
1110	0.0339752
1122	0.0285088
1134	0.0363279
1146	0.108015
1158	0.1523
1170	0.21513
1182	0.317333
1194	0.35456
1206	0.239764
1218	0.168077
1230	0.233675
1242	0.212017
1254	0.145727
1266	0.150916
1278	0.227309
1290	0.202329
1302	0.0662898
1314	0.0566715
1326	0.0968744
1338	0.142751
1350	0.0583322
1362	0.0163303
1374	0.00768076
1386	0.00892628
1398	0.00968744
1410	0.0130088
1422	0.0298927
1434	0.0588858
1446	0.109468
1458	0.174097
1470	0.267512
1482	0.332141
1494	0.188767
1506	0.130088
1518	0.0429015
1530	0.0163995
1542	0.0174374
1554	0.0287855
1566	0.0654594
1578	0.129258
1590	0.108915
1602	0.0801982
1614	0.0690576
1626	0.0164686
1638	0.00325221
1650	0.00200668
1662	0.00117633
1674	0.00394417
1686	0.0133548
1698	0.00954905
1710	0.00816513
1722	0.00629684
1734	0.00186829
1746	0.00117633
1758	0.00034598
1770	0.00262945
1782	0.0069196
1794	0.0130088
1806	0.00816513
1818	0.0051897
1830	0.00539729
1842	0.0017991
1854	0.00145312
1866	0.00276784
1878	0.00539729
1890	0.00581246
1902	0.0148079
1914	0.0137008
1926	0.00774995
1938	0.0142544
1950	0.00553568
1962	0.000761156
1974	0.00110714
1986	0.00193749
1998	0.0017299
2010	0.00152231
2022	0.00193749
2034	0.00242186
2046	0.00325221
2058	0.00311382
2070	0.00290623
2082	0.00304462
2094	0.00276784
2106	0.00221427
2118	0.0017991
2130	0.00200668
2142	0.00131472
2154	0.0017299
2166	0.00159151
2178	0.0017299
2190	0.00235266
2202	0.00228347
2214	0.00207588
2226	0.00262945
2238	0.00256025
2250	0.00318302
2262	0.003529
2274	0.00401337
2286	0.00449774
2298	0.00463613
2310	0.00532809
2322	0.00456694
2334	0.0033906
2346	0.003529
2358	0.0034598
2370	0.003529
2382	0.00484372
2394	0.0051205
2406	0.00484372
2418	0.00532809
2430	0.00657362
2442	0.00650442
2454	0.00608925
2466	0.00650442
2478	0.00622764
2490	0.00567407
2502	0.00602005
2514	0.00636603
2526	0.0052589
2538	0.00366739
2550	0.00242186
2562	0.00249106
2574	0.00297543
2586	0.00228347
2598	0.00297543
2610	0.00290623
2622	0.00373658
2634	0.00325221
2646	0.00221427
2658	0.00242186
2670	0.00283704
2682	0.00242186
2694	0.00200668
2706	0.00235266
2718	0.00256025
2730	0.003529
2742	0.00290623
2754	0.00242186
2766	0.00221427
2778	0.00200668
2790	0.00152231
2802	0.0017299
2814	0.0017299
2826	0.0017991
2838	0.00214508
2850	0.00269864
2862	0.0034598
2874	0.00539729
2886	0.00636603
2898	0.00774995
2910	0.00781915
2922	0.00705799
2934	0.00761156
2946	0.00906468
2958	0.00975664
2970	0.0122477
2982	0.010587
2994	0.00761156
3006	0.0100334
3018	0.0199976
3030	0.0446314
3042	0.0779147
3054	0.0764616
3066	0.097082
3078	0.121162
3090	0.0736245
3102	0.0357051
3114	0.0168838
3126	0.00947985
3138	0.00761156
3150	0.00774995
3162	0.00643523
3174	0.00408256
3186	0.00262945
3198	0.00221427
3210	0.00235266
3222	0.00228347
3234	0.00235266
3246	0.00269864
3258	0.00325221
3270	0.00387498
3282	0.00318302
3294	0.00256025
3306	0.00332141
3318	0.00380578
3330	0.00325221
3342	0.00332141
3354	0.00297543
3366	0.00429015
3378	0.00484372
3390	0.00588166
3402	0.00505131
3414	0.00477452
3426	0.00449774
3438	0.00477452
3450	0.00560488
3462	0.00574327
3474	0.00816513
3486	0.0132856
3498	0.0165378
3510	0.0134932
3522	0.0154307
3534	0.017299
3546	0.0265021
3558	0.0451158
3570	0.191535
3582	0.69196
3594	0.223711
3606	0.0535577
3618	0.0267789
3630	0.0237342
3642	0.044147
3654	0.0575711
3666	0.0178526
3678	0.00989503
3690	0.010587
3702	0.00657362
3714	0.00754236
3726	0.00837272
3738	0.0104486
3750	0.00941066
3762	0.00456694
3774	0.00470533
3786	0.00484372
3798	0.00622764
3810	0.00435935
3822	0.0051897
3834	0.0069888
3846	0.003529
3858	0.00878789
3870	0.00795754
3882	0.00788834
3894	0.00906468
3906	0.0120401
3918	0.0069196
3930	0.0051897
3942	0.00435935
3954	0.00505131
3966	0.00456694
