Infrared Spectrum: 1-Cyclohexene, 3-methoxy-,
Formula: C 7 H 12 O
CAS: 2699-13-0
Origin: Sadtler Research Labs Under US-EPA Contract
1/CM	ABSORBANCE
450	0.0134242
462	0.01744
474	0.0214558
486	0.0221442
498	0.0188169
510	0.00573685
522	0.00413053
534	0.00654001
546	0.0175548
558	0.0189316
570	0.0173253
582	0.00952317
594	0.0074579
606	0.00263895
618	0.00218
630	0.00183579
642	0.0139979
654	0.0335032
666	0.0424527
678	0.0284548
690	0.0246685
702	0.0511727
714	0.0893801
726	0.118294
738	0.0582864
750	0.0177842
762	0.00562211
774	0.00550738
786	0.0115884
798	0.0270779
810	0.0320116
822	0.0297169
834	0.0260453
846	0.024439
858	0.0268485
870	0.0224885
882	0.0254716
894	0.044518
906	0.0843317
918	0.15937
930	0.234063
942	0.163041
954	0.0584011
966	0.0282253
978	0.0296021
990	0.0419937
1002	0.0660885
1014	0.0730875
1026	0.059778
1038	0.0673506
1050	0.10923
1062	0.149961
1074	0.231654
1086	0.481322
1098	0.919273
1110	1.11387
1122	0.679587
1134	0.254716
1146	0.151338
1158	0.122883
1170	0.126555
1182	0.207789
1194	0.237276
1206	0.152485
1218	0.0943138
1230	0.0777917
1242	0.0606959
1254	0.0601222
1266	0.050599
1278	0.0262748
1290	0.0238653
1302	0.0398137
1314	0.094658
1326	0.155239
1338	0.157763
1350	0.123916
1362	0.0624169
1374	0.0320116
1386	0.0654001
1398	0.0913307
1410	0.0565653
1422	0.0378632
1434	0.0870854
1446	0.134587
1458	0.144339
1470	0.108082
1482	0.0512874
1494	0.0238653
1506	0.0151453
1518	0.0103263
1530	0.00860527
1542	0.0083758
1554	0.00665475
1566	0.00631053
1578	0.00699896
1590	0.00814633
1602	0.00975264
1614	0.00975264
1626	0.0121621
1638	0.0253569
1650	0.042338
1662	0.0343064
1674	0.0164074
1686	0.0187021
1698	0.020079
1710	0.0149158
1722	0.0109
1734	0.00631053
1746	0.00757264
1758	0.00573685
1770	0.00470422
1782	0.0030979
1794	0.00229474
1806	0.00229474
1818	0.00114737
1830	0.000229474
1842	0.000114737
1854	0.00126211
1866	0.00252421
1878	0.00218
1890	0.00195053
1902	0.00240948
1914	0.00240948
1926	0.00321264
1938	0.00286842
1950	0.00172105
1962	0.000573685
1974	0.000573685
1986	0.00160632
1998	0.00275369
2010	0.00562211
2022	0.00872001
2034	0.0102116
2046	0.00849054
2058	0.0052779
2070	0.00298316
2082	0.00275369
2094	0.00332737
2106	0.00516316
2118	0.00699896
2130	0.00699896
2142	0.00550738
2154	0.00550738
2166	0.00516316
2178	0.00447474
2190	0.00424527
2202	0.00470422
2214	0.00413053
2226	0.00263895
2238	0.00160632
2250	0.00160632
2262	0.00126211
2274	0.00114737
2286	0.000917896
2298	0.000458948
2310	0.000229474
2322	0.000573685
2334	0.000688422
2346	0.000458948
2358	0.00114737
2370	0.00206527
2382	0.00206527
2394	0.00229474
2406	0.00137684
2418	0.000688422
2430	0.000229474
2442	0.000573685
2454	0.00126211
2466	0.00114737
2478	0.00160632
2490	0.00229474
2502	0.00275369
2514	0.00263895
2526	0.00252421
2538	0.00252421
2550	0.00252421
2562	0.00332737
2574	0.00516316
2586	0.00780212
2598	0.0110148
2610	0.013539
2622	0.0168663
2634	0.0198495
2646	0.0226032
2658	0.0248979
2670	0.0230621
2682	0.0184727
2694	0.015719
2706	0.0145716
2718	0.0151453
2730	0.015719
2742	0.0183579
2754	0.0228327
2766	0.0284548
2778	0.0385516
2790	0.054959
2802	0.0915601
2814	0.247602
2826	0.418675
2838	0.434165
2850	0.42556
2862	0.453096
2874	0.435542
2886	0.437263
2898	0.458604
2910	0.518726
2922	0.694044
2934	0.908029
2946	1.14737
2958	0.891621
2970	0.388844
2982	0.306348
2994	0.2834
3006	0.153059
3018	0.140323
3030	0.268599
3042	0.277549
3054	0.153403
3066	0.0709075
3078	0.0486485
3090	0.0271927
3102	0.0170958
3114	0.0118179
3126	0.0092937
3138	0.00768738
3150	0.00722843
3162	0.00596632
3174	0.00550738
3186	0.00481895
3198	0.00401579
3210	0.00378632
3222	0.00263895
3234	0.00195053
3246	0.00172105
3258	0.00149158
3270	0.00172105
3282	0.00229474
3294	0.00286842
3306	0.00286842
3318	0.00183579
3330	0.000917896
3342	0.00172105
3354	0.00195053
3366	0.00218
3378	0.00195053
3390	0.00172105
3402	0.00195053
3414	0.00172105
3426	0.00195053
3438	0.00114737
3450	0.000803159
3462	0.000688422
3474	0.000688422
3486	0.00126211
3498	0.00137684
3510	0.00103263
3522	0.000458948
3534	0.000458948
3546	0.000229474
3558	0.000688422
3570	0.000917896
3582	0.000917896
3594	0.00160632
3606	0.00183579
3618	0.00172105
3630	0.00321264
3642	0.0030979
3654	0.00355685
3666	0.00286842
3678	0.00355685
3690	0.00286842
3702	0.00263895
3714	0.00172105
3726	0.00218
3738	0.00195053
3750	0.00240948
3762	0.00229474
3774	0.000114737
3786	0.00183579
3798	0.00149158
3810	0.000458948
3822	0.000114737
3834	0.000458948
3846	0
3858	0.000229474
3870	0.000573685
3882	0.000573685
3894	0.00126211
3906	0.00126211
3918	0.00149158
3930	0.00263895
3942	0.00447474
3954	0.00401579
3966	0.00183579
