Infrared Spectrum: Butane, 1-bromo-2,4-diphenyl-,
Formula: C 16 H 17 Br
CAS: 27041-04-9
Origin: Sadtler Research Labs Under US-EPA Contract
1/CM	ABSORBANCE
450	0.00528151
462	0.00493855
474	0.0176279
486	0.0480823
498	0.0312089
510	0.0359417
522	0.0388911
534	0.053158
546	0.0445156
558	0.0288768
570	0.0137868
582	0.0165304
594	0.0189311
606	0.00967133
618	0.00569305
630	0.00953415
642	0.0205087
654	0.0526779
666	0.0979479
678	0.114547
690	0.291923
702	0.61238
714	0.198777
726	0.195141
738	0.311609
750	0.286573
762	0.154124
774	0.0658474
786	0.0240068
798	0.016599
810	0.0115233
822	0.0140612
834	0.00754501
846	0.00253787
858	0.000480137
870	0.00562446
882	0.00877965
894	0.0170106
906	0.0353244
918	0.0243498
930	0.0155016
942	0.0149528
954	0.027162
966	0.0440354
978	0.0307288
990	0.0222235
1002	0.0277794
1014	0.0282595
1026	0.0804572
1038	0.0487682
1050	0.0213318
1062	0.0342269
1074	0.0545984
1086	0.0310031
1098	0.0144727
1110	0.0112489
1122	0.00624178
1134	0.0106316
1146	0.0134438
1158	0.0187939
1170	0.0359417
1182	0.0428008
1194	0.0406059
1206	0.0398514
1218	0.0613889
1230	0.0585081
1242	0.0623492
1254	0.0574107
1266	0.0583709
1278	0.0470534
1290	0.0405373
1302	0.0409488
1314	0.0399886
1326	0.0344327
1338	0.0364904
1350	0.0389597
1362	0.036216
1374	0.0267505
1386	0.0174907
1398	0.0119348
1410	0.0108374
1422	0.0252415
1434	0.0709231
1446	0.137868
1458	0.157691
1470	0.0491112
1482	0.0745584
1494	0.267916
1506	0.0925293
1518	0.0159131
1530	0.010563
1542	0.0121406
1554	0.00651614
1566	0.0104944
1578	0.0327179
1590	0.073461
1602	0.142806
1614	0.0539811
1626	0.0122092
1638	0.00925978
1650	0.00775078
1662	0.00980851
1674	0.00733924
1686	0.00905401
1698	0.0100143
1710	0.0109746
1722	0.0133752
1734	0.0212632
1746	0.0225664
1758	0.0264075
1770	0.0272306
1782	0.0195484
1794	0.0416347
1806	0.0229094
1818	0.013581
1830	0.00617319
1842	0.00603601
1854	0.0104258
1866	0.0187253
1878	0.019617
1890	0.0130323
1902	0.00548728
1914	0.00651614
1926	0.0133067
1938	0.0319634
1950	0.0284653
1962	0.0151586
1974	0.00281223
1986	0.00198914
1998	0.000891683
2010	0.000754501
2022	0.000342955
2034	0.00068591
2046	0.000548728
2058	0.000274364
2070	0.000823092
2082	0.000548728
2094	0.000137182
2106	0.000411546
2118	0.000274364
2130	0.000205773
2142	0.000205773
2154	0.000274364
2166	0.000342955
2178	0.000960274
2190	0.000617319
2202	0.000411546
2214	0.000617319
2226	0.000480137
2238	0.000274364
2250	0.00068591
2262	0.00116605
2274	0.001509
2286	0.00308659
2298	0.00548728
2310	0.010563
2322	0.0103572
2334	0.00740783
2346	0.00980851
2358	0.00665333
2370	0.00583023
2382	0.00569305
2394	0.00336096
2406	0.00116605
2418	0.00123464
2430	0.00157759
2442	0.00130323
2454	0.00390969
2466	0.000960274
2478	0.00116605
2490	0.00528151
2502	0.00123464
2514	0.00171477
2526	0.00425264
2538	0.00137182
2550	0.001509
2562	0.00144041
2574	0.00288082
2586	0.00322378
2598	0.00390969
2610	0.00473278
2622	0.00768219
2634	0.00631037
2646	0.00438982
2658	0.00390969
2670	0.0037725
2682	0.00370391
2694	0.00336096
2706	0.0038411
2718	0.00370391
2730	0.00432123
2742	0.00425264
2754	0.00445841
2766	0.00493855
2778	0.00768219
2790	0.00967133
2802	0.0113861
2814	0.0128951
2826	0.0175593
2838	0.031689
2850	0.0646813
2862	0.111735
2874	0.111049
2886	0.0777136
2898	0.0933524
2910	0.14068
2922	0.208037
2934	0.280606
2946	0.271072
2958	0.191232
2970	0.139308
2982	0.0665333
2994	0.0521978
3006	0.100623
3018	0.180257
3030	0.406813
3042	0.316067
3054	0.180257
3066	0.355027
3078	0.357428
3090	0.221343
3102	0.118937
3114	0.0718148
3126	0.0235953
3138	0.0108374
3150	0.00850528
3162	0.00802515
3174	0.00493855
3186	0.00240068
3198	0.00137182
3210	0.001509
3222	0.00123464
3234	0.00192055
3246	0.000754501
3258	0.00102886
3270	0.00137182
3282	0.00109746
3294	0.00068591
3306	0.000617319
3318	0.00109746
3330	0.000342955
3342	0.000823092
3354	0.000274364
3366	0.000823092
3378	6.8591e-05
3390	0.000891683
3402	0.000411546
3414	0.00068591
3426	0.000823092
3438	0.000891683
3450	0.000891683
3462	0.000960274
3474	0.00137182
3486	0.000342955
3498	0.000274364
3510	0.00157759
3522	0.00102886
3534	0.000754501
3546	0.00198914
3558	0.000205773
3570	0.00507573
3582	0.00651614
3594	0.00521292
3606	0.00102886
3618	0.00240068
3630	0.00644755
3642	0.0053501
3654	0.00637896
3666	0.00363532
3678	0.00370391
3690	0.00281223
3702	0.00336096
3714	0.00288082
3726	0.00342955
3738	0.00390969
3750	0.000548728
3762	0.000754501
3774	0.00123464
3786	0.00123464
3798	0.00130323
3810	0.0022635
3822	0.00349814
3834	0.00116605
3846	0.00109746
3858	0.00267505
3870	0.003018
3882	0.00219491
3894	0.00425264
3906	0.00212632
3918	0.00445841
3930	0.00219491
3942	0.00164618
3954	0.00212632
3966	0.00205773
