Infrared Spectrum: Cyclohexanol, 1-(tetrahydro-4-pyranyl)-
Formula: C 11 H 20 O 2
CAS: 27070-20-8
Origin: Sadtler Research Labs Under US-EPA Contract
1/CM	ABSORBANCE
450	0
462	0.0132782
474	0.0209033
486	0.0307633
498	0.0277395
510	0.0128838
522	0.0130152
534	0.014067
546	0.0348388
558	0.0383884
570	0.0106488
582	0.00920269
594	0.00657335
606	0.00341814
618	0.00354961
630	0.001972
642	0.00354961
654	0.00433841
666	0.00696775
678	0.00539015
690	0.00473281
702	0.00788802
714	0.00736215
726	0.00604748
738	0.00552161
750	0.00644188
762	0.0103859
774	0.0111747
786	0.00670482
798	0.00946562
810	0.0224809
822	0.0394401
834	0.0418065
846	0.0412806
858	0.0297115
870	0.049826
882	0.0795375
894	0.029843
906	0.0368108
918	0.0441729
930	0.0446988
942	0.0611322
954	0.115691
966	0.177218
978	0.120292
990	0.0733586
1002	0.0452246
1014	0.093736
1026	0.128575
1038	0.0863738
1050	0.0631042
1062	0.0669167
1074	0.0988632
1086	0.145403
1098	0.176823
1110	0.201539
1122	0.251496
1134	0.284495
1146	0.18103
1158	0.122264
1170	0.106094
1182	0.0782229
1194	0.0529812
1206	0.0464079
1218	0.0500889
1230	0.0840074
1242	0.162625
1254	0.155394
1266	0.134228
1278	0.113193
1290	0.107671
1302	0.0837445
1314	0.0595546
1326	0.0544273
1338	0.0684943
1350	0.0868997
1362	0.083613
1374	0.0682314
1386	0.111484
1398	0.0627098
1410	0.0232697
1422	0.0269507
1434	0.0486428
1446	0.105962
1458	0.119635
1470	0.0790117
1482	0.0314206
1494	0.0132782
1506	0.0105174
1518	0.00394401
1530	0.00184054
1542	0.00131467
1554	0.00381254
1566	0.00328667
1578	0.00473281
1590	0.00368108
1602	0.00433841
1614	0.00499575
1626	0.00578455
1638	0.00446988
1650	0.00552161
1662	0.00631042
1674	0.010123
1686	0.00801949
1698	0.00775655
1710	0.0110432
1722	0.0198515
1734	0.0274766
1746	0.0302374
1758	0.0169592
1770	0.0119635
1782	0.00893976
1794	0.00801949
1806	0.00828242
1818	0.00578455
1830	0.00433841
1842	0.00289227
1854	0.00289227
1866	0.00276081
1878	0.00236641
1890	0.00328667
1902	0.00381254
1914	0.00420694
1926	0.00420694
1938	0.00499575
1950	0.00486428
1962	0.00486428
1974	0.00407548
1986	0.00420694
1998	0.00460134
2010	0.00499575
2022	0.00394401
2034	0.00328667
2046	0.00302374
2058	0.00289227
2070	0.00328667
2082	0.00328667
2094	0.00302374
2106	0.00315521
2118	0.00341814
2130	0.00302374
2142	0.00262934
2154	0.00276081
2166	0.00328667
2178	0.00341814
2190	0.00368108
2202	0.00381254
2214	0.00354961
2226	0.00315521
2238	0.00315521
2250	0.00328667
2262	0.00354961
2274	0.00394401
2286	0.00341814
2298	0.00262934
2310	0.00210347
2322	0.00144614
2334	0.00262934
2346	0.00315521
2358	0.00341814
2370	0.00420694
2382	0.00460134
2394	0.00368108
2406	0.00381254
2418	0.00341814
2430	0.00276081
2442	0.00276081
2454	0.00262934
2466	0.00302374
2478	0.00315521
2490	0.00381254
2502	0.00315521
2514	0.00394401
2526	0.00460134
2538	0.00433841
2550	0.00394401
2562	0.00381254
2574	0.00486428
2586	0.00617895
2598	0.00828242
2610	0.00946562
2622	0.0103859
2634	0.0110432
2646	0.0126208
2658	0.0156446
2670	0.0194571
2682	0.0249787
2694	0.0344444
2706	0.0362849
2718	0.0329982
2730	0.0251102
2742	0.0231382
2754	0.0393086
2766	0.0523239
2778	0.0329982
2790	0.0287913
2802	0.0336556
2814	0.0508777
2826	0.138698
2838	0.415436
2850	0.495894
2862	0.412543
2874	0.334321
2886	0.198778
2898	0.185894
2910	0.256492
2922	0.471178
2934	0.983373
2946	1.30139
2958	0.786304
2970	0.612242
2982	0.149084
2994	0.0440414
3006	0.0252417
3018	0.0205089
3030	0.0163019
3042	0.0117006
3054	0.0103859
3066	0.00972856
3078	0.00828242
3090	0.00657335
3102	0.00525868
3114	0.00394401
3126	0.00473281
3138	0.00420694
3150	0.00460134
3162	0.00460134
3174	0.00420694
3186	0.00486428
3198	0.00473281
3210	0.00420694
3222	0.00328667
3234	0.00315521
3246	0.00328667
3258	0.00315521
3270	0.00276081
3282	0.00276081
3294	0.00328667
3306	0.00315521
3318	0.00394401
3330	0.00394401
3342	0.00315521
3354	0.00341814
3366	0.00328667
3378	0.00394401
3390	0.00433841
3402	0.00486428
3414	0.00460134
3426	0.00591601
3438	0.00460134
3450	0.00446988
3462	0.00394401
3474	0.00368108
3486	0.00341814
3498	0.00394401
3510	0.00341814
3522	0.00289227
3534	0.00276081
3546	0.00223494
3558	0.00210347
3570	0.00368108
3582	0.00302374
3594	0.00486428
3606	0.00302374
3618	0.00893976
3630	0.0232697
3642	0.0345758
3654	0.0227438
3666	0.00749362
3678	0.00578455
3690	0.00354961
3702	0.00420694
3714	0.00354961
3726	0.00381254
3738	0.00354961
3750	0.00289227
3762	0.00328667
3774	0.00262934
3786	0.00210347
3798	0.00433841
3810	0.00289227
3822	0.00394401
3834	0.00420694
3846	0.00236641
3858	0.00473281
3870	0.00486428
3882	0.00328667
3894	0.00354961
3906	0.00420694
3918	0.00394401
3930	0.00302374
3942	0.00289227
3954	0.00446988
3966	0.00315521
