Infrared Spectrum: Benzoic acid, 3,5-dichloropentyl
Formula: C 12 H 14 Cl 2 O 2
CAS: 27070-22-0
Origin: Sadtler Research Labs Under US-EPA Contract
1/CM	ABSORBANCE
450	0.0268195
462	0.00805646
474	0.00307417
486	0.00742042
498	0.00053003
510	0.00233213
522	0.00265015
534	0.00318018
546	0.00265015
558	0.00466426
570	0.00127207
582	0.00477027
594	0.00636036
606	0.0071024
618	0.016855
630	0.0116607
642	0.0125087
654	0.0249114
666	0.0461126
678	0.0814126
690	0.0761123
702	0.156041
714	0.235545
726	0.0672078
738	0.0408123
750	0.0386922
762	0.0275616
774	0.0220492
786	0.018021
798	0.0213072
810	0.0213072
822	0.0200351
834	0.0191871
846	0.018127
858	0.0140988
870	0.0116607
882	0.0104946
894	0.0135688
906	0.0161129
918	0.016855
930	0.0209892
942	0.0207772
954	0.0212012
966	0.0272435
978	0.0299997
990	0.0328619
1002	0.0382682
1014	0.0413423
1026	0.153285
1038	0.0659357
1050	0.0555471
1062	0.114486
1074	0.116925
1086	0.182118
1098	0.406745
1110	0.481797
1122	0.190281
1134	0.0727201
1146	0.0485507
1158	0.0437805
1170	0.0644516
1182	0.144062
1194	0.0430384
1206	0.0475967
1218	0.0679498
1230	0.129009
1242	0.266499
1254	0.414059
1266	1.06006
1278	0.507557
1290	0.167807
1302	0.114592
1314	0.131341
1326	0.0755823
1338	0.0496108
1350	0.0398583
1362	0.035724
1374	0.035406
1386	0.0383742
1398	0.0251234
1410	0.0161129
1422	0.0250174
1434	0.0385862
1446	0.0691159
1458	0.0793985
1470	0.0301057
1482	0.018445
1494	0.0125087
1506	0.0053003
1518	0.00402823
1530	0.00434625
1542	0.00561832
1554	0.0071024
1566	0.0069964
1578	0.0126147
1590	0.018445
1602	0.0297877
1614	0.0155829
1626	0.00752643
1638	0.00826847
1650	0.00773844
1662	0.00636036
1674	0.00742042
1686	0.0134628
1698	0.0216252
1710	0.0340279
1722	0.0938153
1734	0.341233
1746	0.547309
1758	0.13908
1770	0.0462186
1782	0.0252294
1794	0.018551
1806	0.0150529
1818	0.0114486
1830	0.00498228
1842	0.00296817
1854	0.00243814
1866	0.00222613
1878	0.00243814
1890	0.00328619
1902	0.00636036
1914	0.00742042
1926	0.00604234
1938	0.00413423
1950	0.00508829
1962	0.0069964
1974	0.00540631
1986	0.00127207
1998	0.000636036
2010	0.000848048
2022	0.000742042
2034	0.00127207
2046	0.00106006
2058	0.00190811
2070	0.00233213
2082	0.00201411
2094	0.00243814
2106	0.00243814
2118	0.0016961
2130	0.00106006
2142	0.000848048
2154	0.000742042
2166	0.00053003
2178	0.000742042
2190	0.000848048
2202	0.000848048
2214	0.000954054
2226	0.000954054
2238	0.00116607
2250	0.00127207
2262	0.00137808
2274	0.00212012
2286	0.00318018
2298	0.00508829
2310	0.00646637
2322	0.00625435
2334	0.00381622
2346	0.00604234
2358	0.00328619
2370	0.00689039
2382	0.00551231
2394	0.00106006
2406	0.00106006
2418	0.000848048
2430	0.000848048
2442	0.000636036
2454	0.000848048
2466	0.000742042
2478	0.000848048
2490	0.000954054
2502	0.00106006
2514	0.000954054
2526	0.00137808
2538	0.00137808
2550	0.00127207
2562	0.00127207
2574	0.00190811
2586	0.00212012
2598	0.00286216
2610	0.00243814
2622	0.00212012
2634	0.0018021
2646	0.0018021
2658	0.0016961
2670	0.00201411
2682	0.00286216
2694	0.00233213
2706	0.00477027
2718	0.00307417
2730	0.00625435
2742	0.00371021
2754	0.00784444
2766	0.00445225
2778	0.00784444
2790	0.0034982
2802	0.00678438
2814	0.00402823
2826	0.00731441
2838	0.00975255
2850	0.0136748
2862	0.0192931
2874	0.0190811
2886	0.0198231
2898	0.0205652
2910	0.0328619
2922	0.0488688
2934	0.0481267
2946	0.0570312
2958	0.0673138
2970	0.10908
2982	0.0895751
2994	0.0391162
3006	0.0343459
3018	0.0278796
3030	0.0204592
3042	0.0271375
3054	0.0273495
3066	0.0376321
3078	0.0652997
3090	0.0280916
3102	0.0250174
3114	0.0130387
3126	0.0053003
3138	0.00339219
3150	0.00307417
3162	0.00371021
3174	0.00392222
3186	0.00233213
3198	0.00222613
3210	0.00222613
3222	0.00222613
3234	0.00190811
3246	0.00190811
3258	0.00190811
3270	0.0016961
3282	0.00222613
3294	0.00148408
3306	0.00222613
3318	0.00254414
3330	0.00233213
3342	0.00275616
3354	0.00296817
3366	0.00265015
3378	0.0018021
3390	0.0016961
3402	0.00148408
3414	0.00127207
3426	0.00265015
3438	0.00243814
3450	0.00286216
3462	0.00402823
3474	0.00318018
3486	0.000742042
3498	0.00053003
3510	0.00201411
3522	0.00212012
3534	0.00148408
3546	0.0018021
3558	0.00254414
3570	0.00243814
3582	0.00339219
3594	0.00254414
3606	0.00137808
3618	0.00148408
3630	0.00190811
3642	0.00190811
3654	0.00222613
3666	0.00254414
3678	0.00233213
3690	0.00307417
3702	0.00328619
3714	0.00275616
3726	0.00275616
3738	0.00254414
3750	0.00275616
3762	0.00254414
3774	0.00233213
3786	0.00286216
3798	0.00233213
3810	0.00318018
3822	0.00307417
3834	0.00371021
3846	0.00296817
3858	0.0034982
3870	0.00328619
3882	0.00455826
3894	0.0016961
3906	0.0036042
3918	0.00286216
3930	0.00424024
3942	0.00328619
3954	0.00371021
3966	0.00265015
