Infrared Spectrum: Benzenamine, 2,4-dimethoxy-
Formula: C 8 H 11 N O 2
CAS: 2735-04-8
Origin: Sadtler Research Labs Under US-EPA Contract
1/CM	ABSORBANCE
450	0.0197255
462	0.0241796
474	0.0577765
486	0.0535769
498	0.0288882
510	0.0465775
522	0.0318152
534	0.0413598
546	0.0315607
558	0.0455594
570	0.026343
582	0.0482319
594	0.0554858
606	0.0548495
618	0.0864102
630	0.0967184
642	0.106645
654	0.1027
666	0.0749567
678	0.0642668
690	0.0596854
702	0.0710116
714	0.051668
726	0.0240523
738	0.0427597
750	0.00203618
762	0.0295246
774	0.0637578
786	0.126497
798	0.132224
810	0.086283
822	0.0813198
834	0.105118
846	0.0925187
858	0.0491227
870	0.0222707
882	0.0148895
894	0.0167985
906	0.0240523
918	0.0701208
930	0.0758476
942	0.0271066
954	0.0155258
966	0.0171802
978	0.022907
990	0.0360149
1002	0.0585401
1014	0.104481
1026	0.222325
1038	0.353658
1050	0.308481
1062	0.168748
1074	0.115426
1086	0.109444
1098	0.0888282
1110	0.0752113
1122	0.113899
1134	0.281629
1146	0.507771
1158	0.640886
1170	0.307081
1182	0.170148
1194	0.314335
1206	0.551931
1218	0.414235
1230	0.401127
1242	0.41398
1254	0.280356
1266	0.356204
1278	0.402017
1290	0.299572
1302	0.18351
1314	0.123189
1326	0.0741932
1338	0.0519225
1350	0.040978
1362	0.0240523
1374	0.0145078
1386	0.0159076
1398	0.0208708
1410	0.0483592
1422	0.086792
1434	0.142023
1446	0.204254
1458	0.213289
1470	0.26114
1482	0.214053
1494	0.294991
1506	0.869447
1518	1.19473
1530	0.34335
1542	0.0675756
1554	0.0547222
1566	0.0735569
1578	0.141387
1590	0.312298
1602	0.361167
1614	0.191528
1626	0.111862
1638	0.0683392
1650	0.0246886
1662	0.0213798
1674	0.0105627
1686	0.00674483
1698	0.002927
1710	0.0139987
1722	0.0105627
1734	0.000381783
1746	0.00636305
1758	0.0081447
1770	0.00369057
1782	0.00852649
1794	0.00649031
1806	0.0120898
1818	0.0132351
1830	0.0104354
1842	0.0106899
1854	0.0138714
1866	0.0115808
1878	0.0119625
1890	0.00687209
1902	0.00827196
1914	0.00839923
1926	0.00852649
1938	0.00916279
1950	0.00903553
1962	0.00839923
1974	0.00763566
1986	0.00776292
1998	0.00839923
2010	0.00776292
2022	0.00674483
2034	0.00839923
2046	0.0110717
2058	0.014126
2070	0.0157804
2082	0.0152713
2094	0.0127261
2106	0.0106899
2118	0.00903553
2130	0.0075084
2142	0.00649031
2154	0.00661757
2166	0.00661757
2178	0.00623579
2190	0.00712662
2202	0.00801744
2214	0.00674483
2226	0.00623579
2238	0.00496318
2250	0.00407235
2262	0.00419961
2274	0.00394509
2286	0.0052177
2298	0.00789018
2310	0.00954457
2322	0.00801744
2334	0.00598127
2346	0.00738114
2358	0.00699935
2370	0.00623579
2382	0.00598127
2394	0.00216344
2406	0.00165439
2418	0.00241796
2430	0.00305426
2442	0.00279974
2454	0.00101809
2466	0.000509044
2478	0.00114535
2490	0.00203618
2502	0.00203618
2514	0.00165439
2526	0.00101809
2538	0.00114535
2550	0.0022907
2562	0.00216344
2574	0.00203618
2586	0.00279974
2598	0.00381783
2610	0.00547222
2622	0.00470866
2634	0.00343605
2646	0.00343605
2658	0.00369057
2670	0.00305426
2682	0.00305426
2694	0.0022907
2706	0.00267248
2718	0.00318152
2730	0.00305426
2742	0.00356331
2754	0.00470866
2766	0.00687209
2778	0.0103081
2790	0.0157804
2802	0.0232888
2814	0.0371602
2826	0.0740659
2838	0.167094
2850	0.160349
2862	0.092137
2874	0.0801744
2886	0.0883191
2898	0.106899
2910	0.144823
2922	0.178165
2934	0.201581
2946	0.280356
2958	0.254649
2970	0.155895
2982	0.114408
2994	0.174475
3006	0.243323
3018	0.126243
3030	0.0848831
3042	0.0848831
3054	0.052177
3066	0.0374147
3078	0.043905
3090	0.0384328
3102	0.026343
3114	0.0193437
3126	0.0143805
3138	0.0103081
3150	0.00776292
3162	0.00636305
3174	0.00598127
3186	0.00534496
3198	0.00407235
3210	0.00445413
3222	0.00356331
3234	0.00381783
3246	0.0022907
3258	0.000763566
3270	0.00114535
3282	0.000254522
3294	0.000127261
3306	0.000763566
3318	0.000381783
3330	0.00101809
3342	0.00127261
3354	0.00114535
3366	0.00356331
3378	0.00916279
3390	0.0250704
3402	0.0418689
3414	0.0237978
3426	0.0103081
3438	0.00801744
3450	0.00992636
3462	0.0190891
3474	0.034615
3486	0.0561221
3498	0.0432687
3510	0.01998
3522	0.00967184
3534	0.00559948
3546	0.00699935
3558	0.00330879
3570	0.00585401
3582	0.00190891
3594	0.00432687
3606	0.00203618
3618	0.00381783
3630	0.00483592
3642	0.00330879
3654	0.00305426
3666	0.00394509
3678	0.00445413
3690	0.00241796
3702	0.00381783
3714	0.00432687
3726	0.0101809
3738	0.00483592
3750	0.00216344
3762	0.00305426
3774	0.002927
3786	0.00305426
3798	0.0022907
3810	0.00152713
3822	0.000890827
3834	0.00330879
3846	0.00496318
3858	0.00279974
3870	0.00305426
3882	0.00636305
3894	0.000763566
3906	0.00407235
3918	0.002927
3930	0
3942	0
3954	0.00241796
3966	0.00623579
