Infrared Spectrum: 1,3-Benzodioxole
Formula: C 7 H 6 O 2
CAS: 274-09-9
Origin: Sadtler Research Labs Under US-EPA Contract
1/CM	ABSORBANCE
450	0.0114042
462	0.00975823
474	0.00435005
486	0.00717171
498	0.00752442
510	0.00881768
522	0.0146961
534	0.0201043
546	0.0166948
558	0.015284
570	0.00764198
582	0.006819
594	0.00728928
606	0.0049379
618	0.00905281
630	0.00799469
642	0.00634873
654	0.00787712
666	0.0015284
678	0.00811226
690	0.0101109
702	0.0156367
714	0.0934674
726	0.248423
738	0.431713
750	0.19199
762	0.0313909
774	0.0103461
786	0.0379748
798	0.0631346
810	0.0427951
822	0.0285693
834	0.0380924
846	0.0720698
858	0.0620764
870	0.0295098
882	0.0106988
894	0.0178705
906	0.0430303
918	0.0449114
930	0.0884119
942	0.186935
954	0.201161
966	0.106518
978	0.0326842
990	0.0328018
1002	0.0410316
1014	0.0526709
1026	0.117804
1038	0.254654
1050	0.381276
1062	0.322139
1074	0.159894
1086	0.103931
1098	0.0912335
1110	0.0728928
1122	0.0747739
1134	0.0511425
1146	0.0450289
1158	0.0359761
1170	0.018811
1182	0.0151664
1194	0.0241016
1206	0.0500844
1218	0.303446
1230	1.07823
1242	1.06024
1254	0.245367
1266	0.132265
1278	0.0646629
1290	0.0201043
1302	0.0130502
1314	0.0171651
1326	0.0199867
1338	0.0201043
1350	0.15813
1362	0.21374
1374	0.0650157
1386	0.0126975
1398	0.0259827
1410	0.0203394
1422	0.00728928
1434	0.0122272
1446	0.0343301
1458	0.0730103
1470	0.446645
1482	1.12937
1494	0.731162
1506	0.146138
1518	0.101815
1530	0.0150488
1542	0
1554	0.0118745
1566	0.0288044
1578	0.0252773
1590	0.0164597
1602	0.0213976
1614	0.0245719
1626	0.0241016
1638	0.0222205
1650	0.00117569
1662	0.0049379
1674	0.00329193
1686	0.00211624
1698	0.00352707
1710	0.0115218
1722	0.00917038
1734	0.0109339
1746	0.0164597
1758	0.0142258
1770	0.00893524
1782	0.00799469
1794	0.006819
1806	0.0105812
1818	0.00940552
1830	0.0034095
1842	0.00728928
1854	0.018811
1866	0.0193989
1878	0.0158718
1890	0.0168124
1902	0.0215151
1914	0.0129326
1926	0.00411492
1938	0.00705414
1950	0.00717171
1962	0.00517304
1974	0.00529061
1986	0.00764198
1998	0.0122272
2010	0.015284
2022	0.0112866
2034	0.0101109
2046	0.0083474
2058	0.00728928
2070	0.00658386
2082	0.00611359
2094	0.00646629
2106	0.00564331
2118	0.00411492
2130	0.00411492
2142	0.00435005
2154	0.00435005
2166	0.00387978
2178	0.00305679
2190	0.00317436
2202	0.00329193
2214	0.00352707
2226	0.00387978
2238	0.00352707
2250	0.00435005
2262	0.00540817
2274	0.00799469
2286	0.00787712
2298	0.00858254
2310	0.00999337
2322	0.00799469
2334	0.00576088
2346	0.00576088
2358	0.00458519
2370	0.0049379
2382	0.00376221
2394	0.00223381
2406	0.00176353
2418	0.00211624
2430	0.00246895
2442	0.00282166
2454	0.00587845
2466	0.00858254
2478	0.00470276
2490	0.0034095
2502	0.00387978
2514	0.00399735
2526	0.00352707
2538	0.00364464
2550	0.00552574
2562	0.00705414
2574	0.00787712
2586	0.0138731
2598	0.0158718
2610	0.0083474
2622	0.00529061
2634	0.00411492
2646	0.00293923
2658	0.00329193
2670	0.00399735
2682	0.00540817
2694	0.00658386
2706	0.00846497
2718	0.0108163
2730	0.00846497
2742	0.00858254
2754	0.0130502
2766	0.0348004
2778	0.0574912
2790	0.0424424
2802	0.0176354
2814	0.0137556
2826	0.0193989
2838	0.0323315
2850	0.0526709
2862	0.104284
2874	0.169417
2886	0.185641
2898	0.128385
2910	0.102167
2922	0.127327
2934	0.119568
2946	0.0893524
2958	0.0728928
2970	0.0619589
2982	0.0556101
2994	0.0452641
3006	0.0406789
3018	0.055375
3030	0.0614886
3042	0.0456168
3054	0.0470276
3066	0.0949958
3078	0.104754
3090	0.054552
3102	0.0316261
3114	0.0239841
3126	0.0103461
3138	0.00435005
3150	0.00270409
3162	0.00223381
3174	0.00246895
3186	0.00164597
3198	0.00199867
3210	0.00211624
3222	0.00199867
3234	0.00176353
3246	0.00223381
3258	0.00199867
3270	0.0018811
3282	0.00199867
3294	0.00211624
3306	0.00176353
3318	0.00211624
3330	0.00258652
3342	0.00176353
3354	0.00223381
3366	0.00270409
3378	0.00270409
3390	0.00270409
3402	0.00211624
3414	0.00235138
3426	0.00258652
3438	0.00176353
3450	0.00164597
3462	0.00246895
3474	0.00199867
3486	0.00270409
3498	0.00164597
3510	0.00211624
3522	0.00246895
3534	0.00235138
3546	0.00235138
3558	0.00258652
3570	0.00164597
3582	0.00270409
3594	0.00282166
3606	0.00352707
3618	0.00293923
3630	0.0034095
3642	0.00352707
3654	0.00329193
3666	0.00364464
3678	0.00364464
3690	0.00235138
3702	0.00293923
3714	0.00282166
3726	0.0034095
3738	0.00282166
3750	0.00329193
3762	0.00282166
3774	0.00293923
3786	0.00305679
3798	0.00270409
3810	0.00235138
3822	0.0034095
3834	0.00411492
3846	0.00399735
3858	0.00376221
3870	0.00235138
3882	0.00423248
3894	0.00552574
3906	0.00587845
3918	0.00540817
3930	0.00717171
3942	0.00670143
3954	0.0049379
3966	0.00505547
