Infrared Spectrum: 1,3,4-Thiadiazole, 2,5-dimethyl-
Formula: C 4 H 6 N 2 S
CAS: 27464-82-0
Origin: Sadtler Research Labs Under US-EPA Contract
1/CM	ABSORBANCE
450	0.0129003
462	0.0040482
474	0.000701688
486	0.00534362
498	0.00394025
510	0.00987761
522	0.0101475
534	0.00750266
546	0.00707086
558	0.00377832
570	0.00588338
582	0.00501977
594	0.0056135
606	0.0128463
618	0.0394565
630	0.19793
642	0.223353
654	0.0793987
666	0.0212665
678	0.0103634
690	0.00431808
702	0.00194314
714	0.00178121
726	0.00118747
738	0.000161928
750	0.00124145
762	0.00205109
774	0.00145735
786	0.0011335
798	0.00129542
810	0.00183518
822	0.00107952
834	0.00140338
846	0.00167326
858	0.00188916
870	0.0015653
882	0.0029147
894	0.00340049
906	0.0065311
918	0.0161928
930	0.0447461
942	0.0735693
954	0.0757823
966	0.0506295
978	0.0228318
990	0.0138179
1002	0.0107412
1014	0.0102015
1026	0.0121986
1038	0.0193234
1050	0.0256386
1062	0.0248829
1074	0.0174882
1086	0.0119287
1098	0.0114969
1110	0.0160309
1122	0.0300646
1134	0.0436126
1146	0.0747568
1158	0.111083
1170	0.295411
1182	0.491559
1194	0.478605
1206	0.28305
1218	0.234742
1230	0.180604
1242	0.0667683
1254	0.0300107
1266	0.0311981
1278	0.0332492
1290	0.0358401
1302	0.0261244
1314	0.0186757
1326	0.018082
1338	0.0206728
1350	0.024667
1362	0.0324396
1374	0.0621264
1386	0.0779953
1398	0.0553254
1410	0.0640695
1422	0.0968329
1434	0.141687
1446	0.169431
1458	0.170348
1470	0.179524
1482	0.174666
1494	0.111622
1506	0.0465813
1518	0.026934
1530	0.0259085
1542	0.0256926
1554	0.022454
1566	0.0204569
1578	0.017974
1590	0.0141417
1602	0.0100935
1614	0.00815038
1626	0.006747
1638	0.0065311
1650	0.00501977
1662	0.00340049
1674	0.0026988
1686	0.00334651
1698	0.0042641
1710	0.00340049
1722	0.00329254
1734	0.00318458
1746	0.00145735
1758	0.00161928
1770	0.00172723
1782	0.00275278
1794	0.00226699
1806	0.000971568
1818	0.000755664
1830	0.000863616
1842	0.00178121
1854	0.00102554
1866	0.000593736
1878	0.00053976
1890	0.00161928
1902	0.00215904
1914	0.000971568
1926	5.3976e-05
1938	0.000161928
1950	0.000323856
1962	0.000701688
1974	0.00102554
1986	0.0015653
1998	0.00237494
2010	0.00286073
2022	0.00226699
2034	0.00124145
2046	0.000377832
2058	0.000377832
2070	0.000863616
2082	0.00107952
2094	0.00199711
2106	0.00340049
2118	0.00480386
2130	0.00469591
2142	0.00415615
2154	0.00345446
2166	0.00280675
2178	0.00102554
2190	0.000107952
2202	5.3976e-05
2214	0.000107952
2226	0.000593736
2238	0.000701688
2250	0.000755664
2262	0.000485784
2274	0.000647712
2286	0.00102554
2298	0.0026988
2310	0.00480386
2322	0.00582941
2334	0.00512772
2346	0.00647712
2358	0.00647712
2370	0.00885206
2382	0.00815038
2394	0.00599134
2406	0.00550555
2418	0.00464194
2430	0.00480386
2442	0.00458796
2454	0.00442603
2466	0.00448001
2478	0.00458796
2490	0.00410218
2502	0.00388627
2514	0.00367037
2526	0.0042641
2538	0.00534362
2550	0.00744869
2562	0.0083123
2574	0.00717881
2586	0.00464194
2598	0.00340049
2610	0.00253687
2622	0.00129542
2634	0.00161928
2646	0.00232097
2658	0.00350844
2670	0.00388627
2682	0.00313061
2694	0.00275278
2706	0.00215904
2718	0.00226699
2730	0.00334651
2742	0.00469591
2754	0.0038323
2766	0.00232097
2778	0.00188916
2790	0.00329254
2802	0.00485784
2814	0.00669302
2826	0.00890604
2838	0.0123065
2850	0.0231557
2862	0.0431268
2874	0.0500897
2886	0.040482
2898	0.0354622
2910	0.0402661
2922	0.0608849
2934	0.163385
2946	0.177689
2958	0.112
2970	0.0640695
2982	0.0779953
2994	0.0549476
3006	0.0443683
3018	0.0363798
3030	0.0241273
3042	0.0243432
3054	0.0290931
3066	0.0281215
3078	0.0263943
3090	0.0204569
3102	0.0127383
3114	0.00723278
3126	0.00555953
3138	0.00474989
3150	0.00313061
3162	0.00199711
3174	0.00151133
3186	0.00124145
3198	0.00129542
3210	0.00129542
3222	0.00140338
3234	0.000971568
3246	0.00129542
3258	0.0011335
3270	0.00145735
3282	0.00172723
3294	0.00232097
3306	0.00221302
3318	0.0015653
3330	0.000701688
3342	0.00118747
3354	0.0013494
3366	0.00151133
3378	0.00172723
3390	0.000863616
3402	0.00118747
3414	0.00172723
3426	0.000971568
3438	0.00140338
3450	0.00183518
3462	0.00199711
3474	0.00205109
3486	0.00199711
3498	0.00183518
3510	0.00194314
3522	0.00151133
3534	0.00107952
3546	0.000701688
3558	0.000863616
3570	0.00226699
3582	0.00183518
3594	0.000755664
3606	0.0011335
3618	0.000377832
3630	0.00226699
3642	0.000323856
3654	0.000755664
3666	0.00140338
3678	0.00124145
3690	0.0013494
3702	0.00172723
3714	0.00124145
3726	0.0013494
3738	0.00151133
3750	0.00161928
3762	0.000971568
3774	0.000971568
3786	0.0011335
3798	0.000431808
3810	0.00183518
3822	0.00178121
3834	0.0015653
3846	0.00199711
3858	0.00161928
3870	0.00172723
3882	0.00140338
3894	0.00188916
3906	0.00215904
3918	0.00215904
3930	0.00151133
3942	0.0024829
3954	0.00280675
3966	0.00237494
