Infrared Spectrum: Azulene
Formula: C 10 H 8
CAS: 275-51-4
Origin: Sadtler Research Labs Under US-EPA Contract
1/CM	ABSORBANCE
450	0
462	0.0225135
474	0.0345795
486	0.0445855
498	0.031048
510	0.0261922
522	0.0213363
534	0.0457627
546	0.103297
558	0.173633
570	0.0707777
582	0.0285465
594	0.0304594
606	0.0244264
618	0.0211892
630	0.0208949
642	0.0185405
654	0.0233964
666	0.0341381
678	0.0484114
690	0.0459099
702	0.0673933
714	0.112126
726	0.0953513
738	0.159213
750	0.633174
762	1.47147
774	0.715134
786	0.154504
798	0.0441441
810	0.0585645
822	0.0594474
834	0.0291351
846	0.021042
858	0.0272222
870	0.0385525
882	0.0416426
894	0.0859338
906	0.0794594
918	0.0441441
930	0.111832
942	0.227195
954	0.147736
966	0.0779879
978	0.0466456
990	0.0413483
1002	0.0431141
1014	0.0353153
1026	0.0281051
1038	0.0425255
1050	0.0924083
1062	0.0803423
1074	0.0286937
1086	0.0198648
1098	0.0192763
1110	0.0231021
1122	0.0225135
1134	0.0222192
1146	0.0238378
1158	0.0211892
1170	0.0191291
1182	0.0226606
1194	0.0563573
1206	0.0626846
1218	0.0366396
1230	0.0183934
1242	0.0167748
1254	0.021042
1266	0.0297237
1278	0.0403183
1290	0.0635675
1302	0.0625375
1314	0.0322252
1326	0.0242793
1338	0.0282522
1350	0.0394354
1362	0.0913783
1374	0.221162
1386	0.538999
1398	0.56887
1410	0.252651
1422	0.175252
1434	0.275459
1446	0.316219
1458	0.181138
1470	0.134492
1482	0.133315
1494	0.0974113
1506	0.0666576
1518	0.0816666
1530	0.136258
1542	0.141997
1554	0.175105
1566	0.408333
1578	0.526639
1590	0.203651
1602	0.0619489
1614	0.0682762
1626	0.0794594
1638	0.0673933
1650	0.0495885
1662	0.0398768
1674	0.0447327
1686	0.0591531
1698	0.0562102
1710	0.0338438
1722	0.0276636
1734	0.0276636
1746	0.023985
1758	0.023985
1770	0.0269279
1782	0.0385525
1794	0.05003
1806	0.0675405
1818	0.0884353
1830	0.0590059
1842	0.0345795
1854	0.0291351
1866	0.0291351
1878	0.0386997
1890	0.0454684
1902	0.0428198
1914	0.0497357
1926	0.0488528
1938	0.0395825
1950	0.049
1962	0.0494414
1974	0.0292823
1986	0.0201591
1998	0.020012
2010	0.0182462
2022	0.0185405
2034	0.0183934
2046	0.0198648
2058	0.0229549
2070	0.0253093
2082	0.0282522
2094	0.0344324
2106	0.0367868
2118	0.0306066
2130	0.023985
2142	0.0247207
2154	0.027075
2166	0.0232492
2178	0.0185405
2190	0.0172162
2202	0.0179519
2214	0.0182462
2226	0.0188348
2238	0.0248678
2250	0.0338438
2262	0.0303123
2274	0.0207477
2286	0.0197177
2298	0.0217778
2310	0.022072
2322	0.0203063
2334	0.021042
2346	0.0261922
2358	0.0298708
2370	0.0256036
2382	0.0283994
2394	0.0313423
2406	0.0248678
2418	0.0173633
2430	0.0158919
2442	0.015009
2454	0.0148618
2466	0.0153033
2478	0.0155976
2490	0.0158919
2502	0.0180991
2514	0.0170691
2526	0.0148618
2538	0.0133904
2550	0.0128018
2562	0.0126546
2574	0.0136847
2586	0.0158919
2598	0.0182462
2610	0.0172162
2622	0.0158919
2634	0.0163333
2646	0.015009
2658	0.0144204
2670	0.0141261
2682	0.0141261
2694	0.0142733
2706	0.0136847
2718	0.0135375
2730	0.0135375
2742	0.0141261
2754	0.015009
2766	0.0142733
2778	0.0147147
2790	0.0157447
2802	0.0158919
2814	0.0158919
2826	0.0178048
2838	0.0207477
2850	0.0208949
2862	0.0197177
2874	0.0216306
2886	0.0223663
2898	0.022072
2910	0.0229549
2922	0.0241321
2934	0.0282522
2946	0.0386997
2958	0.0572402
2970	0.0726906
2982	0.0788708
2994	0.107712
3006	0.21042
3018	0.296354
3030	0.317396
3042	0.30327
3054	0.320192
3066	0.312982
3078	0.292675
3090	0.350357
3102	0.291645
3114	0.104916
3126	0.0283994
3138	0.0233964
3150	0.0229549
3162	0.0225135
3174	0.0201591
3186	0.0176576
3198	0.0164805
3210	0.0164805
3222	0.0161862
3234	0.0148618
3246	0.015009
3258	0.0144204
3270	0.0135375
3282	0.0130961
3294	0.0128018
3306	0.0135375
3318	0.0132432
3330	0.0128018
3342	0.0136847
3354	0.0129489
3366	0.0132432
3378	0.0135375
3390	0.0130961
3402	0.0144204
3414	0.0132432
3426	0.0138318
3438	0.0136847
3450	0.0142733
3462	0.0142733
3474	0.0142733
3486	0.0130961
3498	0.0133904
3510	0.0130961
3522	0.0133904
3534	0.0135375
3546	0.0148618
3558	0.0133904
3570	0.0144204
3582	0.0138318
3594	0.0141261
3606	0.0129489
3618	0.0126546
3630	0.0132432
3642	0.0129489
3654	0.0141261
3666	0.0147147
3678	0.0145676
3690	0.0145676
3702	0.0132432
3714	0.0138318
3726	0.0142733
3738	0.0135375
3750	0.0135375
3762	0.0133904
3774	0.0138318
3786	0.0136847
3798	0.0126546
3810	0.0133904
3822	0.0126546
3834	0.0125075
3846	0.0130961
3858	0.0138318
3870	0.0145676
3882	0.0185405
3894	0.0273693
3906	0.0273693
3918	0.0208949
3930	0.0157447
3942	0.0175105
3954	0.0170691
3966	0.015009
