Infrared Spectrum: Isobornyl propionate
Formula: C 13 H 22 O 2
CAS: 2756-56-1
Origin: Sadtler Research Labs Under US-EPA Contract
1/CM	ABSORBANCE
450	0.0173107
462	0.0182321
474	0.0159943
486	0.0173765
498	0.0202726
510	0.0132298
522	0.00566052
534	0.0088857
546	0.0128349
558	0.0169157
570	0.0216548
582	0.0181005
594	0.0121109
606	0.0209966
618	0.0191536
630	0.0135589
642	0.0129665
654	0.0121767
666	0.0194169
678	0.0100705
690	0.00993882
702	0.00355428
714	0.00572634
726	0.00552888
738	0.0052656
750	0.00566052
762	0.00704274
774	0.00467322
786	0.0122425
798	0.0177056
810	0.0167183
822	0.0132298
834	0.0221155
846	0.0234319
858	0.0211282
870	0.0187587
882	0.0194169
894	0.0182321
906	0.0168499
918	0.0219181
930	0.0261305
942	0.0354112
954	0.0290266
966	0.0429805
978	0.0411375
990	0.0459424
1002	0.0593696
1014	0.135458
1026	0.131574
1038	0.062529
1050	0.135194
1062	0.221616
1074	0.197987
1086	0.163234
1098	0.0767461
1110	0.0964263
1122	0.0668073
1134	0.0654909
1146	0.0845787
1158	0.149016
1170	0.345752
1182	0.59837
1194	0.408347
1206	0.293031
1218	0.221748
1230	0.159284
1242	0.138354
1254	0.123413
1266	0.114922
1278	0.122359
1290	0.0711514
1302	0.0474562
1314	0.0513396
1326	0.087409
1338	0.113408
1350	0.138288
1362	0.0829332
1374	0.0846445
1386	0.100244
1398	0.0825383
1410	0.0340948
1422	0.0294215
1434	0.0388996
1446	0.0645694
1458	0.117489
1470	0.130126
1482	0.0758905
1494	0.0383731
1506	0.0195485
1518	0.015731
1530	0.0108603
1542	0.015007
1554	0.011321
1566	0.00539724
1578	0.0103337
1590	0.0069111
1602	0.00868824
1614	0.00849078
1626	0.0072402
1638	0.0115843
1650	0.00993882
1662	0.0119792
1674	0.0140197
1686	0.0195485
1698	0.0255382
1710	0.0368592
1722	0.0517345
1734	0.0942542
1746	0.376425
1758	0.591459
1770	0.11637
1782	0.0415324
1794	0.0311987
1806	0.0175081
1818	0.0129665
1830	0.0107945
1842	0.00730602
1854	0.00717438
1866	0.0055947
1878	0.0055947
1890	0.00671364
1902	0.00546306
1914	0.00539724
1926	0.00651618
1938	0.00638454
1950	0.00454158
1962	0.0062529
1974	0.00605544
1986	0.0052656
1998	0.00612126
2010	0.00467322
2022	0.00585798
2034	0.00533142
2046	0.00697692
2058	0.00171132
2070	0.00539724
2082	0.00506814
2094	0.00454158
2106	0.00763512
2118	0.00447576
2130	0.00579216
2142	0.00388338
2154	0.00585798
2166	0.0055947
2178	0.00539724
2190	0.00651618
2202	0.003291
2214	0.0069111
2226	0.00434412
2238	0.00539724
2250	0.00440994
2262	0.00566052
2274	0.00566052
2286	0.00572634
2298	0.00829332
2310	0.00796422
2322	0.0151386
2334	0.0186929
2346	0.0196144
2358	0.0254065
2370	0.0242218
2382	0.0123083
2394	0.0039492
2406	0.00796422
2418	0.00236952
2430	0.00519978
2442	0.00638454
2454	0.00467322
2466	0.0062529
2478	0.00276444
2490	0.0039492
2502	0.00368592
2514	0.0046074
2526	0.00302772
2538	0.00506814
2550	0.00533142
2562	0.00421248
2574	0.0069111
2586	0.00487068
2598	0.00816168
2610	0.00598962
2622	0.00750348
2634	0.00809586
2646	0.0062529
2658	0.00881988
2670	0.00434412
2682	0.0075693
2694	0.00368592
2706	0.00710856
2718	0.0059238
2730	0.0102021
2742	0.0111894
2754	0.00776676
2766	0.0106628
2778	0.0109261
2790	0.0115185
2802	0.00941226
2814	0.0127691
2826	0.0160601
2838	0.0193511
2850	0.0246825
2862	0.0336998
2874	0.0944517
2886	0.213652
2898	0.213718
2910	0.145199
2922	0.169618
2934	0.253012
2946	0.41335
2958	0.551901
2970	0.52656
2982	0.300797
2994	0.217074
3006	0.0960314
3018	0.0761537
3030	0.0388996
3042	0.0204042
3054	0.0130982
3066	0.014612
3078	0.0128349
3090	0.0132298
3102	0.0095439
3114	0.0107287
3126	0.0122425
3138	0.0105312
3150	0.0111236
3162	0.00941226
3174	0.010597
3186	0.00809586
3198	0.00763512
3210	0.00809586
3222	0.00651618
3234	0.00704274
3246	0.00816168
3258	0.00612126
3270	0.00704274
3282	0.006582
3294	0.00704274
3306	0.00579216
3318	0.0062529
3330	0.0029619
3342	0.00710856
3354	0.00500232
3366	0.0036201
3378	0.0062529
3390	0.00566052
3402	0.00256698
3414	0.0036201
3426	0.00533142
3438	0.00217206
3450	0.00434412
3462	0.00704274
3474	0.00776676
3486	0.0129665
3498	0.0109261
3510	0.00519978
3522	0.00572634
3534	0.0055947
3546	0.00276444
3558	0.00513396
3570	0.00941226
3582	0.0036201
3594	0.00651618
3606	0.00355428
3618	0.00388338
3630	0.00671364
3642	0.00480486
3654	0.00454158
3666	0.0023037
3678	0.0059238
3690	0.00454158
3702	0.00289608
3714	0.00730602
3726	0.00368592
3738	0.00645036
3750	0.006582
3762	0.0036201
3774	0.00144804
3786	0.00381756
3798	0.00289608
3810	0.0029619
3822	0.00487068
3834	0.00210624
3846	0.00125058
3858	0.00355428
3870	0.0003291
3882	0.00019746
3894	0.00019746
3906	0.00013164
3918	0.00019746
3930	0.00019746
3942	0.00039492
3954	0.00019746
3966	0.00019746
