Infrared Spectrum: 2-Cyclopenten-1-one, 3-methyl-
Formula: C 6 H 8 O
CAS: 2758-18-1
Origin: Sadtler Research Labs Under US-EPA Contract
1/CM	ABSORBANCE
450	0.00366673
462	0.0139618
474	0.0377955
486	0.0334236
498	0.0126925
510	0.00888476
522	0.0070514
534	0.00634626
546	0.00860271
558	0.0129746
570	0.0143849
582	0.0128335
594	0.0114233
606	0.020308
618	0.0205901
630	0.00789757
642	0.00535906
654	0.00620523
666	0.00521804
678	0.00239748
690	0.00366673
702	0.00380776
714	0.00535906
726	0.00564112
738	0.0060642
750	0.00676934
762	0.0060642
774	0.0117053
786	0.0070514
798	0.00888476
810	0.0263722
822	0.0788347
834	0.105771
846	0.0874374
858	0.0506291
870	0.0196029
882	0.0104361
894	0.00817962
906	0.00930785
918	0.0110002
930	0.0117053
942	0.0157951
954	0.0291928
966	0.0486547
978	0.0440007
990	0.0311672
1002	0.0204491
1014	0.0165003
1026	0.0117053
1038	0.0104361
1050	0.00944888
1062	0.0105771
1074	0.0135387
1086	0.0170644
1098	0.0212952
1110	0.0296159
1122	0.0526034
1134	0.0765782
1146	0.0920913
1158	0.130028
1170	0.222542
1182	0.20858
1194	0.0833475
1206	0.0307441
1218	0.0321544
1230	0.0492188
1242	0.0544368
1254	0.0427315
1266	0.0885656
1278	0.108733
1290	0.0882835
1302	0.055424
1314	0.0768603
1326	0.080386
1338	0.050488
1350	0.0386417
1362	0.0520393
1374	0.0675524
1386	0.0599369
1398	0.0528855
1410	0.0588087
1422	0.0691037
1434	0.100412
1446	0.100835
1458	0.0887066
1470	0.0372314
1482	0.0183336
1494	0.0135387
1506	0.0138207
1518	0.0128335
1530	0.0139618
1542	0.0177695
1554	0.01509
1566	0.0172054
1578	0.0194619
1590	0.0196029
1602	0.0276415
1614	0.0693858
1626	0.207452
1638	0.244966
1650	0.140746
1662	0.0558471
1674	0.0565522
1686	0.075309
1698	0.114515
1710	0.201247
1722	0.690473
1734	1.21524
1746	1.26939
1758	0.662832
1770	0.118605
1782	0.0363852
1794	0.0239748
1806	0.0146669
1818	0.0111412
1830	0.0143849
1842	0.01509
1854	0.0128335
1866	0.00916682
1878	0.00676934
1890	0.00676934
1902	0.00550009
1914	0.0045129
1926	0.00535906
1938	0.00676934
1950	0.00733346
1962	0.00662832
1974	0.00521804
1986	0.0045129
1998	0.00437187
2010	0.00366673
2022	0.00366673
2034	0.00338467
2046	0.0035257
2058	0.00394878
2070	0.00366673
2082	0.00380776
2094	0.00394878
2106	0.00408981
2118	0.00479495
2130	0.00507701
2142	0.00507701
2154	0.00493598
2166	0.00507701
2178	0.00479495
2190	0.00535906
2202	0.00564112
2214	0.00521804
2226	0.00564112
2238	0.00564112
2250	0.00634626
2262	0.00733346
2274	0.00662832
2286	0.00578215
2298	0.00408981
2310	0.00169234
2322	0
2334	0
2346	0
2358	0
2370	0
2382	0.00169234
2394	0.00550009
2406	0.00535906
2418	0.00493598
2430	0.00493598
2442	0.00493598
2454	0.00578215
2466	0.00521804
2478	0.00408981
2490	0.00493598
2502	0.00465392
2514	0.00465392
2526	0.00437187
2538	0.0045129
2550	0.00507701
2562	0.00493598
2574	0.0045129
2586	0.00479495
2598	0.0045129
2610	0.00408981
2622	0.0045129
2634	0.00423084
2646	0.00408981
2658	0.00437187
2670	0.00380776
2682	0.00408981
2694	0.0045129
2706	0.00423084
2718	0.00493598
2730	0.00620523
2742	0.00846168
2754	0.00930785
2766	0.00676934
2778	0.00564112
2790	0.00662832
2802	0.00860271
2814	0.0132566
2826	0.0176285
2838	0.0294749
2850	0.0527445
2862	0.0729115
2874	0.0692447
2886	0.060219
2898	0.0461162
2910	0.0930785
2922	0.209003
2934	0.224093
2946	0.136938
2958	0.112399
2970	0.0909631
2982	0.0971683
2994	0.075591
3006	0.0379365
3018	0.0234106
3030	0.020167
3042	0.0196029
3054	0.0210132
3066	0.0272184
3078	0.035257
3090	0.0320134
3102	0.0190388
3114	0.0095899
3126	0.00662832
3138	0.00592318
3150	0.00479495
3162	0.00423084
3174	0.0045129
3186	0.00366673
3198	0.00394878
3210	0.00423084
3222	0.00338467
3234	0.0035257
3246	0.00366673
3258	0.00366673
3270	0.00380776
3282	0.00296159
3294	0.00324364
3306	0.00380776
3318	0.00408981
3330	0.0035257
3342	0.00423084
3354	0.00437187
3366	0.00493598
3378	0.00550009
3390	0.0060642
3402	0.0070514
3414	0.00832065
3426	0.00874374
3438	0.0122694
3450	0.0188978
3462	0.0215773
3474	0.015231
3486	0.00747448
3498	0.0045129
3510	0.00296159
3522	0.0035257
3534	0.0035257
3546	0.00197439
3558	0.00366673
3570	0.00155131
3582	0.00366673
3594	0.00183336
3606	0.00296159
3618	0.000987196
3630	0.000846168
3642	0.00169234
3654	0.00239748
3666	0.00394878
3678	0.000846168
3690	0.00211542
3702	0.00169234
3714	0.00239748
3726	0.00155131
3738	0.000846168
3750	0.00507701
3762	0.00479495
3774	0.0035257
3786	0.00408981
3798	0.00296159
3810	0.00394878
3822	0.0025385
3834	0.00169234
3846	0.00324364
3858	0.00183336
3870	0.00183336
3882	0.00239748
3894	0.00239748
3906	0.00324364
3918	0.00211542
3930	0.00211542
3942	0.00211542
3954	0.0025385
3966	0.00296159
