Infrared Spectrum: 1,2-Cyclopentanediol, 3-methyl-
Formula: C 6 H 12 O 2
CAS: 27583-37-5
Origin: Sadtler Research Labs Under US-EPA Contract
1/CM	ABSORBANCE
450	0.00369053
462	0.00628176
474	0.000314088
486	0.00981525
498	0.00282679
510	0.00259123
522	0.00957968
534	0.0157829
546	0.0162541
558	0.0183741
570	0.0129561
582	0.0125635
594	0.012642
606	0.0134273
618	0.0150762
630	0.0122494
642	0.0131132
654	0.0114642
666	0.00965821
678	0.0124065
690	0.0119353
702	0.0118568
714	0.014291
726	0.0106005
738	0.0116998
750	0.00243418
762	0.0224573
774	0.0229284
786	0.0266975
798	0.0352564
810	0.0400462
822	0.0399677
834	0.0380832
846	0.0386328
858	0.0355705
870	0.0322725
882	0.0350993
894	0.0360416
906	0.0318799
918	0.0270116
930	0.0283464
942	0.0413026
954	0.066037
966	0.103649
978	0.135372
990	0.147072
1002	0.149192
1014	0.15728
1026	0.17636
1038	0.219783
1050	0.244518
1062	0.249543
1074	0.277889
1086	0.35013
1098	0.421506
1110	0.373922
1122	0.259358
1134	0.193792
1146	0.14982
1158	0.119982
1170	0.111266
1182	0.113857
1194	0.121552
1206	0.121238
1218	0.116762
1230	0.116762
1242	0.118019
1254	0.116448
1266	0.114328
1278	0.112915
1290	0.110795
1302	0.110245
1314	0.11527
1326	0.124143
1338	0.125164
1350	0.119275
1362	0.119196
1374	0.132545
1386	0.140947
1398	0.119353
1410	0.0887299
1422	0.060776
1434	0.0546513
1446	0.0729469
1458	0.115741
1470	0.115584
1482	0.0599908
1494	0.0219076
1506	0.0122494
1518	0.0071455
1530	0.00471132
1542	0.00266975
1554	0.00376906
1566	0.00219862
1578	0.00376906
1590	0.0025127
1602	0.00259123
1614	0.00227714
1626	0.00306236
1638	0.00204157
1650	0.00290531
1662	0.00133487
1674	0.00227714
1686	0.00204157
1698	0.00125635
1710	0.00102079
1722	0.0025127
1734	0.00478984
1746	0.00730255
1758	0.00777368
1770	0.00753811
1782	0.00376906
1794	0.00243418
1806	0.0014134
1818	0.000863742
1830	0.00102079
1842	0.000549654
1854	0.00133487
1866	0.000706698
1878	0.000314088
1890	0.000863742
1902	0.00039261
1914	0.00039261
1926	0.000706698
1938	0.00102079
1950	0.00109931
1962	0.000942264
1974	0.00078522
1986	0.00133487
1998	0.000471132
2010	0.00039261
2022	0.000471132
2034	0.000549654
2046	0.00078522
2058	0.00078522
2070	0.00102079
2082	0.00133487
2094	0.00102079
2106	0.00133487
2118	0.00188453
2130	0.00188453
2142	0.00227714
2154	0.0025127
2166	0.00227714
2178	0.00266975
2190	0.0025127
2202	0.00196305
2214	0.00172748
2226	0.00125635
2238	0.00125635
2250	0.00102079
2262	0.00133487
2274	0.00117783
2286	0.00117783
2298	0.00109931
2310	0.00102079
2322	7.8522e-05
2334	7.8522e-05
2346	0.00196305
2358	0.000157044
2370	0.00290531
2382	0.00306236
2394	0.00164896
2406	0.0014134
2418	0.00188453
2430	0.00212009
2442	0.00164896
2454	0.00180601
2466	0.00157044
2478	0.00157044
2490	0.00125635
2502	0.00125635
2514	0.00109931
2526	0.00117783
2538	0.00172748
2550	0.00204157
2562	0.00306236
2574	0.00369053
2586	0.00431871
2598	0.00439723
2610	0.00494689
2622	0.00549654
2634	0.00557506
2646	0.00604619
2658	0.0064388
2670	0.00683141
2682	0.00745959
2694	0.00824481
2706	0.00895151
2718	0.00950116
2730	0.0120139
2742	0.0134273
2754	0.0132702
2766	0.0127206
2778	0.0129561
2790	0.0142125
2802	0.0167252
2814	0.0218291
2826	0.0336859
2838	0.0456213
2850	0.060619
2862	0.115349
2874	0.263834
2886	0.377691
2898	0.400305
2910	0.462652
2922	0.501206
2934	0.477806
2946	0.525783
2958	0.691465
2970	0.760486
2982	0.429751
2994	0.140476
3006	0.04994
3018	0.0256767
3030	0.0164111
3042	0.0118568
3054	0.0104434
3066	0.00848038
3078	0.00722402
3090	0.00620324
3102	0.00588915
3114	0.0046328
3126	0.00502541
3138	0.00502541
3150	0.00526097
3162	0.00588915
3174	0.00596767
3186	0.00581063
3198	0.00439723
3210	0.00361201
3222	0.00235566
3234	0.00164896
3246	0.00117783
3258	0.00102079
3270	0.000706698
3282	0.00109931
3294	0.0014134
3306	0.00117783
3318	0.00164896
3330	0.00133487
3342	0.0014134
3354	0.0014134
3366	0.00125635
3378	0.00078522
3390	0.000628176
3402	0.000549654
3414	0.00109931
3426	0.00204157
3438	0.00212009
3450	0.00227714
3462	0.00345497
3474	0.00424019
3486	0.00573211
3498	0.00824481
3510	0.0104434
3522	0.0130347
3534	0.0155474
3546	0.0190023
3558	0.0264619
3570	0.0426374
3582	0.0709839
3594	0.10679
3606	0.121159
3618	0.109617
3630	0.0836259
3642	0.0727899
3654	0.0841756
3666	0.0855105
3678	0.0722402
3690	0.0433441
3702	0.0223788
3714	0.0158614
3726	0.0111501
3738	0.010679
3750	0.00628176
3762	0.00557506
3774	0.00565358
3786	0.00455428
3798	0.00541802
3810	0.00227714
3822	0.00510393
3834	0.00510393
3846	0.00384758
3858	0.00565358
3870	0.00565358
3882	0.0046328
3894	0.00541802
3906	0.0046328
3918	0.00431871
3930	0.00424019
3942	0.00274827
3954	0.00290531
3966	0.00157044
