Infrared Spectrum: S-Triazine-2,4,6(1H,3H,5H)-trione, 1-benzyl-3,5-diallyl-,
Formula: C 16 H 17 N 3 O 3
CAS: 27694-82-2
Origin: Sadtler Research Labs Under US-EPA Contract
1/CM	ABSORBANCE
450	0.0139999
462	0.0145752
474	0.011315
486	0.0172601
498	0.0253148
510	0.019945
522	0.0184108
534	0.0256984
546	0.0255066
558	0.00498625
570	0.000575337
582	0.00268491
594	0.00863005
606	0.0421914
618	0.034712
630	0.014767
642	0.0189861
654	0.032986
666	0.0339449
678	0.0285751
690	0.0462187
702	0.0701911
714	0.0316435
726	0.0241642
738	0.0174519
750	0.0400818
762	0.0897526
774	0.0724925
786	0.0136163
798	0.00882183
810	0.00958895
822	0.0153423
834	0.00575337
846	0.00632871
858	0.00632871
870	0.0109314
882	0.0268491
894	0.0320271
906	0.0368216
918	0.0569584
930	0.0874512
942	0.0682733
954	0.0256984
966	0.0255066
978	0.032986
990	0.0602186
1002	0.032986
1014	0.0159177
1026	0.0203286
1038	0.0145752
1050	0.0105478
1062	0.0124656
1074	0.0187943
1086	0.0132328
1098	0.0151505
1110	0.0193697
1122	0.0118903
1134	0.00978073
1146	0.0105478
1158	0.0126574
1170	0.0101643
1182	0.0143834
1194	0.0132328
1206	0.013041
1218	0.013041
1230	0.0176437
1242	0.0170683
1254	0.0195615
1266	0.0266573
1278	0.038164
1290	0.0640542
1302	0.0799718
1314	0.187752
1326	0.194272
1338	0.130793
1350	0.145177
1362	0.157067
1374	0.0709582
1386	0.0726842
1398	0.1143
1410	0.266189
1422	0.362654
1434	0.37301
1446	0.982484
1458	1.42223
1470	0.293997
1482	0.107396
1494	0.0937799
1506	0.0765198
1518	0.0607939
1530	0.0393147
1542	0.0299175
1554	0.0272326
1566	0.023397
1578	0.0241642
1590	0.0258902
1602	0.03126
1614	0.0320271
1626	0.0345202
1638	0.0504379
1650	0.0690404
1662	0.07115
1674	0.124656
1686	0.251806
1698	0.613501
1710	1.8685
1722	0.852458
1734	0.248546
1746	0.121971
1758	0.0799718
1770	0.0538899
1782	0.0331778
1794	0.0260819
1806	0.021671
1818	0.0163012
1830	0.0120821
1842	0.00920539
1854	0.00939717
1866	0.0116985
1878	0.0116985
1890	0.0072876
1902	0.00594515
1914	0.00498625
1926	0.00536981
1938	0.00556159
1950	0.00575337
1962	0.00536981
1974	0.00306846
1986	0.00249313
1998	0.00210957
2010	0.00134245
2022	0.000958895
2034	0.000958895
2046	0.000958895
2058	0.000767116
2070	0.000958895
2082	0.00134245
2094	0.00153423
2106	0.00191779
2118	0.00306846
2130	0.00191779
2142	0.000383558
2154	0.000191779
2166	0.000383558
2178	0.000767116
2190	0.000767116
2202	0.000958895
2214	0.00115067
2226	0.000767116
2238	0.000575337
2250	0.000767116
2262	0.00134245
2274	0.00210957
2286	0.00306846
2298	0.00383558
2310	0.00421914
2322	0.00268491
2334	0.000958895
2346	0.00326024
2358	0.00172601
2370	0.00191779
2382	0.00536981
2394	0.00287668
2406	0.00287668
2418	0.00306846
2430	0.00287668
2442	0.00210957
2454	0.00210957
2466	0.00210957
2478	0.00249313
2490	0.00191779
2502	0.00172601
2514	0.00210957
2526	0.00210957
2538	0.00210957
2550	0.00268491
2562	0.00306846
2574	0.00306846
2586	0.00326024
2598	0.00345202
2610	0.00345202
2622	0.00306846
2634	0.00306846
2646	0.00287668
2658	0.00306846
2670	0.00249313
2682	0.00210957
2694	0.00191779
2706	0.00268491
2718	0.00268491
2730	0.00306846
2742	0.00326024
2754	0.00383558
2766	0.00517803
2778	0.00709582
2790	0.00747938
2802	0.00594515
2814	0.00594515
2826	0.00709582
2838	0.00939717
2850	0.0122739
2862	0.0138081
2874	0.0126574
2886	0.0134245
2898	0.0161094
2910	0.0187943
2922	0.0210957
2934	0.0239724
2946	0.0255066
2958	0.0389311
2970	0.0592597
2982	0.0368216
2994	0.0285751
3006	0.0249313
3018	0.0249313
3030	0.036438
3042	0.0435338
3054	0.0303011
3066	0.0360545
3078	0.0519721
3090	0.0475612
3102	0.0402736
3114	0.0132328
3126	0.00747938
3138	0.00498625
3150	0.0046027
3162	0.0036438
3174	0.00345202
3186	0.00287668
3198	0.00191779
3210	0.00191779
3222	0.00134245
3234	0.00172601
3246	0.00153423
3258	0.00153423
3270	0.00134245
3282	0.00191779
3294	0.00191779
3306	0.00115067
3318	0.00191779
3330	0.00191779
3342	0.00153423
3354	0.00210957
3366	0.00268491
3378	0.00191779
3390	0.00306846
3402	0.00479447
3414	0.00690404
3426	0.00613693
3438	0.00383558
3450	0.0046027
3462	0.0082465
3474	0.00786294
3486	0.00498625
3498	0.00210957
3510	0.00326024
3522	0.00268491
3534	0.00210957
3546	0.00345202
3558	0.00134245
3570	0.00421914
3582	0.00306846
3594	0.00383558
3606	0.00134245
3618	0.00249313
3630	0.00594515
3642	0.00153423
3654	0.00287668
3666	0.00115067
3678	0.00421914
3690	0.00191779
3702	0.00249313
3714	0.00268491
3726	0.00287668
3738	0.00421914
3750	0.00172601
3762	0.00191779
3774	0.00306846
3786	0.00287668
3798	0.00268491
3810	0.00115067
3822	0.00421914
3834	0.00191779
3846	0.00191779
3858	0.00383558
3870	0.0036438
3882	0.00421914
3894	0.00479447
3906	0.00306846
3918	0.00441092
3930	0.00441092
3942	0.00287668
3954	0.0036438
3966	0.00306846
