Infrared Spectrum: Benzene, 1,2-dichloro-4,5-dimethoxy-,
Formula: C 8 H 8 Cl 2 O 2
CAS: 2772-46-5
Origin: Sadtler Research Labs Under US-EPA Contract
1/CM	ABSORBANCE
450	0.0122465
462	0.00803048
474	0.0109415
486	0.00220838
498	0.0314193
510	0.0299135
522	0.0158602
534	0.00913467
546	0.0107408
558	0.0245933
570	0.033728
582	0.0325234
594	0.0169644
606	0.0217827
618	0.020277
630	0.0228869
642	0.0248945
654	0.0224853
666	0.0269021
678	0.153583
690	0.0757877
702	0.0144549
714	0.0119453
726	0.0128488
738	0.0140533
750	0.024493
762	0.0525996
774	0.127383
786	0.178377
798	0.0892387
810	0.0389478
822	0.0271029
834	0.0451715
846	0.0676568
858	0.0637419
870	0.0880341
882	0.0888372
894	0.0317204
906	0.0299135
918	0.115438
930	0.135815
942	0.0377433
954	0.0234892
966	0.0238907
978	0.0320215
990	0.0501905
1002	0.0907444
1014	0.203974
1026	0.361472
1038	0.299336
1050	0.162918
1062	0.0534027
1074	0.0349326
1086	0.0330253
1098	0.0452718
1110	0.1054
1122	0.283677
1134	0.20026
1146	0.113832
1158	0.178678
1170	0.288997
1182	0.284881
1194	0.247339
1206	0.428225
1218	0.43204
1230	0.280063
1242	0.362978
1254	0.483636
1266	0.329752
1278	0.246636
1290	0.241818
1302	0.206785
1314	0.120558
1326	0.070869
1338	0.0641435
1350	0.155591
1362	0.326138
1374	0.128187
1386	0.0431638
1398	0.0409554
1410	0.0494878
1422	0.0874319
1434	0.30556
1446	0.391887
1458	0.249547
1470	0.412867
1482	0.762093
1494	0.992868
1506	0.571168
1518	0.241918
1530	0.105802
1542	0.0871307
1554	0.081409
1566	0.0691625
1578	0.0523989
1590	0.080104
1602	0.0725755
1614	0.0293113
1626	0.0186709
1638	0.0150572
1650	0.0177674
1662	0.016061
1674	0.0197751
1686	0.0159606
1698	0.0133507
1710	0.00772934
1722	0.00933543
1734	0.00973696
1746	0.00883353
1758	0.00762896
1770	0.00732781
1782	0.00662515
1794	0.00943581
1806	0.00813086
1818	0.00612324
1830	0.00692629
1842	0.00461753
1854	0.00220838
1866	0.00331257
1878	0.002108
1890	0.00271029
1902	0.00220838
1914	0.00230876
1926	0.00331257
1938	0.00481829
1950	0.00662515
1962	0.00672553
1974	0.00511943
1986	0.00431638
1998	0.00542057
2010	0.00471791
2022	0.00782972
2034	0.0104396
2046	0.0146556
2058	0.012648
2070	0.012648
2082	0.01054
2094	0.00572172
2106	0.00220838
2118	0.00240914
2130	0.00260991
2142	0.00271029
2154	0.000602286
2166	0.000200762
2178	0.000702667
2190	0.000301143
2202	0.000401524
2214	0.000501905
2226	0.000501905
2238	0.000903429
2250	0.00170648
2262	0.0037141
2274	0.00532019
2286	0.00511943
2298	0.00281067
2310	0.0016061
2322	0.00140533
2334	0.002108
2346	0.00401524
2358	0.0016061
2370	0.00411562
2382	0.00271029
2394	0.000903429
2406	0.00140533
2418	0.00190724
2430	0.0016061
2442	0.00130495
2454	0.00110419
2466	0.00120457
2478	0.002108
2490	0.0037141
2502	0.004216
2514	0.00532019
2526	0.00672553
2538	0.00742819
2550	0.00883353
2562	0.0102389
2574	0.00993772
2586	0.006324
2598	0.004216
2610	0.00361372
2622	0.00381448
2634	0.00281067
2646	0.00401524
2658	0.00411562
2670	0.0016061
2682	0.00260991
2694	0.0016061
2706	0.00271029
2718	0.00331257
2730	0.00220838
2742	0.00281067
2754	0.00491867
2766	0.00532019
2778	0.00692629
2790	0.0104396
2802	0.0161613
2814	0.0228869
2826	0.0360368
2838	0.0842197
2850	0.160911
2862	0.0809071
2874	0.0482833
2886	0.0535031
2898	0.0717724
2910	0.0992768
2922	0.116442
2934	0.135414
2946	0.236698
2958	0.207287
2970	0.151575
2982	0.103894
2994	0.0916479
3006	0.145352
3018	0.146355
3030	0.0508932
3042	0.029512
3054	0.0216823
3066	0.0194739
3078	0.0188716
3090	0.0170648
3102	0.0129491
3114	0.0101385
3126	0.00762896
3138	0.0058221
3150	0.00491867
3162	0.00381448
3174	0.00271029
3186	0.00281067
3198	0.00220838
3210	0.00130495
3222	0.000602286
3234	0.00110419
3246	0.00110419
3258	0.00100381
3270	0.000803048
3282	0.000702667
3294	0.000903429
3306	0.000903429
3318	0.00130495
3330	0.000803048
3342	0.00150571
3354	0.00170648
3366	0.00200762
3378	0.000803048
3390	0.000301143
3402	0.00230876
3414	0.00110419
3426	0.00130495
3438	0.00220838
3450	0.00250952
3462	0.00230876
3474	0.00230876
3486	0.00180686
3498	0.00291105
3510	0.00281067
3522	0.00311181
3534	0.00311181
3546	0.00200762
3558	0.00260991
3570	0.00331257
3582	0.00230876
3594	0.00361372
3606	0.00361372
3618	0.00120457
3630	0.00441676
3642	0.00301143
3654	0.00321219
3666	0.00281067
3678	0.00220838
3690	0.00271029
3702	0.00250952
3714	0.00291105
3726	0.00220838
3738	0.00240914
3750	0.00411562
3762	0.00180686
3774	0.00311181
3786	0.00391486
3798	0.000903429
3810	0.00411562
3822	0.00411562
3834	0.00271029
3846	0.00220838
3858	0.00491867
3870	0.00592248
3882	0.00411562
3894	0.000803048
3906	0.00471791
3918	0.002108
3930	0.00291105
3942	0.00331257
3954	0.00722743
3966	0.00281067
