Infrared Spectrum: Phenol, 2-methoxy-4-propyl-
Formula: C 10 H 14 O 2
CAS: 2785-87-7
Origin: Sadtler Research Labs Under US-EPA Contract
1/CM	ABSORBANCE
450	0.0920466
462	0.0916663
474	0.0445019
486	0.0155947
498	0
510	0.00323304
522	0.00285269
534	0.0102697
546	0.038226
558	0.106881
570	0.0549617
582	0.00969913
594	0.0123616
606	0.0199688
618	0.0391769
630	0.0530599
642	0.0271956
654	0.0123616
666	0.0116009
678	0.0138831
690	0.0136929
702	0.0192081
714	0.020159
726	0.0332813
738	0.0484956
750	0.0490662
762	0.0739796
774	0.176106
786	0.23411
798	0.270244
810	0.216994
822	0.20216
834	0.0916663
846	0.0937582
858	0.0886234
870	0.0815868
882	0.0557224
894	0.0450724
906	0.0384162
918	0.0471644
930	0.0808261
942	0.0528698
954	0.0313795
966	0.0317599
978	0.0389867
990	0.0519189
1002	0.0656118
1014	0.111065
1026	0.257883
1038	0.381309
1050	0.263588
1062	0.104218
1074	0.0713171
1086	0.0675135
1098	0.0813966
1110	0.155186
1122	0.375223
1134	0.322163
1146	0.420676
1158	0.421246
1170	0.245331
1182	0.277281
1194	0.38283
1206	0.55266
1218	0.504925
1230	0.789053
1242	1.02012
1254	0.708227
1266	1.33525
1278	1.09277
1290	0.405652
1302	0.195504
1314	0.123997
1326	0.120764
1338	0.15899
1350	0.232779
1362	0.322734
1374	0.279563
1386	0.151192
1398	0.0604769
1410	0.0762618
1422	0.181811
1434	0.327488
1446	0.239626
1458	0.283177
1470	0.379978
1482	0.269103
1494	0.288692
1506	0.887185
1518	1.61519
1530	0.389296
1542	0.0770225
1554	0.0673234
1566	0.0644707
1578	0.0678939
1590	0.117721
1602	0.231067
1614	0.231638
1626	0.130653
1638	0.0486858
1650	0.0135027
1662	0.0433608
1674	0.0186375
1686	0.00988931
1698	0.00627591
1710	0.0431706
1722	0.0346126
1734	0.00399376
1746	0.0271956
1758	0.0304286
1770	0.0184474
1782	0.0245331
1794	0.0171161
1806	0.0304286
1818	0.0317599
1830	0.0182572
1842	0.0247233
1854	0.0471644
1866	0.0365144
1878	0.0325206
1890	0.0211099
1902	0.0252938
1914	0.0224411
1926	0.0247233
1938	0.025484
1950	0.0241527
1962	0.0243429
1974	0.0226313
1986	0.0211099
1998	0.0190179
2010	0.0209197
2022	0.0195884
2034	0.025484
2046	0.0270054
2058	0.0283367
2070	0.0252938
2082	0.0211099
2094	0.0144536
2106	0.01065
2118	0.00855806
2130	0.0072268
2142	0.00760716
2154	0.00874823
2166	0.00893841
2178	0.0081777
2190	0.00646609
2202	0.0045643
2214	0.00171161
2226	0
2238	0
2250	0.000760716
2262	0.000760716
2274	0.00190179
2286	0.00380358
2298	0.00589555
2310	0.00646609
2322	0.00475448
2334	0.0036134
2346	0.0045643
2358	0.00494465
2370	0.00475448
2382	0.00589555
2394	0.00627591
2406	0.00551519
2418	0.00494465
2430	0.00323304
2442	0.00247233
2454	0.00304286
2466	0.00494465
2478	0.0072268
2490	0.00741698
2502	0.00855806
2514	0.00931877
2526	0.00893841
2538	0.0081777
2550	0.0072268
2562	0.00513483
2574	0.00399376
2586	0.00418394
2598	0.00551519
2610	0.00684644
2622	0.00912859
2634	0.0102697
2646	0.00931877
2658	0.00836788
2670	0.00798752
2682	0.0072268
2694	0.00589555
2706	0.00703662
2718	0.00969913
2730	0.0121715
2742	0.0150241
2754	0.0144536
2766	0.0142634
2778	0.0169259
2790	0.0224411
2802	0.0292876
2814	0.0406983
2826	0.0570537
2838	0.104028
2850	0.211289
2862	0.261116
2874	0.299532
2886	0.332813
2898	0.224601
2910	0.26568
2922	0.440264
2934	0.663154
2946	0.698527
2958	0.59469
2970	0.700239
2982	0.409455
2994	0.194933
3006	0.251417
3018	0.177057
3030	0.125328
3042	0.150051
3054	0.146057
3066	0.117531
3078	0.0713171
3090	0.0357537
3102	0.025484
3114	0.0228215
3126	0.0207295
3138	0.0173063
3150	0.0133125
3162	0.0102697
3174	0.00912859
3186	0.00760716
3198	0.00665627
3210	0.00646609
3222	0.00494465
3234	0.00418394
3246	0.00323304
3258	0.00285269
3270	0.00342322
3282	0.00532501
3294	0.0045643
3306	0.00285269
3318	0.00190179
3330	0.00190179
3342	0.00171161
3354	0.000380358
3366	0.000760716
3378	0.00133125
3390	0.00171161
3402	0.00190179
3414	0.00171161
3426	0.000760716
3438	0.000570537
3450	0.00114107
3462	0
3474	0.00152143
3486	0.000380358
3498	0.00133125
3510	0.00209197
3522	0.00399376
3534	0.00627591
3546	0.0117911
3558	0.0216804
3570	0.0673234
3582	0.369137
3594	0.786961
3606	0.278422
3618	0.043551
3630	0.0173063
3642	0.0142634
3654	0.0213
3666	0.00646609
3678	0.00589555
3690	0.00285269
3702	0.0036134
3714	0.0036134
3726	0.00228215
3738	0.00380358
3750	0.000760716
3762	0.00342322
3774	0.0045643
3786	0.00190179
3798	0.00399376
3810	0.00209197
3822	0.00380358
3834	0.00209197
3846	0.00380358
3858	0.00399376
3870	0.00399376
3882	0.0045643
3894	0.00627591
3906	0.00342322
3918	0.00285269
3930	0.00304286
3942	0.00342322
3954	0.00399376
3966	0.00589555
