Infrared Spectrum: 7-Oxabicyclo[2.2.1]heptane
Formula: C 6 H 10 O
CAS: 279-49-2
Origin: Sadtler Research Labs Under US-EPA Contract
1/CM	ABSORBANCE
450	0.00143012
462	0.000572048
474	0.00128711
486	0.00200217
498	0.00071506
510	0.00207367
522	0.00786566
534	0.0351094
546	0.0621387
558	0.0527714
570	0.0273153
582	0.00364681
594	0.0095818
606	0.0095818
618	0.00929578
630	0.0105114
642	0.0146587
654	0.0155168
666	0.0165179
678	0.0143012
690	0.0113695
702	0.0107259
714	0.0110834
726	0.0111549
738	0.0110119
750	0.0138007
762	0.0208798
774	0.0309621
786	0.035181
798	0.0388278
810	0.0629253
822	0.0678592
834	0.0512698
846	0.024169
858	0.0145157
870	0.0276013
882	0.065571
894	0.0442622
906	0.0213088
918	0.0301755
930	0.0701474
942	0.143727
954	0.083376
966	0.0546306
978	0.0575623
990	0.0830185
1002	0.131285
1014	0.153523
1026	0.0702904
1038	0.024026
1050	0.0226674
1062	0.0444767
1074	0.0501257
1086	0.0319632
1098	0.017948
1110	0.0125136
1122	0.0095103
1134	0.00429036
1146	0.00300325
1158	0.0047194
1170	0.00986783
1182	0.0457638
1194	0.0915277
1206	0.0818744
1218	0.0430466
1230	0.0134431
1242	0.0154453
1254	0.0321062
1266	0.0504832
1278	0.0309621
1290	0.0223099
1302	0.0210228
1314	0.0383272
1326	0.0316057
1338	0.0100108
1350	0.00779415
1362	0.00915277
1374	0.00986783
1386	0.00843771
1398	0.005935
1410	0.00421885
1422	0.00586349
1434	0.0146587
1446	0.0424746
1458	0.0602796
1470	0.048052
1482	0.0250986
1494	0.0139437
1506	0.00393283
1518	0.00143012
1530	0.000286024
1542	0.000572048
1554	0.00150163
1566	0.00143012
1578	0.00278873
1590	0.00228819
1602	0.00307476
1614	0.00286024
1626	0.00164464
1638	0.00307476
1650	0.00221669
1662	0.00450488
1674	0.00650705
1686	0.00800867
1698	0.00872373
1710	0.0144442
1722	0.018234
1734	0.017805
1746	0.0138007
1758	0.00657855
1770	0.00457638
1782	0.00328928
1794	0.00257422
1806	0.0024312
1818	0.00207367
1830	0.00128711
1842	0.0012156
1854	0.00178765
1866	0.00164464
1878	0.00321777
1890	0.00278873
1902	0.00164464
1914	0.0012156
1926	0.00193066
1938	0.00271723
1950	0.00336078
1962	0.00157313
1974	0.00100108
1986	0.000929578
1998	0.000858072
2010	0.00200217
2022	0.0023597
2034	0.00200217
2046	0.00193066
2058	0.00128711
2070	0.00185916
2082	0.00271723
2094	0.00221669
2106	0.00221669
2118	0.00228819
2130	0.00171614
2142	0.00164464
2154	0.00171614
2166	0.00171614
2178	0.00264572
2190	0.00257422
2202	0.00257422
2214	0.00200217
2226	0.00150163
2238	0.00150163
2250	0.00193066
2262	0.00207367
2274	0.00157313
2286	0.00100108
2298	0.00100108
2310	0.000572048
2322	0.000572048
2334	0.000500542
2346	0.00100108
2358	0.00107259
2370	0.00107259
2382	0.000143012
2394	7.1506e-05
2406	0.000643554
2418	0.000572048
2430	0.000643554
2442	0.000429036
2454	0.00071506
2466	0.000643554
2478	0.000786566
2490	0.000214518
2502	0.00035753
2514	0.00035753
2526	0.00035753
2538	0.00035753
2550	0.000572048
2562	0.000929578
2574	0.00207367
2586	0.00185916
2598	0.00264572
2610	0.00207367
2622	0.00171614
2634	0.00264572
2646	0.00271723
2658	0.00278873
2670	0.00271723
2682	0.00185916
2694	0.00193066
2706	0.00314626
2718	0.00393283
2730	0.00443337
2742	0.00443337
2754	0.00414735
2766	0.00457638
2778	0.00500542
2790	0.00457638
2802	0.00529144
2814	0.00614952
2826	0.00808018
2838	0.0142297
2850	0.0290314
2862	0.0738657
2874	0.120774
2886	0.142154
2898	0.12442
2910	0.117913
2922	0.163177
2934	0.211086
2946	0.297894
2958	0.360533
2970	0.512627
2982	0.71506
2994	0.539727
3006	0.330501
3018	0.152665
3030	0.0367541
3042	0.0193066
3054	0.0127996
3066	0.00572048
3078	0.00500542
3090	0.00529144
3102	0.00572048
3114	0.00736512
3126	0.00536295
3138	0.00414735
3150	0.00250271
3162	0.00193066
3174	0.00143012
3186	0.00200217
3198	0.00200217
3210	0.00157313
3222	0.00207367
3234	0.000858072
3246	0.00071506
3258	0.00100108
3270	0.000643554
3282	0.00214518
3294	0.00286024
3306	0.00293175
3318	0.00221669
3330	0.00221669
3342	0.00143012
3354	0.0023597
3366	0.00278873
3378	0.0023597
3390	0.00278873
3402	0.0024312
3414	0.0023597
3426	0.00250271
3438	0.00193066
3450	0.00185916
3462	0.0024312
3474	0.00336078
3486	0.00143012
3498	0.00250271
3510	0.00207367
3522	0.00364681
3534	0.00278873
3546	0.00393283
3558	0.0023597
3570	0.00300325
3582	0.0024312
3594	0.00264572
3606	0.00264572
3618	0.00293175
3630	0.00564897
3642	0.00750813
3654	0.0101539
3666	0.00722211
3678	0.00536295
3690	0.00393283
3702	0.00300325
3714	0.00321777
3726	0.0035753
3738	0.00464789
3750	0.00421885
3762	0.00371831
3774	0.00378982
3786	0.0035753
3798	0.0035753
3810	0.00429036
3822	0.00457638
3834	0.00336078
3846	0.00386132
3858	0.0035753
3870	0.00378982
3882	0.00350379
3894	0.00378982
3906	0.00457638
3918	0.0035753
3930	0.00450488
3942	0.00514843
3954	0.00550596
3966	0.00607801
