Infrared Spectrum: 2-Butenedioic acid (E)-, di-2-propenyl ester
Formula: C 10 H 12 O 4
CAS: 2807-54-7
Origin: Sadtler Research Labs Under US-EPA Contract
1/CM	ABSORBANCE
450	0.101283
462	0.039856
474	0.0435702
486	0.0412845
498	0.0448558
510	0.0474272
522	0.0411417
534	0.0449987
546	0.04757
558	0.039856
570	0.0375703
582	0.034999
594	0.0351418
606	0.0417131
618	0.0515699
630	0.0432845
642	0.0424273
654	0.0468558
666	0.0347133
678	0.0375703
690	0.0239993
702	0.0119997
714	0.00442844
726	0.00228565
738	0.00371418
750	0.00814262
762	0.0222851
774	0.0444273
786	0.0299991
798	0.0115711
810	0.00999971
822	0.00914259
834	0.0129996
846	0.0217137
858	0.023285
870	0.0277135
882	0.033999
894	0.0432845
906	0.0614268
918	0.119139
930	0.237422
942	0.19528
954	0.104711
966	0.141139
978	0.29342
990	0.448273
1002	0.417988
1014	0.514128
1026	0.385132
1038	0.149281
1050	0.0879974
1062	0.0695694
1074	0.0637124
1086	0.0708551
1098	0.0711408
1110	0.0682837
1122	0.103568
1134	0.176852
1146	0.739979
1158	0.854404
1170	0.69198
1182	0.272564
1194	0.131996
1206	0.168709
1218	0.474843
1230	0.400988
1242	0.553841
1254	1.21825
1266	0.668409
1278	0.543841
1290	1.13911
1302	1.03468
1314	0.24585
1326	0.0929973
1338	0.0629982
1350	0.077712
1362	0.181709
1374	0.113854
1386	0.0852832
1398	0.0517128
1410	0.0498557
1422	0.0572841
1434	0.0537127
1446	0.0682837
1458	0.0854261
1470	0.0465701
1482	0.0229993
1494	0.0141424
1506	0.00757121
1518	0.0069998
1530	0.00999971
1542	0.00514271
1554	0.00628553
1566	0.00614268
1578	0.00642839
1590	0.00685694
1602	0.0101426
1614	0.0139996
1626	0.0191423
1638	0.0501414
1650	0.106283
1662	0.0514271
1674	0.0297134
1686	0.0278563
1698	0.0451415
1710	0.083569
1722	0.147139
1734	0.535127
1746	1.42853
1758	0.59184
1770	0.153996
1782	0.0768549
1794	0.0461415
1806	0.0289992
1818	0.0187137
1830	0.0124282
1842	0.0125711
1854	0.0172852
1866	0.0219994
1878	0.0187137
1890	0.00999971
1902	0.00899974
1914	0.00742836
1926	0.0069998
1938	0.0069998
1950	0.00671409
1962	0.00628553
1974	0.00571412
1986	0.00442844
1998	0.00371418
2010	0.00399988
2022	0.00299991
2034	0.00299991
2046	0.00328562
2058	0.00471415
2070	0.00371418
2082	0.00428559
2094	0.00557127
2106	0.00514271
2118	0.00499986
2130	0.00399988
2142	0.00371418
2154	0.00371418
2166	0.00342847
2178	0.00299991
2190	0.00328562
2202	0.00271421
2214	0.00285706
2226	0.00257135
2238	0.00228565
2250	0.0024285
2262	0.00257135
2274	0.00257135
2286	0.00257135
2298	0.00271421
2310	0.00257135
2322	0.00385703
2334	0.004857
2346	0.00414274
2358	0.00342847
2370	0.00299991
2382	0.00199994
2394	0.00142853
2406	0.00171424
2418	0.00171424
2430	0.00199994
2442	0.00199994
2454	0.00285706
2466	0.00285706
2478	0.00271421
2490	0.00285706
2502	0.00271421
2514	0.00271421
2526	0.00257135
2538	0.00328562
2550	0.00271421
2562	0.00285706
2574	0.00285706
2586	0.00285706
2598	0.00214279
2610	0.00228565
2622	0.00128568
2634	0.00157138
2646	0.00171424
2658	0.00157138
2670	0.000857118
2682	0.000999971
2694	0.00228565
2706	0.00328562
2718	0.00371418
2730	0.00342847
2742	0.00442844
2754	0.004857
2766	0.00471415
2778	0.00442844
2790	0.00542841
2802	0.00542841
2814	0.00671409
2826	0.00771406
2838	0.00785691
2850	0.00957115
2862	0.0122854
2874	0.0177138
2886	0.0285706
2898	0.0397131
2910	0.0294277
2922	0.0278563
2934	0.0391417
2946	0.0749978
2958	0.118282
2970	0.0735693
2982	0.05057
2994	0.0604268
3006	0.0522842
3018	0.0431416
3030	0.0551413
3042	0.035999
3054	0.0268564
3066	0.0272849
3078	0.0374275
3090	0.0605697
3102	0.0788549
3114	0.038856
3126	0.0121425
3138	0.00742836
3150	0.00542841
3162	0.004857
3174	0.00357132
3186	0.00399988
3198	0.00285706
3210	0.00228565
3222	0.00285706
3234	0.00299991
3246	0.00228565
3258	0.00199994
3270	0.0024285
3282	0.00199994
3294	0.00285706
3306	0.00157138
3318	0.00257135
3330	0.00171424
3342	0.00228565
3354	0.00228565
3366	0.00399988
3378	0.00314277
3390	0.00399988
3402	0.00357132
3414	0.00171424
3426	0.00399988
3438	0.00285706
3450	0.00471415
3462	0.00842833
3474	0.0151424
3486	0.0144282
3498	0.00785691
3510	0.00342847
3522	0.00371418
3534	0.0024285
3546	0.00157138
3558	0.00199994
3570	0.00214279
3582	0.00757121
3594	0.00442844
3606	0.00428559
3618	0.00114282
3630	0.00328562
3642	0.00271421
3654	0.00199994
3666	0.0024285
3678	0.00299991
3690	0.00171424
3702	0.0024285
3714	0.000857118
3726	0.00114282
3738	0.00199994
3750	0.000857118
3762	0.000714265
3774	0.00114282
3786	0.000999971
3798	0.00157138
3810	0.00385703
3822	0.00428559
3834	0.00185709
3846	0.00185709
3858	0.00428559
3870	0.00385703
3882	0.00414274
3894	0.00285706
3906	0.00328562
3918	0.00342847
3930	0.00428559
3942	0.00557127
3954	0.0128568
3966	0.00928544
