Infrared Spectrum: Toluene, .alpha.-chloro-p-(1,1-dimethyl-propyl)-,
Formula: C 12 H 17 Cl
CAS: 28162-11-0
Origin: Sadtler Research Labs Under US-EPA Contract
1/CM	ABSORBANCE
450	0.00486257
462	0.00685181
474	0
486	0.00309436
498	0.00265231
510	0.00674129
522	0.0119354
534	0.0280703
546	0.0348116
558	0.0414424
570	0.0386796
582	0.0234288
594	0.00895155
606	0.0076254
618	0.00928309
630	0.00817796
642	0.012488
654	0.0316067
666	0.0433211
678	0.0964778
690	0.21329
702	0.222352
714	0.14002
726	0.0913943
738	0.0867527
750	0.110181
762	0.0686286
774	0.0414424
786	0.0459734
798	0.0582404
810	0.0706178
822	0.0971409
834	0.151182
846	0.0816691
858	0.0180136
870	0.00817796
882	0.00817796
894	0.00895155
906	0.00961463
918	0.00983566
930	0.00873053
942	0.00541514
954	0.00209975
966	0.00386796
978	0.00585719
990	0.00939361
1002	0.0200029
1014	0.0929414
1026	0.0411108
1038	0.00950412
1050	0.0191187
1062	0.0502834
1074	0.0236498
1086	0.0148087
1098	0.0306121
1110	0.0528252
1122	0.0314962
1134	0.0176821
1146	0.0169085
1158	0.0192293
1170	0.0352536
1182	0.0292859
1194	0.0225447
1206	0.02586
1218	0.0289544
1230	0.0366903
1242	0.042437
1254	0.0824427
1266	0.295843
1278	0.174832
1290	0.063545
1302	0.0552565
1314	0.0444262
1326	0.0298385
1338	0.0221026
1350	0.0206659
1362	0.0477416
1374	0.108413
1386	0.131953
1398	0.0801219
1410	0.0562511
1422	0.0636555
1434	0.0442052
1446	0.0717229
1458	0.121785
1470	0.149414
1482	0.101009
1494	0.0499519
1506	0.076475
1518	0.121785
1530	0.0311647
1542	0.00983566
1554	0.00685181
1566	0.00696232
1578	0.00994617
1590	0.0102777
1602	0.0186767
1614	0.0384585
1626	0.0174611
1638	0.00873053
1650	0.0109408
1662	0.0139246
1674	0.00895155
1686	0.0059677
1698	0.0050836
1710	0.00486257
1722	0.00795694
1734	0.00475206
1746	0.00552565
1758	0.00817796
1770	0.0100567
1782	0.0180136
1794	0.0138141
1806	0.00475206
1818	0.00298385
1830	0.00221026
1842	0.0025418
1854	0.00287334
1866	0.00331539
1878	0.00475206
1890	0.0100567
1902	0.0182346
1914	0.0137036
1926	0.00618873
1938	0.00431001
1950	0.00408898
1962	0.0034259
1974	0.00331539
1986	0.00298385
1998	0.00309436
2010	0.00331539
2022	0.00353642
2034	0.00408898
2046	0.00453103
2058	0.00475206
2070	0.00453103
2082	0.00397847
2094	0.00364693
2106	0.00353642
2118	0.00331539
2130	0.00331539
2142	0.00287334
2154	0.00320488
2166	0.00320488
2178	0.00320488
2190	0.00309436
2202	0.00309436
2214	0.0034259
2226	0.0034259
2238	0.00331539
2250	0.00276283
2262	0.00232077
2274	0.000221026
2286	0.000994617
2298	0.00442052
2310	0.00453103
2322	0.00552565
2334	0.00740437
2346	0.00607822
2358	0.00663078
2370	0.00353642
2382	0.00475206
2394	0.00652027
2406	0.00618873
2418	0.00663078
2430	0.00663078
2442	0.00618873
2454	0.00552565
2466	0.00552565
2478	0.00563616
2490	0.00552565
2502	0.00475206
2514	0.00464155
2526	0.00486257
2538	0.00552565
2550	0.0059677
2562	0.00618873
2574	0.00707283
2586	0.00806745
2598	0.0085095
2610	0.00862001
2622	0.00795694
2634	0.00895155
2646	0.00884104
2658	0.00906207
2670	0.00884104
2682	0.00773591
2694	0.00784642
2706	0.0100567
2718	0.0137036
2730	0.0169085
2742	0.0152508
2754	0.012709
2766	0.0128195
2778	0.0134826
2790	0.0139246
2802	0.0154718
2814	0.0194503
2826	0.0261916
2838	0.0329329
2850	0.0451998
2862	0.0899576
2874	0.218484
2886	0.382707
2898	0.316841
2910	0.253185
2922	0.318056
2934	0.359167
2946	0.399173
2958	0.530352
2970	1.06535
2982	0.85957
2994	0.231193
3006	0.119133
3018	0.113828
3030	0.164775
3042	0.11847
3054	0.0884104
3066	0.0923889
3078	0.0665288
3090	0.0564721
3102	0.051057
3114	0.0290649
3126	0.021329
3138	0.0205554
3150	0.0141457
3162	0.0113828
3174	0.0112723
3186	0.0110513
3198	0.0107198
3210	0.00895155
3222	0.00718334
3234	0.00574668
3246	0.00453103
3258	0.00364693
3270	0.00364693
3282	0.00353642
3294	0.00331539
3306	0.00265231
3318	0.00265231
3330	0.00276283
3342	0.00309436
3354	0.00276283
3366	0.00276283
3378	0.00298385
3390	0.00276283
3402	0.0025418
3414	0.00209975
3426	0.00232077
3438	0.0025418
3450	0.00209975
3462	0.00198923
3474	0.00187872
3486	0.00198923
3498	0.00176821
3510	0.00143667
3522	0.00198923
3534	0.00154718
3546	0.000884104
3558	0.00121564
3570	0.000552565
3582	0.00198923
3594	0.00154718
3606	0.00132616
3618	0.000994617
3630	0.00198923
3642	0.00198923
3654	0.00221026
3666	0.00265231
3678	0.00287334
3690	0.00298385
3702	0.00232077
3714	0.00276283
3726	0.00232077
3738	0.00154718
3750	0.00287334
3762	0.00132616
3774	0.0016577
3786	0.0016577
3798	0.00187872
3810	0.00110513
3822	0.00132616
3834	0.00132616
3846	0.00209975
3858	0.00187872
3870	0.00232077
3882	0.00187872
3894	0.00154718
3906	0.0016577
3918	0.00121564
3930	0.00209975
3942	0.00198923
3954	0.000884104
3966	0.000994617
