Infrared Spectrum: Aniline, N-methyl-m-phenylazo-,
Formula: C 13 H 13 N 3
CAS: 2818-20-4
Origin: Sadtler Research Labs Under US-EPA Contract
1/CM	ABSORBANCE
450	0.0102206
462	0.0207405
474	0.016849
486	0.0262143
498	0.040412
510	0.0425502
522	0.0565768
534	0.0582018
546	0.0307901
558	0.0156089
570	0.00880938
582	0.00624354
594	0.00863833
606	0.0132141
618	0.0217241
630	0.0239906
642	0.0257439
654	0.0360073
666	0.0468693
678	0.125812
690	0.33527
702	0.0794983
714	0.030448
726	0.0266847
738	0.0354514
750	0.0593564
762	0.112897
774	0.201974
786	0.117515
798	0.00970743
810	0.00880938
822	0.0132568
834	0.020655
846	0.0536688
858	0.0774028
870	0.0466983
882	0.0310039
894	0.0180892
906	0.0110759
918	0.0268986
930	0.0107765
942	0.00782581
954	0.00697053
966	0.00585867
978	0.00744094
990	0.0491786
1002	0.00816792
1014	0.00876662
1026	0.0187306
1038	0.00410534
1050	0.0157799
1062	0.0526852
1074	0.0448167
1086	0.0360928
1098	0.0248459
1110	0.0274545
1122	0.0357507
1134	0.0571327
1146	0.0872813
1158	0.0890774
1170	0.0624782
1182	0.0236485
1194	0.0314743
1206	0.0363922
1218	0.0294644
1230	0.0330566
1242	0.0463134
1254	0.105884
1266	0.179181
1278	0.108278
1290	0.0842878
1302	0.11093
1314	0.151513
1326	0.163957
1338	0.10443
1350	0.045672
1362	0.0259577
1374	0.0255729
1386	0.0292933
1398	0.0387869
1410	0.0600834
1422	0.0592709
1434	0.0655144
1446	0.0752219
1458	0.10319
1470	0.145996
1482	0.180678
1494	0.227205
1506	0.3017
1518	0.148092
1530	0.0583729
1542	0.0394712
1554	0.0416949
1566	0.0552083
1578	0.106525
1590	0.197057
1602	0.403179
1614	0.303881
1626	0.086255
1638	0.0357507
1650	0.0206122
1662	0.0145825
1674	0.0124871
1686	0.0114608
1698	0.00936532
1710	0.0106482
1722	0.0142404
1734	0.0179181
1746	0.0189872
1758	0.0154806
1770	0.0102206
1782	0.00821069
1794	0.012316
1806	0.00927979
1818	0.00919426
1830	0.00932255
1842	0.00722712
1854	0.00513168
1866	0.00521721
1878	0.00765476
1890	0.00932255
1902	0.0105627
1914	0.0111186
1926	0.0080824
1938	0.0080824
1950	0.00996401
1962	0.00872386
1974	0.00359218
1986	0.00239478
1998	0.00171056
2010	0.00136845
2022	0.00149674
2034	0.00136845
2046	0.00111186
2058	0.00102634
2070	0.00124016
2082	0.00141121
2094	0.00136845
2106	0.00102634
2118	0.000983572
2130	0.00115463
2142	0.00141121
2154	0.00115463
2166	0.00064146
2178	0.000470404
2190	8.5528e-05
2202	0.000812516
2214	0.00124016
2226	0.00162503
2238	0.00136845
2250	0.00162503
2262	0.00132568
2274	0.00149674
2286	0.00102634
2298	0.00209544
2310	0.00363494
2322	0.00252308
2334	0.00175332
2346	0.00136845
2358	0.00269413
2370	0.00145398
2382	0.00205267
2394	0.00183885
2406	0.0015395
2418	0.00179609
2430	0.00192438
2442	0.00200991
2454	0.00230926
2466	0.00277966
2478	0.0026086
2490	0.00230926
2502	0.00209544
2514	0.00188162
2526	0.00248031
2538	0.00342112
2550	0.00461851
2562	0.00496062
2574	0.00692777
2586	0.00791134
2598	0.0074837
2610	0.00705606
2622	0.00585867
2634	0.00560208
2646	0.00525997
2658	0.00538826
2670	0.00547379
2682	0.00517444
2694	0.00551656
2706	0.00675671
2718	0.00812516
2730	0.00910873
2742	0.010691
2754	0.0118884
2766	0.0128292
2778	0.0148819
2790	0.0191583
2802	0.0301059
2814	0.0508464
2826	0.0571327
2838	0.0421653
2850	0.0411817
2862	0.0479812
2874	0.0596985
2886	0.0737251
2898	0.0863405
2910	0.0936532
2922	0.0952354
2934	0.0942091
2946	0.0831332
2958	0.0728271
2970	0.0655144
2982	0.0690639
2994	0.0609815
3006	0.0390863
3018	0.0499911
3030	0.0629486
3042	0.0727416
3054	0.0837319
3066	0.101565
3078	0.110374
3090	0.0631197
3102	0.0326289
3114	0.0143259
3126	0.0074837
3138	0.0058159
3150	0.00491786
3162	0.0047468
3174	0.00431916
3186	0.00286519
3198	0.00303624
3210	0.00175332
3222	0.00111186
3234	0.0016678
3246	0.00128292
3258	0.00209544
3270	0.0016678
3282	0.00218096
3294	0.00295072
3306	0.00282242
3318	0.00440469
3330	0.00564485
3342	0.00709882
3354	0.00945084
3366	0.0131285
3378	0.0170628
3390	0.0232636
3402	0.0327145
3414	0.0499056
3426	0.0620933
3438	0.0481523
3450	0.0346388
3462	0.0272834
3474	0.0138128
3486	0.00731264
3498	0.00560208
3510	0.00470404
3522	0.00342112
3534	0.00312177
3546	0.0027369
3558	0.00239478
3570	0.0021382
3582	0.00230926
3594	0.00124016
3606	0.00179609
3618	0.000898044
3630	0.000940808
3642	0.00277966
3654	0.00171056
3666	0.00141121
3678	0.0010691
3690	0.00119739
3702	0.00171056
3714	0.000769752
3726	0.000128292
3738	8.5528e-05
3750	8.5528e-05
3762	8.5528e-05
3774	0.000726988
3786	8.5528e-05
3798	0.00102634
3810	0.00021382
3822	8.5528e-05
3834	0.00102634
3846	0.000299348
3858	0.000256584
3870	0.000342112
3882	0.000898044
3894	0.000384876
3906	0.0010691
3918	0.00115463
3930	0.00136845
3942	0.00200991
3954	0.00209544
3966	0.00205267
