Infrared Spectrum: 1-Oxaspiro[4.5]decane-4-carboxylic acid, 2-oxo-, methyl ester
Formula: C 11 H 16 O 4
CAS: 2819-57-0
Origin: Sadtler Research Labs Under US-EPA Contract
1/CM	ABSORBANCE
450	0.0174205
462	0.0116137
474	0.00756241
486	0.0102633
498	0.00715728
510	0.00999318
522	0.012424
534	0.0149898
546	0.0143146
558	0.00661711
570	0.00607694
582	0.00486155
594	0.00648206
606	0.00553676
618	0.00661711
630	0.00513163
642	0.00418633
654	0.0047265
666	0.00202564
678	0.00391625
690	0.0101282
702	0.022012
714	0.0326804
726	0.018771
738	0.0101282
750	0.012694
762	0.0290342
774	0.0201214
786	0.00877779
798	0.00607694
810	0.00837267
822	0.0226872
834	0.0263334
846	0.0257932
858	0.0216069
870	0.025253
882	0.0247129
894	0.0604993
906	0.100877
918	0.0555027
930	0.0474001
942	0.0679266
954	0.0958805
966	0.249154
978	0.241997
990	0.0672514
1002	0.0630651
1014	0.0713027
1026	0.108575
1038	0.118838
1050	0.0775147
1062	0.0599591
1074	0.0681967
1086	0.0499659
1098	0.0526668
1110	0.100742
1122	0.166238
1134	0.281024
1146	0.309248
1158	0.313975
1170	0.383792
1182	0.324373
1194	0.429302
1206	0.571367
1218	0.493312
1230	0.259418
1242	0.197973
1254	0.21931
1266	0.239296
1278	0.167723
1290	0.097231
1302	0.0652258
1314	0.046995
1326	0.0411881
1338	0.0587437
1350	0.0939899
1362	0.14166
1374	0.0988515
1386	0.0382172
1398	0.0260633
1410	0.0240377
1422	0.044024
1434	0.109385
1446	0.145171
1458	0.097501
1470	0.0492907
1482	0.0199864
1494	0.012694
1506	0.0141795
1518	0.0129641
1530	0.0113436
1542	0.0147197
1554	0.0105334
1566	0.00742737
1578	0.00661711
1590	0.00486155
1602	0.0037812
1614	0.0037812
1626	0.00702224
1638	0.00756241
1650	0.00999318
1662	0.00729232
1674	0.0113436
1686	0.0159351
1698	0.0245778
1710	0.037812
1722	0.06266
1734	0.0960156
1746	0.264144
1758	0.614716
1770	0.261173
1782	0.146522
1794	0.275218
1806	0.864815
1818	1.26076
1830	0.281835
1842	0.069142
1854	0.0347061
1866	0.0229573
1878	0.0152599
1890	0.0147197
1902	0.012559
1914	0.00850771
1926	0.00540172
1938	0.00445642
1950	0.00445642
1962	0.00391625
1974	0.00459146
1986	0.0037812
1998	0.00351112
2010	0.00432138
2022	0.00486155
2034	0.00432138
2046	0.00486155
2058	0.00418633
2070	0.00432138
2082	0.00459146
2094	0.00540172
2106	0.00567181
2118	0.00540172
2130	0.00418633
2142	0.00310599
2154	0.00297095
2166	0.00324103
2178	0.00364616
2190	0.00270086
2202	0.00229573
2214	0.00256582
2226	0.0018906
2238	0.00202564
2250	0.00202564
2262	0.00243077
2274	0.00351112
2286	0.00499659
2298	0.00756241
2310	0.0105334
2322	0.00945301
2334	0.00688719
2346	0.0097231
2358	0.00769745
2370	0.00648206
2382	0.00715728
2394	0.00310599
2406	0.00324103
2418	0.00216069
2430	0.00135043
2442	0.00108034
2454	0.000945301
2466	0.000405129
2478	0.000675215
2490	0.000810258
2502	0.000675215
2514	0.00121539
2526	0.00108034
2538	0.000540172
2550	0
2562	0.000135043
2574	0.000675215
2586	0.000675215
2598	0.000945301
2610	0.00148547
2622	0.00175556
2634	0.00243077
2646	0.0028359
2658	0.00364616
2670	0.00486155
2682	0.00513163
2694	0.00351112
2706	0.00270086
2718	0.00243077
2730	0.00216069
2742	0.00162052
2754	0.0018906
2766	0.00256582
2778	0.00337608
2790	0.00445642
2802	0.00621198
2814	0.00783249
2826	0.0103983
2838	0.0171505
2850	0.0491557
2862	0.111816
2874	0.120323
2886	0.0904788
2898	0.0642805
2910	0.0823762
2922	0.114787
2934	0.256447
2946	0.614851
2958	0.452124
2970	0.129371
2982	0.0428086
2994	0.0383522
3006	0.0446992
3018	0.0255231
3030	0.0225522
3042	0.0185009
3054	0.0110735
3066	0.00837267
3078	0.00742737
3090	0.00648206
3102	0.00540172
3114	0.00445642
3126	0.00391625
3138	0.00270086
3150	0.00202564
3162	0.00216069
3174	0.00148547
3186	0.00162052
3198	0.00148547
3210	0.00148547
3222	0.000675215
3234	0.000675215
3246	0.000540172
3258	0.000270086
3270	0.000270086
3282	0.000540172
3294	0.000810258
3306	0.000675215
3318	0.000540172
3330	0.000405129
3342	0.000945301
3354	0.00108034
3366	0.000810258
3378	0.000540172
3390	0.000675215
3402	0.000810258
3414	0.000405129
3426	0.000540172
3438	0.00135043
3450	0.000945301
3462	0.00216069
3474	0.00135043
3486	0.00310599
3498	0.00405129
3510	0.00121539
3522	0.000945301
3534	0.00121539
3546	0.00162052
3558	0.000675215
3570	0.0018906
3582	0.00432138
3594	0.00796754
3606	0.0112086
3618	0.00702224
3630	0.00324103
3642	0
3654	0.000540172
3666	0.00202564
3678	0.000945301
3690	0.00148547
3702	0.00148547
3714	0.00162052
3726	0.00202564
3738	0.000945301
3750	0.00202564
3762	0.00135043
3774	0.00162052
3786	0.00108034
3798	0.000270086
3810	0.00175556
3822	0.00243077
3834	0.00202564
3846	0.00216069
3858	0.00216069
3870	0.00202564
3882	0.0018906
3894	0.00148547
3906	0.00243077
3918	0.00175556
3930	0.0037812
3942	0.00202564
3954	0.00202564
3966	0.00229573
