Infrared Spectrum: Ethyl tridecanoate
Formula: C 15 H 30 O 2
CAS: 28267-29-0
Origin: Sadtler Research Labs Under US-EPA Contract
1/CM	ABSORBANCE
450	0.00880425
462	0.015509
474	0.00927833
486	0.0002709
498	0.00501165
510	0.0073143
522	0.0092106
534	0.0114455
546	0.0156445
558	0.00907515
570	0.0147641
582	0.00900743
594	0.0166604
606	0.0130709
618	0.0169313
630	0.0163894
642	0.0123937
654	0.0109715
666	0.0130032
678	0.0130709
690	0.0214011
702	0.0157122
714	0.0245165
726	0.0260064
738	0.0257355
750	0.0197757
762	0.018963
774	0.0232297
786	0.0245842
798	0.0222138
810	0.0191662
822	0.0170667
834	0.0220106
846	0.0248551
858	0.0228233
870	0.0225524
882	0.0191662
894	0.020453
906	0.0194371
918	0.0234329
930	0.0220784
942	0.0207916
954	0.019708
966	0.0170667
978	0.018218
990	0.0161186
1002	0.021672
1014	0.0292572
1026	0.0554668
1038	0.0809991
1050	0.0713822
1062	0.0619007
1074	0.0560086
1086	0.0545186
1098	0.0755134
1110	0.0906838
1122	0.0906838
1134	0.0865526
1146	0.133689
1158	0.188005
1170	0.206019
1182	0.200398
1194	0.164843
1206	0.13782
1218	0.128678
1230	0.131657
1242	0.135992
1254	0.121973
1266	0.0885166
1278	0.0721949
1290	0.0671832
1302	0.0694181
1314	0.0681991
1326	0.0606139
1338	0.0599366
1350	0.0685377
1362	0.060343
1374	0.0845885
1386	0.054925
1398	0.0371133
1410	0.0288509
1422	0.0341334
1434	0.0430731
1446	0.0548573
1458	0.0774097
1470	0.0753779
1482	0.0369101
1494	0.0226202
1506	0.0205884
1518	0.0144932
1530	0.0143577
1542	0.0166604
1554	0.0118519
1566	0.0121228
1578	0.0120551
1590	0.0104974
1602	0.0113101
1614	0.0107006
1626	0.0118519
1638	0.0134096
1650	0.0121905
1662	0.0130032
1674	0.0123937
1686	0.0172699
1698	0.0202498
1710	0.0266159
1722	0.0430731
1734	0.0954245
1746	0.229926
1758	0.309029
1770	0.130167
1782	0.0456467
1794	0.0237038
1806	0.0147641
1818	0.0105651
1830	0.0104974
1842	0.00853335
1854	0.00799155
1866	0.00846563
1878	0.00778838
1890	0.0078561
1902	0.0067725
1914	0.00670478
1926	0.00663705
1938	0.00744975
1950	0.00663705
1962	0.00690795
1974	0.00629843
1986	0.00602753
1998	0.00609525
2010	0.00663705
2022	0.0070434
2034	0.0065016
2046	0.00582435
2058	0.00582435
2070	0.0056889
2082	0.0051471
2094	0.00474075
2106	0.00453758
2118	0.00440213
2130	0.0043344
2142	0.00426668
2154	0.00426668
2166	0.00392805
2178	0.00399578
2190	0.0040635
2202	0.00399578
2214	0.00399578
2226	0.00386033
2238	0.0032508
2250	0.00365715
2262	0.00304763
2274	0.00284445
2286	0.0029799
2298	0.00345398
2310	0.00413123
2322	0.00582435
2334	0.00582435
2346	0.0051471
2358	0.0075852
2370	0.00358943
2382	0.002709
2394	0.00196403
2406	0.00223493
2418	0.0018963
2430	0.00196403
2442	0.00223493
2454	0.00155768
2466	0.0018963
2478	0.00203175
2490	0.0013545
2502	0.00169313
2514	0.00128678
2526	0.00237038
2538	0.00237038
2550	0.0024381
2562	0.00209948
2574	0.00257355
2586	0.00257355
2598	0.002709
2610	0.00372488
2622	0.00331853
2634	0.00392805
2646	0.00399578
2658	0.00562118
2670	0.0051471
2682	0.00663705
2694	0.00589208
2706	0.00562118
2718	0.00535028
2730	0.00636615
2742	0.0067725
2754	0.00751748
2766	0.00853335
2778	0.0094815
2790	0.0112424
2802	0.0141545
2814	0.0187598
2826	0.0264128
2838	0.0385355
2850	0.0831663
2862	0.245435
2874	0.196606
2886	0.13694
2898	0.128068
2910	0.204868
2922	0.381698
2934	0.67725
2946	0.450642
2958	0.245503
2970	0.233109
2982	0.153465
2994	0.102603
3006	0.0582435
3018	0.0331853
3030	0.0209948
3042	0.0145609
3054	0.0110392
3066	0.00833018
3078	0.00744975
3090	0.00555345
3102	0.00582435
3114	0.00535028
3126	0.005418
3138	0.00501165
3150	0.0040635
3162	0.00467303
3174	0.0043344
3186	0.00494393
3198	0.0040635
3210	0.0040635
3222	0.00446985
3234	0.00291218
3246	0.00264128
3258	0.00264128
3270	0.00223493
3282	0.00223493
3294	0.00203175
3306	0.00209948
3318	0.002709
3330	0.00203175
3342	0.002709
3354	0.00196403
3366	0.00291218
3378	0.00284445
3390	0.0018963
3402	0.0021672
3414	0.00331853
3426	0.00250583
3438	0.00209948
3450	0.00257355
3462	0.00250583
3474	0.002709
3486	0.00440213
3498	0.005418
3510	0.002709
3522	0.00176085
3534	0.00067725
3546	0.00067725
3558	0.00115133
3570	0.00121905
3582	0.0013545
3594	0.00338625
3606	0.00257355
3618	0.00291218
3630	0.00507938
3642	0.002709
3654	0.0032508
3666	0.00331853
3678	0.00501165
3690	0.00399578
3702	0.00291218
3714	0.00338625
3726	0.00419895
3738	0.00602753
3750	0.00711113
3762	0.00629843
3774	0.00582435
3786	0.00535028
3798	0.0067725
3810	0.00575663
3822	0.00724658
3834	0.00826245
3846	0.00575663
3858	0.0059598
3870	0.00690795
3882	0.00494393
3894	0.00548573
3906	0.0056889
3918	0.00372488
3930	0.0032508
3942	0.00345398
3954	0
3966	0.0002709
