Infrared Spectrum: Ethanol, 2-(cyclohexylamino)-
Formula: C 8 H 17 N O
CAS: 2842-38-8
Origin: Sadtler Research Labs Under US-EPA Contract
1/CM	ABSORBANCE
450	0
462	0.0366054
474	0.0322128
486	0.0291623
498	0.0241596
510	0.026844
522	0.0239155
534	0.0257458
546	0.0291623
558	0.0292843
570	0.0280641
582	0.0284302
594	0.0317247
606	0.0323348
618	0.0278201
630	0.0374595
642	0.0353852
654	0.040632
666	0.0449026
678	0.0445366
690	0.0561283
702	0.061131
714	0.0594228
726	0.0595448
738	0.0531998
750	0.0356293
762	0.0428283
774	0.0373375
786	0.0370935
798	0.0422182
810	0.0358733
822	0.0330669
834	0.0363614
846	0.0400219
858	0.047587
870	0.0602769
882	0.0660117
894	0.0696723
906	0.0561283
918	0.0479531
930	0.0425843
942	0.04051
954	0.0395338
966	0.0449026
978	0.0512476
990	0.0497833
1002	0.0579585
1014	0.0805319
1026	0.114819
1038	0.162284
1050	0.209505
1062	0.236593
1074	0.17656
1086	0.105668
1098	0.095052
1110	0.103227
1122	0.122872
1134	0.16448
1146	0.146178
1158	0.0922456
1170	0.0664998
1182	0.061253
1194	0.060765
1206	0.0630833
1218	0.0654016
1230	0.0660117
1242	0.06772
1254	0.0707704
1266	0.0785796
1278	0.0619851
1290	0.0512476
1302	0.0556402
1314	0.060765
1326	0.0728447
1338	0.0860227
1350	0.108352
1362	0.0978584
1374	0.0889511
1386	0.0830943
1398	0.0876089
1410	0.0850465
1422	0.0628393
1434	0.0716246
1446	0.126899
1458	0.185833
1470	0.157037
1482	0.0771154
1494	0.0424623
1506	0.0369715
1518	0.0289183
1530	0.027332
1542	0.027088
1554	0.027332
1566	0.0261119
1578	0.0253797
1590	0.0263559
1602	0.02721
1614	0.0267219
1626	0.0259898
1638	0.0256238
1650	0.0240375
1662	0.0274541
1674	0.0261119
1686	0.0257458
1698	0.0241596
1710	0.0257458
1722	0.0251357
1734	0.0251357
1746	0.0242816
1758	0.0237935
1770	0.0224513
1782	0.0261119
1794	0.0241596
1806	0.0230614
1818	0.0230614
1830	0.0219632
1842	0.0230614
1854	0.0223293
1866	0.0229394
1878	0.0213531
1890	0.0225733
1902	0.0220853
1914	0.0213531
1926	0.0223293
1938	0.0215972
1950	0.0223293
1962	0.0212311
1974	0.0219632
1986	0.020499
1998	0.020499
2010	0.0214752
2022	0.020377
2034	0.0214752
2046	0.0209871
2058	0.020133
2070	0.0209871
2082	0.020255
2094	0.0220853
2106	0.0209871
2118	0.0209871
2130	0.0208651
2142	0.020621
2154	0.0208651
2166	0.0198889
2178	0.0213531
2190	0.020499
2202	0.0195229
2214	0.0198889
2226	0.020133
2238	0.0209871
2250	0.0209871
2262	0.0213531
2274	0.0219632
2286	0.0211091
2298	0.0215972
2310	0.0224513
2322	0.0224513
2334	0.0229394
2346	0.0231834
2358	0.0234275
2370	0.0234275
2382	0.0235495
2394	0.0217192
2406	0.0212311
2418	0.0218412
2430	0.0224513
2442	0.0207431
2454	0.0215972
2466	0.0209871
2478	0.0223293
2490	0.0225733
2502	0.0224513
2514	0.0222073
2526	0.0237935
2538	0.0241596
2550	0.0239155
2562	0.0247697
2574	0.0257458
2586	0.0276981
2598	0.0303825
2610	0.0309926
2622	0.0303825
2634	0.0322128
2646	0.0363614
2658	0.0414861
2670	0.0446586
2682	0.0419742
2694	0.0402659
2706	0.0417302
2718	0.040876
2730	0.0419742
2742	0.0445366
2754	0.0484411
2766	0.054298
2778	0.0672319
2790	0.0852906
2802	0.104935
2814	0.125679
2826	0.150204
2838	0.178146
2850	0.276981
2862	0.462692
2874	0.36703
2886	0.248673
2898	0.257946
2910	0.363248
2922	0.614849
2934	1.12135
2946	0.999205
2958	0.362027
2970	0.147398
2982	0.081386
2994	0.0529558
3006	0.0401439
3018	0.0345311
3030	0.0308706
3042	0.0290403
3054	0.0300164
3066	0.0287962
3078	0.0246476
3090	0.0231834
3102	0.0228174
3114	0.0223293
3126	0.0224513
3138	0.0217192
3150	0.0235495
3162	0.0220853
3174	0.0219632
3186	0.0208651
3198	0.0209871
3210	0.0208651
3222	0.0208651
3234	0.0196449
3246	0.0209871
3258	0.0213531
3270	0.020621
3282	0.020377
3294	0.020011
3306	0.0197669
3318	0.020499
3330	0.0219632
3342	0.0225733
3354	0.0217192
3366	0.0213531
3378	0.0212311
3390	0.0217192
3402	0.0234275
3414	0.0215972
3426	0.0220853
3438	0.0224513
3450	0.0208651
3462	0.0214752
3474	0.0198889
3486	0.0218412
3498	0.0224513
3510	0.0226953
3522	0.0235495
3534	0.0300164
3546	0.0361173
3558	0.0425843
3570	0.0397779
3582	0.0319687
3594	0.026966
3606	0.0235495
3618	0.0228174
3630	0.0223293
3642	0.0240375
3654	0.0316027
3666	0.0381916
3678	0.0380696
3690	0.0298944
3702	0.0244036
3714	0.0225733
3726	0.0228174
3738	0.0212311
3750	0.0191568
3762	0.0208651
3774	0.020621
3786	0.020255
3798	0.0212311
3810	0.020499
3822	0.020133
3834	0.020377
3846	0.0198889
3858	0.0224513
3870	0.0194009
3882	0.020011
3894	0.0223293
3906	0.0184247
3918	0.0211091
3930	0.0217192
3942	0.0190348
3954	0.0233054
3966	0.0213531
