Infrared Spectrum: 2-Propenenitrile, 3-(4-methylphenyl)-
Formula: C 10 H 9 N
CAS: 28446-70-0
Origin: Sadtler Research Labs Under US-EPA Contract
1/CM	ABSORBANCE
450	0.0597022
462	0.0454986
474	0.0205097
486	0.0094887
498	0.00312361
510	0.0161485
522	0.0673638
534	0.0675407
546	0.019331
558	0.0116104
570	0.0288786
582	0.0120229
594	0.00553998
606	0.007367
618	0.0103727
630	0.00842785
642	0.0088404
654	0.00895827
666	0.00866359
678	0.00724913
690	0.00825104
702	0.0180934
714	0.0144983
726	0.00383084
738	0.00418446
750	0.00595254
762	0.0578162
774	0.132724
786	0.309591
798	0.484866
810	0.285545
822	0.205746
834	0.146397
846	0.0743772
858	0.0250478
870	0.0231029
882	0.0438484
894	0.0371297
906	0.0139678
918	0.0117872
930	0.0327095
942	0.105378
954	0.254839
966	0.384204
978	0.180757
990	0.0341239
1002	0.00612934
1014	0.0568732
1026	0.0595843
1038	0.018388
1050	0.0301752
1062	0.0193899
1074	0.00960657
1086	0.0195668
1098	0.0332988
1110	0.0519816
1122	0.0542211
1134	0.028525
1146	0.00583466
1158	0.00117872
1170	0.0345365
1182	0.18665
1194	0.0465005
1206	0.0638866
1218	0.0508028
1230	0.0399586
1242	0.0173861
1254	0.0275231
1266	0.0640045
1278	0.0509207
1290	0.0477382
1302	0.0238691
1314	0.01662
1326	0.0468541
1338	0.0181523
1350	0.0101959
1362	0.0112568
1374	0.0176808
1386	0.0357742
1398	0.0539264
1410	0.0753791
1422	0.085634
1434	0.0638277
1446	0.0449682
1458	0.040489
1470	0.0496241
1482	0.0512154
1494	0.0882861
1506	0.222248
1518	0.323618
1530	0.0593486
1542	0.0234565
1554	0.0315308
1566	0.071784
1578	0.0787385
1590	0.0986589
1602	0.279533
1614	0.563016
1626	0.491232
1638	0.143097
1650	0.0588771
1662	0.0286429
1674	0.0163253
1686	0.0114925
1698	0.0185059
1710	0.0354795
1722	0.0172682
1734	0.0103138
1746	0.0186238
1758	0.0374833
1770	0.0273463
1782	0.0393692
1794	0.0326505
1806	0.0169736
1818	0.00383084
1830	5.8936e-05
1842	0.00153234
1854	0.00194489
1866	0.00453807
1878	0.0164431
1890	0.035008
1902	0.0418446
1914	0.025755
1926	0.0174451
1938	0.00990125
1950	0.00542211
1962	0.00436126
1974	0.00495062
1986	0.00489169
1998	0.00500956
2010	0.00388978
2022	0.0029468
2034	0.00412552
2046	0.00265212
2058	0.00235744
2070	0.0022985
2082	0.00282893
2094	0.00235744
2106	0.00188595
2118	0.00135553
2130	0.00111978
2142	0.00182702
2154	0.0037719
2166	0.00436126
2178	0.00577573
2190	0.00530424
2202	0.0136142
2214	0.122056
2226	0.369116
2238	0.0569322
2250	0.00842785
2262	0.00730806
2274	0.00830998
2286	0.00677764
2298	0.00683658
2310	0.00760274
2322	0.00648296
2334	0.0050685
2346	0.00701338
2358	0.00347722
2370	0.00559892
2382	0.00418446
2394	0.00194489
2406	0.00200382
2418	0.00247531
2430	0.00347722
2442	0.00571679
2454	0.00447914
2466	0.00300574
2478	0.00223957
2490	0.00253425
2502	0.00324148
2514	0.00412552
2526	0.00565786
2538	0.00772062
2550	0.0067187
2562	0.00630615
2574	0.0050685
2586	0.00783849
2598	0.00996018
2610	0.00618828
2622	0.00553998
2634	0.00495062
2646	0.00159127
2658	0.000117872
2670	0.000176808
2682	0.00106085
2694	0.00106085
2706	0.00165021
2718	0.00335935
2730	0.00648296
2742	0.0170325
2754	0.0159717
2766	0.00689551
2778	0.00789742
2790	0.0111389
2802	0.012907
2814	0.0159717
2826	0.0188006
2838	0.0247531
2850	0.0434948
2862	0.08475
2874	0.15895
2886	0.172388
2898	0.135022
2910	0.136496
2922	0.210284
2934	0.367937
2946	0.268925
2958	0.138559
2970	0.118226
2982	0.129365
2994	0.158538
3006	0.202622
3018	0.261912
3030	0.508205
3042	0.424929
3054	0.324855
3066	0.320199
3078	0.186356
3090	0.133844
3102	0.0877557
3114	0.0480328
3126	0.0388388
3138	0.0281125
3150	0.0114336
3162	0.00618828
3174	0.00571679
3186	0.00536318
3198	0.00465594
3210	0.00548105
3222	0.00813317
3234	0.0124355
3246	0.0081921
3258	0.00218063
3270	0.00117872
3282	0.00165021
3294	0.000707232
3306	0.000707232
3318	0.000412552
3330	0.00106085
3342	0.00129659
3354	0.00106085
3366	0.0014734
3378	0.00206276
3390	0.00194489
3402	0.00123766
3414	0.00182702
3426	0.000648296
3438	0.00123766
3450	0.00135553
3462	0.000648296
3474	0.000412552
3486	0.00029468
3498	0.00111978
3510	0.00176808
3522	0.00265212
3534	0.00194489
3546	0.000353616
3558	0.00100191
3570	0.000117872
3582	0.000530424
3594	0
3606	0.00100191
3618	0.00159127
3630	0.0022985
3642	0.00247531
3654	0.00247531
3666	0.00347722
3678	0.00394871
3690	0.0029468
3702	0.0014734
3714	0.000648296
3726	0.00106085
3738	0.0021217
3750	0.00058936
3762	0.000412552
3774	0
3786	0.00106085
3798	0.00141446
3810	0.00206276
3822	0.00371297
3834	0.0065419
3846	0.00618828
3858	0.00383084
3870	0.00141446
3882	0.00182702
3894	0.00306467
3906	0.00218063
3918	0.00182702
3930	0.00153234
3942	0.000648296
3954	0.000353616
3966	0
