Infrared Spectrum: Nonadecanenitrile
Formula: C 19 H 37 N
CAS: 28623-46-3
Origin: Sadtler Research Labs Under US-EPA Contract
1/CM	ABSORBANCE
450	0.0127177
462	0.0306125
474	0.0274612
486	0.0148561
498	0.0164317
510	0.0213837
522	0.0298247
534	0.0124926
546	0.0157564
558	0.0083284
570	0.012155
582	0.0160941
594	0.0182325
606	0.0187952
618	0.0130553
630	0.0129428
642	0.0176697
654	0.0155313
666	0.0190203
678	0.0136181
690	0.00877859
702	0.0115922
714	0.022059
726	0.020821
738	0.0114797
750	0.0104668
762	0.0147435
774	0.0127177
786	0.00686531
798	0.00652767
810	0.0112546
822	0.0097915
834	0.0105793
846	0.00776567
858	0.00911623
870	0.00945386
882	0.0119299
894	0.0111421
906	0.00776567
918	0.00956641
930	0.0149686
942	0.0103542
954	0.00754058
966	0.010917
978	0.00742804
990	0.00844095
1002	0.00866604
1014	0.00720294
1026	0.00956641
1038	0.0102417
1050	0.0110295
1062	0.00922877
1074	0.00731549
1086	0.00720294
1098	0.00866604
1110	0.0115922
1122	0.00731549
1134	0.00776567
1146	0.00686531
1158	0.00619003
1170	0.00573985
1182	0.00652767
1194	0.0056273
1206	0.00607748
1218	0.00799077
1230	0.0083284
1242	0.0070904
1254	0.00844095
1266	0.0108044
1278	0.0141808
1290	0.0136181
1302	0.0186826
1314	0.0169944
1326	0.0172195
1338	0.0235221
1350	0.0324132
1362	0.028024
1374	0.0236347
1386	0.0185701
1398	0.0123801
1410	0.00799077
1422	0.0218339
1434	0.0320756
1446	0.0503081
1458	0.0822711
1470	0.0675276
1482	0.0273487
1494	0.015869
1506	0.0108044
1518	0.0101291
1530	0.00303874
1542	0.0128302
1554	0.00754058
1566	0.0056273
1578	0.00157564
1590	0.00281365
1602	0.00438929
1614	0.0029262
1626	0.00382656
1638	0.0070904
1650	0.00866604
1662	0.00348893
1674	0.00393911
1686	0.00686531
1698	0.00754058
1710	0.0029262
1722	0.00573985
1734	0.00675276
1746	0.00360147
1758	0.00472693
1770	0.00348893
1782	0.00213837
1794	0.0027011
1806	0.00483948
1818	0.0014631
1830	0.00202583
1842	0.0014631
1854	0.00382656
1866	0.00438929
1878	0.00101291
1890	0.00247601
1902	0.00101291
1914	0.00247601
1926	0.00247601
1938	0.00202583
1950	0.0029262
1962	0.00258856
1974	0.00281365
1986	0.00225092
1998	0.00281365
2010	0.00180074
2022	0.00236347
2034	0.00427675
2046	0.00427675
2058	0.00258856
2070	0.0041642
2082	0.00393911
2094	0.00326383
2106	0.00371402
2118	0.00303874
2130	0.00371402
2142	0.00438929
2154	0.00337638
2166	0.00360147
2178	0.00461439
2190	0.00382656
2202	0.0041642
2214	0.00427675
2226	0.00405166
2238	0.00495202
2250	0.00787822
2262	0.00686531
2274	0.00483948
2286	0.00427675
2298	0.00258856
2310	0.00247601
2322	0.00247601
2334	0.00225092
2346	0.000112546
2358	0.00315129
2370	0.00281365
2382	0.00461439
2394	0.00427675
2406	0.00438929
2418	0.0056273
2430	0.00472693
2442	0.00506457
2454	0.00472693
2466	0.00483948
2478	0.0056273
2490	0.00596494
2502	0.00596494
2514	0.00675276
2526	0.00686531
2538	0.00686531
2550	0.00720294
2562	0.00810331
2574	0.00787822
2586	0.0083284
2598	0.00889113
2610	0.00945386
2622	0.00934132
2634	0.0097915
2646	0.0113671
2658	0.0122675
2670	0.0145184
2682	0.0145184
2694	0.0140683
2706	0.0137306
2718	0.0127177
2730	0.0140683
2742	0.0154188
2754	0.015869
2766	0.017107
2778	0.0186826
2790	0.0230719
2802	0.028024
2814	0.0345516
2826	0.0469317
2838	0.0701162
2850	0.152387
2862	0.407754
2874	0.300498
2886	0.19538
2898	0.197518
2910	0.322782
2922	0.619003
2934	1.12546
2946	0.670549
2958	0.334937
2970	0.241411
2982	0.109845
2994	0.0582988
3006	0.0398413
3018	0.0302749
3030	0.0238598
3042	0.0194705
3054	0.015869
3066	0.0149686
3078	0.0136181
3090	0.0117048
3102	0.0110295
3114	0.0106919
3126	0.0103542
3138	0.0106919
3150	0.00967896
3162	0.00900368
3174	0.00956641
3186	0.00889113
3198	0.00787822
3210	0.00787822
3222	0.00652767
3234	0.00765313
3246	0.00765313
3258	0.00776567
3270	0.00754058
3282	0.00686531
3294	0.00754058
3306	0.00697785
3318	0.00720294
3330	0.00619003
3342	0.00675276
3354	0.00697785
3366	0.00720294
3378	0.0070904
3390	0.00607748
3402	0.00664021
3414	0.00742804
3426	0.00686531
3438	0.00697785
3450	0.00528966
3462	0.00641512
3474	0.00607748
3486	0.00596494
3498	0.00551475
3510	0.00506457
3522	0.0056273
3534	0.00573985
3546	0.00641512
3558	0.00427675
3570	0.00630258
3582	0.00438929
3594	0.00889113
3606	0.00405166
3618	0.00686531
3630	0.00810331
3642	0.00427675
3654	0.0144059
3666	0.0029262
3678	0.0111421
3690	0.0101291
3702	0.00371402
3714	0.00900368
3726	0.00573985
3738	0.0101291
3750	0.00776567
3762	0.0029262
3774	0.0083284
3786	0.00495202
3798	0.00483948
3810	0
3822	0.0138432
3834	0.00731549
3846	0.00506457
3858	0.0105793
3870	0.00900368
3882	0.00461439
3894	0.00967896
3906	0.0114797
3918	0.00337638
3930	0.00630258
3942	0.0106919
3954	0.0138432
3966	0.0102417
