Infrared Spectrum: 2-Propenoic acid, 2-methyl-, 2-(dimethylamino)ethyl ester
Formula: C 8 H 15 N O 2
CAS: 2867-47-2
Origin: Sadtler Research Labs Under US-EPA Contract
1/CM	ABSORBANCE
450	0.017568
462	0.0180847
474	0.0170513
486	0.0136066
498	0.0155011
510	0.0192903
522	0.0156734
534	0.020496
546	0.0242851
558	0.0130899
570	0.0148122
582	0.00895622
594	0.0266964
606	0.0177402
618	0.00430587
630	0.00964516
642	0.0186014
654	0.0249741
666	0.0208404
678	0.0106786
690	0.00258352
702	0.00241129
714	0.00258352
726	0.00378917
738	0.00172235
750	0.00602822
762	0.0182569
774	0.0335858
786	0.0260075
798	0.0349637
810	0.0709608
822	0.0738888
834	0.054943
846	0.0409919
858	0.0303134
870	0.0279021
882	0.0244574
894	0.0179124
906	0.0213571
918	0.0442644
930	0.120392
942	0.180502
954	0.116948
966	0.0899067
978	0.0633825
990	0.0831895
1002	0.0962794
1014	0.153117
1026	0.222355
1038	0.209266
1050	0.137444
1062	0.110575
1074	0.100585
1086	0.091629
1098	0.0866342
1110	0.076989
1122	0.0821561
1134	0.150017
1146	0.485703
1158	1.53341
1170	1.4013
1182	0.607128
1194	0.319496
1206	0.195487
1218	0.113158
1230	0.0666549
1242	0.0582154
1254	0.0750945
1266	0.120564
1278	0.187047
1290	0.412331
1302	0.502754
1314	0.439371
1326	0.333447
1338	0.141749
1350	0.0880121
1362	0.0640714
1374	0.0759556
1386	0.0847396
1398	0.111264
1410	0.140372
1422	0.0850841
1434	0.0871509
1446	0.151911
1458	0.267825
1470	0.232173
1482	0.111781
1494	0.0477091
1506	0.0272131
1518	0.0186014
1530	0.0127454
1542	0.00964516
1554	0.0105063
1566	0.0113675
1578	0.01464
1590	0.017568
1602	0.0210127
1614	0.0320357
1626	0.0511538
1638	0.0890455
1650	0.0694107
1662	0.0272131
1674	0.0246296
1686	0.0346192
1698	0.0471924
1710	0.0814672
1722	0.270753
1734	0.814155
1746	0.767307
1758	0.216499
1770	0.0589044
1782	0.0342748
1794	0.0320357
1806	0.0211849
1818	0.0115397
1830	0.00809505
1842	0.00792281
1854	0.00964516
1866	0.0144677
1878	0.0187736
1890	0.0167068
1902	0.0115397
1914	0.00757834
1926	0.00723387
1938	0.00706164
1950	0.00533929
1962	0.00602822
1974	0.00723387
1986	0.00895622
1998	0.00981739
2010	0.00775057
2022	0.00602822
2034	0.00637269
2046	0.00447811
2058	0.0039614
2070	0.0034447
2082	0.00482258
2094	0.00620046
2106	0.00585599
2118	0.00533929
2130	0.00516705
2142	0.00551152
2154	0.00516705
2166	0.00430587
2178	0.00310023
2190	0.00223905
2202	0.00258352
2214	0.00189458
2226	0.00241129
2238	0.00327247
2250	0.00327247
2262	0.00206682
2274	0.00206682
2286	0.00034447
2298	0.000516705
2310	0.00189458
2322	0.00258352
2334	0.00275576
2346	0.00137788
2358	0.00034447
2370	0.000172235
2382	0
2394	0.00068894
2406	0.00155011
2418	0.00206682
2430	0.00137788
2442	0.00223905
2454	0.00189458
2466	0.00155011
2478	0.00189458
2490	0.00258352
2502	0.00465035
2514	0.00465035
2526	0.0034447
2538	0.00327247
2550	0.0039614
2562	0.00378917
2574	0.00327247
2586	0.00327247
2598	0.00310023
2610	0.00413364
2622	0.00585599
2634	0.00654493
2646	0.00878398
2658	0.0125732
2670	0.0125732
2682	0.0132621
2694	0.016879
2706	0.0265242
2718	0.0478813
2730	0.0675161
2742	0.0811227
2754	0.109369
2766	0.212366
2778	0.391835
2790	0.330519
2802	0.230795
2814	0.203926
2826	0.259903
2838	0.207543
2850	0.128143
2862	0.130726
2874	0.136238
2886	0.132449
2898	0.143127
2910	0.147089
2922	0.153461
2934	0.222872
2946	0.323457
2958	0.370305
2970	0.357904
2982	0.389251
2994	0.252497
3006	0.125043
3018	0.0602822
3030	0.0401308
3042	0.0265242
3054	0.0251463
3066	0.0194626
3078	0.016879
3090	0.0167068
3102	0.0230795
3114	0.0322079
3126	0.0115397
3138	0.00843951
3150	0.00792281
3162	0.00637269
3174	0.00654493
3186	0.00602822
3198	0.00568375
3210	0.00551152
3222	0.00482258
3234	0.00516705
3246	0.00516705
3258	0.00413364
3270	0.00465035
3282	0.00551152
3294	0.00206682
3306	0.00241129
3318	0.002928
3330	0.00068894
3342	0.00310023
3354	0.002928
3366	0.00430587
3378	0.00361693
3390	0.00327247
3402	0.00447811
3414	0.00258352
3426	0.002928
3438	0.00585599
3450	0.00826728
3462	0.0127454
3474	0.00878398
3486	0.00499481
3498	0.0034447
3510	0.00447811
3522	0.002928
3534	0.00430587
3546	0.00482258
3558	0.00241129
3570	0.00602822
3582	0.00654493
3594	0.00516705
3606	0.00671716
3618	0.00465035
3630	0.00551152
3642	0.00499481
3654	0.00430587
3666	0.00378917
3678	0.00654493
3690	0.00723387
3702	0.00310023
3714	0.0039614
3726	0.00602822
3738	0.00533929
3750	0.00275576
3762	0.00585599
3774	0.00430587
3786	0.00413364
3798	0.00241129
3810	0.00499481
3822	0.00499481
3834	0.00447811
3846	0.00310023
3858	0.00499481
3870	0.00465035
3882	0.0068894
3894	0.00241129
3906	0.002928
3918	0.00585599
3930	0.00499481
3942	0.00533929
3954	0.00275576
3966	0.00361693
