Infrared Spectrum: 2H-1,2-Benzothiazin-3(4H)-one, 2-ethyl-, 1,1-dioxide
Formula: C 10 H 11 N O 3 S
CAS: 28716-53-2
Origin: Sadtler Research Labs Under US-EPA Contract
1/CM	ABSORBANCE
450	0.0476661
462	0.033675
474	0.0261488
486	0.00636834
498	0.00347364
510	0.00434205
522	0.0213243
534	0.0205524
546	0.0160173
558	0.0370522
570	0.12013
582	0.607405
594	0.206392
606	0.024412
618	0.0103244
630	0.0107104
642	0.0307803
654	0.0904111
666	0.0333855
678	0.00752622
690	0.0276926
702	0.0315522
714	0.0841393
726	0.331057
738	0.111832
750	0.137112
762	0.117911
774	0.0953321
786	0.0783499
798	0.0207454
810	0.00762271
822	0.00424556
834	0.00829814
846	0.0155349
858	0.00926304
870	0.0136051
882	0.00742973
894	0.00916655
906	0.0163068
918	0.0688939
930	0.106814
942	0.0953321
954	0.0933058
966	0.0995777
978	0.0487275
990	0.0227716
1002	0.0162103
1014	0.0157279
1026	0.0363767
1038	0.0619466
1050	0.103051
1062	0.0820165
1074	0.154191
1086	0.0805692
1098	0.0488239
1110	0.0275961
1122	0.0497888
1134	0.104981
1146	0.0564467
1158	0.13113
1170	0.326908
1182	0.426679
1194	0.575273
1206	0.208804
1218	0.0503678
1230	0.0601133
1242	0.107104
1254	0.22376
1266	0.407381
1278	0.334627
1290	0.117235
1302	0.0605957
1314	0.0853937
1326	0.1347
1338	0.154673
1350	0.197129
1362	0.608659
1374	0.653527
1386	0.126016
1398	0.0492099
1410	0.0337715
1422	0.0255699
1434	0.028754
1446	0.0894462
1458	0.0907971
1470	0.0721745
1482	0.0599203
1494	0.00424556
1506	0.00395609
1518	0.00376311
1530	0.00530695
1542	0.00656132
1554	0.00463152
1566	0.00424556
1578	0.0113858
1590	0.0165963
1602	0.0297189
1614	0.0148595
1626	0.014184
1638	0.0133156
1650	0.0173682
1662	0.0156314
1674	0.0259558
1686	0.0521046
1698	0.0948497
1710	0.22376
1722	0.771631
1734	0.75735
1746	0.13306
1758	0.0300084
1770	0.0163068
1782	0.00887708
1794	0.00916655
1806	0.0107104
1818	0.0113858
1830	0.00762271
1842	0.00742973
1854	0.00559642
1866	0.00357013
1878	0.00125437
1890	0.0019298
1902	0.0019298
1914	0.00154384
1926	0.00540344
1938	0.0048245
1950	0.00260523
1962	0.00714026
1974	0.00357013
1986	0.00115788
1998	0.00067543
2010	0.00028947
2022	0.00057894
2034	0.00077192
2046	0.00135086
2058	0.00086841
2070	9.649e-05
2082	0
2094	0.00115788
2106	0.00183331
2118	0.00144735
2130	0.00144735
2142	0.00164033
2154	0.00125437
2166	0.00154384
2178	0.0019298
2190	0.00202629
2202	0.00221927
2214	0.00231576
2226	0.00212278
2238	0.00183331
2250	0.00183331
2262	0.00202629
2274	0.00250874
2286	0.00347364
2298	0.00598238
2310	0.00897357
2322	0.0102279
2334	0.0067543
2346	0.00762271
2358	0.00357013
2370	0.00154384
2382	0.00308768
2394	0.00077192
2406	0.00048245
2418	0.00154384
2430	0.00270172
2442	0.00212278
2454	0.00164033
2466	0.00173682
2478	0.00125437
2490	0.00173682
2502	0.00221927
2514	0.00250874
2526	0.0028947
2538	0.00347364
2550	0.00366662
2562	0.00308768
2574	0.00270172
2586	0.00221927
2598	0.00221927
2610	0.00221927
2622	0.00173682
2634	0.00221927
2646	0.00279821
2658	0.00279821
2670	0.00279821
2682	0.00231576
2694	0.00202629
2706	0.00135086
2718	0.00212278
2730	0.00270172
2742	0.00231576
2754	0.00279821
2766	0.00337715
2778	0.00347364
2790	0.00347364
2802	0.00424556
2814	0.00549993
2826	0.00501748
2838	0.00627185
2850	0.00714026
2862	0.00800867
2874	0.0128332
2886	0.024412
2898	0.0251839
2910	0.0214208
2922	0.0204559
2934	0.0274032
2946	0.0649378
2958	0.0443854
2970	0.0403328
2982	0.0887708
2994	0.0876129
3006	0.0323242
3018	0.018912
3030	0.0186226
3042	0.019298
3054	0.0179471
3066	0.0328066
3078	0.0556747
3090	0.0359908
3102	0.00955251
3114	0.00463152
3126	0.00376311
3138	0.00347364
3150	0.0038596
3162	0.00434205
3174	0.00424556
3186	0.00424556
3198	0.00357013
3210	0.00231576
3222	0.00183331
3234	0.00183331
3246	0.0019298
3258	0.00231576
3270	0.00202629
3282	0.00221927
3294	0.0019298
3306	0.00221927
3318	0.00202629
3330	0.00279821
3342	0.00212278
3354	0.00250874
3366	0.00154384
3378	0.0019298
3390	0.00231576
3402	0.00357013
3414	0.00299119
3426	0.00829814
3438	0.009649
3450	0.00318417
3462	0.00173682
3474	0.00077192
3486	0.00164033
3498	0.00173682
3510	0.00202629
3522	0.00183331
3534	0.0019298
3546	0.00144735
3558	0.00202629
3570	0.00318417
3582	0.00202629
3594	0.00115788
3606	0.0019298
3618	0.0028947
3630	0.00308768
3642	0.00357013
3654	0.00337715
3666	0.00221927
3678	0.00501748
3690	0.00376311
3702	0.00318417
3714	0.0038596
3726	0.00395609
3738	0.00405258
3750	0.00221927
3762	0.00231576
3774	0.00250874
3786	0.00270172
3798	0.00463152
3810	0.00299119
3822	0.00511397
3834	0.0028947
3846	0.00328066
3858	0.00183331
3870	0.00463152
3882	0.00260523
3894	0.00270172
3906	0.00250874
3918	0.00395609
3930	0.00164033
3942	0.00337715
3954	0.00299119
3966	0.00260523
