Infrared Spectrum: 2-Propenamide, N-(1,1-dimethyl-3-oxobutyl)-
Formula: C 9 H 15 N O 2
CAS: 2873-97-4
Origin: Sadtler Research Labs Under US-EPA Contract
1/CM	ABSORBANCE
450	0.0273496
462	0.0307215
474	0.0341558
486	0.0382145
498	0.0388389
510	0.0412742
522	0.0397756
534	0.0332191
546	0.0275369
558	0.0222294
570	0.0188575
582	0.023166
594	0.0217298
606	0.0207307
618	0.0206683
630	0.0134875
642	0.00986584
654	0.00830479
666	0.00830479
678	0.0125508
690	0.00974095
702	0.00462071
714	0.000686862
726	0.00199814
738	0.00181082
750	0.00424606
762	0.00355919
774	0.00680618
786	0.0244773
798	0.054949
810	0.0286609
822	0.0137372
834	0.0131128
846	0.0132377
858	0.0146739
870	0.0161725
882	0.0169218
894	0.0185453
906	0.022604
918	0.0284736
930	0.0494541
942	0.0719332
954	0.0779276
966	0.106776
978	0.114768
990	0.0551987
1002	0.0293477
1014	0.0241651
1026	0.0227913
1038	0.023728
1050	0.0225416
1062	0.0291604
1074	0.0272872
1086	0.017234
1098	0.01611
1110	0.020481
1122	0.0325947
1134	0.0705595
1146	0.119576
1158	0.112208
1170	0.0800506
1182	0.0867944
1194	0.145802
1206	0.202187
1218	0.204185
1230	0.226227
1242	0.219796
1254	0.136436
1266	0.0987832
1278	0.0827981
1290	0.0769285
1302	0.0749304
1314	0.090416
1326	0.0864822
1338	0.0997823
1350	0.144678
1362	0.26057
1374	0.20406
1386	0.12632
1398	0.148237
1410	0.138746
1422	0.101468
1434	0.100781
1446	0.140245
1458	0.155855
1470	0.159789
1482	0.252141
1494	0.539998
1506	0.571969
1518	0.341808
1530	0.157229
1542	0.07262
1554	0.0472062
1566	0.0361539
1578	0.0330943
1590	0.0336562
1602	0.0380896
1614	0.0643153
1626	0.0900414
1638	0.0733693
1650	0.0546367
1662	0.0515771
1674	0.0770534
1686	0.202375
1698	0.503782
1710	0.459323
1722	0.374028
1734	0.298723
1746	0.116704
1758	0.0537001
1770	0.0316581
1782	0.0206059
1794	0.0157354
1806	0.012426
1818	0.00967851
1830	0.00899165
1842	0.00824234
1854	0.00761792
1866	0.00768037
1878	0.00880432
1890	0.00811746
1902	0.00793013
1914	0.0113644
1926	0.0116142
1938	0.00886676
1950	0.0050578
1962	0.00487048
1974	0.00468315
1986	0.00393385
1998	0.00412117
2010	0.00362164
2022	0.00343431
2034	0.00393385
2046	0.00362164
2058	0.0038714
2070	0.00393385
2082	0.00412117
2094	0.00424606
2106	0.00418361
2118	0.00443338
2130	0.00474559
2142	0.00487048
2154	0.00462071
2166	0.00474559
2178	0.00449582
2190	0.00424606
2202	0.00424606
2214	0.00393385
2226	0.00362164
2238	0.00343431
2250	0.00324698
2262	0.00299722
2274	0.00274745
2286	0.00212303
2298	0.0023728
2310	0.00093663
2322	0.000499536
2334	0.00156105
2346	0.00330943
2358	0.00399629
2370	0.00487048
2382	0.00599443
2394	0.00593199
2406	0.00611932
2418	0.00574466
2430	0.00437094
2442	0.00343431
2454	0.00337187
2466	0.00393385
2478	0.00343431
2490	0.00349675
2502	0.00368408
2514	0.0038714
2526	0.00374652
2538	0.00399629
2550	0.0038714
2562	0.00418361
2574	0.00405873
2586	0.00393385
2598	0.00424606
2610	0.00405873
2622	0.00374652
2634	0.00437094
2646	0.00437094
2658	0.00462071
2670	0.00493292
2682	0.0054949
2694	0.00555734
2706	0.00580711
2718	0.00586955
2730	0.00661885
2742	0.00611932
2754	0.00586955
2766	0.00630664
2778	0.00618176
2790	0.00636908
2802	0.00718083
2814	0.0081799
2826	0.00930386
2838	0.0116142
2850	0.0143617
2862	0.0217923
2874	0.037715
2886	0.0540748
2898	0.0709966
2910	0.0822361
2922	0.0909156
2934	0.11277
2946	0.107338
2958	0.0992828
2970	0.155106
2982	0.165159
2994	0.0864197
3006	0.0699975
3018	0.0512024
3030	0.0405249
3042	0.0221045
3054	0.0182955
3066	0.0198566
3078	0.0159852
3090	0.0260383
3102	0.0264754
3114	0.0162349
3126	0.00793013
3138	0.00649397
3150	0.00599443
3162	0.00593199
3174	0.00555734
3186	0.00586955
3198	0.00618176
3210	0.00580711
3222	0.00537001
3234	0.00537001
3246	0.00487048
3258	0.00499536
3270	0.00468315
3282	0.00424606
3294	0.00518269
3306	0.00568222
3318	0.00693106
3330	0.00824234
3342	0.00867944
3354	0.00880432
3366	0.0103029
3378	0.0137997
3390	0.0231035
3402	0.0553861
3414	0.0643153
3426	0.0384643
3438	0.0313459
3450	0.0510151
3462	0.0434596
3474	0.0125508
3486	0.00580711
3498	0.00443338
3510	0.0038714
3522	0.00324698
3534	0.00287233
3546	0.00199814
3558	0.00287233
3570	0.00212303
3582	0.00199814
3594	0.00212303
3606	0.00174838
3618	0.00168593
3630	0.00212303
3642	0.00137372
3654	0.00137372
3666	0.000437094
3678	0.00137372
3690	0.00181082
3702	0.00137372
3714	0.000811746
3726	0.00124884
3738	0.00187326
3750	0
3762	0.000999072
3774	0.0011864
3786	0.000561978
3798	0.000561978
3810	0.000187326
3822	0.000187326
3834	0.000124884
3846	0.000437094
3858	0.00143617
3870	0.000187326
3882	0.000811746
3894	0.00031221
3906	0.000187326
3918	0.000874188
3930	0.00137372
3942	0.000187326
3954	0.000187326
3966	0.000187326
