Infrared Spectrum: Phenol, pentachloro-, trichloroacetate
Formula: C 8 Cl 8 O 2
CAS: 2879-60-9
Origin: Sadtler Research Labs Under US-EPA Contract
1/CM	ABSORBANCE
450	0
462	0.00137562
474	0.00752006
486	0.00871226
498	0.00880397
510	0.0530989
522	0.0237524
534	0.00559419
546	0.00623614
558	0.00550248
570	0.00623614
582	0.00605273
594	0.00953763
606	0.0416354
618	0.0079786
630	0.00825372
642	0.0363164
654	0.0221016
666	0.0353993
678	0.0365915
690	0.0238441
702	0.0519984
714	0.149943
726	0.180665
738	0.0371417
750	0.0469545
762	0.0466794
774	0.046496
786	0.0342988
798	0.0468628
810	0.21102
822	0.193229
834	0.0868475
846	0.178189
858	0.182957
870	0.0554833
882	0.0267787
894	0.010363
906	0.0126557
918	0.0633702
930	0.0385174
942	0.0113718
954	0.0110967
966	0.0124723
978	0.074742
990	0.186167
1002	0.0250363
1014	0.0100879
1026	0.00843714
1038	0.0135728
1050	0.0171494
1062	0.0140313
1074	0.0129308
1086	0.0166909
1098	0.0224685
1110	0.0250363
1122	0.0457623
1134	0.140588
1146	0.0661215
1158	0.165991
1170	0.56538
1182	0.852518
1194	0.176171
1206	0.0782269
1218	0.0435613
1230	0.0219182
1242	0.0242109
1254	0.031731
1266	0.018525
1278	0.0437447
1290	0.041452
1302	0.0585097
1314	0.0641956
1326	0.0346656
1338	0.0455789
1350	0.133802
1362	0.39196
1374	0.34473
1386	0.460374
1398	0.116194
1410	0.0611692
1422	0.0407184
1434	0.0164157
1446	0.00962934
1458	0.00953763
1470	0.00871226
1482	0.00641956
1494	0.00559419
1506	0.00412686
1518	0.00559419
1530	0.00761176
1542	0.00990446
1554	0.00990446
1566	0.00596102
1578	0.00550248
1590	0.00449369
1602	0.00247612
1614	0.00210928
1626	0.00247612
1638	0.00165074
1650	0.00293466
1662	0.00385174
1674	0.0068781
1686	0.00981276
1698	0.0110967
1710	0.0112801
1722	0.0106381
1734	0.0149484
1746	0.0177914
1758	0.0247612
1770	0.0322812
1782	0.0379671
1794	0.0733664
1806	0.312633
1818	0.0636454
1830	0.0208177
1842	0.0236607
1854	0.0144899
1866	0.00926251
1878	0.00770347
1890	0.00788689
1902	0.00770347
1914	0.0079786
1926	0.00706152
1938	0.00559419
1950	0.00513565
1962	0.00522736
1974	0.00586931
1986	0.00632785
1998	0.00660298
2010	0.00550248
2022	0.0056859
2034	0.00623614
2046	0.0068781
2058	0.00733664
2070	0.00752006
2082	0.00880397
2094	0.0101796
2106	0.0080703
2118	0.00614444
2130	0.00513565
2142	0.00412686
2154	0.00431028
2166	0.00531906
2178	0.00550248
2190	0.00550248
2202	0.00495223
2214	0.00449369
2226	0.00412686
2238	0.00449369
2250	0.00449369
2262	0.00440198
2274	0.00495223
2286	0.00669468
2298	0.00972105
2310	0.0122889
2322	0.010363
2334	0.00678639
2346	0.013206
2358	0.00816201
2370	0.00623614
2382	0.00898738
2394	0.00284295
2406	0.00238441
2418	0.00201758
2430	0.00165074
2442	0.00155904
2454	0.00192587
2466	0.00165074
2478	0.00128391
2490	0.00174245
2502	0.00174245
2514	0.00201758
2526	0.0022927
2538	0.00155904
2550	0.00137562
2562	0.00155904
2574	0.00174245
2586	0.00165074
2598	0.00210928
2610	0.00183416
2622	0.00210928
2634	0.00183416
2646	0.00201758
2658	0.00210928
2670	0.00174245
2682	0.00183416
2694	0.00183416
2706	0.00192587
2718	0.00183416
2730	0.00293466
2742	0.00256782
2754	0.00366832
2766	0.00256782
2778	0.00311807
2790	0.00210928
2802	0.00256782
2814	0.00183416
2826	0.00183416
2838	0.00155904
2850	0.00155904
2862	0.00155904
2874	0.00128391
2886	0.00128391
2898	0.0011005
2910	0.00137562
2922	0.00091708
2934	0.0011922
2946	0.00293466
2958	0.00128391
2970	0.00183416
2982	0.00311807
2994	0.00265953
3006	0.00165074
3018	0.00247612
3030	0.00220099
3042	0.00201758
3054	0.00201758
3066	0.00238441
3078	0.0022927
3090	0.00247612
3102	0.00220099
3114	0.00210928
3126	0.0022927
3138	0.0022927
3150	0.00192587
3162	0.00201758
3174	0.00192587
3186	0.00210928
3198	0.00201758
3210	0.00220099
3222	0.00183416
3234	0.00220099
3246	0.0022927
3258	0.00192587
3270	0.00220099
3282	0.00137562
3294	0.00174245
3306	0.00146733
3318	0.00165074
3330	0.00128391
3342	0.00192587
3354	0.00155904
3366	0.00192587
3378	0.00201758
3390	0.00192587
3402	0.00293466
3414	0.00192587
3426	0.00247612
3438	0.00265953
3450	0.00220099
3462	0.00302636
3474	0.00238441
3486	0.00275124
3498	0.00265953
3510	0.00275124
3522	0.00238441
3534	0.00256782
3546	0.00632785
3558	0.02953
3570	0.0128391
3582	0.00522736
3594	0.00632785
3606	0.00275124
3618	0.00311807
3630	0.00440198
3642	0.00330149
3654	0.00256782
3666	0.00210928
3678	0.00412686
3690	0.0022927
3702	0.0033932
3714	0.00330149
3726	0.00302636
3738	0.0034849
3750	0.00302636
3762	0.00265953
3774	0.00155904
3786	0.00247612
3798	0.00238441
3810	0.0011005
3822	0.00311807
3834	0.0022927
3846	0.00201758
3858	0.00320978
3870	0.00210928
3882	0.00311807
3894	0.00385174
3906	0.00320978
3918	0.00275124
3930	0.00366832
3942	0.0033932
3954	0.00155904
3966	0.00238441
