Infrared Spectrum: 1-Octadecanethiol
Formula: C 18 H 38 S
CAS: 2885-00-9
Origin: Sadtler Research Labs Under US-EPA Contract
1/CM	ABSORBANCE
450	0.00425566
462	0.00689711
474	0.00542964
486	0.00146747
498	0.00352193
510	0.00425566
522	0.00484265
534	0.00513614
546	0.00352193
558	0.00308169
570	0.0049894
582	0.00366867
594	0.00381542
606	0.00410892
618	0.00381542
630	0.00425566
642	0.00572313
654	0.00645687
666	0.00484265
678	0.00557639
690	0.00895157
702	0.0146747
714	0.02436
726	0.0246535
738	0.0165824
750	0.0107125
762	0.00704386
774	0.00396217
786	0.00322843
798	0.00234795
810	0.00293494
822	0.00234795
834	0.00190771
846	0.0022012
858	0.00234795
870	0.00234795
882	0.00264145
894	0.00264145
906	0.0024947
918	0.00205446
930	0.00234795
942	0.00205446
954	0.00264145
966	0.0024947
978	0.0024947
990	0.00308169
1002	0.00396217
1014	0.0046959
1026	0.00484265
1038	0.00586988
1050	0.00660362
1062	0.00704386
1074	0.00616337
1086	0.00572313
1098	0.00513614
1110	0.00454916
1122	0.00410892
1134	0.00337518
1146	0.00396217
1158	0.00528289
1170	0.00542964
1182	0.00572313
1194	0.00586988
1206	0.00689711
1218	0.00909831
1230	0.0117398
1242	0.0154084
1254	0.0184901
1266	0.022012
1278	0.026121
1290	0.0289092
1302	0.0316974
1314	0.0275884
1326	0.0202511
1338	0.0252405
1350	0.0390347
1362	0.0360998
1374	0.0264145
1386	0.0190771
1398	0.011593
1410	0.0105658
1422	0.0146747
1434	0.0306701
1446	0.063248
1458	0.100668
1470	0.0830588
1482	0.0274417
1494	0.01218
1506	0.00733735
1518	0.00513614
1530	0.00337518
1542	0.00264145
1554	0.00264145
1566	0.00161422
1578	0.00234795
1590	0.00117398
1602	0.000880482
1614	0.000880482
1626	0.000880482
1638	0.00102723
1650	0.000440241
1662	0.000146747
1674	0.000440241
1686	0.00146747
1698	0.000880482
1710	0.00117398
1722	0.00132072
1734	0.00396217
1746	0.00366867
1758	0.00176096
1770	0.00146747
1782	0.00102723
1794	0.000880482
1806	0.000440241
1818	0.000293494
1830	0.000440241
1842	0.000146747
1854	0.000293494
1866	0.000440241
1878	0
1890	0.000293494
1902	0.000293494
1914	0
1926	0.000146747
1938	0.000440241
1950	0.000146747
1962	0.000293494
1974	0.000440241
1986	0.000440241
1998	0.000733735
2010	0.00102723
2022	0.00161422
2034	0.00190771
2046	0.00176096
2058	0.00146747
2070	0.00161422
2082	0.00132072
2094	0.00117398
2106	0.00102723
2118	0.00117398
2130	0.00117398
2142	0.00102723
2154	0.00146747
2166	0.00146747
2178	0.00176096
2190	0.00146747
2202	0.00132072
2214	0.00117398
2226	0.00102723
2238	0.00102723
2250	0.00132072
2262	0.00146747
2274	0.00176096
2286	0.00293494
2298	0.0049894
2310	0.00645687
2322	0.00557639
2334	0.00396217
2346	0.00631012
2358	0.00381542
2370	0.00572313
2382	0.00425566
2394	0.00176096
2406	0.00161422
2418	0.00146747
2430	0.00161422
2442	0.00161422
2454	0.00146747
2466	0.00190771
2478	0.0022012
2490	0.00205446
2502	0.0022012
2514	0.00278819
2526	0.00337518
2538	0.00410892
2550	0.00410892
2562	0.00440241
2574	0.00528289
2586	0.00821783
2598	0.00939181
2610	0.00807109
2622	0.00821783
2634	0.00909831
2646	0.0101255
2658	0.0114463
2670	0.0129137
2682	0.0142345
2694	0.0140877
2706	0.0124735
2718	0.0120333
2730	0.0129137
2742	0.0140877
2754	0.0148214
2766	0.0161422
2778	0.0187836
2790	0.0240665
2802	0.0311104
2814	0.0407957
2826	0.0576716
2838	0.0917169
2850	0.222762
2862	0.564536
2874	0.368922
2886	0.241105
2898	0.263851
2910	0.446551
2922	0.856415
2934	1.46747
2946	0.817528
2958	0.374645
2970	0.305381
2982	0.131339
2994	0.0676504
3006	0.0434371
3018	0.0305234
3030	0.0230393
3042	0.0171694
3054	0.0137942
3066	0.0112995
3078	0.00880482
3090	0.00807109
3102	0.00704386
3114	0.00631012
3126	0.00542964
3138	0.00513614
3150	0.00484265
3162	0.00425566
3174	0.00381542
3186	0.00352193
3198	0.00322843
3210	0.00264145
3222	0.0024947
3234	0.00176096
3246	0.00190771
3258	0.00176096
3270	0.00161422
3282	0.00161422
3294	0.00176096
3306	0.00176096
3318	0.00176096
3330	0.00176096
3342	0.00205446
3354	0.00176096
3366	0.00176096
3378	0.00234795
3390	0.0022012
3402	0.00264145
3414	0.00190771
3426	0.00161422
3438	0.00161422
3450	0.00146747
3462	0.00176096
3474	0.00176096
3486	0.00146747
3498	0.00132072
3510	0.00117398
3522	0.00146747
3534	0.00161422
3546	0.00102723
3558	0.00117398
3570	0.00146747
3582	0.00205446
3594	0.00146747
3606	0.00161422
3618	0.00308169
3630	0.00352193
3642	0.00293494
3654	0.00293494
3666	0.00381542
3678	0.00264145
3690	0.00278819
3702	0.00264145
3714	0.00322843
3726	0.00352193
3738	0.00205446
3750	0.00322843
3762	0.00234795
3774	0.00278819
3786	0.00308169
3798	0.0022012
3810	0.00176096
3822	0.00308169
3834	0.00293494
3846	0.00264145
3858	0.00337518
3870	0.00293494
3882	0.00322843
3894	0.0022012
3906	0.00410892
3918	0.00234795
3930	0.00381542
3942	0.00132072
3954	0.00293494
3966	0.00190771
