Infrared Spectrum: Propiophenone, 5-bromo-2-hydroxy-3-methyl-,
Formula: C 10 H 11 Br O 2
CAS: 2887-56-1
Origin: Sadtler Research Labs Under US-EPA Contract
1/CM	ABSORBANCE
450	0.00777301
462	0.00986369
474	0.00407413
486	0.00509266
498	0.0126513
510	0.00627202
522	0.00364528
534	0.00503906
546	0.0222469
558	0.0328075
570	0.0210676
582	0.0325931
594	0.0207459
606	0.0154924
618	0.037096
630	0.036828
642	0.0162965
654	0.0177975
666	0.0309312
678	0.041063
690	0.0344157
702	0.0428856
714	0.0596646
726	0.0762828
738	0.0715117
750	0.0591821
762	0.0568234
774	0.0681345
786	0.087433
798	0.0850743
810	0.088934
822	0.0977792
834	0.0610584
846	0.0228366
858	0.0294302
870	0.0655078
882	0.07966
894	0.0444938
906	0.0111503
918	0.00632563
930	0.00632563
942	0.0068617
954	0.0149564
966	0.0317353
978	0.0322178
990	0.0358095
1002	0.0399908
1014	0.0351662
1026	0.0732808
1038	0.12008
1050	0.121366
1062	0.0559657
1074	0.0358095
1086	0.05811
1098	0.102121
1110	0.0942947
1122	0.0851279
1134	0.0929009
1146	0.0606831
1158	0.0249809
1170	0.0196738
1182	0.0256241
1194	0.0502298
1206	0.129729
1218	0.194272
1230	0.283474
1242	0.320087
1254	0.25474
1266	0.453462
1278	0.386989
1290	0.199204
1302	0.110323
1314	0.10448
1326	0.177707
1338	0.234799
1350	0.222952
1362	0.204993
1374	0.161411
1386	0.160928
1398	0.114558
1410	0.199311
1422	0.374767
1434	0.483535
1446	0.304917
1458	0.263907
1470	0.260744
1482	0.111771
1494	0.0660438
1506	0.0543039
1518	0.0515163
1530	0.0498009
1542	0.0504978
1554	0.0509266
1566	0.0492648
1578	0.0588069
1590	0.0785343
1602	0.122492
1614	0.120723
1626	0.0984225
1638	0.224184
1650	0.527493
1662	0.41331
1674	0.14892
1686	0.0556977
1698	0.0374713
1710	0.0325931
1722	0.027822
1734	0.0186016
1746	0.0076658
1758	0.0111503
1770	0.00889876
1782	0.0106678
1794	0.0102389
1806	0.0150636
1818	0.00466381
1830	0.00241231
1842	0.00134017
1854	0.00171542
1866	0.00123296
1878	0.00123296
1890	0.000964926
1902	0.000589677
1914	0.00107214
1926	0.0023051
1938	0.00268035
1950	0.00166182
1962	0.00198346
1974	0.00144739
1986	0.000857712
1998	0.00107214
2010	0.0015546
2022	0.000643284
2034	0.000214428
2046	0.000107214
2058	0.000482463
2070	0.000321642
2082	0.000160821
2094	0.00053607
2106	0.000375249
2118	0.000428856
2130	0.000589677
2142	0.000857712
2154	0.00139378
2166	0.00209067
2178	0.00214428
2190	0.00182264
2202	0.00144739
2214	0.00134017
2226	0.00139378
2238	0.00198346
2250	0.00241231
2262	0.00310921
2274	0.00284117
2286	0.00182264
2298	0.000696891
2310	0
2322	0.00321642
2334	0.00546791
2346	0.0038597
2358	0.00482463
2370	0.00284117
2382	0.0023051
2394	0.00391331
2406	0.0045566
2418	0.00519988
2430	0.00546791
2442	0.00573595
2454	0.00675448
2466	0.00782662
2478	0.00895237
2490	0.00889876
2502	0.00825548
2514	0.00846991
2526	0.00959565
2538	0.0108286
2550	0.0115255
2562	0.0121688
2574	0.0122224
2586	0.0117935
2598	0.0125976
2610	0.0130265
2622	0.0130801
2634	0.013509
2646	0.0145811
2658	0.0169398
2670	0.0178511
2682	0.0183336
2694	0.0191377
2706	0.0201026
2718	0.0203171
2730	0.0203171
2742	0.0211748
2754	0.0229438
2766	0.0217108
2778	0.0214428
2790	0.0232118
2802	0.0255169
2814	0.0288406
2826	0.0321106
2838	0.0354878
2850	0.0397764
2862	0.0478174
2874	0.0576275
2886	0.0722622
2898	0.0837877
2910	0.0812682
2922	0.111985
2934	0.13123
2946	0.150207
2958	0.144149
2970	0.109197
2982	0.139378
2994	0.200222
3006	0.102175
3018	0.0805177
3030	0.078427
3042	0.0807857
3054	0.0862001
3066	0.0827692
3078	0.0714045
3090	0.0693139
3102	0.0675448
3114	0.0665799
3126	0.0651325
3138	0.0648645
3150	0.0638995
3162	0.0635243
3174	0.062881
3186	0.0595574
3198	0.0561801
3210	0.0525885
3222	0.0504442
3234	0.0489968
3246	0.0477102
3258	0.0459412
3270	0.0434753
3282	0.0422959
3294	0.0425104
3306	0.0407413
3318	0.0375249
3330	0.0332899
3342	0.0309848
3354	0.0287334
3366	0.0261602
3378	0.0238015
3390	0.021818
3402	0.0202098
3414	0.0186552
3426	0.0164573
3438	0.0146347
3450	0.0129193
3462	0.0117399
3474	0.0103462
3486	0.00852351
3498	0.00723694
3510	0.00680809
3522	0.00568234
3534	0.00487824
3546	0.00466381
3558	0.0038597
3570	0.00439577
3582	0.00310921
3594	0.00273396
3606	0.00219789
3618	0.00214428
3630	0.00412774
3642	0.00117935
3654	0.00101853
3666	0.000696891
3678	0.00139378
3690	0.000911319
3702	0.00123296
3714	0.000321642
3726	0.00268035
3738	0.000696891
3750	0.000857712
3762	0.000321642
3774	0.000107214
3786	0
3798	0
3810	0
3822	0
3834	0
3846	0.000482463
3858	0.00117935
3870	0.000268035
3882	0.000214428
3894	0.00128657
3906	0.000428856
3918	0.00139378
3930	0.00176903
3942	0.000964926
3954	0.00187624
3966	0.00198346
