Infrared Spectrum: Phenol, 2-(phenylmethyl)-
Formula: C 13 H 12 O
CAS: 28994-41-4
Origin: Sadtler Research Labs Under US-EPA Contract
1/CM	ABSORBANCE
450	0.019665
462	0.0222224
474	0.0214287
486	0.00445329
498	0.00224869
510	0.00789247
522	0.0271166
534	0.057496
546	0.0188273
558	0.00873022
570	0.0126103
582	0.0208114
594	0.0138008
606	0.0251765
618	0.0377868
630	0.0175486
642	0.00242506
654	0.00590833
666	0.0136244
678	0.0404765
690	0.12866
702	0.18038
714	0.180072
726	0.286201
738	0.272533
750	0.44092
762	0.136024
774	0.0516758
786	0.0425047
798	0.0211201
810	0.0125221
822	0.0077161
834	0.0111553
846	0.0334217
858	0.0399474
870	0.0203705
882	0.0120371
894	0.0193123
906	0.0130071
918	0.0170636
930	0.0324958
942	0.0157849
954	0.00458557
966	0.00158731
978	0.00149913
990	0.00238097
1002	0.00617288
1014	0.0105821
1026	0.0577605
1038	0.0819229
1050	0.0291448
1062	0.0280866
1074	0.0535277
1086	0.108819
1098	0.108687
1110	0.0418874
1122	0.0223546
1134	0.0361113
1146	0.100442
1158	0.152955
1170	0.187788
1182	0.18382
1194	0.246033
1206	0.327912
1218	0.249164
1230	0.105468
1242	0.135759
1254	0.241977
1266	0.169931
1278	0.0782192
1290	0.0477957
1302	0.053219
1314	0.11777
1326	0.157012
1338	0.0629634
1350	0.0178132
1362	0.0102734
1374	0.0121253
1386	0.0126544
1398	0.0123458
1410	0.0127426
1422	0.0226192
1434	0.0532631
1446	0.141491
1458	0.227559
1470	0.143431
1482	0.195592
1494	0.351149
1506	0.231086
1518	0.0537922
1530	0.0193564
1542	0.0184305
1554	0.0213846
1566	0.038801
1578	0.0936073
1590	0.154939
1602	0.145945
1614	0.095856
1626	0.0333776
1638	0.0135362
1650	0.0127426
1662	0.0105821
1674	0.0152999
1686	0.0160495
1698	0.0135803
1710	0.0114198
1722	0.014374
1734	0.01821
1746	0.0139331
1758	0.0152558
1770	0.023016
1782	0.023501
1794	0.0233688
1806	0.0178573
1818	0.010538
1830	0.00709881
1842	0.00626106
1854	0.00983252
1866	0.0125221
1878	0.0120812
1890	0.0164463
1902	0.0152117
1914	0.0114639
1926	0.0176368
1938	0.01724
1950	0.0145504
1962	0.00820111
1974	0.00317462
1986	0.00242506
1998	0.00145504
2010	0.00132276
2022	0.00202823
2034	0.00308644
2046	0.00242506
2058	0.00216051
2070	0.00229278
2082	0.00198414
2094	0.00207232
2106	0.00238097
2118	0.00189596
2130	0.00101412
2142	0.000705472
2154	0.000617288
2166	0.000485012
2178	0.00066138
2190	0.000352736
2202	0.000617288
2214	0.000573196
2226	0.00101412
2238	0.00127867
2250	0.0022046
2262	0.00242506
2274	0.00176368
2286	0.00132276
2298	0.00171959
2310	0.00357145
2322	0.00365964
2334	0.00370373
2346	0.00626106
2358	0.00229278
2370	0.00568787
2382	0.00480603
2394	0.00304235
2406	0.00357145
2418	0.00427692
2430	0.00432102
2442	0.0044092
2454	0.00471784
2466	0.00507058
2478	0.00414465
2490	0.00458557
2502	0.00423283
2514	0.00357145
2526	0.00339508
2538	0.00264552
2550	0.00171959
2562	0.00158731
2574	0.00176368
2586	0.00207232
2598	0.00224869
2610	0.00251324
2622	0.00251324
2634	0.0033069
2646	0.00304235
2658	0.00211642
2670	0.00136685
2682	0.00101412
2694	0.000573196
2706	0.00123458
2718	0.00105821
2730	0.00136685
2742	0.00154322
2754	0.00180777
2766	0.00308644
2778	0.00361554
2790	0.00348327
2802	0.0027778
2814	0.003836
2826	0.0060847
2838	0.0150354
2850	0.0306439
2862	0.0276016
2874	0.0209437
2886	0.0242065
2898	0.0360232
2910	0.0588187
2922	0.0801593
2934	0.0694449
2946	0.0374782
2958	0.021076
2970	0.0134481
2982	0.0111994
2994	0.0151676
3006	0.0362877
3018	0.0929018
3030	0.222532
3042	0.224164
3054	0.140257
3066	0.228485
3078	0.268388
3090	0.148678
3102	0.0796302
3114	0.0422401
3126	0.0167991
3138	0.00727518
3150	0.00524695
3162	0.00533513
3174	0.00449738
3186	0.00255734
3198	0.00180777
3210	0.00180777
3222	0.00114639
3234	0.00149913
3246	0.00127867
3258	0.00101412
3270	0.00145504
3282	0.00088184
3294	0.00088184
3306	0.00149913
3318	0.00149913
3330	0.00176368
3342	0.00242506
3354	0.00255734
3366	0.00260143
3378	0.00282189
3390	0.0033069
3402	0.00339508
3414	0.0027337
3426	0.00233688
3438	0.00246915
3450	0.00158731
3462	0.00114639
3474	0.00105821
3486	0.000793656
3498	0.0016755
3510	0.00268961
3522	0.0049824
3534	0.00908295
3546	0.0230601
3558	0.0500003
3570	0.0564819
3582	0.0875226
3594	0.210716
3606	0.171518
3618	0.073325
3630	0.0507058
3642	0.114066
3654	0.189199
3666	0.0548504
3678	0.00846566
3690	0.00264552
3702	8.8184e-05
3714	8.8184e-05
3726	8.8184e-05
3738	8.8184e-05
3750	8.8184e-05
3762	8.8184e-05
3774	8.8184e-05
3786	8.8184e-05
3798	8.8184e-05
3810	8.8184e-05
3822	8.8184e-05
3834	8.8184e-05
3846	0.000793656
3858	0.000925932
3870	0.000970024
3882	8.8184e-05
3894	0.000132276
3906	0.000132276
3918	0.000970024
3930	0.00123458
3942	8.8184e-05
3954	8.8184e-05
3966	8.8184e-05
