Infrared Spectrum: Cyclooctane, 1,2-5,6-diepoxy-,
Formula: C 8 H 12 O 2
CAS: 29077-85-8
Origin: Sadtler Research Labs Under US-EPA Contract
1/CM	ABSORBANCE
450	0.147245
462	0.126561
474	0.0525876
486	0.0155133
498	0.0164774
510	0.024015
522	0.0273456
534	0.0103422
546	0.0106052
558	0.0123581
570	0.0202462
582	0.0181427
594	0.0112187
606	0.0197203
618	0.0315526
630	0.0276085
642	0.026995
654	0.0239274
666	0.0325167
678	0.0451377
690	0.0481177
702	0.0409307
714	0.0499582
726	0.0715191
738	0.0992153
750	0.109295
762	0.134274
774	0.17871
786	0.144441
798	0.0681009
810	0.0401419
822	0.0489941
834	0.0712562
846	0.0681886
858	0.0962353
870	0.206056
882	0.234628
894	0.161006
906	0.221306
918	0.366273
930	0.269336
942	0.203163
954	0.135939
966	0.0533764
978	0.0520617
990	0.0615275
1002	0.0595993
1014	0.077742
1026	0.0937812
1038	0.0830884
1050	0.0967612
1062	0.109032
1074	0.109733
1086	0.0950959
1098	0.0742362
1110	0.069328
1122	0.0698539
1134	0.0700292
1146	0.0616151
1158	0.0443489
1170	0.0362854
1182	0.0371619
1194	0.0464524
1206	0.0359349
1218	0.0290985
1230	0.0333931
1242	0.0451377
1254	0.0317279
1266	0.0271703
1278	0.0404925
1290	0.0508347
1302	0.0446118
1314	0.0359349
1326	0.0329549
1338	0.0337437
1350	0.0340943
1362	0.0370743
1374	0.0546035
1386	0.0738856
1398	0.0688898
1410	0.0503964
1422	0.0710809
1434	0.153468
1446	0.231123
1458	0.263026
1470	0.214294
1482	0.170647
1494	0.10684
1506	0.0501335
1518	0.0291861
1530	0.0238397
1542	0.0304132
1554	0.0175292
1566	0.0131469
1578	0.0172663
1590	0.0141987
1602	0.0136728
1614	0.0117446
1626	0.0145492
1638	0.018318
1650	0.0163022
1662	0.0106052
1674	0.0106052
1686	0.0146369
1698	0.0127963
1710	0.00981635
1722	0.012884
1734	0.0148122
1746	0.00964106
1758	0.00893989
1770	0.0106052
1782	0.00929048
1794	0.0101669
1806	0.00631051
1818	0.0064858
1830	0.00823872
1842	0.00753756
1854	0.00464524
1866	0.00368113
1878	0.00525876
1890	0.00780049
1902	0.00569699
1914	0.00385642
1926	0.00403172
1938	0.00595993
1950	0.00657345
1962	0.0043823
1974	0.0022788
1986	0.00359349
1998	0.00560934
2010	0.00560934
2022	0.00403172
2034	0.00271703
2046	0.00429465
2058	0.00613522
2070	0.0055217
2082	0.00420701
2094	0.00455759
2106	0.00622287
2118	0.00683639
2130	0.00560934
2142	0.00455759
2154	0.0055217
2166	0.00543405
2178	0.00587228
2190	0.00517111
2202	0.00517111
2214	0.00631051
2226	0.00736226
2238	0.00709933
2250	0.0064858
2262	0.0064858
2274	0.00631051
2286	0.00525876
2298	0.00420701
2310	0.00490818
2322	0.00534641
2334	0.0066611
2346	0.00604757
2358	0.00744991
2370	0.0125334
2382	0.00657345
2394	0.00315526
2406	0.00236644
2418	0.00350584
2430	0.00403172
2442	0.00262938
2454	0.00157763
2466	0.00157763
2478	0.00420701
2490	0.00333055
2502	0.00166527
2514	0.00043823
2526	0.00341819
2538	0.00376878
2550	0.0022788
2562	0.00148998
2574	0.00271703
2586	0.0043823
2598	0.00446995
2610	0.00333055
2622	0.00236644
2634	0.0043823
2646	0.00683639
2658	0.00736226
2670	0.0064858
2682	0.00911518
2694	0.0138481
2706	0.018581
2718	0.0181427
2730	0.0147245
2742	0.0173539
2754	0.0198956
2766	0.0230509
2778	0.0284849
2790	0.0336561
2802	0.033919
2814	0.0375125
2826	0.0483806
2838	0.0702044
2850	0.127788
2862	0.140672
2874	0.142425
2886	0.230947
2898	0.358735
2910	0.51606
2922	0.593539
2934	0.676452
2946	0.747883
2958	0.858405
2970	0.842453
2982	0.691878
2994	0.423505
3006	0.246285
3018	0.13182
3030	0.0642445
3042	0.0313773
3054	0.0204215
3066	0.0243656
3078	0.0220868
3090	0.0120951
3102	0.009904
3114	0.00929048
3126	0.0087646
3138	0.0064858
3150	0.0043823
3162	0.00736226
3174	0.00744991
3186	0.00578464
3198	0.00289232
3210	0.00201586
3222	0.0055217
3234	0.00560934
3246	0.00482053
3258	0.00236644
3270	0.00639816
3282	0.00657345
3294	0.0066611
3306	0.00219115
3318	0.00175292
3330	0.00473288
3342	0.0055217
3354	0.00420701
3366	0.00219115
3378	0.00446995
3390	0.00709933
3402	0.00543405
3414	0.00254173
3426	0.0022788
3438	0.00464524
3450	0.00482053
3462	0.00403172
3474	0.00297996
3486	0.00455759
3498	0.00595993
3510	0.00508347
3522	0.00411936
3534	0.00297996
3546	0.00569699
3558	0.00569699
3570	0.00657345
3582	0.00464524
3594	0.00744991
3606	0.00911518
3618	0.00946577
3630	0.0101669
3642	0.00911518
3654	0.0160392
3666	0.0114816
3678	0.00911518
3690	0.00902754
3702	0.00964106
3714	0.014111
3726	0.0129716
3738	0.0116569
3750	0.0122704
3762	0.00867695
3774	0.0076252
3786	0.00587228
3798	0.00683639
3810	0.00911518
3822	0.0143739
3834	0.0117446
3846	0.00744991
3858	0.0104299
3870	0.0145492
3882	0.0114816
3894	0.00525876
3906	0.00595993
3918	0.0106052
3930	0.012884
3942	0.00955341
3954	0
3966	0.00043823
