Infrared Spectrum: Hydrocinnamic acid, .alpha.-isopropyl-O-methyl-,
Formula: C 13 H 18 O 2
CAS: 29107-36-6
Origin: Sadtler Research Labs Under US-EPA Contract
1/CM	ABSORBANCE
450	0.0073865
462	0.0186878
474	0.0184663
486	0.0156594
498	0.0101934
510	0.0166196
522	0.0321313
534	0.0469781
546	0.0580579
558	0.0797003
570	0.12269
582	0.148025
594	0.157702
606	0.095729
618	0.0548078
630	0.0473475
642	0.0529612
654	0.0310972
666	0.0144775
678	0.0128525
690	0.0133696
702	0.0189833
714	0.0407735
726	0.0795526
738	0.169372
750	0.125866
762	0.0462395
774	0.0170628
786	0.0146991
798	0.0171367
810	0.02408
822	0.0102672
834	0.00169889
846	0.00014773
858	0.000960245
870	0.0029546
882	0.000960245
894	0.000664785
906	0.00110797
918	0.00472736
930	0.0112275
942	0.0101934
954	0.0113013
966	0.017506
978	0.0160287
990	0.0126309
1002	0.0117445
1014	0.0155117
1026	0.0226027
1038	0.0318358
1050	0.0526657
1062	0.0584272
1074	0.0791833
1086	0.157185
1098	0.303437
1110	0.373683
1122	0.276772
1134	0.231715
1146	0.18614
1158	0.143889
1170	0.108951
1182	0.0839845
1194	0.0652967
1206	0.0515578
1218	0.0374496
1230	0.0294721
1242	0.0282164
1254	0.0348643
1266	0.0345688
1278	0.0362677
1290	0.0401087
1302	0.0409212
1314	0.0384837
1326	0.0409212
1338	0.0414383
1350	0.0367109
1362	0.0385575
1374	0.0768935
1386	0.0960984
1398	0.0856834
1410	0.0341256
1422	0.0226027
1434	0.02733
1446	0.0495634
1458	0.0826549
1470	0.0948427
1482	0.0709104
1494	0.0805867
1506	0.0333131
1518	0.0157332
1530	0.00664785
1542	0.00435803
1554	0.00354552
1566	0.00325006
1578	0.0059092
1590	0.0113013
1602	0.0175799
1614	0.0106366
1626	0.00406257
1638	0.00302847
1650	0.00376711
1662	0.00450577
1674	0.00731263
1686	0.0126309
1698	0.0209777
1710	0.0341995
1722	0.0616034
1734	0.0781492
1746	0.127196
1758	0.427531
1770	0.71228
1782	0.225362
1794	0.0947688
1806	0.056359
1818	0.032279
1830	0.0233413
1842	0.0135912
1854	0.00694331
1866	0.00561374
1878	0.00502282
1890	0.00502282
1902	0.00864221
1914	0.00731263
1926	0.00398871
1938	0.00775583
1950	0.00509669
1962	0.00155116
1974	0.00132957
1986	0.00110797
1998	0.00118184
2010	0.00103411
2022	0.000664785
2034	0.00029546
2046	0.00014773
2058	0.00014773
2070	0.00014773
2082	0
2094	0.000221595
2106	0.00014773
2118	0.00029546
2130	0
2142	7.3865e-05
2154	7.3865e-05
2166	0.00014773
2178	0.000221595
2190	0.000960245
2202	0.00132957
2214	0.00155116
2226	0.00110797
2238	0.00103411
2250	0.00059092
2262	0.000369325
2274	0.000221595
2286	0.000664785
2298	0.00162503
2310	0.00228981
2322	0.00214209
2334	0.000960245
2346	0.00280687
2358	0.00206822
2370	0.00325006
2382	0.00376711
2394	0.00140343
2406	0.0012557
2418	0.0012557
2430	0.00118184
2442	0.00155116
2454	0.0014773
2466	0.00110797
2478	0.00110797
2490	0.00103411
2502	0.00118184
2514	0.00132957
2526	0.00103411
2538	0.00103411
2550	0.0012557
2562	0.00177276
2574	0.00206822
2586	0.00273301
2598	0.00243755
2610	0.00273301
2622	0.00265914
2634	0.00280687
2646	0.00265914
2658	0.00258527
2670	0.00243755
2682	0.00214209
2694	0.00228981
2706	0.0029546
2718	0.00354552
2730	0.00561374
2742	0.00812515
2754	0.00812515
2766	0.00694331
2778	0.00753423
2790	0.0073865
2802	0.00768196
2814	0.00945472
2826	0.0129264
2838	0.0172844
2850	0.0241539
2862	0.0413644
2874	0.0802913
2886	0.135099
2898	0.115008
2910	0.118184
2922	0.133326
2934	0.180526
2946	0.212436
2958	0.209924
2970	0.404559
2982	0.271897
2994	0.104002
3006	0.0609386
3018	0.088638
3030	0.107252
3042	0.0635239
3054	0.0669217
3066	0.0969847
3078	0.0943995
3090	0.0417337
3102	0.0262221
3114	0.0195004
3126	0.0121139
3138	0.0101195
3150	0.0101934
3162	0.0088638
3174	0.00723877
3186	0.00701717
3198	0.00627853
3210	0.00524441
3222	0.0044319
3234	0.00384098
3246	0.00347165
3258	0.00310233
3270	0.00339779
3282	0.00332393
3294	0.00339779
3306	0.00369325
3318	0.00354552
3330	0.00391485
3342	0.00413644
3354	0.00450577
3366	0.00428417
3378	0.00450577
3390	0.00413644
3402	0.00391485
3414	0.00406257
3426	0.00421031
3438	0.00421031
3450	0.00339779
3462	0.00413644
3474	0.00428417
3486	0.00428417
3498	0.00539215
3510	0.00856834
3522	0.00878994
3534	0.00775583
3546	0.0133696
3558	0.109468
3570	0.263772
3582	0.0681035
3594	0.0116707
3606	0.00642625
3618	0.00325006
3630	0.00118184
3642	0.00354552
3654	0.00273301
3666	0.00339779
3678	0.0014773
3690	0.00132957
3702	0.00369325
3714	0.00243755
3726	0.00214209
3738	0.00206822
3750	7.3865e-05
3762	0.00310233
3774	0.00325006
3786	0.0044319
3798	0.00384098
3810	0.00302847
3822	0.00339779
3834	0.00509669
3846	0.00465349
3858	0.00339779
3870	0.00339779
3882	0.00332393
3894	0.00561374
3906	0.00384098
3918	0.00487509
3930	0.00347165
3942	0.00376711
3954	0.00472736
3966	0.00509669
