Infrared Spectrum: Chloroacetic acid allyl ester
Formula: C 5 H 7 Cl O 2
CAS: 2916-14-5
Origin: Sadtler Research Labs Under US-EPA Contract
1/CM	ABSORBANCE
450	0.0138995
462	0.00821794
474	0.00730483
486	0.00446406
498	0.00862376
510	0.00578299
522	0.0066961
534	0.019581
546	0.0312484
558	0.0396693
570	0.0547862
582	0.057627
594	0.0651348
606	0.0485974
618	0.048496
630	0.0455537
642	0.0467712
654	0.0455537
666	0.0454523
678	0.04738
690	0.0588445
702	0.0731498
714	0.0625984
726	0.0489018
738	0.0347994
750	0.0327703
762	0.0379445
774	0.0549892
786	0.0914119
798	0.136154
810	0.0931366
822	0.0350023
834	0.0230305
846	0.020697
858	0.0234363
870	0.0291179
882	0.0362198
894	0.0474814
906	0.0789328
918	0.15259
930	0.280019
942	0.261554
954	0.132502
966	0.130574
978	0.245219
990	0.546543
1002	0.62365
1014	0.381069
1026	0.150865
1038	0.0845128
1050	0.0584387
1062	0.0432203
1074	0.0470756
1086	0.0693959
1098	0.111906
1110	0.17278
1122	0.319079
1134	0.513164
1146	0.592706
1158	0.747122
1170	0.868869
1182	0.501091
1194	0.268858
1206	0.228175
1218	0.237204
1230	0.317659
1242	0.549689
1254	0.713946
1266	0.51773
1278	0.655812
1290	0.860956
1302	0.695278
1314	0.360473
1326	0.122254
1338	0.0809619
1350	0.0860347
1362	0.121037
1374	0.100644
1386	0.0641202
1398	0.0525542
1410	0.0694974
1422	0.143053
1434	0.15888
1446	0.103587
1458	0.100949
1470	0.0607721
1482	0.0298281
1494	0.0182621
1506	0.0125805
1518	0.00953686
1530	0.00821794
1542	0.00821794
1554	0.00700046
1566	0.00629027
1578	0.00740629
1590	0.00740629
1602	0.00872522
1614	0.00953686
1626	0.011566
1638	0.0212043
1650	0.0364227
1662	0.0272917
1674	0.0152184
1686	0.01603
1698	0.0241465
1710	0.0446406
1722	0.0806575
1734	0.170345
1746	0.472988
1758	0.888957
1770	0.978543
1782	0.695887
1794	0.478466
1806	0.242074
1818	0.11566
1830	0.0633085
1842	0.03693
1854	0.028915
1866	0.0296252
1878	0.0241465
1890	0.0141024
1902	0.0103485
1914	0.00831939
1926	0.00700046
1938	0.00608736
1950	0.00558008
1962	0.00720338
1974	0.00811648
1986	0.00781211
1998	0.00720338
2010	0.00588445
2022	0.00639173
2034	0.00679755
2046	0.00527571
2058	0.00547862
2070	0.00608736
2082	0.00405824
2094	0.0034495
2106	0.00304368
2118	0.00395678
2130	0.00385533
2142	0.00375387
2154	0.00314514
2166	0.00304368
2178	0.00192766
2190	0.00121747
2202	0.0016233
2214	0.00192766
2226	0.00172475
2238	0.00131893
2250	0.000913104
2262	0.00121747
2274	0.00202912
2286	0.00243494
2298	0.00192766
2310	0.000710192
2322	0.000202912
2334	0.000913104
2346	0.0050728
2358	0
2370	0.00994269
2382	0.00700046
2394	0.00172475
2406	0.00192766
2418	0.00152184
2430	0.00324659
2442	0.00304368
2454	0.00314514
2466	0.00263786
2478	0.00263786
2490	0.00405824
2502	0.00233349
2514	0.00324659
2526	0.00304368
2538	0.00334805
2550	0.00304368
2562	0.00233349
2574	0.00324659
2586	0.00355096
2598	0.00202912
2610	0.00284077
2622	0.00213058
2634	0.00182621
2646	0.00294222
2658	0.00213058
2670	0.00192766
2682	0.00446406
2694	0.0041597
2706	0.00466698
2718	0.00446406
2730	0.00436261
2742	0.00497134
2754	0.00446406
2766	0.00385533
2778	0.00558008
2790	0.00629027
2802	0.00547862
2814	0.00882667
2826	0.0110587
2838	0.0107543
2850	0.0133922
2862	0.0169432
2874	0.0233349
2886	0.0341907
2898	0.0419013
2910	0.038046
2922	0.0353067
2934	0.0508295
2946	0.0873536
2958	0.142444
2970	0.140922
2982	0.0987167
2994	0.0857303
3006	0.0736571
3018	0.0559023
3030	0.0552935
3042	0.0377416
3054	0.0262771
3066	0.0250596
3078	0.0366256
3090	0.0589459
3102	0.0762949
3114	0.0433217
3126	0.0151169
3138	0.00933395
3150	0.0059859
3162	0.00547862
3174	0.00436261
3186	0.00466698
3198	0.0041597
3210	0.00263786
3222	0.00304368
3234	0.00476843
3246	0.00355096
3258	0.00304368
3270	0.00334805
3282	0.00213058
3294	0.00192766
3306	0.00324659
3318	0.00142038
3330	0
3342	0.0041597
3354	0.00142038
3366	0.00050728
3378	0.00284077
3390	0.00284077
3402	0.0025364
3414	0.00233349
3426	0.00365242
3438	0.00304368
3450	0.00436261
3462	0.00324659
3474	0.00446406
3486	0.0059859
3498	0.0106529
3510	0.00842085
3522	0.00872522
3534	0.00892813
3546	0.0101456
3558	0.0101456
3570	0.0274946
3582	0.0309441
3594	0.0260742
3606	0.00639173
3618	0.00568154
3630	0.0034495
3642	0.00618882
3654	0.0066961
3666	0.00486989
3678	0.00608736
3690	0.00710192
3702	0.00355096
3714	0.0059859
3726	0.00497134
3738	0.00476843
3750	0.00446406
3762	0.00608736
3774	0.0076092
3786	0.00537717
3798	0.0066961
3810	0.00689901
3822	0.00375387
3834	0.00486989
3846	0.00517426
3858	0.0116674
3870	0.00720338
3882	0.00558008
3894	0.00476843
3906	0.00466698
3918	0.0034495
3930	0.00578299
3942	0.00821794
3954	0.00639173
3966	0.00639173
