Infrared Spectrum: Nonanedioic acid, dibutyl ester
Formula: C 17 H 32 O 4
CAS: 2917-73-9
Origin: Sadtler Research Labs Under US-EPA Contract
1/CM	ABSORBANCE
450	0.00155137
462	0.0334001
474	0.00173388
486	0.019529
498	0.0299323
510	0.0188902
522	0.0146011
534	0.0113159
546	0.0132323
558	0.029111
570	0.0134148
582	0.0110421
594	0.0231793
606	0.0279246
618	0.0182514
630	0.0224492
642	0.0111334
654	0.01597
666	0.0237268
678	0.0141448
690	0.0151487
702	0.013141
714	0.0208066
726	0.0279246
738	0.039058
750	0.0278334
762	0.0270121
774	0.0260082
786	0.0198028
798	0.0297498
810	0.0283809
822	0.0323962
834	0.0399706
846	0.0306624
858	0.0265558
870	0.0288372
882	0.0311186
894	0.0264645
906	0.0371416
918	0.0280159
930	0.0324875
942	0.0485487
954	0.0673477
966	0.0751958
978	0.0709979
990	0.0719105
1002	0.0883368
1014	0.112794
1026	0.118817
1038	0.0931734
1050	0.0883368
1062	0.138163
1074	0.176582
1086	0.189815
1098	0.162985
1110	0.146194
1122	0.192917
1134	0.284448
1146	0.396147
1158	0.507024
1170	0.546173
1182	0.494704
1194	0.400892
1206	0.335826
1218	0.337377
1230	0.350974
1242	0.376709
1254	0.326244
1266	0.244751
1278	0.202591
1290	0.165084
1302	0.153859
1314	0.14519
1326	0.132323
1338	0.141631
1350	0.16408
1362	0.146376
1374	0.103394
1386	0.101569
1398	0.0818575
1410	0.0529291
1422	0.0604121
1434	0.0859641
1446	0.0954548
1458	0.125661
1470	0.119547
1482	0.06461
1494	0.0354077
1506	0.0228142
1518	0.0184339
1530	0.0183427
1542	0.0136885
1554	0.0155137
1566	0.0157875
1578	0.0144186
1590	0.0160612
1602	0.0139623
1614	0.0148749
1626	0.0157875
1638	0.0153312
1650	0.0151487
1662	0.0213541
1674	0.0225405
1686	0.0264645
1698	0.0415219
1710	0.0756521
1722	0.12776
1734	0.252782
1746	0.677766
1758	0.809176
1770	0.279611
1782	0.120185
1794	0.061416
1806	0.0413394
1818	0.0307536
1830	0.0192552
1842	0.0151487
1854	0.0122284
1866	0.0114984
1878	0.0113159
1890	0.0104946
1902	0.0105858
1914	0.0104033
1926	0.0104033
1938	0.0104946
1950	0.0104033
1962	0.010312
1974	0.0110421
1986	0.0107683
1998	0.0105858
2010	0.00994701
2022	0.0105858
2034	0.0110421
2046	0.0104946
2058	0.00967324
2070	0.00930821
2082	0.00949073
2094	0.00903444
2106	0.00839564
2118	0.00748307
2130	0.00757433
2142	0.00757433
2154	0.00766559
2166	0.00711805
2178	0.00675302
2190	0.00702679
2202	0.00693553
2214	0.00666176
2226	0.00611422
2238	0.00629673
2250	0.0065705
2262	0.00666176
2274	0.00666176
2286	0.00702679
2298	0.00766559
2310	0.00958198
2322	0.00903444
2334	0.00803062
2346	0.0072093
2358	0.00903444
2370	0.00930821
2382	0.00730056
2394	0.00574919
2406	0.00565793
2418	0.00620548
2430	0.00565793
2442	0.00529291
2454	0.00465411
2466	0.00492788
2478	0.00483662
2490	0.00428908
2502	0.00410656
2514	0.00392405
2526	0.00465411
2538	0.00511039
2550	0.00465411
2562	0.00465411
2574	0.00565793
2586	0.00647925
2598	0.00684427
2610	0.00666176
2622	0.00666176
2634	0.00793936
2646	0.00821313
2658	0.00866941
2670	0.00876067
2682	0.0100383
2694	0.0115896
2706	0.0111334
2718	0.0104946
2730	0.0109508
2742	0.0133235
2754	0.0155137
2766	0.0148749
2778	0.0146924
2790	0.0167913
2802	0.0206241
2814	0.0258257
2826	0.0331263
2838	0.045811
2850	0.0818575
2862	0.176674
2874	0.231336
2886	0.222393
2898	0.191731
2910	0.24247
2922	0.364663
2934	0.525732
2946	0.615163
2958	0.506385
2970	0.549093
2982	0.323962
2994	0.142178
3006	0.0701766
3018	0.0453547
3030	0.0334913
3042	0.0256432
3054	0.0194377
3066	0.0147836
3078	0.0148749
3090	0.0133235
3102	0.0106771
3114	0.0106771
3126	0.00994701
3138	0.0102208
3150	0.00866941
3162	0.00866941
3174	0.00757433
3186	0.00894319
3198	0.00949073
3210	0.00702679
3222	0.0065705
3234	0.00638799
3246	0.00693553
3258	0.00611422
3270	0.00565793
3282	0.00428908
3294	0.00565793
3306	0.00620548
3318	0.00547542
3330	0.00511039
3342	0.00629673
3354	0.0065705
3366	0.00675302
3378	0.00620548
3390	0.00511039
3402	0.00638799
3414	0.0065705
3426	0.0065705
3438	0.00638799
3450	0.00793936
3462	0.00821313
3474	0.012411
3486	0.013506
3498	0.0104033
3510	0.00766559
3522	0.00821313
3534	0.00693553
3546	0.00675302
3558	0.00748307
3570	0.010312
3582	0.00994701
3594	0.00693553
3606	0.00647925
3618	0.00602296
3630	0.00565793
3642	0.00775685
3654	0.00511039
3666	0.00711805
3678	0.00702679
3690	0.00629673
3702	0.00684427
3714	0.00556668
3726	0.00629673
3738	0.00565793
3750	0.00474536
3762	0.00666176
3774	0.00574919
3786	0.00702679
3798	0.00547542
3810	0.00739182
3822	0.00392405
3834	0.00556668
3846	0.0072093
3858	0.00803062
3870	0.00629673
3882	0.00547542
3894	0.00556668
3906	0.00903444
3918	0.0101295
3930	0.00812187
3942	0.00520165
3954	0.0078481
3966	0.0107683
