Infrared Spectrum: Cyclooctane
Formula: C 8 H 16
CAS: 292-64-8
Origin: Sadtler Research Labs Under US-EPA Contract
1/CM	ABSORBANCE
450	0
462	0.0189636
474	0.0137486
486	0.0132745
498	0.0165932
510	0.015645
522	0.0137486
534	0.0182525
546	0.0116152
558	0.0142227
570	0.0151709
582	0.0118522
594	0.0149338
606	0.0137486
618	0.0154079
630	0.0168302
642	0.0165932
654	0.0154079
666	0.0168302
678	0.0180154
690	0.0184895
702	0.0189636
714	0.0194377
726	0.0206229
738	0.0151709
750	0.0272602
762	0.0466979
774	0.0462238
786	0.0312899
798	0.0291565
810	0.0201488
822	0.0177784
834	0.0196747
846	0.0239415
858	0.0272602
870	0.0229934
882	0.0206229
894	0.0165932
906	0.015882
918	0.0154079
930	0.0151709
942	0.0199118
954	0.0260749
966	0.0234675
978	0.0201488
990	0.0173043
1002	0.0154079
1014	0.0165932
1026	0.0234675
1038	0.0372161
1050	0.0338974
1062	0.0220452
1074	0.0170672
1086	0.0170672
1098	0.0175413
1110	0.0163561
1122	0.0192006
1134	0.02086
1146	0.0175413
1158	0.0146968
1170	0.0139857
1182	0.0137486
1194	0.0139857
1206	0.015882
1218	0.0220452
1230	0.0267861
1242	0.0253638
1254	0.0237045
1266	0.0225193
1278	0.0218081
1290	0.0241786
1302	0.0218081
1314	0.0175413
1326	0.0199118
1338	0.0291565
1350	0.0452756
1362	0.0509647
1374	0.0346086
1386	0.0175413
1398	0.0170672
1410	0.0184895
1422	0.0241786
1434	0.0609206
1446	0.191532
1458	0.241786
1470	0.192481
1482	0.162376
1494	0.0756174
1506	0.0286824
1518	0.0187266
1530	0.0154079
1542	0.0175413
1554	0.0142227
1566	0.0139857
1578	0.0149338
1590	0.0144597
1602	0.0132745
1614	0.0128004
1626	0.0132745
1638	0.0125634
1650	0.0146968
1662	0.0118522
1674	0.0135116
1686	0.0146968
1698	0.0142227
1710	0.0120893
1722	0.0125634
1734	0.0132745
1746	0.0116152
1758	0.0111411
1770	0.0118522
1782	0.0116152
1794	0.0123263
1806	0.0113782
1818	0.0116152
1830	0.0116152
1842	0.0109041
1854	0.010667
1866	0.010667
1878	0.01043
1890	0.0109041
1902	0.01043
1914	0.010667
1926	0.0109041
1938	0.0109041
1950	0.0111411
1962	0.0111411
1974	0.010667
1986	0.01043
1998	0.01043
2010	0.01043
2022	0.010667
2034	0.0101929
2046	0.0109041
2058	0.0109041
2070	0.010667
2082	0.0109041
2094	0.0109041
2106	0.0120893
2118	0.0123263
2130	0.0132745
2142	0.0128004
2154	0.0120893
2166	0.0111411
2178	0.01043
2190	0.01043
2202	0.0111411
2214	0.0113782
2226	0.0120893
2238	0.0132745
2250	0.0132745
2262	0.0128004
2274	0.0130375
2286	0.0120893
2298	0.0130375
2310	0.0135116
2322	0.0144597
2334	0.015645
2346	0.0170672
2358	0.0116152
2370	0.021097
2382	0.0149338
2394	0.0123263
2406	0.0132745
2418	0.0135116
2430	0.0135116
2442	0.0137486
2454	0.0142227
2466	0.0139857
2478	0.0142227
2490	0.0137486
2502	0.0130375
2514	0.0135116
2526	0.0135116
2538	0.0142227
2550	0.015645
2562	0.0165932
2574	0.0182525
2586	0.0180154
2598	0.0182525
2610	0.0192006
2622	0.0203859
2634	0.0213341
2646	0.0234675
2658	0.0286824
2670	0.0362679
2682	0.0483572
2694	0.0606835
2706	0.0599724
2718	0.0464608
2730	0.0331863
2742	0.0286824
2754	0.0253638
2766	0.0258379
2778	0.0298677
2790	0.0398236
2802	0.0540463
2814	0.063291
2826	0.0732469
2838	0.111174
2850	0.366709
2862	0.663015
2874	0.593324
2886	0.442089
2898	0.582894
2910	1.17906
2922	2.25382
2934	2.37045
2946	1.42914
2958	0.623191
2970	0.304366
2982	0.128004
2994	0.0635281
3006	0.0445645
3018	0.0362679
3030	0.0312899
3042	0.0267861
3054	0.0251268
3066	0.0227563
3078	0.0215711
3090	0.0206229
3102	0.02086
3114	0.0213341
3126	0.021097
3138	0.02086
3150	0.0199118
3162	0.0184895
3174	0.0187266
3186	0.0173043
3198	0.0180154
3210	0.0194377
3222	0.0184895
3234	0.0196747
3246	0.0206229
3258	0.0182525
3270	0.0184895
3282	0.0175413
3294	0.015645
3306	0.0149338
3318	0.0144597
3330	0.0132745
3342	0.0149338
3354	0.0154079
3366	0.015882
3378	0.0187266
3390	0.0189636
3402	0.0170672
3414	0.0165932
3426	0.0173043
3438	0.0137486
3450	0.0139857
3462	0.0132745
3474	0.0132745
3486	0.0128004
3498	0.0123263
3510	0.0132745
3522	0.0144597
3534	0.0128004
3546	0.0118522
3558	0.015645
3570	0.0146968
3582	0.0137486
3594	0.0144597
3606	0.0168302
3618	0.0177784
3630	0.0168302
3642	0.0163561
3654	0.0182525
3666	0.015882
3678	0.0184895
3690	0.0192006
3702	0.0180154
3714	0.0168302
3726	0.0151709
3738	0.0194377
3750	0.015882
3762	0.0161191
3774	0.015882
3786	0.0165932
3798	0.015882
3810	0.0154079
3822	0.0213341
3834	0.0161191
3846	0.0142227
3858	0.0163561
3870	0.0182525
3882	0.0194377
3894	0.0137486
3906	0.0192006
3918	0.0151709
3930	0.0146968
3942	0.0151709
3954	0.0154079
3966	0.0180154
