Infrared Spectrum: Malonic acid, bromoethyl-, diethyl ester
Formula: C 9 H 15 Br O 4
CAS: 29237-78-3
Origin: Sadtler Research Labs Under US-EPA Contract
1/CM	ABSORBANCE
450	0.0317628
462	0.0096057
474	0.0263837
486	0.0175464
498	0.0240783
510	0.0257433
522	0.0105022
534	0.0161376
546	0.00256152
558	0.00832494
570	0.00128076
582	0.0115268
594	0.0096057
606	0.0130638
618	0.0176745
630	0.0188272
642	0.0500777
654	0.0641661
666	0.0441862
678	0.0411124
690	0.0384228
702	0.0322752
714	0.0240783
726	0.0189552
738	0.023566
750	0.0297136
762	0.0292013
774	0.0292013
786	0.0366297
798	0.0379105
810	0.0411124
822	0.0532796
834	0.0653188
846	0.0563534
858	0.0869636
870	0.0817125
882	0.0395755
894	0.0468758
906	0.0627572
918	0.0426493
930	0.0259994
942	0.0306102
954	0.0535358
966	0.05059
978	0.0422651
990	0.0463635
1002	0.0710822
1014	0.168292
1026	0.387174
1038	0.354514
1050	0.151642
1062	0.11847
1074	0.135761
1086	0.287787
1098	0.389863
1110	0.371548
1122	0.490403
1134	0.393962
1146	0.182893
1158	0.124234
1170	0.133071
1182	0.214399
1194	0.442375
1206	0.560204
1218	0.664586
1230	0.938285
1242	1.24439
1254	0.976067
1266	0.469399
1278	0.259866
1290	0.282792
1302	0.290348
1314	0.193267
1326	0.103998
1338	0.0997712
1350	0.0603238
1362	0.0777421
1374	0.138194
1386	0.10118
1398	0.0946482
1410	0.0617326
1422	0.0517427
1434	0.0800475
1446	0.111554
1458	0.111042
1470	0.126411
1482	0.0817125
1494	0.0375263
1506	0.0259994
1518	0.0190833
1530	0.0172903
1542	0.0153691
1554	0.0144726
1566	0.0156253
1578	0.0156253
1590	0.0124234
1602	0.0102461
1614	0.0120391
1626	0.0144726
1638	0.0121672
1650	0.0115268
1662	0.0157533
1674	0.0206202
1686	0.0272802
1698	0.0423932
1710	0.0667276
1722	0.121928
1734	0.320574
1746	0.726063
1758	1.17971
1770	0.578135
1782	0.298545
1794	0.0901655
1806	0.0455951
1818	0.0313786
1830	0.0242064
1842	0.0192114
1854	0.0129357
1866	0.0111426
1878	0.011783
1890	0.0113988
1902	0.00973378
1914	0.00781264
1926	0.00627572
1938	0.0064038
1950	0.00665995
1962	0.00627572
1974	0.00563534
1986	0.00473881
1998	0.00461074
2010	0.00422651
2022	0.00486689
2034	0.00448266
2046	0.00461074
2058	0.00537919
2070	0.00627572
2082	0.00704418
2094	0.00768456
2106	0.00717226
2118	0.00653188
2130	0.00550727
2142	0.00448266
2154	0.00422651
2166	0.0037142
2178	0.00358613
2190	0.00384228
2202	0.00358613
2214	0.00345805
2226	0.00294575
2238	0.0026896
2250	0.00204922
2262	0.00204922
2274	0.00192114
2286	0.00230537
2298	0.0037142
2310	0.00563534
2322	0.00678803
2334	0.00730033
2346	0.00973378
2358	0.00794071
2370	0.00717226
2382	0.0064038
2394	0.00307382
2406	0.00332998
2418	0.00397036
2430	0.00409843
2442	0.00345805
2454	0.00281767
2466	0.00307382
2478	0.00281767
2490	0.00204922
2502	0.00166499
2514	0.00102461
2526	0.00064038
2538	0.000768456
2550	0.000768456
2562	0.00064038
2574	0.000768456
2586	0.000128076
2598	0.00064038
2610	0.000896532
2622	0.00140884
2634	0.00140884
2646	0.00064038
2658	0.00102461
2670	0.000768456
2682	0.00115268
2694	0.00153691
2706	0.00192114
2718	0.00230537
2730	0.00486689
2742	0.00499496
2754	0.00665995
2766	0.00755648
2778	0.00819686
2790	0.00794071
2802	0.00883724
2814	0.0108865
2826	0.0140884
2838	0.0170341
2850	0.023566
2862	0.0362455
2874	0.0486689
2886	0.0878601
2898	0.10515
2910	0.101564
2922	0.108224
2934	0.139219
2946	0.243216
2958	0.192242
2970	0.208764
2982	0.36079
2994	0.374494
3006	0.184429
3018	0.0940078
3030	0.0458512
3042	0.0261275
3054	0.0181868
3066	0.0149849
3078	0.0135761
3090	0.0128076
3102	0.0107584
3114	0.00973378
3126	0.00819686
3138	0.00678803
3150	0.00678803
3162	0.00665995
3174	0.00601957
3186	0.00499496
3198	0.00448266
3210	0.00332998
3222	0.00345805
3234	0.00204922
3246	0.00166499
3258	0.00217729
3270	0.00140884
3282	0.00153691
3294	0.00192114
3306	0.00192114
3318	0.00204922
3330	0.00179306
3342	0.00153691
3354	0.00217729
3366	0.00192114
3378	0.00256152
3390	0.00217729
3402	0.0026896
3414	0.00281767
3426	0.0032019
3438	0.00345805
3450	0.00473881
3462	0.0058915
3474	0.00627572
3486	0.00742841
3498	0.00934955
3510	0.00794071
3522	0.00742841
3534	0.00550727
3546	0.00422651
3558	0.00332998
3570	0.0032019
3582	0.00307382
3594	0.00243344
3606	0.00435458
3618	0.0026896
3630	0.00140884
3642	0.00422651
3654	0
3666	0.00473881
3678	0.00230537
3690	0.00064038
3702	0.00512304
3714	0.0037142
3726	0.00448266
3738	0.00473881
3750	0
3762	0.00473881
3774	0.00448266
3786	0.00307382
3798	0.00153691
3810	0.00512304
3822	0.0026896
3834	0.00192114
3846	0.00256152
3858	0.00358613
3870	0.00166499
3882	0.00461074
3894	0.00486689
3906	0.00332998
3918	0.00345805
3930	0.00230537
3942	0.00128076
3954	0.00307382
3966	0.00409843
