Infrared Spectrum: 2,5-Hexanediol
Formula: C 6 H 14 O 2
CAS: 2935-44-6
Origin: Sadtler Research Labs Under US-EPA Contract
1/CM	ABSORBANCE
450	0.0287809
462	0.0288673
474	0.0253237
486	0.032843
498	0.018928
510	0.00570431
522	0.0123593
534	0.0144336
546	0.020138
558	0.0188415
570	0.0105443
582	0.0144336
594	0.0187551
606	0.0157301
618	0.00890219
630	0.0188415
642	0.0163351
654	0.0203972
666	0.0218665
678	0.0182365
690	0.0197058
702	0.0191872
714	0.0162487
726	0.0168537
738	0.0191872
750	0.0197922
762	0.0228173
774	0.0209158
786	0.0210022
798	0.025583
810	0.0351766
822	0.0468445
834	0.0533267
846	0.0568703
858	0.0556603
870	0.0600682
882	0.0726868
894	0.0802061
906	0.0818483
918	0.116074
930	0.200083
942	0.251336
954	0.160412
966	0.0765761
978	0.0739832
990	0.0983562
1002	0.151596
1014	0.249866
1026	0.33085
1038	0.355569
1050	0.369052
1062	0.360236
1074	0.359026
1086	0.380201
1098	0.381325
1110	0.305872
1122	0.269053
1134	0.261621
1146	0.224975
1158	0.163092
1170	0.126791
1182	0.122556
1194	0.13336
1206	0.149436
1218	0.168104
1230	0.2038
1242	0.252113
1254	0.248916
1266	0.203886
1278	0.166981
1290	0.138632
1302	0.121346
1314	0.121433
1326	0.131026
1338	0.144769
1350	0.174414
1362	0.224456
1374	0.34321
1386	0.409155
1398	0.287636
1410	0.178562
1422	0.119013
1434	0.110802
1446	0.141398
1458	0.157646
1470	0.112531
1482	0.0537588
1494	0.0280894
1506	0.0197922
1518	0.0145201
1530	0.0114951
1542	0.0111493
1554	0.00976648
1566	0.0065686
1578	0.0101122
1590	0.00665503
1602	0.0065686
1614	0.00743289
1626	0.00544503
1638	0.00639575
1650	0.00466717
1662	0.00458074
1674	0.00579074
1686	0.00985291
1698	0.00726004
1710	0.00363002
1722	0.00406216
1734	0.00397573
1746	0.00414859
1758	0.00518574
1770	0.00544503
1782	0.00509931
1794	0.00432145
1806	0.00414859
1818	0.00345716
1830	0.00285216
1842	0.0032843
1854	0.00345716
1866	0.00345716
1878	0.00354359
1890	0.00337073
1902	0.00311144
1914	0.00337073
1926	0.0032843
1938	0.00345716
1950	0.0026793
1962	0.00250644
1974	0.00181501
1986	0.00155572
1998	0.00146929
2010	0.00086429
2022	0.000518574
2034	0.00086429
2046	0.00103715
2058	0.000950719
2070	0.00138286
2082	0.00172858
2094	0.000605003
2106	0.000345716
2118	0.000432145
2130	0.00086429
2142	0.00164215
2154	0.00129643
2166	0.00155572
2178	0.00181501
2190	0.00190144
2202	0.00164215
2214	0.00155572
2226	0.000950719
2238	0.00129643
2250	0.00138286
2262	0.00190144
2274	0.00216073
2286	0.00285216
2298	0.00337073
2310	0.00570431
2322	0.00639575
2334	0.00432145
2346	0.00319787
2358	0.00665503
2370	0.00164215
2382	0.00172858
2394	0.0038893
2406	0.00466717
2418	0.00440788
2430	0.00414859
2442	0.00466717
2454	0.00492645
2466	0.00518574
2478	0.00553146
2490	0.00570431
2502	0.00509931
2514	0.00553146
2526	0.00475359
2538	0.00492645
2550	0.00587717
2562	0.00682789
2574	0.00717361
2586	0.00812433
2598	0.00916147
2610	0.0103715
2622	0.0128779
2634	0.0171129
2646	0.0194465
2658	0.0217801
2670	0.0235087
2682	0.0227308
2694	0.0210022
2706	0.0192737
2718	0.0197058
2730	0.0221258
2742	0.0232494
2754	0.0241137
2766	0.0263608
2778	0.0278301
2790	0.032238
2802	0.0407945
2814	0.0534131
2826	0.0686246
2838	0.101554
2850	0.167586
2862	0.256521
2874	0.360236
2886	0.416242
2898	0.384782
2910	0.430244
2922	0.573024
2934	0.693679
2946	0.6133
2958	0.529291
2970	0.751932
2982	0.792813
2994	0.350642
3006	0.078564
3018	0.0336209
3030	0.0205701
3042	0.0152115
3054	0.0121865
3066	0.0108901
3078	0.00916147
3090	0.00976648
3102	0.0092479
3114	0.00829718
3126	0.00691432
3138	0.00613646
3150	0.00561788
3162	0.00674146
3174	0.00717361
3186	0.00907505
3198	0.00907505
3210	0.00872933
3222	0.00544503
3234	0.00380288
3246	0.00285216
3258	0.00198787
3270	0.00224715
3282	0.00293859
3294	0.00250644
3306	0.00259287
3318	0.0020743
3330	0.00285216
3342	0.00371645
3354	0.00423502
3366	0.00605003
3378	0.00847004
3390	0.00968005
3402	0.00881576
3414	0.0109765
3426	0.0132236
3438	0.0138286
3450	0.0147794
3462	0.0140015
3474	0.0152979
3486	0.0161622
3498	0.0188415
3510	0.026188
3522	0.0522895
3534	0.087639
3546	0.091874
3558	0.0743289
3570	0.0579074
3582	0.0485731
3594	0.0501288
3606	0.0466717
3618	0.0416588
3630	0.0575617
3642	0.096109
3654	0.170957
3666	0.139583
3678	0.0433874
3690	0.0157301
3702	0.00734646
3714	0.00518574
3726	0.00544503
3738	8.6429e-05
3750	0.00242001
3762	8.6429e-05
3774	0.0020743
3786	0.00112358
3798	0.00319787
3810	0.00276573
3822	0.00432145
3834	0.00484002
3846	0.00103715
3858	0.00233358
3870	0.00622289
3882	0.00406216
3894	0.00414859
3906	0.00345716
3918	0.000259287
3930	0.00293859
3942	0.00224715
3954	0.00579074
3966	0.00345716
