Infrared Spectrum: Cyclododecane
Formula: C 12 H 24
CAS: 294-62-2
Origin: Sadtler Research Labs Under US-EPA Contract
1/CM	ABSORBANCE
450	0
462	0.0140344
474	0.0163226
486	0.0151023
498	0.0169328
510	0.0155599
522	0.0167803
534	0.0143395
546	0.0149497
558	0.0122038
570	0.0129666
582	0.012814
594	0.0120513
606	0.0125089
618	0.014187
630	0.0140344
642	0.0131191
654	0.0152548
666	0.0172379
678	0.0181532
690	0.0257806
702	0.0326453
714	0.0680364
726	0.0593412
738	0.0263908
750	0.0193736
762	0.0193736
774	0.0181532
786	0.017543
798	0.018916
810	0.0242551
822	0.0265434
834	0.018916
846	0.017543
858	0.0157124
870	0.0155599
882	0.0146446
894	0.0154073
906	0.0147972
918	0.0157124
930	0.015865
942	0.0154073
954	0.0157124
966	0.0166277
978	0.0160175
990	0.0163226
1002	0.0186109
1014	0.0248653
1026	0.0315774
1038	0.0292892
1050	0.0225771
1062	0.0202889
1074	0.0228822
1086	0.0244077
1098	0.0230347
1110	0.0212042
1122	0.0183058
1134	0.0178481
1146	0.0166277
1158	0.0163226
1170	0.0163226
1182	0.0164752
1194	0.0161701
1206	0.0164752
1218	0.018916
1230	0.0216618
1242	0.0295943
1254	0.0273061
1266	0.0283739
1278	0.0250179
1290	0.0242551
1302	0.0295943
1314	0.0315774
1326	0.0244077
1338	0.0344758
1350	0.054002
1362	0.0356962
1374	0.0218144
1386	0.0163226
1398	0.0164752
1410	0.019221
1422	0.0207465
1434	0.0321876
1446	0.109377
1458	0.126462
1470	0.130886
1482	0.0735281
1494	0.0257806
1506	0.0178481
1518	0.0166277
1530	0.0154073
1542	0.0147972
1554	0.0146446
1566	0.0140344
1578	0.0140344
1590	0.0143395
1602	0.0138819
1614	0.0140344
1626	0.0137293
1638	0.0137293
1650	0.0134242
1662	0.014187
1674	0.014187
1686	0.0144921
1698	0.0151023
1710	0.0170854
1722	0.0202889
1734	0.0198312
1746	0.019221
1758	0.0176956
1770	0.0176956
1782	0.019221
1794	0.0184583
1806	0.0161701
1818	0.0149497
1830	0.0134242
1842	0.0132717
1854	0.0131191
1866	0.0129666
1878	0.0125089
1890	0.0123564
1902	0.0126615
1914	0.012814
1926	0.0125089
1938	0.0122038
1950	0.0118987
1962	0.0115936
1974	0.0123564
1986	0.0126615
1998	0.0123564
2010	0.0123564
2022	0.0123564
2034	0.0123564
2046	0.0125089
2058	0.012814
2070	0.0125089
2082	0.0125089
2094	0.0122038
2106	0.0120513
2118	0.0122038
2130	0.0125089
2142	0.0123564
2154	0.0126615
2166	0.0122038
2178	0.0122038
2190	0.0120513
2202	0.0118987
2214	0.0118987
2226	0.0115936
2238	0.0120513
2250	0.0117462
2262	0.0118987
2274	0.0118987
2286	0.0126615
2298	0.0132717
2310	0.0143395
2322	0.0146446
2334	0.0132717
2346	0.0137293
2358	0.0132717
2370	0.0115936
2382	0.0129666
2394	0.0108309
2406	0.0108309
2418	0.0106784
2430	0.0105258
2442	0.0106784
2454	0.0105258
2466	0.0103733
2478	0.0106784
2490	0.0108309
2502	0.011136
2514	0.0118987
2526	0.0131191
2538	0.0132717
2550	0.0126615
2562	0.0129666
2574	0.0134242
2586	0.0134242
2598	0.0131191
2610	0.0147972
2622	0.0161701
2634	0.0173905
2646	0.019221
2658	0.0225771
2670	0.0276112
2682	0.0288316
2694	0.0268484
2706	0.0236449
2718	0.0210516
2730	0.0202889
2742	0.0208991
2754	0.0208991
2766	0.022272
2778	0.0244077
2790	0.0291367
2802	0.0356962
2814	0.0427134
2826	0.0485103
2838	0.0648329
2850	0.242551
2862	0.535291
2874	0.530867
2886	0.336063
2898	0.327063
2910	0.768689
2922	1.05929
2934	1.52548
2946	1.17981
2958	0.57236
2970	0.261772
2982	0.148124
2994	0.0752062
3006	0.0454593
3018	0.0341708
3030	0.0265434
3042	0.0216618
3054	0.0187634
3066	0.0163226
3078	0.0155599
3090	0.0151023
3102	0.0147972
3114	0.0146446
3126	0.0143395
3138	0.0138819
3150	0.0144921
3162	0.0140344
3174	0.0129666
3186	0.0126615
3198	0.0140344
3210	0.0135768
3222	0.0129666
3234	0.0126615
3246	0.0118987
3258	0.0115936
3270	0.011136
3282	0.0117462
3294	0.0114411
3306	0.0114411
3318	0.0115936
3330	0.0118987
3342	0.0109835
3354	0.0108309
3366	0.0108309
3378	0.0103733
3390	0.0109835
3402	0.0109835
3414	0.0108309
3426	0.011136
3438	0.0109835
3450	0.0112886
3462	0.0117462
3474	0.0114411
3486	0.0108309
3498	0.0109835
3510	0.0112886
3522	0.0108309
3534	0.0108309
3546	0.0109835
3558	0.0115936
3570	0.0114411
3582	0.0115936
3594	0.0114411
3606	0.0114411
3618	0.011136
3630	0.0122038
3642	0.0114411
3654	0.0109835
3666	0.011136
3678	0.011136
3690	0.011136
3702	0.0114411
3714	0.0109835
3726	0.0122038
3738	0.0120513
3750	0.0114411
3762	0.0108309
3774	0.0109835
3786	0.0114411
3798	0.0108309
3810	0.0109835
3822	0.011136
3834	0.0115936
3846	0.0120513
3858	0.0117462
3870	0.0117462
3882	0.0122038
3894	0.0122038
3906	0.0126615
3918	0.0125089
3930	0.0122038
3942	0.0122038
3954	0.0126615
3966	0.0117462
