Infrared Spectrum: Ethanamine, N,N-dimethyl-2-(2-pyridinyloxy)-
Formula: C 9 H 14 N 2 O
CAS: 29450-09-7
Origin: Sadtler Research Labs Under US-EPA Contract
1/CM	ABSORBANCE
450	0
462	0.0515136
474	0.0529624
486	0.0528014
498	0.0610114
510	0.0824218
522	0.0938513
534	0.0656798
546	0.0558601
558	0.0537673
570	0.0494209
582	0.0507087
594	0.0598846
606	0.0697043
618	0.0711532
630	0.0602065
642	0.0587577
654	0.0516746
666	0.0421768
678	0.0423377
690	0.0471671
702	0.0478111
714	0.0502258
726	0.100612
738	0.150999
750	0.0991637
762	0.155185
774	0.383937
786	0.358502
798	0.155507
810	0.113974
822	0.107374
834	0.0933684
846	0.0774314
858	0.0874121
870	0.0824218
882	0.0758216
894	0.0890219
906	0.107052
918	0.107052
930	0.096266
942	0.103027
954	0.163073
966	0.133613
978	0.116389
990	0.179815
1002	0.228431
1014	0.459437
1026	0.517229
1038	0.651003
1050	0.536385
1062	0.223923
1074	0.18561
1086	0.17241
1098	0.159853
1110	0.119447
1122	0.0814559
1134	0.152931
1146	0.217806
1158	0.123633
1170	0.0946562
1182	0.09691
1194	0.126047
1206	0.120574
1218	0.11655
1230	0.158243
1242	0.345463
1254	0.582748
1266	0.785421
1278	0.797817
1290	1.6098
1302	0.611563
1314	0.999525
1326	0.411787
1338	0.200903
1350	0.145043
1362	0.166292
1374	0.134579
1386	0.133613
1398	0.130716
1410	0.155346
1422	0.299745
1434	1.31118
1446	0.552161
1458	0.442856
1470	1.00709
1482	0.960246
1494	0.255153
1506	0.159692
1518	0.0922415
1530	0.0775924
1542	0.0869292
1554	0.135223
1566	0.316809
1578	0.520126
1590	0.678209
1602	1.01707
1614	0.477789
1626	0.142145
1638	0.0811339
1650	0.0605285
1662	0.0550552
1674	0.0523185
1686	0.0558601
1698	0.0597236
1710	0.0751777
1722	0.0732459
1734	0.0547332
1746	0.0465232
1758	0.0449134
1770	0.0434646
1782	0.0445915
1794	0.0463622
1806	0.0519965
1818	0.0536063
1830	0.0519965
1842	0.0534454
1854	0.0468452
1866	0.0458793
1878	0.0457183
1890	0.048455
1902	0.0558601
1914	0.0539283
1926	0.0542503
1938	0.0521575
1950	0.0518356
1962	0.0519965
1974	0.0423377
1986	0.0410499
1998	0.0410499
2010	0.0428207
2022	0.0453964
2034	0.0474891
2046	0.0497428
2058	0.0519965
2070	0.0508697
2082	0.0532844
2094	0.0558601
2106	0.0521575
2118	0.0497428
2130	0.0466842
2142	0.0444305
2154	0.0421768
2166	0.0407279
2178	0.040245
2190	0.0408889
2202	0.0418548
2214	0.0413719
2226	0.0424987
2238	0.0452354
2250	0.0445915
2262	0.0434646
2274	0.0444305
2286	0.0468452
2298	0.0463622
2310	0.0471671
2322	0.0473281
2334	0.048294
2346	0.0487769
2358	0.0495818
2370	0.0463622
2382	0.0452354
2394	0.0455573
2406	0.0460403
2418	0.0455573
2430	0.0452354
2442	0.0444305
2454	0.0445915
2466	0.0437866
2478	0.0442695
2490	0.0466842
2502	0.0511916
2514	0.0544112
2526	0.0539283
2538	0.0548942
2550	0.0590797
2562	0.0634261
2574	0.0627822
2586	0.0568259
2598	0.0529624
2610	0.0513526
2622	0.0499038
2634	0.0510307
2646	0.0505477
2658	0.0532844
2670	0.0571479
2682	0.0605285
2694	0.0700263
2706	0.0887
2718	0.117193
2730	0.141662
2742	0.1708
2754	0.222796
2766	0.401484
2778	0.623476
2790	0.480525
2802	0.352224
2814	0.346751
2826	0.434324
2838	0.322443
2850	0.225855
2862	0.228431
2874	0.232294
2886	0.231006
2898	0.246138
2910	0.25628
2922	0.273666
2934	0.344658
2946	0.490506
2958	0.567937
2970	0.503384
2982	0.500326
2994	0.278656
3006	0.162268
3018	0.142467
3030	0.163556
3042	0.118964
3054	0.127818
3066	0.152287
3078	0.163234
3090	0.189795
3102	0.1019
3114	0.0674506
3126	0.0550552
3138	0.0523185
3150	0.0539283
3162	0.0503867
3174	0.0519965
3186	0.0505477
3198	0.0497428
3210	0.047972
3222	0.0458793
3234	0.0457183
3246	0.0458793
3258	0.0449134
3270	0.0460403
3282	0.0447524
3294	0.0429817
3306	0.0433036
3318	0.0452354
3330	0.0424987
3342	0.0441085
3354	0.0449134
3366	0.0442695
3378	0.0442695
3390	0.0434646
3402	0.0428207
3414	0.0449134
3426	0.0445915
3438	0.0437866
3450	0.0444305
3462	0.0428207
3474	0.0431426
3486	0.0436256
3498	0.0434646
3510	0.0433036
3522	0.0431426
3534	0.0433036
3546	0.0441085
3558	0.0465232
3570	0.0452354
3582	0.0437866
3594	0.0445915
3606	0.0449134
3618	0.0433036
3630	0.0450744
3642	0.0434646
3654	0.0442695
3666	0.0465232
3678	0.0462013
3690	0.0453964
3702	0.0453964
3714	0.0447524
3726	0.0465232
3738	0.0429817
3750	0.0455573
3762	0.0444305
3774	0.0441085
3786	0.0436256
3798	0.0433036
3810	0.0444305
3822	0.0462013
3834	0.0450744
3846	0.0463622
3858	0.0497428
3870	0.0441085
3882	0.0436256
3894	0.0444305
3906	0.0426597
3918	0.0457183
3930	0.0476501
3942	0.0453964
3954	0.048133
3966	0.048455
