Infrared Spectrum: Acetophenone, 2,3,4-trihydroxy-,
Formula: C 8 H 8 O 4
CAS: 29477-54-1
Origin: Sadtler Research Labs Under US-EPA Contract
1/CM	ABSORBANCE
450	0.0615503
462	0.0667448
474	0.0328334
486	0.0115652
498	0.00058806
510	0.00744876
522	0.00411642
534	0.00343035
546	0.00431244
558	0.010193
570	0.019896
582	0.0374398
594	0.087719
606	0.0625304
618	0.0229343
630	0.0157796
642	0.0153876
654	0.0208761
666	0.0592961
678	0.0957558
690	0.039204
702	0.0216602
714	0.0210722
726	0.0256786
738	0.0318532
750	0.0320493
762	0.0427324
774	0.0696851
786	0.114084
798	0.107223
810	0.0449866
822	0.0185239
834	0.010193
846	0.00764478
858	0.00823284
870	0.0106831
882	0.0394
894	0.0762518
906	0.0443985
918	0.0182299
930	0.0120552
942	0.0114672
954	0.0215622
966	0.0562577
978	0.0649806
990	0.0330294
1002	0.029109
1014	0.0463587
1026	0.0910513
1038	0.15368
1050	0.125257
1062	0.0525334
1074	0.0281289
1086	0.0221503
1098	0.0200921
1110	0.0178378
1122	0.0364597
1134	0.0338135
1146	0.0214642
1158	0.0495931
1170	0.185631
1182	0.163775
1194	0.145447
1206	0.17387
1218	0.0861508
1230	0.0572378
1242	0.0953637
1254	0.291286
1266	0.910023
1278	0.68656
1290	0.304125
1302	0.419483
1314	0.460059
1326	0.301577
1338	0.190825
1350	0.142801
1362	0.245123
1374	0.236792
1386	0.102322
1398	0.0475349
1410	0.0430264
1422	0.0796821
1434	0.206997
1446	0.395568
1458	0.29403
1470	0.122611
1482	0.068607
1494	0.0512592
1506	0.0620403
1518	0.111241
1530	0.113104
1542	0.078114
1554	0.068509
1566	0.0617463
1578	0.0573359
1590	0.0478289
1602	0.068607
1614	0.156424
1626	0.300695
1638	0.457119
1650	0.505046
1662	0.316376
1674	0.118788
1686	0.0412622
1698	0.0203861
1710	0.0171518
1722	0.0142115
1734	0.00901692
1746	0.00480249
1758	0.00245025
1770	0.0029403
1782	0.00323433
1794	0.00254826
1806	0.0019602
1818	0.00137214
1830	0.00254826
1842	0.00793881
1854	0.00725274
1866	0.00254826
1878	0.0009801
1890	0.00078408
1902	0.00137214
1914	0.00147015
1926	0.00205821
1938	0.00303831
1950	0.00343035
1962	0.00274428
1974	0.0019602
1986	0.00156816
1998	0.00137214
2010	0.00156816
2022	0.0009801
2034	0.00176418
2046	0.00264627
2058	0.00235224
2070	0.00166617
2082	0.00147015
2094	0.00176418
2106	0.00284229
2118	0.00284229
2130	0.00166617
2142	0.00039204
2154	9.801e-05
2166	0.00019602
2178	0.00039204
2190	0.00029403
2202	0.00068607
2214	0.00078408
2226	0.00078408
2238	0.00205821
2250	0.00382239
2262	0.00411642
2274	0.00480249
2286	0.00529254
2298	0.00695871
2310	0.00695871
2322	0.00637065
2334	0.00578259
2346	0.00823284
2358	0.00735075
2370	0.0068607
2382	0.00793881
2394	0.00646866
2406	0.00617463
2418	0.00578259
2430	0.00607662
2442	0.00656667
2454	0.00725274
2466	0.00793881
2478	0.00823284
2490	0.00862488
2502	0.00901692
2514	0.00960498
2526	0.0110751
2538	0.0125453
2550	0.0112712
2562	0.0111731
2574	0.0111731
2586	0.0109771
2598	0.0104871
2610	0.009801
2622	0.00921294
2634	0.009801
2646	0.00999702
2658	0.00950697
2670	0.009801
2682	0.00989901
2694	0.010095
2706	0.0104871
2718	0.0117612
2730	0.0133294
2742	0.0136234
2754	0.0135254
2766	0.0114672
2778	0.0102911
2790	0.0109771
2802	0.0114672
2814	0.0123493
2826	0.0128393
2838	0.0138194
2850	0.0143095
2862	0.0151916
2874	0.0161716
2886	0.0167597
2898	0.0177398
2910	0.019406
2922	0.0212682
2934	0.0222483
2946	0.0223463
2958	0.0214642
2970	0.0236204
2982	0.0251886
2994	0.0228363
3006	0.0225423
3018	0.0248945
3030	0.0218562
3042	0.019504
3054	0.0190139
3066	0.0214642
3078	0.0241105
3090	0.0248945
3102	0.0222483
3114	0.0172498
3126	0.0159756
3138	0.0157796
3150	0.0145055
3162	0.0140154
3174	0.0139174
3186	0.0135254
3198	0.0142115
3210	0.0134274
3222	0.0137214
3234	0.0134274
3246	0.0129373
3258	0.0127413
3270	0.0143095
3282	0.0138194
3294	0.0117612
3306	0.00872289
3318	0.00666468
3330	0.00578259
3342	0.00558657
3354	0.0049005
3366	0.00382239
3378	0.00352836
3390	0.00343035
3402	0.00235224
3414	0.00147015
3426	0.00088209
3438	0
3450	0.00088209
3462	9.801e-05
3474	0
3486	0.00019602
3498	0.00039204
3510	0.00078408
3522	0.00107811
3534	0.00156816
3546	0.00264627
3558	0.0112712
3570	0.0739976
3582	0.372046
3594	0.426834
3606	0.068411
3618	0.00813483
3630	0.00519453
3642	0.00627264
3654	0.00666468
3666	0.0029403
3678	0.00343035
3690	0.00245025
3702	0.00245025
3714	0.00166617
3726	0.0009801
3738	0.00225423
3750	0.00215622
3762	0.00117612
3774	0.00254826
3786	0.00127413
3798	0.00382239
3810	0.00225423
3822	0.00401841
3834	0.0039204
3846	0.0029403
3858	0.00382239
3870	0.00519453
3882	0.00656667
3894	0.00725274
3906	0.00509652
3918	0.00558657
3930	0.00656667
3942	0.00597861
3954	0.00548856
3966	0.00627264
