Infrared Spectrum: 2-Isoindolineacetic acid, 1,3-dioxo-.alpha.-methyl-, .delta.-,
Formula: C 11 H 9 N O 4
CAS: 29588-83-8
Origin: Sadtler Research Labs Under US-EPA Contract
1/CM	ABSORBANCE
450	0.00159872
462	0.00954236
474	0.00279776
486	0.00289768
498	0.00769384
510	0.0114408
522	0.0220324
534	0.0328237
546	0.0364708
558	0.0473121
570	0.0272282
582	0.0214328
594	0.0275779
606	0.0342226
618	0.0406674
630	0.0233813
642	0.00989208
654	0.0067446
666	0.00904276
678	0.00809352
690	0.0102418
702	0.0256794
714	0.106814
726	0.0871802
738	0.0256295
750	0.0173861
762	0.00804356
774	0.00614508
786	0.00964228
798	0.00954236
810	0.00914268
822	0.00664468
834	0.00534572
846	0.00434652
858	0.00469624
870	0.0101419
882	0.0435152
894	0.017486
906	0.0176858
918	0.0271782
930	0.0119404
942	0.00434652
954	0.00534572
966	0.00439648
978	0.00539568
990	0.0077438
1002	0.0205336
1014	0.0411171
1026	0.0464128
1038	0.0278277
1050	0.0307254
1062	0.0509592
1074	0.0804856
1086	0.0854316
1098	0.0453137
1110	0.0411171
1122	0.069994
1134	0.0995703
1146	0.0748401
1158	0.0602518
1170	0.0681454
1182	0.0526079
1194	0.0409672
1206	0.0442646
1218	0.0296263
1230	0.0219824
1242	0.021233
1254	0.0225819
1266	0.0241307
1278	0.0206335
1290	0.0240807
1302	0.0303757
1314	0.0379196
1326	0.053757
1338	0.0722921
1350	0.0856314
1362	0.115657
1374	0.229666
1386	0.357664
1398	0.101519
1410	0.0343725
1422	0.0257794
1434	0.0167366
1446	0.0154376
1458	0.0242306
1470	0.031275
1482	0.00659472
1494	0.00279776
1506	0.00339728
1518	0.003747
1530	0.00494604
1542	0.00519584
1554	0.00534572
1566	0.00379696
1578	0.00609512
1590	0.0069944
1602	0.00554556
1614	0.00719424
1626	0.00544564
1638	0.0105915
1650	0.0145384
1662	0.014938
1674	0.0244304
1686	0.0445144
1698	0.0793365
1710	0.142286
1722	0.202738
1734	0.376848
1746	0.439648
1758	0.13684
1770	0.109263
1782	0.23671
1794	0.214129
1806	0.0547062
1818	0.0257294
1830	0.014938
1842	0.00964228
1854	0.00534572
1866	0.00404676
1878	0.00329736
1890	0.00204836
1902	0.00194844
1914	0.00209832
1926	0.00134892
1938	0.00219824
1950	0.00134892
1962	0.00064948
1974	0.00179856
1986	0.00069944
1998	0.00039968
2010	9.992e-05
2022	0.00014988
2034	0
2046	0.00044964
2058	0.00029976
2070	0.0007494
2082	0.00084932
2094	0.00084932
2106	0.00069944
2118	0.0007494
2130	0.00059952
2142	0.00059952
2154	0.0004996
2166	0.00079936
2178	0.00109912
2190	0.00104916
2202	0.00094924
2214	0.00134892
2226	0.00134892
2238	0.00154876
2250	0.00209832
2262	0.00294764
2274	0.00344724
2286	0.00509592
2298	0.00914268
2310	0.0131894
2322	0.0119404
2334	0.00919264
2346	0.01249
2358	0.00994204
2370	0.0089928
2382	0.0107914
2394	0.00384692
2406	0.00309752
2418	0.003747
2430	0.0039968
2442	0.00404676
2454	0.00409672
2466	0.00429656
2478	0.00444644
2490	0.0044964
2502	0.00439648
2514	0.00419664
2526	0.00459632
2538	0.00469624
2550	0.00464628
2562	0.00464628
2574	0.00429656
2586	0.00454636
2598	0.00464628
2610	0.00444644
2622	0.00469624
2634	0.0044964
2646	0.00459632
2658	0.00454636
2670	0.00484612
2682	0.004996
2694	0.0052458
2706	0.00539568
2718	0.00439648
2730	0.00454636
2742	0.0044964
2754	0.00539568
2766	0.00539568
2778	0.00629496
2790	0.00629496
2802	0.00679456
2814	0.00664468
2826	0.00704436
2838	0.00779376
2850	0.00809352
2862	0.0082434
2874	0.008743
2886	0.0102418
2898	0.0116906
2910	0.0122902
2922	0.0157374
2934	0.0198341
2946	0.0197842
2958	0.0208333
2970	0.0139388
2982	0.0129896
2994	0.0160372
3006	0.0219324
3018	0.0146383
3030	0.011191
3042	0.0122402
3054	0.0144384
3066	0.0180356
3078	0.0166866
3090	0.0209332
3102	0.0146383
3114	0.0113409
3126	0.0106914
3138	0.0105915
3150	0.0109412
3162	0.0106914
3174	0.0110412
3186	0.011191
3198	0.0120404
3210	0.0118405
3222	0.0122402
3234	0.0117406
3246	0.0121403
3258	0.0121902
3270	0.01249
3282	0.01249
3294	0.0121403
3306	0.0125899
3318	0.0130396
3330	0.0128397
3342	0.0113409
3354	0.0106415
3366	0.0106914
3378	0.00934252
3390	0.0092426
3402	0.00839328
3414	0.00729416
3426	0.0064948
3438	0.00609512
3450	0.00584532
3462	0.00639488
3474	0.00734412
3486	0.00664468
3498	0.00639488
3510	0.00684452
3522	0.00754396
3534	0.00509592
3546	0.00514588
3558	0.0042466
3570	0.0214828
3582	0.0737909
3594	0.0134892
3606	0.00439648
3618	0.00444644
3630	0.00554556
3642	0.00194844
3654	0.00189848
3666	0.0009992
3678	0.00379696
3690	0.00289768
3702	0.0019984
3714	0.00334732
3726	0.00464628
3738	0.00494604
3750	0.00304756
3762	0.00184852
3774	0.00209832
3786	0.00119904
3798	0.0027478
3810	0.00114908
3822	0.00259792
3834	0.0019984
3846	0.0022482
3858	0.00279776
3870	0.00364708
3882	0.00244804
3894	0.0027478
3906	0.00444644
3918	0.00329736
3930	0.00314748
3942	0.00134892
3954	0.00359712
3966	0.00184852
