Infrared Spectrum: Methanone, (2-amino-5-chlorophenyl)(2-chlorophenyl)-
Formula: C 13 H 9 Cl 2 N O
CAS: 2958-36-3
Origin: Sadtler Research Labs Under US-EPA Contract
1/CM	ABSORBANCE
450	0.0210673
462	0.02161
474	0.0262478
486	0.00557519
498	0.0110024
510	0.0298495
522	0.0797795
534	0.0148507
546	0.000592056
558	0.00888084
570	0.0160348
582	0.00814077
594	0.00562453
606	0.0120878
618	0.0148014
630	0.0483019
642	0.236526
654	0.0979853
666	0.00527917
678	0.0263958
690	0.0544692
702	0.103067
714	0.104202
726	0.0903379
738	0.077658
750	0.201842
762	0.135877
774	0.122309
786	0.0388783
798	0.0280733
810	0.0971959
822	0.142932
834	0.0909299
846	0.028468
858	0.0177617
870	0.0220047
882	0.0350793
894	0.0368555
906	0.0195872
918	0.0259025
930	0.0678398
942	0.187435
954	0.17066
966	0.0210673
978	0.0118411
990	0.00893018
1002	0.0109037
1014	0.0192418
1026	0.0501274
1038	0.0491406
1050	0.109185
1062	0.0793355
1074	0.0394211
1086	0.0372995
1098	0.0759805
1110	0.067445
1122	0.0533837
1134	0.0803223
1146	0.144067
1158	0.32647
1170	0.0828878
1182	0.0379409
1194	0.0521996
1206	0.0945316
1218	0.161286
1230	0.409604
1242	0.347636
1254	0.115994
1266	0.10361
1278	0.0729709
1290	0.243088
1302	0.320993
1314	0.180133
1326	0.0885617
1338	0.0724775
1350	0.0269879
1362	0.0164789
1374	0.0145547
1386	0.0200312
1398	0.0467231
1410	0.121273
1422	0.0750431
1434	0.164789
1446	0.0652248
1458	0.13193
1470	0.272543
1482	0.200707
1494	0.0915713
1506	0.0702573
1518	0.0833812
1530	0.14979
1542	0.283644
1554	0.220097
1566	0.182699
1578	0.286358
1590	0.387945
1602	0.327308
1614	0.416511
1626	0.281868
1638	0.259765
1650	0.2795
1662	0.292673
1674	0.147767
1686	0.0616725
1698	0.0330565
1710	0.0206726
1722	0.0169723
1734	0.013864
1746	0.00991694
1758	0.0127785
1770	0.0163309
1782	0.0132719
1794	0.00814077
1806	0.00675931
1818	0.00429241
1830	0.00439108
1842	0.00473645
1854	0.00123345
1866	0.00300962
1878	0.00828878
1890	0.0118905
1902	0.00764739
1914	0.00912753
1926	0.00695666
1938	0.00448976
1950	0.00695666
1962	0.00429241
1974	0.00182551
1986	0.00177617
1998	0.00128279
2010	0.000937422
2022	0.000641394
2034	0.000690732
2046	0.00098676
2058	0.0014308
2070	0.00138146
2082	0.00152948
2094	0.00152948
2106	0.00128279
2118	0.00098676
2130	0.00108544
2142	0.00098676
2154	0.00074007
2166	0.000444042
2178	0.000838746
2190	0.000542718
2202	0.00113477
2214	0.00123345
2226	0.000888084
2238	0.00098676
2250	0.00138146
2262	0.00162815
2274	0.00261491
2286	0.00424307
2298	0.0059699
2310	0.00764739
2322	0.00873283
2334	0.00468711
2346	0.00567387
2358	0.0045391
2370	0.00473645
2382	0.00537784
2394	0.00212153
2406	0.00118411
2418	0.00098676
2430	0.0010361
2442	0.00197352
2454	0.00162815
2466	0.00074007
2478	0.00049338
2490	0.000937422
2502	0.000345366
2514	0
2526	0.000641394
2538	0.00108544
2550	0.00133213
2562	0.00182551
2574	0.00148014
2586	0.00098676
2598	0.00172683
2610	0.00251624
2622	0.00399638
2634	0.00463777
2646	0.00458843
2658	0.00345366
2670	0.00335498
2682	0.0028616
2694	0.00394704
2706	0.00429241
2718	0.00300962
2730	0.0020722
2742	0.00226955
2754	0.0028616
2766	0.00335498
2778	0.00325631
2790	0.00231889
2802	0.00187484
2814	0.00212153
2826	0.00236822
2838	0.00315763
2850	0.00291094
2862	0.003503
2874	0.00527917
2886	0.00592056
2898	0.0053285
2910	0.00527917
2922	0.00429241
2934	0.00522983
2946	0.00547652
2958	0.00656195
2970	0.0074007
2982	0.00577255
2994	0.00666063
3006	0.00917687
3018	0.0158868
3030	0.0248664
3042	0.0261985
3054	0.0307376
3066	0.046279
3078	0.0448482
3090	0.0233862
3102	0.0138146
3114	0.010213
3126	0.00902885
3138	0.0094729
3150	0.00853547
3162	0.00804209
3174	0.00769673
3186	0.00749938
3198	0.0077954
3210	0.00809143
3222	0.00853547
3234	0.00868349
3246	0.00932488
3258	0.010213
3270	0.0105583
3282	0.0122852
3294	0.0152454
3306	0.0199326
3318	0.0303429
3330	0.052841
3342	0.0967025
3354	0.143475
3366	0.14086
3378	0.0849107
3390	0.0474632
3402	0.0311816
3414	0.0259025
3426	0.0280733
3438	0.0373489
3450	0.0545678
3462	0.0782007
3474	0.103314
3486	0.115204
3498	0.0904366
3510	0.0657676
3522	0.0524463
3534	0.0272839
3546	0.00858481
3558	0.00483512
3570	0.00360167
3582	0.00182551
3594	0.00108544
3606	0.00152948
3618	0.000394704
3630	0.00074007
3642	0.000641394
3654	0.00113477
3666	0.00226955
3678	0.00113477
3690	0.0020722
3702	0.00192418
3714	0.00182551
3726	0.00300962
3738	0.00261491
3750	0.0020722
3762	0.00172683
3774	0.00281227
3786	0.00251624
3798	0.00251624
3810	0.00251624
3822	0.0028616
3834	0.00296028
3846	0.00251624
3858	0.00325631
3870	0.00305896
3882	0.00226955
3894	0.00365101
3906	0.00399638
3918	0.00374969
3930	0.00291094
3942	0.00335498
3954	0.00448976
3966	0.00291094
