Infrared Spectrum: Pyridine, 2-(1-butylpentyl)-
Formula: C 14 H 23 N
CAS: 2961-49-1
Origin: Sadtler Research Labs Under US-EPA Contract
1/CM	ABSORBANCE
450	0.00288435
462	0.00507646
474	0.00248054
486	0.011249
498	0.00490339
510	0.00351891
522	0.00882611
534	0.00294204
546	0.0129796
558	0.0204212
570	0.0158062
582	0.0117681
594	0.00490339
606	0.00957604
618	0.0163831
630	0.00957604
642	0.00213442
654	0.00328816
666	0.00224979
678	0.00409578
690	0.00351891
702	0.00749931
714	0.0121143
726	0.0236517
738	0.0598214
750	0.1242
762	0.0246323
774	0.0332277
786	0.0317279
798	0.0200174
810	0.0109605
822	0.00651863
834	0.00501877
846	0.00346122
858	0.00328816
870	0.0039804
882	0.00565333
894	0.00686475
906	0.00501877
918	0.00346122
930	0.00467265
942	0.00657632
954	0.0119989
966	0.0101529
978	0.00715319
990	0.0145371
1002	0.0107875
1014	0.00432652
1026	0.00513414
1038	0.0062302
1050	0.0211134
1062	0.00917223
1074	0.00922992
1086	0.0125758
1098	0.00767237
1110	0.0115951
1122	0.00773006
1134	0.00951835
1146	0.0291319
1158	0.00692244
1170	0.00403809
1182	0.00617251
1194	0.0131526
1206	0.0166715
1218	0.0131526
1230	0.00836462
1242	0.00830693
1254	0.00773006
1266	0.00715319
1278	0.00946067
1290	0.0147102
1302	0.0208827
1314	0.0160947
1326	0.0133257
1338	0.017883
1350	0.0228441
1362	0.022671
1374	0.0274013
1386	0.0422269
1398	0.01621
1410	0.0141333
1422	0.0227864
1434	0.113586
1446	0.0534758
1458	0.0646671
1470	0.15339
1482	0.065244
1494	0.0140756
1506	0.00871074
1518	0.00715319
1530	0.00726856
1542	0.00830693
1554	0.0118835
1566	0.047188
1578	0.0885495
1590	0.189271
1602	0.0564179
1614	0.0153447
1626	0.00865305
1638	0.00357659
1650	0.00276898
1662	0.00328816
1674	0.00271129
1686	0.00155755
1698	0.0026536
1710	0.00253823
1722	0.00190367
1734	0.00126911
1746	0.00207673
1758	0.00386503
1770	0.00282666
1782	0.00167292
1794	0.00149986
1806	0.0017883
1818	0.00196136
1830	0.00340353
1842	0.00334585
1854	0.0031151
1866	0.0053072
1878	0.00242285
1890	0.00236517
1902	0.00374965
1914	0.00501877
1926	0.00334585
1938	0.00651863
1950	0.00294204
1962	0.00455727
1974	0.0053072
1986	0.00184598
1998	0.00109605
2010	0.00144217
2022	0.000403809
2034	0.00109605
2046	0.000634557
2058	0.000749931
2070	0.00155755
2082	0.00259591
2094	0.0026536
2106	0.00207673
2118	0.00190367
2130	0.00219211
2142	0.00219211
2154	0.00271129
2166	0.00173061
2178	0.0017883
2190	0.00259591
2202	0.00207673
2214	0.00184598
2226	0.00167292
2238	0.00230748
2250	0.00201905
2262	0.00248054
2274	0.00259591
2286	0.00219211
2298	0.00259591
2310	0.00155755
2322	0.00190367
2334	0.00271129
2346	0.000173061
2358	0.00161524
2370	0
2382	0.000865305
2394	0.00126911
2406	0.00144217
2418	0.0017883
2430	0.00173061
2442	0.000807618
2454	0.000980679
2466	0.00109605
2478	0.00103837
2490	0.00126911
2502	0.000807618
2514	0.000692244
2526	0.00155755
2538	0.00161524
2550	0.0013268
2562	0.00103837
2574	0.00149986
2586	0.00126911
2598	0.00161524
2610	0.00224979
2622	0.0013268
2634	0.00323047
2646	0.00380734
2658	0.00507646
2670	0.00738394
2682	0.00744162
2694	0.00611482
2706	0.00553795
2718	0.00588407
2730	0.00634557
2742	0.00865305
2754	0.00721087
2766	0.00692244
2778	0.00836462
2790	0.0109028
2802	0.0143641
2814	0.0181714
2826	0.0230748
2838	0.0325932
2850	0.0653594
2862	0.192098
2874	0.220768
2886	0.218749
2898	0.148775
2910	0.19504
2922	0.317279
2934	0.532797
2946	0.470899
2958	0.282609
2970	0.494551
2982	0.132276
2994	0.0571101
3006	0.064321
3018	0.0942029
3030	0.0365736
3042	0.0301703
3054	0.0380734
3066	0.064321
3078	0.102337
3090	0.0467842
3102	0.0148832
3114	0.00853768
3126	0.00894148
3138	0.0111913
3150	0.0101529
3162	0.00899917
3174	0.007557
3186	0.00801849
3198	0.00692244
3210	0.00634557
3222	0.00646094
3234	0.00571101
3246	0.00536489
3258	0.00565333
3270	0.00467265
3282	0.00305741
3294	0.00334585
3306	0.00305741
3318	0.00201905
3330	0.00224979
3342	0.00363428
3354	0.00357659
3366	0.00201905
3378	0.00473033
3390	0.00421115
3402	0.00201905
3414	0.00201905
3426	0.00207673
3438	0.000230748
3450	0.00432652
3462	0.0026536
3474	0.00271129
3486	0.00455727
3498	0.00438421
3510	0.00380734
3522	0.00346122
3534	0.00473033
3546	0.00455727
3558	0.00519183
3570	0.00507646
3582	0.00473033
3594	0.0044419
3606	0.00703781
3618	0.00617251
3630	0.00680707
3642	0.007557
3654	0.00674938
3666	0.00553795
3678	0.00686475
3690	0.00801849
3702	0.00674938
3714	0.00698013
3726	0.00634557
3738	0.00761468
3750	0.00865305
3762	0.00721087
3774	0.00651863
3786	0.0062302
3798	0.00876842
3810	0.00594176
3822	0.00922992
3834	0.0102106
3846	0.00732625
3858	0.0103837
3870	0.00778774
3882	0.00721087
3894	0.00859536
3906	0.0070955
3918	0.0062302
3930	0.00882611
3942	0.0137295
3954	0.00224979
3966	0.0070955
