Infrared Spectrum: 4-(1-Butylpentyl)pyridine
Formula: C 14 H 23 N
CAS: 2961-47-9
Origin: Sadtler Research Labs Under US-EPA Contract
1/CM	ABSORBANCE
450	0.113713
462	0.0185913
474	0.0160446
486	0.0122244
498	0.0477518
510	0.0245762
522	0.0269957
534	0.0291604
546	0.026359
558	0.0659611
570	0.09041
582	0.0925747
594	0.064433
606	0.0287784
618	0.0233029
630	0.0206288
642	0.0175726
654	0.0171906
666	0.0112057
678	0.0145165
690	0.016936
702	0.0189734
714	0.0425309
726	0.072328
738	0.0486431
750	0.0669798
762	0.0519539
774	0.0471151
786	0.0528453
798	0.0519539
810	0.126065
822	0.151405
834	0.0438043
846	0.0292877
858	0.0202467
870	0.018846
882	0.0253403
894	0.0213928
906	0.0196101
918	0.0146439
930	0.0157899
942	0.0226662
954	0.0245762
966	0.0234302
978	0.0234302
990	0.0570474
1002	0.0323439
1014	0.0140072
1026	0.0132432
1038	0.0137525
1050	0.0133705
1062	0.0210108
1074	0.0407482
1086	0.0203741
1098	0.0191007
1110	0.0207561
1122	0.0189734
1134	0.0185913
1146	0.0151532
1158	0.0162993
1170	0.0164266
1182	0.0197374
1194	0.0221568
1206	0.0227935
1218	0.0527179
1230	0.0347633
1242	0.0231755
1254	0.0240669
1266	0.0235575
1278	0.0231755
1290	0.0294151
1302	0.0351453
1314	0.0389654
1326	0.0496618
1338	0.0516992
1350	0.0567927
1362	0.0574294
1374	0.0678712
1386	0.0933388
1398	0.0562834
1410	0.141345
1422	0.107601
1434	0.0443136
1446	0.0737287
1458	0.131158
1470	0.148094
1482	0.0676165
1494	0.0501712
1506	0.0239395
1518	0.0208834
1530	0.0243216
1542	0.0320892
1554	0.0901553
1566	0.0934661
1578	0.0832791
1590	0.324712
1602	0.357565
1614	0.0547553
1626	0.0276323
1638	0.0179547
1650	0.0106964
1662	0.0124791
1674	0.0171906
1686	0.0124791
1698	0.0108237
1710	0.0155352
1722	0.0137525
1734	0.0138798
1746	0.0117151
1758	0.0124791
1770	0.0146439
1782	0.0134978
1794	0.0122244
1806	0.00840431
1818	0.00662158
1830	0.00764028
1842	0.00993236
1854	0.00458417
1866	0.0036928
1878	0.0036928
1890	0.00394748
1902	0.00509352
1914	0.00776762
1926	0.0212654
1938	0.0124791
1950	0.0063669
1962	0.00522086
1974	0.00343813
1986	0.00318345
1998	0.00254676
2010	0.00229208
2022	0.00343813
2034	0.00343813
2046	0.00280144
2058	0.00318345
2070	0.00305611
2082	0.00216475
2094	0.00191007
2106	0.00216475
2118	0.00229208
2130	0.00203741
2142	0.0026741
2154	0.00331079
2166	0.00292877
2178	0.0026741
2190	0.00216475
2202	0.0026741
2214	0.00254676
2226	0.00241942
2238	0.00216475
2250	0.0026741
2262	0.0026741
2274	0.00280144
2286	0.00407482
2298	0.00700359
2310	0.00878632
2322	0.00789496
2334	0.00560287
2346	0.0109511
2358	0.0063669
2370	0.00725827
2382	0.00687625
2394	0.00573021
2406	0.00611222
2418	0.00598489
2430	0.00560287
2442	0.00522086
2454	0.00483884
2466	0.00394748
2478	0.00394748
2490	0.00394748
2502	0.00407482
2514	0.00420215
2526	0.00547553
2538	0.00585755
2550	0.0063669
2562	0.00687625
2574	0.00713093
2586	0.00802229
2598	0.00789496
2610	0.00942301
2622	0.00929567
2634	0.0100597
2646	0.0106964
2658	0.0124791
2670	0.0140072
2682	0.0136252
2694	0.0132432
2706	0.0127338
2718	0.0132432
2730	0.0161719
2742	0.0207561
2754	0.019228
2766	0.0185913
2778	0.0210108
2790	0.0262316
2802	0.0329805
2814	0.0402388
2826	0.0505532
2838	0.0695265
2850	0.123645
2862	0.357056
2874	0.469877
2886	0.4439
2898	0.297334
2910	0.351453
2922	0.646877
2934	1.22626
2946	0.960893
2958	0.566399
2970	0.985469
2982	0.36164
2994	0.181329
3006	0.117406
3018	0.141727
3030	0.194572
3042	0.105818
3054	0.0921927
3066	0.177637
3078	0.144274
3090	0.045587
3102	0.0351453
3114	0.0240669
3126	0.0161719
3138	0.0132432
3150	0.0126065
3162	0.0112057
3174	0.0105691
3186	0.00967769
3198	0.00955035
3210	0.00789496
3222	0.00674891
3234	0.00611222
3246	0.00573021
3258	0.00509352
3270	0.00483884
3282	0.00471151
3294	0.00509352
3306	0.00509352
3318	0.00496618
3330	0.00458417
3342	0.00445683
3354	0.00573021
3366	0.0053482
3378	0.0053482
3390	0.00547553
3402	0.0063669
3414	0.00585755
3426	0.00509352
3438	0.00547553
3450	0.00509352
3462	0.0053482
3474	0.00509352
3486	0.00522086
3498	0.00458417
3510	0.00560287
3522	0.00623956
3534	0.00560287
3546	0.00713093
3558	0.0053482
3570	0.00827697
3582	0.00725827
3594	0.00687625
3606	0.00674891
3618	0.00560287
3630	0.00764028
3642	0.0063669
3654	0.00458417
3666	0.00827697
3678	0.00254676
3690	0.00585755
3702	0.00916834
3714	0.0053482
3726	0.00700359
3738	0.0053482
3750	0.00814963
3762	0.00725827
3774	0.00713093
3786	0.0063669
3798	0.00776762
3810	0.0103144
3822	0.00432949
3834	0.00814963
3846	0.0114604
3858	0.00292877
3870	0.00751294
3882	0.00840431
3894	0.00560287
3906	0.00496618
3918	0.00955035
3930	0.00865898
3942	0.00916834
3954	0.00687625
3966	0.00687625
