Infrared Spectrum: Isothiocyanic acid, 1,4-cyclo-hexylene-, dimethylene ester
Formula: C 10 H 14 N 2 S 2
CAS: 29647-03-8
Origin: Sadtler Research Labs Under US-EPA Contract
1/CM	ABSORBANCE
450	0.0178843
462	0.0117366
474	0.00871861
486	0.0097246
498	0.0184432
510	0.0201199
522	0.0207905
534	0.0220201
546	0.0178843
558	0.0193374
570	0.0247027
582	0.0293974
594	0.0273854
606	0.0176608
618	0.0230261
630	0.0212376
642	0.0181079
654	0.0178843
666	0.029062
678	0.041581
690	0.0508585
702	0.0487348
714	0.0338684
726	0.019561
738	0.00637129
750	0.000223554
762	0.00122955
774	0.00637129
786	0.00782439
798	0.00849505
810	0.0116248
822	0.0111777
834	0.00905394
846	0.00726551
858	0.00938927
870	0.00860683
882	0.0108424
894	0.0118484
906	0.0182197
918	0.0207905
930	0.03208
942	0.0328624
954	0.019561
966	0.0143075
978	0.0118484
990	0.0111777
1002	0.0131897
1014	0.020567
1026	0.0236967
1038	0.0217965
1050	0.0171019
1062	0.021573
1074	0.026044
1086	0.0316329
1098	0.0278325
1110	0.022579
1122	0.022579
1134	0.0232496
1146	0.0163194
1158	0.0144192
1170	0.0130779
1182	0.0122955
1194	0.0126308
1206	0.0194492
1218	0.0224672
1230	0.0162077
1242	0.0153134
1254	0.0213494
1266	0.0348744
1278	0.0410222
1290	0.062148
1302	0.0475052
1314	0.0562238
1326	0.0898687
1338	0.148216
1350	0.169677
1362	0.123514
1374	0.0649424
1386	0.0395691
1398	0.0167665
1410	0.0164312
1422	0.0228025
1434	0.0403515
1446	0.0960164
1458	0.13648
1470	0.0334213
1482	0.0128544
1494	0.00771261
1506	0.00603596
1518	0.0148663
1530	0.0153134
1542	0.015537
1554	0.0029062
1566	0.00312976
1578	0.00357686
1590	0.00335331
1602	0.0029062
1614	0.00502996
1626	0.00637129
1638	0.00905394
1650	0.0107306
1662	0.0127426
1674	0.0149781
1686	0.0156488
1698	0.0168783
1710	0.0172137
1722	0.0179961
1734	0.0203434
1746	0.0221318
1758	0.0240321
1770	0.0247027
1782	0.026044
1794	0.0271618
1806	0.0295091
1818	0.031074
1830	0.0317447
1842	0.0337567
1854	0.0358804
1866	0.0387866
1878	0.0428106
1890	0.0475052
1902	0.0534294
1914	0.0618127
1926	0.0715373
1938	0.0841681
1950	0.101494
1962	0.125414
1974	0.158835
1986	0.208352
1998	0.28056
2010	0.387419
2022	0.54156
2034	0.751253
2046	0.979278
2058	1.10782
2070	1.09787
2082	0.925737
2094	0.687317
2106	0.525352
2118	0.412234
2130	0.337343
2142	0.290732
2154	0.259993
2166	0.241327
2178	0.221207
2190	0.192815
2202	0.1604
2214	0.124296
2226	0.0878567
2238	0.0592418
2250	0.0409104
2262	0.0311858
2274	0.0236967
2286	0.0158723
2298	0.0148663
2310	0.0156488
2322	0.0138603
2334	0.00905394
2346	0.0068184
2358	0.0103953
2370	0.00592418
2382	0.00592418
2394	0.000223554
2406	0.000335331
2418	0.0014531
2430	0.00190021
2442	0.00223554
2454	0.00257087
2466	0.0029062
2478	0.00324153
2490	0.0043593
2502	0.0053653
2514	0.00659484
2526	0.00771261
2538	0.00894216
2550	0.00916571
2562	0.0101717
2574	0.0110659
2586	0.0112895
2598	0.0107306
2610	0.0102835
2622	0.0100599
2634	0.010507
2646	0.0109541
2658	0.012519
2670	0.013525
2682	0.0138603
2694	0.0148663
2706	0.0159841
2718	0.017549
2730	0.0198963
2742	0.0213494
2754	0.0244792
2766	0.0267147
2778	0.0285031
2790	0.0288385
2802	0.0286149
2814	0.0287267
2826	0.0318564
2838	0.0422517
2850	0.0769026
2862	0.121949
2874	0.127985
2886	0.107529
2898	0.0998169
2910	0.128879
2922	0.196616
2934	0.319459
2946	0.241438
2958	0.100935
2970	0.0264911
2982	0.0108424
2994	0.0058124
3006	0.00368864
3018	0.00335331
3030	0.00301798
3042	0.00234732
3054	0.00268265
3066	0.00223554
3078	0.00201199
3090	0.00268265
3102	0.00257087
3114	0.00312976
3126	0.0029062
3138	0.00324153
3150	0.00346509
3162	0.00279443
3174	0.00268265
3186	0.00178843
3198	0.00234732
3210	0.00178843
3222	0.00212376
3234	0.00201199
3246	0.00167665
3258	0.0014531
3270	0.00156488
3282	0.00178843
3294	0.00234732
3306	0.00190021
3318	0.0014531
3330	0.00190021
3342	0.00245909
3354	0.00312976
3366	0.00335331
3378	0.00268265
3390	0.00324153
3402	0.00346509
3414	0.00346509
3426	0.00335331
3438	0.00234732
3450	0.00301798
3462	0.00301798
3474	0.00301798
3486	0.00268265
3498	0.00201199
3510	0.00268265
3522	0.00257087
3534	0.00257087
3546	0.0029062
3558	0.00268265
3570	0.00134132
3582	0.000558885
3594	0.0014531
3606	0.00122955
3618	0.00111777
3630	0.00190021
3642	0.00122955
3654	0.000782439
3666	0.000894216
3678	0.000894216
3690	0.000894216
3702	0.00156488
3714	0.0014531
3726	0.00190021
3738	0.000894216
3750	0.00178843
3762	0.000670662
3774	0.000894216
3786	0.00134132
3798	0.00223554
3810	0.000447108
3822	0.00167665
3834	0.00100599
3846	0.00100599
3858	0
3870	0.00279443
3882	0.00357686
3894	0.000782439
3906	0.000111777
3918	0.00178843
3930	0.000670662
3942	0.00245909
3954	0.0029062
3966	0.00368864
