Infrared Spectrum: Butyric acid, 2-(p-methoxyphenyl)-
Formula: C 11 H 14 O 3
CAS: 29644-99-3
Origin: Sadtler Research Labs Under US-EPA Contract
1/CM	ABSORBANCE
450	0.021738
462	0.0109533
474	0.0144078
486	0.024013
498	0.0397688
510	0.0711121
522	0.083919
534	0.0820653
546	0.102961
558	0.0988323
570	0.0866152
582	0.0822339
594	0.0888901
606	0.095462
618	0.0893114
630	0.0815598
642	0.0596532
654	0.0372412
666	0.0307534
678	0.0277202
690	0.0365671
702	0.0463408
714	0.0374097
726	0.0389263
738	0.0425493
750	0.0400216
762	0.0194631
774	0.0182836
786	0.0294896
798	0.0535868
810	0.101613
822	0.12234
834	0.12689
846	0.077347
858	0.0386735
870	0.0187891
882	0.0145763
894	0.0097737
906	0.00615069
918	0.00370726
930	0.00429706
942	0.00522387
954	0.00859411
966	0.0185363
978	0.0356403
990	0.0413697
1002	0.0575468
1014	0.0926816
1026	0.174241
1038	0.250325
1050	0.208197
1062	0.118043
1074	0.0992536
1086	0.12689
1098	0.225553
1110	0.396762
1122	0.557943
1134	0.330789
1146	0.22311
1158	0.192019
1170	0.310568
1182	0.291694
1194	0.155958
1206	0.146774
1218	0.175252
1230	0.280067
1242	0.677924
1254	0.713564
1266	0.306102
1278	0.207186
1290	0.192441
1302	0.168259
1314	0.0832449
1326	0.073387
1338	0.0794534
1350	0.0925131
1362	0.0936927
1374	0.105236
1386	0.111639
1398	0.0758304
1410	0.05662
1422	0.0612541
1434	0.0706908
1446	0.116273
1458	0.118548
1470	0.121076
1482	0.0716176
1494	0.0990851
1506	0.427599
1518	0.59055
1530	0.0692584
1542	0.0187891
1554	0.0154188
1566	0.0194631
1578	0.0426335
1590	0.0614226
1602	0.107595
1614	0.161182
1626	0.062855
1638	0.0259508
1650	0.0147448
1662	0.0152503
1674	0.0170197
1686	0.0299109
1698	0.0492898
1710	0.0858569
1722	0.114588
1734	0.148375
1746	0.219655
1758	0.313011
1770	0.524325
1782	0.599566
1794	0.314191
1806	0.169692
1818	0.0763359
1830	0.0294053
1842	0.0151661
1854	0.0118801
1866	0.010869
1878	0.0133967
1890	0.00800432
1902	0.00589792
1914	0.00337024
1926	0.00303322
1938	0.00463408
1950	0.0049711
1962	0.00480259
1974	0.00488685
1986	0.00564515
1998	0.00530813
2010	0.00522387
2022	0.00539238
2034	0.00623494
2046	0.00792006
2058	0.00968944
2070	0.0100265
2082	0.00926816
2094	0.00505536
2106	0.0021064
2118	0.00109533
2130	0.00042128
2142	0
2154	0
2166	0.000505536
2178	0.00101107
2190	0.00143235
2202	0.00235917
2214	0.00362301
2226	0.00480259
2238	0.00657197
2250	0.010195
2262	0.014155
2274	0.0169355
2286	0.0198844
2298	0.0145763
2310	0.00909965
2322	0.00606643
2334	0.00665622
2346	0.0097737
2358	0.0104477
2370	0.0101107
2382	0.00867837
2394	0.00598218
2406	0.00657197
2418	0.00741453
2430	0.00623494
2442	0.00564515
2454	0.00640346
2466	0.00758304
2478	0.00859411
2490	0.00952093
2502	0.00943667
2514	0.00935242
2526	0.0102792
2538	0.0110375
2550	0.0117116
2562	0.00985795
2574	0.00901539
2586	0.00943667
2598	0.0101107
2610	0.0100265
2622	0.00968944
2634	0.0104477
2646	0.0107848
2658	0.0103635
2670	0.010195
2682	0.010195
2694	0.0107848
2706	0.011206
2718	0.0117958
2730	0.0127227
2742	0.0129754
2754	0.0144078
2766	0.0149976
2778	0.0165142
2790	0.0190419
2802	0.0238444
2814	0.0315117
2826	0.0466778
2838	0.094451
2850	0.11442
2862	0.0974842
2874	0.0962204
2886	0.0866994
2898	0.0940297
2910	0.135568
2922	0.195137
2934	0.230946
2946	0.272905
2958	0.251083
2970	0.161772
2982	0.108522
2994	0.110965
3006	0.162361
3018	0.103466
3030	0.102118
3042	0.0964731
3054	0.0551877
3066	0.0569571
3078	0.0583894
3090	0.0455825
3102	0.0442344
3114	0.0360616
3126	0.0307534
3138	0.0268777
3150	0.0238444
3162	0.0220751
3174	0.021738
3186	0.0208112
3198	0.0204742
3210	0.0198844
3222	0.0187048
3234	0.0189576
3246	0.0181993
3258	0.0180308
3270	0.0176938
3282	0.0164299
3294	0.0165984
3306	0.0155874
3318	0.0149133
3330	0.0145763
3342	0.0142393
3354	0.0132282
3366	0.0123856
3378	0.0120486
3390	0.0121329
3402	0.0116273
3414	0.0117958
3426	0.0109533
3438	0.0109533
3450	0.0106163
3462	0.0100265
3474	0.00935242
3486	0.00985795
3498	0.0100265
3510	0.0100265
3522	0.0116273
3534	0.0130597
3546	0.0194631
3558	0.0347977
3570	0.172978
3582	0.208281
3594	0.0379152
3606	0.0126384
3618	0.0106163
3630	0.0114588
3642	0.00682474
3654	0.00909965
3666	0.00379152
3678	0.0063192
3690	0.00615069
3702	0.00438131
3714	0.00699325
3726	0.00758304
3738	0.00909965
3750	0.00800432
3762	0.00387578
3774	0.00429706
3786	0.00303322
3798	0.00463408
3810	0.00320173
3822	0.00564515
3834	0.00404429
3846	0.00202214
3858	0.00547664
3870	0.00606643
3882	0.00564515
3894	0.00488685
3906	0.00665622
3918	0.00429706
3930	0.00396003
3942	0.00404429
3954	0.00379152
3966	0.00471834
