Infrared Spectrum: Benzyl alcohol, m-methoxy-.alpha.-undecyl
Formula: C 19 H 32 O 2
CAS: 29665-46-1
Origin: Sadtler Research Labs Under US-EPA Contract
1/CM	ABSORBANCE
450	0
462	0.0186046
474	0.0156426
486	0.00842296
498	0.00842296
510	0.0111998
522	0.0127733
534	0.0136063
546	0.014717
558	0.0166608
570	0.0136989
582	0.00721968
594	0.00472056
606	0.0055536
618	0.00610896
630	0.0055536
642	0.00573872
654	0.00296192
666	0.004628
678	0.0148096
690	0.0504452
702	0.104408
714	0.0443362
726	0.0432255
738	0.0451693
750	0.0464651
762	0.0480386
774	0.08099
786	0.110887
798	0.0411892
810	0.0209186
822	0.0172162
834	0.0189748
846	0.0323034
858	0.0520187
870	0.0592384
882	0.0561839
894	0.0322109
906	0.0237879
918	0.0217516
930	0.0224921
942	0.0219367
954	0.0257317
966	0.0343398
978	0.040171
990	0.0566467
1002	0.0747885
1014	0.0985764
1026	0.133194
1038	0.182713
1050	0.194561
1062	0.119125
1074	0.0762694
1086	0.0571095
1098	0.0404487
1110	0.0384124
1122	0.044799
1134	0.0503526
1146	0.100705
1158	0.123382
1170	0.0785834
1182	0.0577574
1194	0.0562765
1206	0.05785
1218	0.0706233
1230	0.110517
1242	0.180862
1254	0.282956
1266	0.297025
1278	0.215572
1290	0.177067
1302	0.121531
1314	0.11607
1326	0.0877469
1338	0.077843
1350	0.0850626
1362	0.0829338
1374	0.0769174
1386	0.0636813
1398	0.0490568
1410	0.0507229
1422	0.0858031
1434	0.159111
1446	0.158185
1458	0.209371
1470	0.187064
1482	0.190026
1494	0.140414
1506	0.044799
1518	0.0247135
1530	0.0196227
1542	0.0211962
1554	0.0258242
1566	0.0463726
1578	0.121716
1590	0.183361
1602	0.21946
1614	0.105241
1626	0.0298043
1638	0.0154575
1650	0.0112923
1662	0.0101816
1674	0.013884
1686	0.0261019
1698	0.0261019
1710	0.0154575
1722	0.0109221
1734	0.01157
1746	0.00944112
1758	0.00851552
1770	0.00796016
1782	0.00675688
1794	0.00675688
1806	0.00629408
1818	0.00703456
1830	0.00768248
1842	0.00805272
1854	0.0064792
1866	0.0050908
1878	0.00444288
1890	0.004628
1902	0.00546104
1914	0.00749736
1926	0.00777504
1938	0.0050908
1950	0.0041652
1962	0.00398008
1974	0.00444288
1986	0.00435032
1998	0.00490568
2010	0.0050908
2022	0.00583128
2034	0.00638664
2046	0.00638664
2058	0.00583128
2070	0.00592384
2082	0.00610896
2094	0.00573872
2106	0.00490568
2118	0.00425776
2130	0.00379496
2142	0.00388752
2154	0.0041652
2166	0.00398008
2178	0.00425776
2190	0.00435032
2202	0.00425776
2214	0.00360984
2226	0.00333216
2238	0.00314704
2250	0.00305448
2262	0.00314704
2274	0.00342472
2286	0.00388752
2298	0.00481312
2310	0.00546104
2322	0.00657176
2334	0.00536848
2346	0.00638664
2358	0.00518336
2370	0.00583128
2382	0.00583128
2394	0.00472056
2406	0.00499824
2418	0.00518336
2430	0.0050908
2442	0.00453544
2454	0.00490568
2466	0.00481312
2478	0.00499824
2490	0.0055536
2502	0.00620152
2514	0.00675688
2526	0.00749736
2538	0.00777504
2550	0.00768248
2562	0.00814528
2574	0.00888576
2586	0.00953368
2598	0.0101816
2610	0.0105518
2622	0.0111072
2634	0.0117551
2646	0.0127733
2658	0.0136063
2670	0.0148096
2682	0.0155501
2694	0.0149947
2706	0.0146245
2718	0.0157352
2730	0.0172162
2742	0.0183269
2754	0.019345
2766	0.0212888
2778	0.0253614
2790	0.0320258
2802	0.0415594
2814	0.0564616
2826	0.0872841
2838	0.163091
2850	0.299432
2862	0.435217
2874	0.3272
2886	0.27009
2898	0.308873
2910	0.443825
2922	0.689479
2934	0.9256
2946	0.632555
2958	0.396527
2970	0.28564
2982	0.141617
2994	0.102649
3006	0.103112
3018	0.0688646
3030	0.0581277
3042	0.0522038
3054	0.0489642
3066	0.0469279
3078	0.0460023
3090	0.0317481
3102	0.0214739
3114	0.0150873
3126	0.0108295
3138	0.0087932
3150	0.00814528
3162	0.00721968
3174	0.00629408
3186	0.00564616
3198	0.00472056
3210	0.0041652
3222	0.0037024
3234	0.00351728
3246	0.00333216
3258	0.0032396
3270	0.0032396
3282	0.00342472
3294	0.00305448
3306	0.00351728
3318	0.00388752
3330	0.00425776
3342	0.004628
3354	0.00546104
3366	0.00573872
3378	0.00620152
3390	0.00731224
3402	0.00805272
3414	0.0087932
3426	0.00981136
3438	0.010737
3450	0.0121254
3462	0.0140691
3474	0.0159203
3486	0.0174938
3498	0.0195302
3510	0.0209186
3522	0.021659
3534	0.0229549
3546	0.0236028
3558	0.0241582
3570	0.0260094
3582	0.026287
3594	0.0265647
3606	0.0273978
3618	0.0310076
3630	0.0273978
3642	0.0279531
3654	0.020826
3666	0.00944112
3678	0.0060164
3690	0.0050908
3702	0.00425776
3714	0.00360984
3726	0.00388752
3738	0.00472056
3750	0.00305448
3762	0.00351728
3774	0.00360984
3786	0.00333216
3798	0.00398008
3810	0.00351728
3822	0.00388752
3834	0.00453544
3846	0.00444288
3858	0.004628
3870	0.0037024
3882	0.00407264
3894	0.00407264
3906	0.00360984
3918	0.0037024
3930	0.0037024
3942	0.00425776
3954	0.00296192
3966	0.00379496
