Infrared Spectrum: 2,6-Dichloro-3-nitrotoluene
Formula: C 7 H 5 Cl 2 N O 2
CAS: 29682-46-0
Origin: Sadtler Research Labs Under US-EPA Contract
1/CM	ABSORBANCE
450	0.00883128
462	0.0143598
474	0.0152214
486	0.00610291
498	0.00753889
510	0.00674911
522	0.0069645
534	0.00976466
546	0.0179498
558	0.0654089
570	0.0326685
582	0.0183805
594	0.0215397
606	0.0172318
618	0.0165138
630	0.00875948
642	0.00208217
654	0.00186677
666	0.00337455
678	0.00172318
690	0.00136418
702	0.00552852
714	0.00416434
726	0.00423614
738	0.0165856
750	0.0346789
762	0.0319506
774	0.0715118
786	0.0694296
798	0.122417
810	0.240311
822	0.155445
834	0.039633
846	0.00552852
858	0.00452334
870	0.00581572
882	0.00617471
894	0.00624651
906	0.00962107
918	0.0737376
930	0.190842
942	0.0379099
954	0.0216833
966	0.0134982
978	0.0223295
990	0.0427204
1002	0.0734504
1014	0.0770403
1026	0.0448744
1038	0.0345353
1050	0.0324531
1062	0.0308018
1074	0.0327403
1086	0.0516953
1098	0.175261
1110	0.111288
1122	0.0148624
1134	0.00825688
1146	0.00911847
1158	0.00524133
1170	0.00416434
1182	0.00897488
1194	0.0315198
1206	0.0213243
1218	0.0117032
1230	0.0113442
1242	0.0152214
1254	0.031448
1266	0.0558596
1278	0.0282888
1290	0.0213243
1302	0.0277862
1314	0.0411408
1326	0.0708656
1338	0.14489
1350	0.354974
1362	0.514799
1374	0.195293
1386	0.106622
1398	0.12572
1410	0.0888154
1422	0.0597368
1434	0.119976
1446	0.159394
1458	0.0661269
1470	0.0472437
1482	0.045736
1494	0.0468847
1506	0.0700758
1518	0.127659
1530	0.208361
1542	0.455493
1554	0.71799
1566	0.546965
1578	0.357056
1590	0.271975
1602	0.126582
1614	0.0443718
1626	0.028935
1638	0.0244117
1650	0.0158676
1662	0.00890308
1674	0.00574392
1686	0.00538492
1698	0.00437974
1710	0.00603112
1722	0.00653371
1734	0.00674911
1746	0.00617471
1758	0.00861588
1770	0.0071799
1782	0.00394894
1794	0.00208217
1806	0.00258476
1818	0.00186677
1830	0.00143598
1842	0.00215397
1854	0.00222577
1866	0.00567212
1878	0.0107698
1890	0.0070363
1902	0.00244117
1914	0.00136418
1926	0.000789789
1938	0.000502593
1950	0.00100519
1962	0.000502593
1974	0.000933387
1986	0.00107698
1998	0.000574392
2010	0.000861588
2022	0.000430794
2034	0.000143598
2046	0.000933387
2058	0.00107698
2070	0.00107698
2082	0.00114878
2094	0.000789789
2106	0.000789789
2118	0.000933387
2130	0.00100519
2142	0.000933387
2154	0.000789789
2166	0.00114878
2178	0.00136418
2190	0.00100519
2202	0.000861588
2214	0.000646191
2226	0.000502593
2238	0.000358995
2250	0.000502593
2262	0.000789789
2274	0.00165138
2286	0.00294376
2298	0.00387715
2310	0.00516953
2322	0.00595932
2334	0.00610291
2346	0.00847228
2358	0.00660551
2370	0.00495413
2382	0.00416434
2394	0.00114878
2406	0.000933387
2418	0.000287196
2430	0.000358995
2442	0.000430794
2454	0.00100519
2466	0.00172318
2478	0.00236937
2490	0.00165138
2502	0.00157958
2514	0.00150778
2526	0.00229757
2538	0.00201037
2550	0.00186677
2562	0.00172318
2574	0.00150778
2586	0.00215397
2598	0.00186677
2610	0.00129238
2622	0.00150778
2634	0.00143598
2646	0.00215397
2658	0.00272836
2670	0.00280016
2682	0.00265656
2694	0.00344635
2706	0.00423614
2718	0.00430794
2730	0.00330275
2742	0.00315916
2754	0.00358995
2766	0.00265656
2778	0.00222577
2790	0.00294376
2802	0.00280016
2814	0.00280016
2826	0.00315916
2838	0.00380535
2850	0.00524133
2862	0.00832868
2874	0.0119186
2886	0.0130674
2898	0.015365
2910	0.0162266
2922	0.015006
2934	0.0187395
2946	0.0258476
2958	0.0205345
2970	0.0131392
2982	0.00753889
2994	0.00488233
3006	0.00473873
3018	0.00416434
3030	0.00552852
3042	0.00639011
3054	0.00631831
3066	0.00617471
3078	0.0069645
3090	0.00761069
3102	0.00466693
3114	0.00251296
3126	0.00208217
3138	0.00287196
3150	0.00236937
3162	0.00143598
3174	0.00143598
3186	0.00107698
3198	0.00165138
3210	0.00122058
3222	0.00114878
3234	0.000933387
3246	0.000646191
3258	0.000287196
3270	0.00114878
3282	0.00100519
3294	0.000789789
3306	0.000861588
3318	0.00107698
3330	0.000933387
3342	0.00114878
3354	0.000933387
3366	0.00071799
3378	0.00100519
3390	0.00114878
3402	0.00107698
3414	0.00186677
3426	0.00179497
3438	0.00129238
3450	0.00107698
3462	0.00157958
3474	0.000861588
3486	0.00150778
3498	0.00129238
3510	0.00129238
3522	0.00143598
3534	0.00071799
3546	0.00236937
3558	0.00150778
3570	0.00193857
3582	0.00071799
3594	0.00208217
3606	0.00165138
3618	0.00157958
3630	0.00179497
3642	0.00114878
3654	0.00143598
3666	0.000861588
3678	0.00136418
3690	0.00150778
3702	0.00129238
3714	0.00186677
3726	0.00344635
3738	0.00301556
3750	0.000430794
3762	0.000789789
3774	0.00136418
3786	0.00208217
3798	0.00150778
3810	0.000430794
3822	0.00215397
3834	0.00157958
3846	0.00143598
3858	0.00186677
3870	0.00229757
3882	0.00157958
3894	0.00251296
3906	0.00100519
3918	0.00179497
3930	0.00236937
3942	0.00100519
3954	0.00143598
3966	0.00143598
