Infrared Spectrum: Ethyl 4-bromobutyrate
Formula: C 6 H 11 Br O 2
CAS: 2969-81-5
Origin: Sadtler Research Labs Under US-EPA Contract
1/CM	ABSORBANCE
450	0.0240549
462	0.0106739
474	0.0102872
486	0.0116794
498	0.00897225
510	0.00386735
522	0.00595572
534	0.00371266
546	0.00835348
558	0.0302427
570	0.0438557
582	0.0199555
594	0.0116794
606	0.013381
618	0.0120661
630	0.0102872
642	0.0100551
654	0.0166296
666	0.0164749
678	0.00618776
690	0.00371266
702	0.000928164
714	0.00162429
726	0.00255245
738	0.00270715
750	0.00595572
762	0.0114474
774	0.0255245
786	0.0333366
798	0.0321764
810	0.0205743
822	0.013381
834	0.0121435
846	0.0286184
858	0.0444745
870	0.0407619
882	0.0307841
894	0.0159335
906	0.0167843
918	0.0185633
930	0.0208063
942	0.0218892
954	0.0218119
966	0.0290825
978	0.035889
990	0.0293145
1002	0.0331819
1014	0.0563086
1026	0.118805
1038	0.211003
1050	0.173489
1062	0.120661
1074	0.0803635
1086	0.0839988
1098	0.114938
1110	0.133346
1122	0.200638
1134	0.319443
1146	0.301653
1158	0.34226
1170	0.437629
1182	0.478933
1194	0.596964
1206	0.57902
1218	0.39826
1230	0.328879
1242	0.279068
1254	0.27056
1266	0.228174
1278	0.189964
1290	0.187799
1302	0.179522
1314	0.178053
1326	0.105733
1338	0.0902639
1350	0.12623
1362	0.121512
1374	0.199633
1386	0.147037
1398	0.0747172
1410	0.0543749
1422	0.0678333
1434	0.0942086
1446	0.113545
1458	0.0816784
1470	0.0685294
1482	0.043469
1494	0.0221986
1506	0.0141545
1518	0.0105192
1530	0.0090496
1542	0.00897225
1554	0.00727062
1566	0.00603307
1578	0.00672919
1590	0.00409939
1602	0.00379
1614	0.00479551
1626	0.00618776
1638	0.00796674
1650	0.00812143
1662	0.00866286
1674	0.0114474
1686	0.0157788
1698	0.0263753
1710	0.045016
1722	0.0771923
1734	0.198086
1746	0.560147
1758	0.759315
1770	0.377144
1782	0.121976
1794	0.0743305
1806	0.0891811
1818	0.097844
1830	0.0771923
1842	0.0333366
1854	0.0138451
1866	0.00990042
1878	0.00943633
1890	0.00858552
1902	0.00781205
1914	0.00750266
1926	0.00672919
1938	0.00703858
1950	0.0064198
1962	0.0064198
1974	0.00665184
1986	0.00680654
1998	0.00703858
2010	0.00696123
2022	0.00665184
2034	0.00549164
2046	0.00425409
2058	0.00340327
2070	0.00533694
2082	0.00502756
2094	0.00502756
2106	0.00549164
2118	0.00487286
2130	0.00464082
2142	0.00464082
2154	0.00425409
2166	0.00409939
2178	0.00363531
2190	0.00363531
2202	0.00379
2214	0.0039447
2226	0.00456347
2238	0.0051049
2250	0.00471817
2262	0.00448613
2274	0.00456347
2286	0.00456347
2298	0.00580103
2310	0.0064198
2322	0.0064198
2334	0.00564633
2346	0.0039447
2358	0.00587837
2370	0.000928164
2382	0.00224306
2394	0.00371266
2406	0.00371266
2418	0.00348062
2430	0.00324857
2442	0.00201102
2454	0.00193368
2466	0.00201102
2478	0.00255245
2490	0.00193368
2502	0.00185633
2514	0.00162429
2526	0.000928164
2538	0.000928164
2550	0.000154694
2562	0.000618776
2574	0.000696123
2586	0.000850817
2598	0.00208837
2610	0.00309388
2622	0.00309388
2634	0.00301653
2646	0.00363531
2658	0.00402204
2670	0.00177898
2682	0.00146959
2694	0.0024751
2706	0.000928164
2718	0.000928164
2730	0.00139225
2742	0.00177898
2754	0.00216572
2766	0.00216572
2778	0.00409939
2790	0.00479551
2802	0.00502756
2814	0.00479551
2826	0.00850817
2838	0.0122208
2850	0.0182539
2862	0.0271488
2874	0.0370492
2886	0.0508943
2898	0.0547617
2910	0.0745625
2922	0.0976893
2934	0.113545
2946	0.146805
2958	0.149821
2970	0.173103
2982	0.238925
2994	0.236372
3006	0.133424
3018	0.077115
3030	0.0365078
3042	0.0165523
3054	0.00951368
3066	0.00580103
3078	0.00448613
3090	0.00355796
3102	0.00448613
3114	0.00340327
3126	0.00317123
3138	0.00363531
3150	0.00348062
3162	0.00177898
3174	0.00239776
3186	0.00201102
3198	0.00278449
3210	0.00309388
3222	0.000464082
3234	0.00208837
3246	0.0013149
3258	0.000696123
3270	0.00177898
3282	0.000850817
3294	0.000850817
3306	0.0013149
3318	0.00193368
3330	0.00177898
3342	0.00255245
3354	0.00255245
3366	0.00317123
3378	0.00177898
3390	0.00201102
3402	0.0026298
3414	0.00185633
3426	0.00317123
3438	0.00379
3450	0.00355796
3462	0.00386735
3474	0.00672919
3486	0.00827613
3498	0.0105965
3510	0.00665184
3522	0.00386735
3534	0.00518225
3546	0.00216572
3558	0.00278449
3570	0.00355796
3582	0.00495021
3594	0.00355796
3606	0.00417674
3618	0.00456347
3630	0.00301653
3642	0.00533694
3654	0.00634245
3666	0.00487286
3678	0.00502756
3690	0.0039447
3702	0.00293919
3714	0.00216572
3726	0.00301653
3738	0.00100551
3750	7.7347e-05
3762	0.00162429
3774	0.00108286
3786	7.7347e-05
3798	0.0024751
3810	0.00100551
3822	0.000154694
3834	0.00386735
3846	0
3858	0.00139225
3870	7.7347e-05
3882	0.00379
3894	0.000464082
3906	0.00116021
3918	0.00317123
3930	7.7347e-05
3942	0.0026298
3954	0.00185633
3966	0.00216572
