Infrared Spectrum: 2-Methylmercaptoaniline
Formula: C 7 H 9 N S
CAS: 2987-53-3
Origin: Sadtler Research Labs Under US-EPA Contract
1/CM	ABSORBANCE
450	0.13221
462	0.0884803
474	0.0494859
486	0
498	0.0205185
510	0.0500429
522	0.0542209
534	0.0487431
546	0.0519926
558	0.0431725
570	0.0362092
582	0.0484646
594	0.0463292
606	0.0552422
618	0.0527354
630	0.051157
642	0.0426154
654	0.0402943
666	0.0425226
678	0.0602558
690	0.0457721
702	0.0376947
714	0.0559849
726	0.196644
738	0.499036
750	0.481025
762	0.184388
774	0.0651765
786	0.0480932
798	0.0458649
810	0.0457721
822	0.0469791
834	0.036302
846	0.0278532
858	0.0180117
870	0.0112341
882	0.00817027
894	0.00798458
906	0.00835596
918	0.0117912
930	0.0207971
942	0.019033
954	0.0336095
966	0.0920084
978	0.0757607
990	0.022004
1002	0.0151336
1014	0.0299886
1026	0.0613699
1038	0.0510642
1050	0.0260892
1062	0.0224682
1074	0.0356521
1086	0.0581203
1098	0.0485574
1110	0.0191259
1122	0.0140194
1134	0.0371376
1146	0.0770605
1158	0.0904301
1170	0.0368591
1182	0.00241394
1194	0.00297101
1206	0.00482789
1218	0.00631339
1230	0.0217255
1242	0.072604
1254	0.0893159
1266	0.0533853
1278	0.0877376
1290	0.248265
1302	0.320683
1314	0.206299
1326	0.0865306
1338	0.0177332
1350	0.0122554
1362	0.0136481
1374	0.02024
1386	0.0238609
1398	0.0229325
1410	0.0382517
1422	0.0732539
1434	0.142237
1446	0.280946
1458	0.274911
1470	0.353086
1482	0.491145
1494	0.248265
1506	0.0957222
1518	0.0555207
1530	0.0402943
1542	0.0443794
1554	0.0661978
1566	0.105192
1578	0.159599
1590	0.275654
1602	0.664485
1614	0.92844
1626	0.544252
1638	0.172133
1650	0.0694473
1662	0.0479075
1674	0.042244
1686	0.0320312
1698	0.0200543
1710	0.0166191
1722	0.0141123
1734	0.0110484
1746	0.0120697
1758	0.0174547
1770	0.0224682
1782	0.0200543
1794	0.0173618
1806	0.017269
1818	0.0135552
1830	0.0108627
1842	0.0127196
1854	0.016062
1866	0.0169905
1878	0.0193116
1890	0.0272961
1902	0.0242323
1914	0.022004
1926	0.0233038
1938	0.0129053
1950	0.00752036
1962	0.00789174
1974	0.00789174
1986	0.00817027
1998	0.00863449
2010	0.00854165
2022	0.00817027
2034	0.00770605
2046	0.00640624
2058	0.00640624
2070	0.00714899
2082	0.00603486
2094	0.0054778
2106	0.00705614
2118	0.0077989
2130	0.00807743
2142	0.0084488
2154	0.00761321
2166	0.00789174
2178	0.00687046
2190	0.00640624
2202	0.00538495
2214	0.00519926
2226	0.0046422
2238	0.00473504
2250	0.00519926
2262	0.00575633
2274	0.0069633
2286	0.00659192
2298	0.00510642
2310	0.00427082
2322	0.00510642
2334	0.0061277
2346	0.00659192
2358	0.00334238
2370	0.01012
2382	0.00724183
2394	0.00668477
2406	0.00733468
2418	0.00603486
2430	0.00575633
2442	0.00631339
2454	0.00668477
2466	0.00594202
2478	0.0038066
2490	0.00343523
2502	0.00324954
2514	0.00343523
2526	0.00594202
2538	0.00789174
2550	0.0077989
2562	0.00529211
2574	0.00427082
2586	0.00705614
2598	0.0110484
2610	0.011884
2622	0.00835596
2634	0.00510642
2646	0.0046422
2658	0.00334238
2670	0.00278532
2682	0.0038066
2694	0.00445651
2706	0.00436367
2718	0.00445651
2730	0.00538495
2742	0.00594202
2754	0.00538495
2766	0.00575633
2778	0.00529211
2790	0.00510642
2802	0.00631339
2814	0.00891302
2826	0.0168976
2838	0.0343523
2850	0.0469791
2862	0.0403871
2874	0.0371376
2886	0.0344451
2898	0.0300815
2910	0.0383446
2922	0.129703
2934	0.266277
2946	0.127475
2958	0.0314741
2970	0.0268319
2982	0.0470719
2994	0.0998073
3006	0.113177
3018	0.138616
3030	0.141958
3042	0.0901515
3054	0.113455
3066	0.216419
3078	0.259406
3090	0.130724
3102	0.039273
3114	0.0220969
3126	0.0194044
3138	0.0185688
3150	0.0168976
3162	0.0128125
3174	0.0112341
3186	0.0111413
3198	0.00789174
3210	0.00557064
3222	0.00501358
3234	0.00362092
3246	0.00399229
3258	0.00492073
3270	0.00343523
3282	0.00389945
3294	0.00557064
3306	0.00454936
3318	0.00427082
3330	0.00529211
3342	0.00705614
3354	0.014298
3366	0.0519926
3378	0.126546
3390	0.135738
3402	0.06072
3414	0.0252536
3426	0.0158763
3438	0.0145765
3450	0.018476
3462	0.0316598
3474	0.0790102
3486	0.163684
3498	0.143815
3510	0.0608128
3522	0.0246037
3534	0.0141123
3546	0.0107699
3558	0.00798458
3570	0.00454936
3582	0.0046422
3594	0.00427082
3606	0.00389945
3618	0.00389945
3630	0.00492073
3642	0.00519926
3654	0.00492073
3666	0.00362092
3678	0.00362092
3690	0.00538495
3702	0.00826312
3714	0.0054778
3726	0.00454936
3738	0.00724183
3750	0.0054778
3762	0.00343523
3774	0.00529211
3786	0.00436367
3798	0.00492073
3810	0.0061277
3822	0.00492073
3834	0.00454936
3846	0.0069633
3858	0.00705614
3870	0.00761321
3882	0.00566348
3894	0.00826312
3906	0.0111413
3918	0.00714899
3930	0.00417798
3942	0.00408514
3954	0.00352807
3966	0.00817027
