Infrared Spectrum: Cyclobutane, 1,1,2,2,3,4-hexafluoro-3,4-bis(trifluoromethyl)-
Formula: C 6 F 12
CAS: 2994-71-0
Origin: Sadtler Research Labs Under US-EPA Contract
1/CM	ABSORBANCE
450	0.00488716
462	0.00807878
474	0.00538585
486	0.00339109
498	0.00388978
510	0.00438847
522	0.0244358
534	0.0198479
546	0.0108714
558	0.00718114
570	0.00718114
582	0.00877694
594	0.010273
606	0.0272285
618	0.050268
630	0.0091759
642	0.0114699
654	0.0101733
666	0.0020945
678	0.00269293
690	0.00309188
702	0.00398952
714	0.00987406
726	0.0785935
738	0.0715121
750	0.0430868
762	0.00299214
774	0.00159581
786	0
798	0.00169555
810	0.00099738
822	0.00179528
834	0.00428873
846	0.0100735
858	0.0261314
870	0.0803888
882	0.199675
894	0.104924
906	0.207754
918	0.0649294
930	0.0118688
942	0.00837799
954	0.00887668
966	0.00538585
978	0.00568507
990	0.00987406
1002	0.0181523
1014	0.0204463
1026	0.0216431
1038	0.0450816
1050	0.0451813
1062	0.0683205
1074	0.0366038
1086	0.0213439
1098	0.0249345
1110	0.0184515
1122	0.0122678
1134	0.0104725
1146	0.010672
1158	0.0165565
1170	0.0383991
1182	0.149208
1194	0.248846
1206	0.282957
1218	0.454506
1230	0.233686
1242	0.324647
1254	0.913301
1266	0.7234
1278	0.377508
1290	0.394663
1302	0.3808
1314	0.233088
1326	0.205361
1338	0.198479
1350	0.177534
1362	0.0853757
1374	0.1143
1386	0.115098
1398	0.028924
1410	0.010672
1422	0.0070814
1434	0.00628349
1446	0.00588454
1458	0.00518638
1470	0.00528611
1482	0.00528611
1494	0.00458795
1506	0.00398952
1518	0.00349083
1530	0.00339109
1542	0.0028924
1554	0.00239371
1566	0.00229397
1578	0.00189502
1590	0.00219424
1602	0.00229397
1614	0.00189502
1626	0.00129659
1638	0.00139633
1650	0.00149607
1662	0.00129659
1674	0.00149607
1686	0.00149607
1698	0.00169555
1710	0.00129659
1722	0.00129659
1734	0.00149607
1746	0.00109712
1758	0.00119686
1770	0.00109712
1782	0.00119686
1794	0.00139633
1806	0.00149607
1818	0.00139633
1830	0.00149607
1842	0.00159581
1854	0.00109712
1866	0.000897642
1878	0.00119686
1890	0.00109712
1902	0.00119686
1914	0.00129659
1926	0.00129659
1938	0.00169555
1950	0.00169555
1962	0.00139633
1974	0.00119686
1986	0.00099738
1998	0.00139633
2010	0.00149607
2022	0.00099738
2034	0.000897642
2046	0.00109712
2058	0.00129659
2070	0.00169555
2082	0.00159581
2094	0.00119686
2106	0.00119686
2118	0.00149607
2130	0.00149607
2142	0.00119686
2154	0.00129659
2166	0.00109712
2178	0.000897642
2190	0.000797904
2202	0.00119686
2214	0.000897642
2226	0.00109712
2238	0.00139633
2250	0.00119686
2262	0.00169555
2274	0.00179528
2286	0.00249345
2298	0.00249345
2310	0.00259319
2322	0.0020945
2334	0.00139633
2346	0.00269293
2358	0.00139633
2370	0.00249345
2382	0.00309188
2394	0.00269293
2406	0.00319162
2418	0.00329135
2430	0.00359057
2442	0.00398952
2454	0.00359057
2466	0.00309188
2478	0.00269293
2490	0.00229397
2502	0.00189502
2514	0.00229397
2526	0.0020945
2538	0.00199476
2550	0.0020945
2562	0.00199476
2574	0.00189502
2586	0.00149607
2598	0.00139633
2610	0.00109712
2622	0.00099738
2634	0.00109712
2646	0.00149607
2658	0.00109712
2670	0.000698166
2682	0.00049869
2694	0.000398952
2706	0.000398952
2718	0.000299214
2730	0.000598428
2742	0
2754	0.000398952
2766	0.00049869
2778	0.00049869
2790	0.000398952
2802	0.000598428
2814	0.000598428
2826	0.000598428
2838	0.00049869
2850	0.000698166
2862	0.00049869
2874	0.000698166
2886	0.000797904
2898	0.000897642
2910	0.000797904
2922	0.000897642
2934	0.000199476
2946	0.000698166
2958	0.000598428
2970	0.00099738
2982	0.000797904
2994	0.000797904
3006	0.00049869
3018	0.00049869
3030	0.000398952
3042	0.000698166
3054	0.000698166
3066	0.000598428
3078	0.000797904
3090	0.00049869
3102	0.00129659
3114	0.00099738
3126	0.000698166
3138	0.000797904
3150	0.000797904
3162	0.000598428
3174	0.00099738
3186	0.000897642
3198	0.00049869
3210	0.000797904
3222	0.000698166
3234	0.00049869
3246	0.00099738
3258	0.000299214
3270	0.000797904
3282	0.000598428
3294	0.00049869
3306	0.00119686
3318	0.00119686
3330	0.00099738
3342	0.000797904
3354	0.00139633
3366	0.00109712
3378	0.00149607
3390	0.00129659
3402	0.00139633
3414	0.00119686
3426	0.00099738
3438	0.000797904
3450	0.00099738
3462	0.00139633
3474	0.00169555
3486	0.00119686
3498	0.00099738
3510	0.00119686
3522	0.00179528
3534	0.00099738
3546	0.00139633
3558	0.00149607
3570	0.00099738
3582	0.00159581
3594	0.000897642
3606	0.000598428
3618	0.00149607
3630	0.000897642
3642	0.000398952
3654	0.00139633
3666	0.00109712
3678	0.00099738
3690	0.000698166
3702	0.00109712
3714	0.00169555
3726	0.00119686
3738	0.00099738
3750	0.00229397
3762	0.00169555
3774	0.000598428
3786	0.00129659
3798	0.000299214
3810	0.00109712
3822	0.00119686
3834	0.00159581
3846	0.00149607
3858	0.00159581
3870	0.00179528
3882	0.00169555
3894	0.00119686
3906	0.00109712
3918	0.00169555
3930	0.00199476
3942	0.000897642
3954	0.000598428
3966	0.000598428
