Infrared Spectrum: Benzene, 2-propenyl-
Formula: C 9 H 10
CAS: 300-57-2
Origin: Sadtler Research Labs Under US-EPA Contract
1/CM	ABSORBANCE
450	0
462	0.0262392
474	0.0658782
486	0.103276
498	0.061256
510	0.0283869
522	0.0382383
534	0.0326356
546	0.0221306
558	0.0260992
570	0.0155474
582	0.0152673
594	0.012606
606	0.0167614
618	0.0287604
630	0.0401525
642	0.0778306
654	0.0835733
666	0.0548129
678	0.122652
690	0.310855
702	0.426878
714	0.267481
726	0.243997
738	0.395689
750	0.249973
762	0.0816124
774	0.0227375
786	0.0211034
798	0.0250253
810	0.025819
822	0.0391254
834	0.0248385
846	0.0245584
858	0.0262392
870	0.0360439
882	0.057941
894	0.115602
906	0.254969
918	0.351615
930	0.181433
942	0.0862346
954	0.0592017
966	0.0602755
978	0.0932846
990	0.186569
1002	0.155941
1014	0.0681193
1026	0.0921174
1038	0.0783908
1050	0.0364174
1062	0.0547195
1074	0.0606957
1086	0.045942
1098	0.0437009
1110	0.0435608
1122	0.0345032
1134	0.0225975
1146	0.0269862
1158	0.0414131
1170	0.04188
1182	0.0421135
1194	0.0444012
1206	0.036324
1218	0.0204965
1230	0.0214303
1242	0.0238581
1254	0.0241849
1266	0.0292273
1278	0.0406661
1290	0.0434208
1302	0.0356237
1314	0.0276399
1326	0.0226442
1338	0.0227842
1350	0.0202163
1362	0.0185355
1374	0.0204965
1386	0.0219438
1398	0.0281535
1410	0.0442612
1422	0.0624699
1434	0.0971131
1446	0.133484
1458	0.107058
1470	0.0611159
1482	0.0486499
1494	0.192826
1506	0.156548
1518	0.0283402
1530	0.0244183
1542	0.0236713
1554	0.0205432
1566	0.0238581
1578	0.0347833
1590	0.0635437
1602	0.141328
1614	0.115088
1626	0.0694732
1638	0.147164
1650	0.131243
1662	0.0379582
1674	0.0232511
1686	0.0207299
1698	0.0338495
1710	0.0569139
1722	0.043234
1734	0.0367909
1746	0.0389386
1758	0.0334293
1770	0.0233445
1782	0.0227842
1794	0.0388919
1806	0.039032
1818	0.0296942
1830	0.0476228
1842	0.0476228
1854	0.0313283
1866	0.0274998
1878	0.0251187
1890	0.0206365
1902	0.0159209
1914	0.0154541
1926	0.0214769
1938	0.0310482
1950	0.0362307
1962	0.0256789
1974	0.01396
1986	0.0131196
1998	0.0100848
2010	0.00877753
2022	0.00868415
2034	0.00817057
2046	0.00775037
2058	0.00751693
2070	0.00737686
2082	0.00775037
2094	0.00826395
2106	0.00882422
2118	0.00840402
2130	0.00784375
2142	0.00784375
2154	0.00686328
2166	0.00728348
2178	0.00784375
2190	0.00812389
2202	0.00854409
2214	0.00887091
2226	0.00877753
2238	0.00887091
2250	0.00887091
2262	0.00835733
2274	0.00817057
2286	0.00761031
2298	0.00686328
2310	0.00747024
2322	0.00803051
2334	0.0105517
2346	0.016668
2358	0.00733017
2370	0.0179286
2382	0.0137733
2394	0.00938449
2406	0.00947787
2418	0.00943118
2430	0.00831064
2442	0.0080772
2454	0.00826395
2466	0.00840402
2478	0.00887091
2490	0.00943118
2502	0.00938449
2514	0.00938449
2526	0.00961793
2538	0.00929111
2550	0.0093378
2562	0.00957125
2574	0.00980469
2586	0.0107852
2598	0.0104583
2610	0.0107852
2622	0.0101315
2634	0.0113921
2646	0.0104583
2658	0.00882422
2670	0.00924442
2682	0.00947787
2694	0.0107385
2706	0.0130729
2718	0.0148004
2730	0.0157342
2742	0.0154074
2754	0.0127461
2766	0.0119524
2778	0.0128395
2790	0.016061
2802	0.0191425
2814	0.0221306
2826	0.0330091
2838	0.0556066
2850	0.0730683
2862	0.067559
2874	0.0587815
2886	0.0669987
2898	0.107525
2910	0.184702
2922	0.209447
2934	0.15991
2946	0.102762
2958	0.0719011
2970	0.0682593
2982	0.114948
2994	0.140067
3006	0.141888
3018	0.225695
3030	0.355677
3042	0.395549
3054	0.230457
3066	0.334013
3078	0.439717
3090	0.376173
3102	0.239468
3114	0.101735
3126	0.043981
3138	0.0212902
3150	0.0158276
3162	0.0153607
3174	0.0141935
3186	0.0113921
3198	0.00957125
3210	0.00952456
3222	0.00994476
3234	0.00947787
3246	0.00882422
3258	0.00929111
3270	0.0105984
3282	0.00845071
3294	0.00733017
3306	0.00835733
3318	0.00952456
3330	0.00845071
3342	0.00905767
3354	0.00915104
3366	0.00863747
3378	0.00887091
3390	0.00905767
3402	0.00854409
3414	0.00989807
3426	0.010505
3438	0.00868415
3450	0.00929111
3462	0.0111587
3474	0.0093378
3486	0.00803051
3498	0.0120925
3510	0.00812389
3522	0.00901098
3534	0.0084974
3546	0.0127461
3558	0.0114388
3570	0.0100381
3582	0.0114388
3594	0.0114855
3606	0.009758
3618	0.0131663
3630	0.0123259
3642	0.0164345
3654	0.0173683
3666	0.0157342
3678	0.0132597
3690	0.0128862
3702	0.0129795
3714	0.015314
3726	0.014567
3738	0.0171816
3750	0.0115789
3762	0.0138199
3774	0.0131663
3786	0.0138199
3798	0.0143802
3810	0.0153607
3822	0.0165746
3834	0.0152206
3846	0.0136332
3858	0.0117656
3870	0.0140534
3882	0.0141001
3894	0.0171816
3906	0.0101315
3918	0.0157809
3930	0.0123259
3942	0.0146603
3954	0.017415
3966	0.012466
