Infrared Spectrum: Benzenamine, N-dodecyl-
Formula: C 18 H 31 N
CAS: 3007-74-7
Origin: Sadtler Research Labs Under US-EPA Contract
1/CM	ABSORBANCE
450	0.0507946
462	0.0133174
474	0.0181494
486	0.0230992
498	0.0318203
510	0.0220385
522	0.0188565
534	0.0113139
546	0.0130817
558	0.0167351
570	0.011196
582	0.00836756
594	0.00883898
606	0.00872112
618	0.0119032
630	0.0140245
642	0.0164994
654	0.0214492
666	0.0265169
678	0.0482019
690	0.116321
702	0.0664691
714	0.0516196
726	0.0602229
738	0.114435
750	0.153209
762	0.0579837
774	0.0278133
786	0.0123746
798	0.00789615
810	0.00695333
822	0.0077783
834	0.00742474
846	0.0057748
858	0.00707118
870	0.0154387
882	0.00365344
894	0.00388915
906	0.00271062
918	0.00153209
930	0.000589265
942	0.00176779
954	0.0020035
966	0.00153209
978	0.00424271
990	0.0119032
1002	0.0117853
1014	0.00412486
1026	0.0135531
1038	0.0148495
1050	0.0164994
1062	0.0260455
1074	0.0268705
1086	0.0284026
1098	0.0311132
1110	0.0243956
1122	0.0241599
1134	0.0262812
1146	0.0236885
1158	0.0247491
1170	0.0263991
1182	0.0436056
1194	0.0251027
1206	0.025692
1218	0.0279312
1230	0.0430163
1242	0.100057
1254	0.166408
1266	0.120681
1278	0.0928682
1290	0.0988787
1302	0.135649
1314	0.15863
1326	0.105478
1338	0.0539767
1350	0.0510303
1362	0.0518553
1374	0.0454913
1386	0.0344131
1398	0.0220385
1410	0.0263991
1422	0.0551552
1434	0.0750724
1446	0.0645834
1458	0.106186
1470	0.124099
1482	0.129403
1494	0.2152
1506	0.434288
1518	0.136474
1530	0.0446663
1542	0.036063
1554	0.0309953
1566	0.0291097
1578	0.0510303
1590	0.15262
1602	0.376658
1614	0.208364
1626	0.0585729
1638	0.0220385
1650	0.0188565
1662	0.0119032
1674	0.0117853
1686	0.0122567
1698	0.0113139
1710	0.0060105
1722	0.00659977
1734	0.00824971
1746	0.00754259
1758	0.0077783
1770	0.00506768
1782	0.00306418
1794	0.00459627
1806	0.00518553
1818	0.00565694
1830	0.00624621
1842	0.0020035
1854	0.00223921
1866	0.00235706
1878	0.000707118
1890	0.00294633
1902	0.00459627
1914	0.00895683
1926	0.00659977
1938	0.00212135
1950	0.00117853
1962	0.000117853
1974	0
1986	0.00141424
1998	0.00106068
2010	0.00247491
2022	0.00117853
2034	0.00294633
2046	0.00223921
2058	0.00164994
2070	0.00212135
2082	0.00117853
2094	0.000942824
2106	0.00129638
2118	0.00153209
2130	0.000942824
2142	0.00106068
2154	0.00117853
2166	0.00141424
2178	0.00141424
2190	0.00106068
2202	0.000942824
2214	0.000471412
2226	0.000707118
2238	0.00141424
2250	0.00117853
2262	0.00141424
2274	0.00164994
2286	0.00176779
2298	0.00129638
2310	0.00235706
2322	0.00294633
2334	0.00235706
2346	0.000117853
2358	0.00341774
2370	0.00259277
2382	0.00129638
2394	0.00176779
2406	0.0020035
2418	0.0020035
2430	0.00164994
2442	0.00176779
2454	0.00129638
2466	0.00129638
2478	0.00106068
2490	0.00176779
2502	0.0020035
2514	0.00271062
2526	0.00318203
2538	0.00494983
2550	0.00589265
2562	0.00648191
2574	0.00695333
2586	0.00612836
2598	0.00553909
2610	0.00612836
2622	0.00624621
2634	0.00718903
2646	0.00813186
2658	0.00989965
2670	0.0110782
2682	0.0127281
2694	0.0127281
2706	0.0121389
2718	0.0123746
2730	0.0127281
2742	0.0136709
2754	0.0142602
2766	0.0155566
2778	0.0186208
2790	0.0247491
2802	0.0327631
2814	0.0437235
2826	0.0618728
2838	0.0965216
2850	0.190097
2862	0.448549
2874	0.35462
2886	0.25197
2898	0.24042
2910	0.369351
2922	0.683547
2934	1.17853
2946	0.723264
2958	0.357095
2970	0.293808
2982	0.134588
2994	0.0714189
3006	0.0584551
3018	0.0723617
3030	0.0787258
3042	0.0624621
3054	0.0916896
3066	0.0923968
3078	0.0596336
3090	0.0564516
3102	0.0361809
3114	0.0225099
3126	0.0121389
3138	0.00707118
3150	0.00518553
3162	0.00447841
3174	0.00388915
3186	0.00353559
3198	0.00353559
3210	0.00306418
3222	0.00247491
3234	0.00188565
3246	0.00223921
3258	0.00176779
3270	0.00164994
3282	0.00223921
3294	0.00117853
3306	0.00106068
3318	0.00141424
3330	0.00129638
3342	0.00223921
3354	0.00141424
3366	0.00106068
3378	0.00271062
3390	0.00318203
3402	0.00506768
3414	0.00860327
3426	0.0150852
3438	0.0144959
3450	0.0126103
3462	0.00860327
3474	0.00612836
3486	0.00353559
3498	0.00247491
3510	0.00271062
3522	0.00164994
3534	0.00176779
3546	0.00106068
3558	0.00164994
3570	0.00212135
3582	0.00106068
3594	0.0037713
3606	0.00223921
3618	0.004007
3630	0.00565694
3642	0.00282847
3654	0.00789615
3666	0.000235706
3678	0.00766045
3690	0.00754259
3702	0.00117853
3714	0.00365344
3726	0.00223921
3738	0.00447841
3750	0.00612836
3762	0.00117853
3774	0.00424271
3786	0.00259277
3798	0.00471412
3810	0.00153209
3822	0.00895683
3834	0.00436056
3846	0.00212135
3858	0.00683547
3870	0.00718903
3882	0.004007
3894	0.00565694
3906	0.00742474
3918	0.0037713
3930	0.00447841
3942	0.00471412
3954	0.00860327
3966	0.00730689
