Infrared Spectrum: 1H-Indene-5-carboxaldehyde, 2,3-dihydro-
Formula: C 10 H 10 O
CAS: 30084-91-4
Origin: Sadtler Research Labs Under US-EPA Contract
1/CM	ABSORBANCE
450	0.00201484
462	0.0102085
474	0.0139696
486	0.0126264
498	0.0185366
510	0.0315659
522	0.00389537
534	0.0138353
546	0.0323718
558	0.0214917
570	0.0185366
582	0.021223
594	0.030357
606	0.0327748
618	0.0372075
630	0.0370731
642	0.0239095
654	0.0278049
666	0.0175963
678	0.0186709
690	0.0351926
702	0.0357299
714	0.0189395
726	0.0389537
738	0.0350583
750	0.0568186
762	0.086907
774	0.191813
786	0.116055
798	0.0676988
810	0.123577
822	0.139562
834	0.0631318
846	0.0247154
858	0.025387
870	0.038685
882	0.0308943
894	0.0243125
906	0.0287451
918	0.0276705
930	0.029954
942	0.0507741
954	0.017865
966	0.00671615
978	0.0370731
990	0.0722658
1002	0.0617886
1014	0.0820714
1026	0.0672958
1038	0.0709225
1050	0.0550724
1062	0.0451325
1074	0.0917426
1086	0.140502
1098	0.0893248
1110	0.0846235
1122	0.107593
1134	0.11216
1146	0.0793849
1158	0.0850265
1170	0.0709225
1182	0.0484906
1194	0.0447296
1206	0.030357
1218	0.0719971
1230	0.278452
1242	0.250915
1254	0.127204
1266	0.14883
1278	0.123577
1290	0.108936
1302	0.0899964
1314	0.0711912
1326	0.0724001
1338	0.0492965
1350	0.0359986
1362	0.0467444
1374	0.0710569
1386	0.101414
1398	0.077773
1410	0.0568186
1422	0.0899964
1434	0.122503
1446	0.100877
1458	0.0724001
1470	0.0556097
1482	0.043252
1494	0.0322375
1506	0.0165217
1518	0.00738776
1530	0.00550724
1542	0.0102085
1554	0.0143726
1566	0.0466101
1578	0.109876
1590	0.0899964
1602	0.119816
1614	0.157024
1626	0.0793849
1638	0.0338494
1650	0.0236408
1662	0.0231036
1674	0.0484906
1686	0.103429
1698	0.217469
1710	0.731792
1722	1.34323
1734	0.36912
1746	0.0734747
1758	0.0573559
1770	0.0421774
1782	0.0291481
1794	0.0271332
1806	0.0269989
1818	0.017059
1830	0.00859667
1842	0.00564157
1854	0.00537292
1866	0.00832803
1878	0.0104772
1890	0.013298
1902	0.0103429
1914	0.0081937
1926	0.00496995
1938	0.00282078
1950	0.0017462
1962	0.00241781
1974	0.00201484
1986	0.00214917
1998	0.00295511
2010	0.00268646
2022	0.00228349
2034	0.00161188
2046	0.00161188
2058	0.00161188
2070	0.00188052
2082	0.0017462
2094	0.00107458
2106	0.000537292
2118	0.00120891
2130	0.000671615
2142	0.000537292
2154	0.00107458
2166	0.00147755
2178	0.00107458
2190	0.00107458
2202	0.0017462
2214	0.00228349
2226	0.00268646
2238	0.00295511
2250	0.00537292
2262	0.013298
2274	0.0245811
2286	0.0155815
2298	0.00846235
2310	0.00591021
2322	0.00376104
2334	0.00282078
2346	0.00362672
2358	0.00322375
2370	0.0017462
2382	0.00161188
2394	0.000134323
2406	0.000134323
2418	0.000402969
2430	0.000402969
2442	0.000134323
2454	0.000402969
2466	0.00120891
2478	0.000537292
2490	0.000537292
2502	0.000805938
2514	0.000940261
2526	0.0017462
2538	0.00188052
2550	0.00134323
2562	0.00107458
2574	0.00107458
2586	0.00282078
2598	0.00402969
2610	0.00201484
2622	0.00188052
2634	0.00255214
2646	0.00389537
2658	0.00496995
2670	0.00859667
2682	0.0165217
2694	0.0357299
2706	0.107861
2718	0.200679
2730	0.188455
2742	0.0846235
2754	0.0319689
2766	0.0413715
2778	0.0769671
2790	0.0848921
2802	0.131637
2814	0.172068
2826	0.121562
2838	0.0660869
2850	0.106787
2862	0.134457
2874	0.104638
2886	0.105041
2898	0.110682
2910	0.134726
2922	0.13486
2934	0.154203
2946	0.21626
2958	0.332449
2970	0.374493
2982	0.186172
2994	0.0531919
3006	0.0471474
3018	0.0629975
3030	0.0608483
3042	0.0546695
3054	0.0525203
3066	0.0460728
3078	0.0404312
3090	0.0269989
3102	0.0190739
3114	0.0123577
3126	0.00577589
3138	0.00282078
3150	0.00241781
3162	0.00201484
3174	0.00188052
3186	0.0017462
3198	0.00134323
3210	0.00120891
3222	0.00188052
3234	0.00188052
3246	0.0017462
3258	0.00147755
3270	0.00161188
3282	0.0017462
3294	0.00214917
3306	0.00188052
3318	0.00214917
3330	0.00255214
3342	0.00228349
3354	0.0017462
3366	0.00268646
3378	0.00322375
3390	0.00510427
3402	0.0107458
3414	0.0177306
3426	0.0111488
3438	0.00443266
3450	0.000805938
3462	0.00147755
3474	0.00188052
3486	0.00255214
3498	0.00147755
3510	0.00214917
3522	0.000805938
3534	0.00161188
3546	0.00228349
3558	0.0017462
3570	0.00241781
3582	0.00550724
3594	0.0047013
3606	0.00147755
3618	0.00228349
3630	0.00268646
3642	0.00268646
3654	0.00161188
3666	0.00147755
3678	0.000805938
3690	0.00161188
3702	0.0017462
3714	0.00214917
3726	0.00147755
3738	0.00161188
3750	0.00120891
3762	0.00134323
3774	0.00201484
3786	0.00188052
3798	0.00188052
3810	0.000671615
3822	0.00214917
3834	0.0017462
3846	0.00161188
3858	0.00107458
3870	0.00201484
3882	0.00120891
3894	0.00120891
3906	0.000940261
3918	0.00161188
3930	0.00120891
3942	0
3954	0.000940261
3966	0.00188052
