Infrared Spectrum: Benzoic acid, 2-amino-, pentyl ester
Formula: C 12 H 17 N O 2
CAS: 30100-15-3
Origin: Sadtler Research Labs Under US-EPA Contract
1/CM	ABSORBANCE
450	0
462	0.0588832
474	0.0574701
486	0.0675195
498	0.0791391
510	0.101907
522	0.127659
534	0.0995519
546	0.0772548
558	0.0816514
570	0.0541726
582	0.0511892
594	0.043181
606	0.0458504
618	0.0486768
630	0.0557428
642	0.0548007
654	0.0650071
666	0.0987668
678	0.0852629
690	0.0992379
702	0.134254
714	0.0734863
726	0.0708169
738	0.155609
750	0.315614
762	0.105519
774	0.0530734
786	0.0461645
798	0.0522883
810	0.0485198
822	0.0510321
834	0.0565279
846	0.0657922
858	0.0609245
870	0.0505611
882	0.0386274
894	0.0364291
906	0.0351729
918	0.0317184
930	0.0303052
942	0.0320325
954	0.0362721
966	0.0587262
978	0.064222
990	0.0483628
1002	0.0471066
1014	0.0510321
1026	0.0736433
1038	0.093114
1050	0.0836927
1062	0.148229
1074	0.243698
1086	0.312317
1098	0.603436
1110	0.751036
1122	0.320482
1134	0.167385
1146	0.155923
1158	0.453008
1170	0.165658
1182	0.0703459
1194	0.0602964
1206	0.0792961
1218	0.132056
1230	0.320796
1242	1.13496
1254	1.18332
1266	0.355341
1278	0.392241
1290	0.830489
1302	0.347647
1314	0.232236
1326	0.200831
1338	0.117609
1350	0.0747425
1362	0.0675195
1374	0.0687756
1386	0.10913
1398	0.078668
1410	0.0485198
1422	0.0463215
1434	0.0584122
1446	0.102692
1458	0.197377
1470	0.170997
1482	0.173195
1494	0.18246
1506	0.0976677
1518	0.0549577
1530	0.0508751
1542	0.0648501
1554	0.106775
1566	0.189526
1578	0.171154
1590	0.309333
1602	0.431025
1614	0.51252
1626	0.469653
1638	0.147758
1650	0.0829076
1662	0.0730152
1674	0.0811804
1686	0.128915
1698	0.445314
1710	0.884505
1722	0.32111
1734	0.18246
1746	0.0847919
1758	0.0758416
1770	0.0709739
1782	0.0466355
1794	0.0482058
1806	0.0387844
1818	0.0361151
1830	0.0329746
1842	0.0306193
1854	0.0303052
1866	0.0315614
1878	0.0310904
1890	0.0334457
1902	0.0353299
1914	0.0438091
1926	0.0365861
1938	0.0370572
1950	0.0312474
1962	0.0307763
1974	0.0299912
1986	0.0292061
1998	0.0295201
2010	0.0304623
2022	0.0310904
2034	0.0331316
2046	0.0345448
2058	0.0334457
2070	0.0353299
2082	0.0348589
2094	0.0328176
2106	0.0321895
2118	0.0315614
2130	0.0320325
2142	0.0318755
2154	0.0310904
2166	0.0306193
2178	0.0306193
2190	0.0296772
2202	0.0295201
2214	0.0299912
2226	0.0298342
2238	0.0293631
2250	0.0295201
2262	0.0301482
2274	0.0301482
2286	0.0295201
2298	0.0299912
2310	0.0318755
2322	0.0320325
2334	0.0318755
2346	0.0328176
2358	0.0332887
2370	0.0307763
2382	0.0318755
2394	0.0320325
2406	0.0314044
2418	0.0315614
2430	0.0309333
2442	0.0306193
2454	0.0298342
2466	0.0304623
2478	0.0307763
2490	0.0307763
2502	0.0301482
2514	0.0307763
2526	0.0312474
2538	0.0314044
2550	0.0309333
2562	0.0303052
2574	0.0309333
2586	0.0318755
2598	0.0314044
2610	0.0303052
2622	0.0301482
2634	0.0315614
2646	0.0337597
2658	0.0339168
2670	0.0350159
2682	0.0364291
2694	0.035801
2706	0.0350159
2718	0.0348589
2730	0.0378423
2742	0.0389415
2754	0.0397266
2766	0.0395695
2778	0.0400406
2790	0.0405117
2802	0.043181
2814	0.0461645
2826	0.0482058
2838	0.0554288
2850	0.0750565
2862	0.12499
2874	0.170997
2886	0.175551
2898	0.148543
2910	0.173823
2922	0.233806
2934	0.331002
2946	0.371828
2958	0.341523
2970	0.428827
2982	0.221872
2994	0.120122
3006	0.0803953
3018	0.0698748
3030	0.0880893
3042	0.0946843
3054	0.0982958
3066	0.102535
3078	0.0821225
3090	0.0968826
3102	0.0554288
3114	0.0441232
3126	0.0392555
3138	0.0369002
3150	0.0350159
3162	0.0351729
3174	0.0384704
3186	0.0378423
3198	0.0343878
3210	0.0337597
3222	0.0320325
3234	0.0325036
3246	0.0321895
3258	0.0314044
3270	0.0350159
3282	0.0351729
3294	0.0378423
3306	0.0389415
3318	0.0378423
3330	0.0384704
3342	0.0395695
3354	0.0441232
3366	0.0593543
3378	0.153568
3390	0.255161
3402	0.119494
3414	0.0623377
3426	0.0562139
3438	0.043181
3450	0.0390985
3462	0.0389415
3474	0.0461645
3486	0.057313
3498	0.078668
3510	0.135824
3522	0.17979
3534	0.0943702
3546	0.0483628
3558	0.0375283
3570	0.0329746
3582	0.0332887
3594	0.0317184
3606	0.0321895
3618	0.0310904
3630	0.0326606
3642	0.0328176
3654	0.0332887
3666	0.0296772
3678	0.0306193
3690	0.0343878
3702	0.0339168
3714	0.0351729
3726	0.0334457
3738	0.0295201
3750	0.0299912
3762	0.0320325
3774	0.0320325
3786	0.0323465
3798	0.0303052
3810	0.0309333
3822	0.0314044
3834	0.0332887
3846	0.0318755
3858	0.0334457
3870	0.0350159
3882	0.0331316
3894	0.0295201
3906	0.0315614
3918	0.0339168
3930	0.035644
3942	0.0353299
3954	0.0367431
3966	0.0326606
