Infrared Spectrum: Phenol, 3-methyl-6-(1-methylethyl)-2,4-dinitro-
Formula: C 10 H 12 N 2 O 5
CAS: 303-21-9
Origin: Sadtler Research Labs Under US-EPA Contract
1/CM	ABSORBANCE
450	0.0224919
462	0.0124955
474	0.0061185
486	0.0193034
498	0.0187864
510	0.0193896
522	0.0286104
534	0.0255081
546	0.024474
558	0.029386
570	0.0284381
582	0.0335225
594	0.0369695
606	0.0441221
618	0.0557559
630	0.0548941
642	0.0630808
654	0.127368
666	0.225781
678	0.0941904
690	0.0624776
702	0.0576517
714	0.0785925
726	0.0804022
738	0.0917774
750	0.110995
762	0.0723878
774	0.0908295
786	0.130212
798	0.0298169
810	0.0199067
822	0.016632
834	0.020079
846	0.0431742
858	0.0387792
870	0.0311957
882	0.0831598
894	0.0873825
906	0.0890198
918	0.0625638
930	0.0423986
942	0.0238708
954	0.0228366
966	0.0256804
978	0.0272316
990	0.0309372
1002	0.0383483
1014	0.0629085
1026	0.0743699
1038	0.0619605
1050	0.0842801
1062	0.0655799
1074	0.0653214
1086	0.110478
1098	0.127799
1110	0.100395
1122	0.0885889
1134	0.103842
1146	0.157357
1158	0.139691
1170	0.157444
1182	0.19674
1194	0.191138
1206	0.18683
1218	0.253961
1230	0.41511
1242	0.520589
1254	0.263612
1266	0.170887
1278	0.174162
1290	0.216646
1302	0.24879
1314	0.301961
1326	0.474313
1338	0.742579
1350	0.708884
1362	0.648905
1374	0.38176
1386	0.308941
1398	0.267749
1410	0.320058
1422	0.307304
1434	0.257925
1446	0.290758
1458	0.303684
1470	0.308941
1482	0.218198
1494	0.179935
1506	0.22716
1518	0.336345
1530	0.479914
1542	0.702248
1554	0.86176
1566	0.642356
1578	0.394945
1590	0.38874
1602	0.218887
1614	0.216129
1626	0.0893645
1638	0.030851
1650	0.0139605
1662	0.0173214
1674	0.0141329
1686	0.00913466
1698	0.0068079
1710	0.00792819
1722	0.00732496
1734	0.00439498
1746	0.00318851
1758	0.00603232
1770	0.00517056
1782	0.00629085
1794	0.00689408
1806	0.0123232
1818	0.0110305
1830	0.00405027
1842	0.0039641
1854	0.00456733
1866	0.00206822
1878	0.00310234
1890	0.00241293
1902	0.00422262
1914	0.00439498
1926	0.0043088
1938	0.00387792
1950	0.00327469
1962	0.00267146
1974	0.00301616
1986	0.00301616
1998	0.00327469
2010	0.00405027
2022	0.00456733
2034	0.00525674
2046	0.00422262
2058	0.00473968
2070	0.00482586
2082	0.00491203
2094	0.00448115
2106	0.00499821
2118	0.00499821
2130	0.00508438
2142	0.00456733
2154	0.00448115
2166	0.00517056
2178	0.00517056
2190	0.00482586
2202	0.00534291
2214	0.0064632
2226	0.00689408
2238	0.00801437
2250	0.00818672
2262	0.00792819
2274	0.00810054
2286	0.00870378
2298	0.00947936
2310	0.0105135
2322	0.0115476
2334	0.0104273
2346	0.0106858
2358	0.0130988
2370	0.0120646
2382	0.013702
2394	0.012237
2406	0.0125817
2418	0.0124093
2430	0.0123232
2442	0.0126679
2454	0.0128402
2466	0.0136158
2478	0.0136158
2490	0.0132711
2502	0.0128402
2514	0.0124093
2526	0.0134435
2538	0.0137882
2550	0.0140467
2562	0.0139605
2574	0.015167
2586	0.0161149
2598	0.0174076
2610	0.017149
2622	0.0170628
2634	0.0174076
2646	0.017149
2658	0.0179246
2670	0.0177523
2682	0.0185278
2694	0.0187864
2706	0.0189587
2718	0.0190449
2730	0.0212855
2742	0.0216302
2754	0.0217164
2766	0.0217164
2778	0.0212855
2790	0.0218887
2802	0.0249049
2814	0.0290413
2826	0.0330916
2838	0.038176
2850	0.0458456
2862	0.061185
2874	0.0956554
2886	0.124524
2898	0.106514
2910	0.108496
2922	0.114528
2934	0.136589
2946	0.159856
2958	0.163476
2970	0.305149
2982	0.324366
2994	0.121594
3006	0.0723017
3018	0.0547218
3030	0.044553
3042	0.0411921
3054	0.0415368
3066	0.0423986
3078	0.044553
3090	0.0458456
3102	0.0452424
3114	0.044553
3126	0.044553
3138	0.0455009
3150	0.0469659
3162	0.0481724
3174	0.0500683
3186	0.0529982
3198	0.0549803
3210	0.055325
3222	0.0554973
3234	0.0566176
3246	0.0579964
3258	0.0594614
3270	0.0610988
3282	0.0630808
3294	0.0648905
3306	0.0668726
3318	0.0688546
3330	0.0712676
3342	0.0741114
3354	0.0766966
3366	0.0786787
3378	0.0811778
3390	0.0841078
3402	0.0852281
3414	0.0874686
3426	0.0878133
3438	0.0872101
3450	0.0866931
3462	0.0842801
3474	0.0822119
3486	0.0777308
3498	0.0745422
3510	0.0693717
3522	0.0653214
3534	0.0595476
3546	0.0540324
3558	0.0475692
3570	0.0425709
3582	0.0359354
3594	0.0280072
3606	0.0224058
3618	0.0164596
3630	0.0149084
3642	0.016632
3654	0.00956554
3666	0.00637702
3678	0.00585997
3690	0.00560144
3702	0.00534291
3714	0.0039641
3726	0.00517056
3738	0.00534291
3750	0.00473968
3762	0.00482586
3774	0.00482586
3786	0.00413645
3798	0.00422262
3810	0.00534291
3822	0.0068079
3834	0.00585997
3846	0.00672173
3858	0.0064632
3870	0.00637702
3882	0.00637702
3894	0.00654938
3906	0.00792819
3918	0.00818672
3930	0.00585997
3942	0.00706643
3954	0.00715261
3966	0.00706643
