Infrared Spectrum: 1-Ethynylcyclohexylamine
Formula: C 8 H 13 N
CAS: 30389-18-5
Origin: Sadtler Research Labs Under US-EPA Contract
1/CM	ABSORBANCE
450	0.00202061
462	0.00239283
474	0.00116983
486	0.0040944
498	0.00648723
510	0.0160585
522	0.0194617
534	0.0157395
546	0.0225458
558	0.0124427
570	0.0067531
582	0.00382853
594	0.0051047
606	0.0150482
618	0.0499304
630	0.233912
642	0.138678
654	0.0310536
666	0.00951815
678	0.00537057
690	0.00723166
702	0.00840149
714	0.0104221
726	0.010688
738	0.0114324
750	0.0170157
762	0.0270656
774	0.0390829
786	0.0515788
798	0.0621604
810	0.0697111
822	0.0781658
834	0.0989036
846	0.0898641
858	0.0347758
870	0.01223
882	0.00872054
894	0.0169625
906	0.0184514
918	0.0111665
930	0.0157927
942	0.0264275
954	0.0256299
966	0.013134
978	0.0094118
990	0.00739119
1002	0.00568962
1014	0.00292457
1026	0.00462614
1038	0.00733801
1050	0.00850784
1062	0.00824197
1074	0.00930545
1086	0.0180792
1098	0.0262148
1110	0.0337123
1122	0.0291394
1134	0.0139316
1146	0.0113792
1158	0.0139316
1170	0.0166966
1182	0.0103158
1194	0.00584914
1206	0.00361583
1218	0.00425392
1230	0.00648723
1242	0.0309473
1254	0.0713063
1266	0.0497177
1278	0.0285013
1290	0.0210569
1302	0.00872054
1314	0.00733801
1326	0.00749753
1338	0.00914593
1350	0.0125491
1362	0.00967767
1374	0.00483883
1386	0.00276505
1398	0.00239283
1410	0.00292457
1422	0.0038817
1434	0.0143038
1446	0.0438685
1458	0.0514193
1470	0.0246727
1482	0.00813562
1494	0.00393488
1506	0.00436027
1518	0.00558327
1530	0.00616818
1542	0.0104753
1554	0.0151546
1566	0.0147824
1578	0.0114856
1590	0.0115388
1602	0.0157395
1614	0.0190363
1626	0.0189831
1638	0.016803
1650	0.0135594
1662	0.00824197
1674	0.00377535
1686	0.00228648
1698	0.00180792
1710	0.00127618
1722	0.00101031
1734	0.0014357
1746	0.000319044
1758	0.000903958
1770	0.00148887
1782	0.000744436
1794	0.000903958
1806	0.0014357
1818	0.000957132
1830	0.00101031
1842	0.000957132
1854	0.000584914
1866	0.00106348
1878	0.00106348
1890	0.00101031
1902	0.00106348
1914	0.00111665
1926	0.00116983
1938	0.00106348
1950	0.00116983
1962	0.001223
1974	0.000744436
1986	0.000744436
1998	0.000638088
2010	0.000744436
2022	0.000744436
2034	0.000159522
2046	0.000744436
2058	0.000957132
2070	0.00116983
2082	0.00127618
2094	0.00350948
2106	0.00462614
2118	0.00382853
2130	0.00170157
2142	0.00111665
2154	0.000638088
2166	0.00101031
2178	0.000638088
2190	0.000691262
2202	0.00111665
2214	0.001223
2226	0.00053174
2238	0.00106348
2250	0.000584914
2262	0.000638088
2274	0.000903958
2286	0.000638088
2298	0.00053174
2310	0.00111665
2322	0.00079761
2334	0.000212696
2346	0.00053174
2358	0.00148887
2370	0.000584914
2382	0.000372218
2394	0.000584914
2406	0.000478566
2418	0.000584914
2430	0.000638088
2442	0.000478566
2454	0.000372218
2466	0.000319044
2478	0.000319044
2490	0.000903958
2502	0.000957132
2514	0.000372218
2526	0.000478566
2538	0.000638088
2550	0.000319044
2562	0.00079761
2574	0.000850784
2586	0.00079761
2598	0.00186109
2610	0.00239283
2622	0.002446
2634	0.00202061
2646	0.00297774
2658	0.00377535
2670	0.00441344
2682	0.00499836
2694	0.00372218
2706	0.002446
2718	0.00249918
2730	0.00138252
2742	0.00186109
2754	0.00207379
2766	0.00191426
2778	0.0028714
2790	0.00451979
2802	0.00505153
2814	0.00537057
2826	0.00547692
2838	0.0091991
2850	0.0420606
2862	0.12363
2874	0.128415
2886	0.0572684
2898	0.0472717
2910	0.0616818
2922	0.131127
2934	0.392796
2946	0.53174
2958	0.217056
2970	0.0335528
2982	0.00659358
2994	0.00260553
3006	0.00202061
3018	0.000957132
3030	0.000957132
3042	0.00159522
3054	0.00260553
3066	0.00202061
3078	0.00159522
3090	0.000691262
3102	0.000584914
3114	0.00053174
3126	0.00053174
3138	0.00101031
3150	0.00164839
3162	0.00111665
3174	0.00116983
3186	0.00159522
3198	0.00127618
3210	0.00101031
3222	0.000584914
3234	0.000957132
3246	0.00138252
3258	0.00249918
3270	0.0026587
3282	0.00537057
3294	0.0161649
3306	0.0359456
3318	0.0830046
3330	0.0957132
3342	0.0313727
3354	0.00893323
3366	0.00334996
3378	0.000691262
3390	0.00111665
3402	0.00180792
3414	0.000744436
3426	0.000584914
3438	0.00116983
3450	0.00159522
3462	0.00148887
3474	0.00101031
3486	0.000744436
3498	0.000159522
3510	0.000372218
3522	0.000212696
3534	0.000212696
3546	0.000744436
3558	0.000584914
3570	0.000159522
3582	0.00026587
3594	0.00079761
3606	0.000744436
3618	0.000372218
3630	0.00101031
3642	0.00079761
3654	0.00127618
3666	0.000850784
3678	0.000212696
3690	0.00079761
3702	0.00127618
3714	0.00138252
3726	0.000957132
3738	0.00106348
3750	0.0014357
3762	0.00127618
3774	0.001223
3786	0.00079761
3798	0.00191426
3810	0.00186109
3822	0.00127618
3834	0.00138252
3846	0.00196744
3858	0.00138252
3870	0.0014357
3882	0.00180792
3894	0.0014357
3906	0.00228648
3918	0.00297774
3930	0.00292457
3942	0.002446
3954	0.00026587
3966	0.000319044
