Infrared Spectrum: Ethamivan
Formula: C 12 H 17 N O 3
CAS: 304-84-7
Origin: Sadtler Research Labs Under US-EPA Contract
1/CM	ABSORBANCE
450	0.0423976
462	0.0391057
474	0.0263746
486	0.018482
498	0.013683
510	0.0115017
522	0.00610779
534	0.00503695
546	0.0143969
558	0.00634576
570	0.00134847
582	0.0016261
594	0.00341085
606	0.0263746
618	0.0321254
630	0.00468
642	0.00281593
654	0.000634576
666	0.000277627
678	0.000634576
690	0.00190373
702	0.00400576
714	0.00555254
726	0.0111447
738	0.0280403
750	0.0567946
762	0.0270488
774	0.0280403
786	0.0734522
798	0.0693274
810	0.0302613
822	0.0700017
834	0.0389471
846	0.0246691
858	0.0179268
870	0.0308563
882	0.0172922
894	0.00888406
906	0.00666305
918	0.0100739
930	0.0086461
942	0.00729762
954	0.00519559
966	0.00757525
978	0.00769423
990	0.0129295
1002	0.0225671
1014	0.0399783
1026	0.0773786
1038	0.093124
1050	0.0482674
1062	0.0426752
1074	0.0622678
1086	0.112796
1098	0.0790047
1110	0.0618712
1122	0.0936396
1134	0.042239
1146	0.0392247
1158	0.0887613
1170	0.0970505
1182	0.0943932
1194	0.106014
1206	0.178633
1218	0.206396
1230	0.273701
1242	0.19418
1254	0.157097
1266	0.324308
1278	0.358297
1290	0.385981
1302	0.164355
1314	0.156899
1326	0.0822173
1338	0.0613556
1350	0.100461
1362	0.132944
1374	0.143454
1386	0.152179
1398	0.137941
1410	0.21056
1422	0.278738
1434	0.182004
1446	0.112875
1458	0.144564
1470	0.18486
1482	0.123584
1494	0.0869369
1506	0.156066
1518	0.193903
1530	0.0478312
1542	0.0267315
1554	0.025859
1566	0.0333152
1578	0.0489813
1590	0.0868576
1602	0.132269
1614	0.121997
1626	0.0867783
1638	0.0839227
1650	0.152972
1662	0.385981
1674	0.217818
1686	0.0631403
1698	0.0289922
1710	0.0179664
1722	0.0144763
1734	0.0120966
1746	0.00983593
1758	0.00939966
1770	0.00618712
1782	0.00349017
1794	0.0014278
1806	0.00079322
1818	0.000475932
1830	0.000118983
1842	0.00039661
1854	0.000872542
1866	0.00241932
1878	0.00277627
1890	0.00103119
1902	0.000277627
1914	0.000356949
1926	0.000277627
1938	0.000158644
1950	0.000356949
1962	0.000277627
1974	0.000356949
1986	0.000515593
1998	0.00103119
2010	0.00158644
2022	0.00158644
2034	0.00222102
2046	0.00337119
2058	0.0039661
2070	0.00364881
2082	0.00289525
2094	0.00150712
2106	0.00107085
2118	0.000198305
2130	0.000198305
2142	0.000317288
2154	0.000951864
2166	0.000198305
2178	0.000237966
2190	0.000198305
2202	0.000158644
2214	0.00039661
2226	0.000872542
2238	0.00138813
2250	0.00226068
2262	0.00218135
2274	0.00245898
2286	0.00428339
2298	0.00535423
2310	0.00594915
2322	0.0053939
2334	0.00337119
2346	0.0055922
2358	0.00471966
2370	0.00356949
2382	0.00456101
2394	0.00174508
2406	0.00107085
2418	0.000912203
2430	0.00138813
2442	0.00206237
2454	0.00202271
2466	0.00237966
2478	0.00257796
2490	0.00317288
2502	0.00356949
2514	0.00408508
2526	0.0039661
2538	0.00337119
2550	0.00249864
2562	0.00166576
2574	0.00170542
2586	0.00178474
2598	0.00174508
2610	0.00218135
2622	0.00329186
2634	0.0041644
2646	0.00404542
2658	0.00364881
2670	0.00341085
2682	0.00368847
2694	0.00452135
2706	0.00436271
2718	0.00452135
2730	0.00531457
2742	0.00602847
2754	0.0063061
2766	0.00662339
2778	0.00805118
2790	0.00924101
2802	0.0111844
2814	0.0141986
2826	0.0181647
2838	0.0246295
2850	0.0362502
2862	0.0388678
2874	0.0535423
2886	0.0732142
2898	0.0634179
2910	0.0619901
2922	0.0715881
2934	0.100104
2946	0.137068
2958	0.107045
2970	0.132904
2982	0.148768
2994	0.105895
3006	0.0805515
3018	0.0527491
3030	0.0253037
3042	0.020822
3054	0.0228447
3066	0.0264142
3078	0.0245105
3090	0.0155868
3102	0.0125725
3114	0.0117397
3126	0.011343
3138	0.0106291
3150	0.00999457
3162	0.00971694
3174	0.00939966
3186	0.00912203
3198	0.00852712
3210	0.00904271
3222	0.00785288
3234	0.00840813
3246	0.00848745
3258	0.00872542
3270	0.00848745
3282	0.00896339
3294	0.00959796
3306	0.00975661
3318	0.00904271
3330	0.00860644
3342	0.00769423
3354	0.00773389
3366	0.00725796
3378	0.00666305
3390	0.0063061
3402	0.00571118
3414	0.00519559
3426	0.00622678
3438	0.00571118
3450	0.00523525
3462	0.00503695
3474	0.00464034
3486	0.00491796
3498	0.00543356
3510	0.00586983
3522	0.00725796
3534	0.00856678
3546	0.00999457
3558	0.0127708
3570	0.0377969
3582	0.148451
3594	0.10173
3606	0.0162213
3618	0.00436271
3630	0.00245898
3642	0.00297457
3654	0.00404542
3666	0.00103119
3678	0.000317288
3690	0.000317288
3702	0.000832881
3714	0
3726	0.000118983
3738	0.000317288
3750	3.9661e-05
3762	0.000277627
3774	0.00103119
3786	0.000594915
3798	0.000198305
3810	0.000594915
3822	0.000674237
3834	0.00103119
3846	0.000515593
3858	0.00138813
3870	0.00107085
3882	0.00134847
3894	0.00166576
3906	0.00182441
3918	0.00234
3930	0.00198305
3942	0.00118983
3954	0.00222102
3966	0.00186407
