Infrared Spectrum: Barbituric acid, 1-butyl-5,5-diallyl-,
Formula: C 14 H 20 N 2 O 3
CAS: 30453-93-1
Origin: Sadtler Research Labs Under US-EPA Contract
1/CM	ABSORBANCE
450	0.0247229
462	0.0101324
474	0.0168872
486	0.0217508
498	0.0245878
510	0.0253984
522	0.0152661
534	0.00567412
546	0.00351255
558	0.0064847
570	0.0108078
582	0.0313427
594	0.019319
606	0.00959196
618	0.0247229
630	0.0501214
642	0.0725476
654	0.109564
666	0.0915964
678	0.0391784
690	0.0224263
702	0.0152661
714	0.00851117
726	0.00986215
738	0.0272898
750	0.0456631
762	0.0957845
774	0.0264792
786	0.011078
798	0.00986215
810	0.00905157
822	0.0148608
834	0.00580921
846	0.00202647
858	0.00243176
870	0.00459333
882	0.00689
894	0.0121588
906	0.0214806
918	0.0560657
930	0.17171
942	0.0611994
954	0.0306672
966	0.0232369
978	0.030262
990	0.0843012
1002	0.08268
1014	0.0355308
1026	0.0293163
1038	0.0237772
1050	0.0232369
1062	0.0279653
1074	0.038638
1086	0.0395837
1098	0.03445
1110	0.0326937
1122	0.0339096
1134	0.0253984
1146	0.0270196
1158	0.0324235
1170	0.0416102
1182	0.0664682
1194	0.106998
1206	0.0589027
1218	0.0398539
1230	0.0548498
1242	0.0790323
1254	0.0880839
1266	0.119967
1278	0.165225
1290	0.208321
1302	0.219399
1314	0.266954
1326	0.161172
1338	0.212104
1350	0.289515
1362	0.230072
1374	0.259253
1386	0.257902
1398	0.396918
1410	0.537015
1422	0.340447
1434	0.243987
1446	0.383003
1458	0.138881
1470	0.0784919
1482	0.0528233
1494	0.0448525
1506	0.0264792
1518	0.0268845
1530	0.019319
1542	0.0162118
1554	0.0113482
1566	0.0106727
1578	0.0132396
1590	0.0145906
1602	0.0128343
1614	0.0154012
1626	0.0245878
1638	0.0582272
1650	0.0539041
1662	0.0587676
1674	0.102134
1686	0.244662
1698	0.77195
1710	0.68238
1722	0.319777
1734	0.753171
1746	1.22088
1758	0.473654
1770	0.253579
1782	0.0859223
1794	0.0464737
1806	0.02756
1818	0.0208051
1830	0.0160767
1842	0.01378
1854	0.0162118
1866	0.0194541
1878	0.00891647
1890	0.00634961
1902	0.00621451
1914	0.00445823
1926	0.00256686
1938	0.00121588
1950	0.000540392
1962	0.000810588
1974	0.00148608
1986	0.00243176
1998	0.00135098
2010	0.000810588
2022	0.00121588
2034	0.00121588
2046	0.000945686
2058	0.000135098
2070	0.000270196
2082	0.000135098
2094	0.000540392
2106	0.000405294
2118	0.000270196
2130	0.000135098
2142	0
2154	0
2166	0.000405294
2178	0.000540392
2190	0.000540392
2202	0.00067549
2214	0.00067549
2226	0.000540392
2238	0.000810588
2250	0.000945686
2262	0.00121588
2274	0.00202647
2286	0.00337745
2298	0.00580921
2310	0.00770059
2322	0.00743039
2334	0.00621451
2346	0.00891647
2358	0.00756549
2370	0.00567412
2382	0.00716019
2394	0.00270196
2406	0.00216157
2418	0.00202647
2430	0.00229667
2442	0.00229667
2454	0.00243176
2466	0.00243176
2478	0.00243176
2490	0.00243176
2502	0.00270196
2514	0.00270196
2526	0.00270196
2538	0.00297216
2550	0.00243176
2562	0.00243176
2574	0.00283706
2586	0.00283706
2598	0.00270196
2610	0.00256686
2622	0.00202647
2634	0.00229667
2646	0.00256686
2658	0.00243176
2670	0.00297216
2682	0.00283706
2694	0.00351255
2706	0.00445823
2718	0.00472843
2730	0.00526882
2742	0.00594431
2754	0.0066198
2766	0.0066198
2778	0.00689
2790	0.00770059
2802	0.00837608
2814	0.00999725
2826	0.0117535
2838	0.0155363
2850	0.0217508
2862	0.0326937
2874	0.0655225
2886	0.0768708
2898	0.0498512
2910	0.0562008
2922	0.0775463
2934	0.134423
2946	0.157389
2958	0.119967
2970	0.211023
2982	0.121453
2994	0.0678192
3006	0.0421506
3018	0.042691
3030	0.022021
3042	0.0148608
3054	0.0139151
3066	0.0170223
3078	0.0267494
3090	0.0774112
3102	0.0218859
3114	0.00824098
3126	0.00729529
3138	0.00743039
3150	0.00621451
3162	0.00594431
3174	0.00418804
3186	0.00364765
3198	0.00283706
3210	0.00283706
3222	0.00202647
3234	0.00202647
3246	0.00202647
3258	0.00216157
3270	0.00202647
3282	0.00189137
3294	0.00175627
3306	0.00229667
3318	0.00229667
3330	0.00189137
3342	0.00229667
3354	0.00216157
3366	0.00310725
3378	0.00283706
3390	0.00553902
3402	0.00972706
3414	0.0385029
3426	0.192244
3438	0.0848415
3450	0.0175627
3462	0.0125641
3474	0.00905157
3486	0.00756549
3498	0.0070251
3510	0.00459333
3522	0.00216157
3534	0.00189137
3546	0.00189137
3558	0.00189137
3570	0.00310725
3582	0.00229667
3594	0.00310725
3606	0.00189137
3618	0.00135098
3630	0.00202647
3642	0.00162118
3654	0.00283706
3666	0.00162118
3678	0.00283706
3690	0.00175627
3702	0.00229667
3714	0.00189137
3726	0.00216157
3738	0.00364765
3750	0.00162118
3762	0.00148608
3774	0.00175627
3786	0.00189137
3798	0.00121588
3810	0.00189137
3822	0.00162118
3834	0.00229667
3846	0.00243176
3858	0.00189137
3870	0.00324235
3882	0.00175627
3894	0.00162118
3906	0.00135098
3918	0.00364765
3930	0.00202647
3942	0.00108078
3954	0.00256686
3966	0.00189137
