Infrared Spectrum: 1H-Indene, 3a,4,7,7a-tetrahydro-
Formula: C 9 H 12
CAS: 3048-65-5
Origin: Sadtler Research Labs Under US-EPA Contract
1/CM	ABSORBANCE
450	0.0553962
462	0.0054094
474	0.0112195
486	0.0121211
498	0.015527
510	0.0146254
522	0.0153266
534	0.0128223
546	0.00430748
558	0.0141245
570	0.00560974
582	0.00701218
594	0.0127221
606	0.0179311
618	0.0279485
630	0.0480835
642	0.0864502
654	0.144351
666	0.163384
678	0.154268
690	0.153767
702	0.233606
714	0.322761
726	0.239917
738	0.131228
750	0.108589
762	0.072526
774	0.0425739
786	0.027047
798	0.0219381
810	0.0202351
822	0.0231402
834	0.0248432
846	0.025344
858	0.0196341
870	0.0214372
882	0.0240418
894	0.0333579
906	0.0365635
918	0.0479833
930	0.0539938
942	0.0424738
954	0.0358623
966	0.0378658
978	0.043175
990	0.0463806
1002	0.0451785
1014	0.0420731
1026	0.0399694
1038	0.0378658
1050	0.0261454
1062	0.0261454
1074	0.0329572
1086	0.0307534
1098	0.0232404
1110	0.0198345
1122	0.015527
1134	0.015527
1146	0.0203353
1158	0.0219381
1170	0.0193336
1182	0.0212369
1194	0.0255444
1206	0.0287499
1218	0.0278484
1230	0.0250435
1242	0.0235409
1254	0.0237412
1266	0.0298519
1278	0.0360626
1290	0.0283492
1302	0.0242421
1314	0.0263458
1326	0.0300522
1338	0.0365635
1350	0.0440766
1362	0.0386672
1374	0.0261454
1386	0.0228397
1398	0.0188327
1410	0.0168292
1422	0.0252438
1434	0.058702
1446	0.0918596
1458	0.0772342
1470	0.0328571
1482	0.0160278
1494	0.0096167
1506	0.0112195
1518	0.00841462
1530	0.00581009
1542	0.00641114
1554	0.00781357
1566	0.0101176
1578	0.01152
1590	0.0164285
1602	0.0312543
1614	0.0417726
1626	0.0423736
1638	0.0512891
1650	0.0559973
1662	0.0400696
1674	0.0258449
1686	0.0175304
1698	0.0157273
1710	0.0119207
1722	0.01152
1734	0.0123214
1746	0.00981705
1758	0.00591027
1770	0.00591027
1782	0.00340592
1794	0.0054094
1806	0.00400696
1818	0.00430748
1830	0.00681183
1842	0.00581009
1854	0.00671166
1866	0.00841462
1878	0.00861496
1890	0.00550957
1902	0.00661148
1914	0.00631096
1926	0.00591027
1938	0.00651131
1950	0.00380661
1962	0.00510887
1974	0.00550957
1986	0.00450783
1998	0.00430748
2010	0.00320557
2022	0.00530922
2034	0.00310539
2046	0.00520905
2058	0.00330574
2070	0.0054094
2082	0.00450783
2094	0.00400696
2106	0.00370644
2118	0.00380661
2130	0.00430748
2142	0.00330574
2154	0.00390679
2166	0.00370644
2178	0.00430748
2190	0.00410713
2202	0.00450783
2214	0.00440766
2226	0.00390679
2238	0.00490853
2250	0.00380661
2262	0.00370644
2274	0.00370644
2286	0.00450783
2298	0.00661148
2310	0.0077134
2322	0.00921601
2334	0.00671166
2346	0.00801392
2358	0.00601044
2370	0.00681183
2382	0.00621079
2394	0.00320557
2406	0.00400696
2418	0.00210365
2430	0.00110191
2442	0.00180313
2454	0.00220383
2466	0.00190331
2478	0.00300522
2490	0.00240418
2502	0.00180313
2514	0.00250435
2526	0.00300522
2538	0.00360626
2550	0.00340592
2562	0.00530922
2574	0.00510887
2586	0.0054094
2598	0.00691201
2610	0.00651131
2622	0.00621079
2634	0.00691201
2646	0.00691201
2658	0.00711235
2670	0.00871514
2682	0.00701218
2694	0.00801392
2706	0.00781357
2718	0.00751305
2730	0.00861496
2742	0.00861496
2754	0.0104181
2766	0.0118205
2778	0.0151263
2790	0.0173301
2802	0.0268466
2814	0.0419729
2826	0.0922603
2838	0.273074
2850	0.495761
2862	0.435657
2874	0.291106
2886	0.331476
2898	0.410814
2910	0.528518
2922	0.778753
2934	1.00174
2946	0.687394
2958	0.302626
2970	0.152465
2982	0.116903
2994	0.0723256
3006	0.0413719
3018	0.0584014
3030	0.255043
3042	0.459498
3054	0.473422
3066	0.349607
3078	0.13794
3090	0.027047
3102	0.0116202
3114	0.00631096
3126	0.00530922
3138	0.00370644
3150	0.00470818
3162	0.00260452
3174	0.00390679
3186	0.00400696
3198	0.0050087
3210	0.00550957
3222	0.00651131
3234	0.00570992
3246	0.00520905
3258	0.00581009
3270	0.00581009
3282	0.00450783
3294	0.00691201
3306	0.00691201
3318	0.00651131
3330	0.00530922
3342	0.00601044
3354	0.00390679
3366	0.00591027
3378	0.00380661
3390	0.0050087
3402	0.0050087
3414	0.0054094
3426	0.00470818
3438	0.00591027
3450	0.00570992
3462	0.00560974
3474	0.0050087
3486	0.00430748
3498	0.00570992
3510	0.00520905
3522	0.00400696
3534	0.00450783
3546	0.00430748
3558	0.00420731
3570	0.0050087
3582	0.00581009
3594	0.00430748
3606	0.00570992
3618	0.004608
3630	0.00190331
3642	0.00260452
3654	0.00300522
3666	0.00380661
3678	0.00641114
3690	0.00330574
3702	0.00360626
3714	0.00390679
3726	0.00150261
3738	0.00140244
3750	0.00220383
3762	0.00210365
3774	0.00160278
3786	0.00260452
3798	0.00350609
3810	0.00350609
3822	0.00701218
3834	0.00621079
3846	0.000901566
3858	0.00120209
3870	0.00100174
3882	0.00100174
3894	0.00150261
3906	0.00100174
3918	0.00100174
3930	0.00520905
3942	0.00100174
3954	0.000901566
3966	0.00200348
