Infrared Spectrum: Benzene, 1-methyl-3,5-bis(1-methylethyl)-
Formula: C 13 H 20
CAS: 3055-14-9
Origin: Sadtler Research Labs Under US-EPA Contract
1/CM	ABSORBANCE
450	0.127964
462	0.0173754
474	0.0128782
486	0.0153312
498	0.0139003
510	0.013287
522	0.0169665
534	0.0192151
546	0.0141047
558	0.00878989
570	0.0134915
582	0.0134915
594	0.00981197
606	0.013287
618	0.0106296
630	0.0118561
642	0.0102208
654	0.0104252
666	0.00940314
678	0.00878989
690	0.0126738
702	0.0756339
714	0.142682
726	0.0200328
738	0.0110385
750	0.010834
762	0.00878989
774	0.00878989
786	0.00367949
798	0.00695014
810	0.025552
822	0.0327066
834	0.01574
846	0.0598939
858	0.188267
870	0.0449715
882	0.0337286
894	0.0218725
906	0.0179886
918	0.0380214
930	0.0744074
942	0.0631645
954	0.0351596
966	0.0161489
978	0.0194195
990	0.0259608
1002	0.0271873
1014	0.0145135
1026	0.0134915
1038	0.0177842
1050	0.0269829
1062	0.0333198
1074	0.0374081
1086	0.0457892
1098	0.046198
1110	0.0325021
1122	0.0239167
1134	0.0202372
1146	0.0165577
1158	0.0163533
1170	0.023099
1182	0.0613248
1194	0.063369
1206	0.0200328
1218	0.0145135
1230	0.0134915
1242	0.0200328
1254	0.0427229
1266	0.0296403
1278	0.0235078
1290	0.030458
1302	0.0500819
1314	0.0999594
1326	0.0598939
1338	0.0590762
1350	0.0590762
1362	0.0862636
1374	0.103639
1386	0.118357
1398	0.060916
1410	0.0449715
1422	0.0488554
1434	0.0697059
1446	0.129804
1458	0.216681
1470	0.223018
1482	0.126942
1494	0.0782913
1506	0.061938
1518	0.0406788
1530	0.0394523
1542	0.0318889
1554	0.0226902
1566	0.0261652
1578	0.0468113
1590	0.124898
1602	0.341784
1614	0.171709
1626	0.0310712
1638	0.0141047
1650	0.0102208
1662	0.00756339
1674	0.00735898
1686	0.00715456
1698	0.00919872
1710	0.0102208
1722	0.00940314
1734	0.0194195
1746	0.023099
1758	0.0163533
1770	0.0204416
1782	0.00817664
1794	0.00286182
1806	0.00327066
1818	0.00224858
1830	0.00245299
1842	0.00286182
1854	0.00286182
1866	0.00286182
1878	0.00306624
1890	0.00347507
1902	0.00204416
1914	0.0012265
1926	0.00286182
1938	0.00224858
1950	0.0012265
1962	0.00102208
1974	0.00102208
1986	0.00143091
1998	0.00163533
2010	0.00245299
2022	0.00286182
2034	0.00306624
2046	0.00245299
2058	0.00408832
2070	0.00245299
2082	0.000408832
2094	0.000408832
2106	0.000204416
2118	0.000204416
2130	0.000817664
2142	0.000204416
2154	0.000408832
2166	0.00102208
2178	0.000817664
2190	0.0012265
2202	0.00143091
2214	0.000817664
2226	0.00204416
2238	0.00265741
2250	0.00265741
2262	0.00143091
2274	0.00163533
2286	0.00245299
2298	0.00429274
2310	0.00470157
2322	0.00531482
2334	0.00429274
2346	0.00245299
2358	0.00449715
2370	0.00367949
2382	0.00613248
2394	0.0051104
2406	0.00592806
2418	0.00613248
2430	0.00613248
2442	0.00613248
2454	0.00613248
2466	0.00776781
2478	0.00797222
2490	0.00756339
2502	0.00756339
2514	0.00695014
2526	0.00735898
2538	0.00797222
2550	0.00878989
2562	0.010834
2574	0.0143091
2586	0.0173754
2598	0.0194195
2610	0.0169665
2622	0.0141047
2634	0.0120605
2646	0.0120605
2658	0.0139003
2670	0.0126738
2682	0.0114473
2694	0.013287
2706	0.0141047
2718	0.0196239
2730	0.0263697
2742	0.0275962
2754	0.0233034
2766	0.0243255
2778	0.0196239
2790	0.0212593
2802	0.0239167
2814	0.0310712
2826	0.0372037
2838	0.0464024
2850	0.0770648
2862	0.146157
2874	0.351391
2886	0.442969
2898	0.393092
2910	0.413534
2922	0.425594
2934	0.58974
2946	0.58279
2958	0.732423
2970	2.04416
2982	0.546404
2994	0.219543
3006	0.172323
3018	0.227924
3030	0.221791
3042	0.128986
3054	0.100164
3066	0.0782913
3078	0.0470157
3090	0.030458
3102	0.0265741
3114	0.0247343
3126	0.0194195
3138	0.0169665
3150	0.0165577
3162	0.0175798
3174	0.0161489
3186	0.0155356
3198	0.014718
3210	0.0143091
3222	0.0114473
3234	0.00715456
3246	0.00429274
3258	0.00429274
3270	0.00102208
3282	0.00143091
3294	0.0063369
3306	0.00715456
3318	0.00531482
3330	0.00429274
3342	0.00470157
3354	0.00735898
3366	0.00531482
3378	0.00715456
3390	0.00776781
3402	0.00817664
3414	0.00592806
3426	0.00797222
3438	0.00654131
3450	0.00817664
3462	0.0063369
3474	0.00490598
3486	0.0051104
3498	0.00613248
3510	0.00654131
3522	0.00531482
3534	0.00838106
3546	0.00756339
3558	0.00613248
3570	0.00735898
3582	0.00735898
3594	0.00797222
3606	0.0063369
3618	0.00756339
3630	0.00715456
3642	0.00735898
3654	0.00674573
3666	0.00797222
3678	0.00858547
3690	0.00817664
3702	0.0102208
3714	0.00960755
3726	0.00878989
3738	0.0106296
3750	0.00919872
3762	0.00838106
3774	0.00817664
3786	0.00878989
3798	0.0110385
3810	0.0112429
3822	0.013287
3834	0.0126738
3846	0.0118561
3858	0.0104252
3870	0.0112429
3882	0.010834
3894	0.00981197
3906	0.00674573
3918	0.010834
3930	0.00940314
3942	0.0100164
3954	0.0118561
3966	0.0143091
