Infrared Spectrum: Diethylene glycol monododecyl ether
Formula: C 16 H 34 O 3
CAS: 3055-93-4
Origin: Sadtler Research Labs Under US-EPA Contract
1/CM	ABSORBANCE
450	0.0315638
462	0.00331162
474	0.00879648
486	0.00558835
498	0.00724416
510	0.0102453
522	0.00848602
534	0.00983136
546	0.0107628
558	0.00589882
570	0.00610579
582	0.00641626
594	0.00413952
606	0.00641626
618	0.00869299
630	0.00289766
642	0.00465696
654	0.00651974
666	0.0034151
678	0.0077616
690	0.00786509
702	0.00962438
714	0.016972
726	0.017386
738	0.0151092
750	0.0144883
762	0.0142813
774	0.0115907
786	0.0085895
798	0.0166616
810	0.0202836
822	0.0210081
834	0.0217325
846	0.0253546
858	0.0291836
870	0.0331162
882	0.0394289
894	0.0401533
906	0.0377731
918	0.038808
930	0.0370487
942	0.0329092
954	0.0324952
966	0.0360138
978	0.0408778
990	0.0464661
1002	0.0545382
1014	0.0697509
1026	0.0917939
1038	0.117355
1050	0.15606
1062	0.199111
1074	0.181104
1086	0.159682
1098	0.202009
1110	0.302909
1122	0.403396
1134	0.354653
1146	0.238436
1158	0.142813
1170	0.090138
1182	0.065094
1194	0.052158
1206	0.0481219
1218	0.0462591
1230	0.0440859
1242	0.0490533
1254	0.0551591
1266	0.0546417
1278	0.0545382
1290	0.0565044
1302	0.0528824
1314	0.0450173
1326	0.047294
1338	0.0584707
1350	0.0974857
1362	0.0896206
1374	0.0702684
1386	0.06023
1398	0.0468801
1410	0.0362208
1422	0.0291836
1434	0.034358
1446	0.0568149
1458	0.0953124
1470	0.0854811
1482	0.042844
1494	0.0197662
1506	0.0120046
1518	0.00672672
1530	0.00476045
1542	0.00465696
1554	0.0034151
1566	0.00238022
1578	0.00351859
1590	0.00155232
1602	0.00196627
1614	0.00227674
1626	0.00113837
1638	0.00186278
1650	0.000620928
1662	0.00051744
1674	0.00134534
1686	0.00248371
1698	0.00217325
1710	0.0025872
1722	0.00589882
1734	0.0106593
1746	0.0228708
1758	0.0197662
1770	0.0103488
1782	0.00651974
1794	0.00382906
1806	0.00196627
1818	0.000827904
1830	0.000310464
1842	0.000827904
1854	0.000724416
1866	0.000310464
1878	0.000620928
1890	0.00134534
1902	0.00165581
1914	0.00227674
1926	0.00289766
1938	0.00331162
1950	0.00403603
1962	0.00424301
1974	0.00362208
1986	0.00362208
1998	0.00331162
2010	0.00269069
2022	0.00320813
2034	0.0034151
2046	0.00351859
2058	0.00351859
2070	0.00289766
2082	0.00279418
2094	0.00196627
2106	0.00206976
2118	0.00206976
2130	0.00217325
2142	0.00227674
2154	0.00227674
2166	0.0025872
2178	0.00217325
2190	0.00196627
2202	0.00155232
2214	0.00134534
2226	0.00196627
2238	0.00134534
2250	0.0017593
2262	0.00186278
2274	0.0017593
2286	0.00165581
2298	0.00227674
2310	0.00217325
2322	0.00300115
2334	0.00186278
2346	0.00103488
2358	0.00248371
2370	0.00113837
2382	0.000931392
2394	0.000931392
2406	0.00113837
2418	0.00113837
2430	0.00144883
2442	0.000931392
2454	0.000931392
2466	0.000620928
2478	0.00124186
2490	0.00124186
2502	0.00124186
2514	0.00155232
2526	0.00269069
2538	0.00382906
2550	0.00393254
2562	0.00486394
2574	0.00569184
2586	0.0060023
2598	0.00641626
2610	0.00672672
2622	0.00724416
2634	0.00796858
2646	0.00869299
2658	0.00962438
2670	0.0117976
2682	0.0145918
2694	0.0165581
2706	0.0188348
2718	0.021629
2730	0.0231813
2742	0.0251476
2754	0.0261825
2766	0.0282522
2778	0.0325987
2790	0.0405673
2802	0.0491568
2814	0.06023
2826	0.0782369
2838	0.119529
2850	0.242472
2862	0.521476
2874	0.487118
2886	0.378145
2898	0.342649
2910	0.436926
2922	0.675673
2934	1.03488
2946	0.726796
2958	0.423162
2970	0.318536
2982	0.139295
2994	0.0677846
3006	0.0422231
3018	0.0287697
3030	0.021629
3042	0.016972
3054	0.0130395
3066	0.0109697
3078	0.00879648
3090	0.00827904
3102	0.00765811
3114	0.00745114
3126	0.00527789
3138	0.00538138
3150	0.00403603
3162	0.00320813
3174	0.00403603
3186	0.00372557
3198	0.00217325
3210	0.00206976
3222	0.00103488
3234	0.000413952
3246	0.00144883
3258	0.00051744
3270	0.00165581
3282	0.00238022
3294	0.00238022
3306	0.00310464
3318	0.00300115
3330	0.00310464
3342	0.00393254
3354	0.00320813
3366	0.00382906
3378	0.00351859
3390	0.00382906
3402	0.00289766
3414	0.00496742
3426	0.00465696
3438	0.00382906
3450	0.00310464
3462	0.00362208
3474	0.0051744
3486	0.00548486
3498	0.00620928
3510	0.00662323
3522	0.00972787
3534	0.00900346
3546	0.00796858
3558	0.0077616
3570	0.00879648
3582	0.00796858
3594	0.00931392
3606	0.00869299
3618	0.0168685
3630	0.0290801
3642	0.021629
3654	0.0128325
3666	0.0136604
3678	0.00941741
3690	0.0069337
3702	0.00196627
3714	0.000724416
3726	0.000206976
3738	0.000103488
3750	0.00103488
3762	0.000206976
3774	0.000206976
3786	0.000206976
3798	0.000206976
3810	0.000206976
3822	0.000206976
3834	0.000931392
3846	0.000206976
3858	0.00165581
3870	0.000206976
3882	0.00155232
3894	0.00269069
3906	0.00155232
3918	0.000310464
3930	0.000206976
3942	0
3954	0.00279418
3966	0.00186278
