Infrared Spectrum: Ethenesulfonic acid, p-chlorophenyl ester
Formula: C 8 H 7 Cl O 3 S
CAS: 3058-82-0
Origin: Sadtler Research Labs Under US-EPA Contract
1/CM	ABSORBANCE
450	0.00555851
462	0.012183
474	0.0110409
486	0.0173608
498	0.0172085
510	0.0305337
522	0.044392
534	0.0438589
546	0.050788
558	0.0339602
570	0.0413462
582	0.0140105
594	0.00472093
606	0.012716
618	0.0154572
630	0.0259651
642	0.0471331
654	0.079342
666	0.0389857
678	0.00875656
690	0.000685296
702	0.0159902
714	0.0516256
726	0.103784
738	0.0949516
750	0.0920581
762	0.332064
774	0.52585
786	0.0638087
798	0.020102
810	0.0338841
822	0.122287
834	0.183431
846	0.188
858	0.451382
870	0.704256
882	0.221274
894	0.0664737
906	0.0343409
918	0.0205589
930	0.0181984
942	0.0229193
954	0.0349501
966	0.0756871
978	0.102566
990	0.0139344
1002	0.00860427
1014	0.0993679
1026	0.0226148
1038	0.00281733
1050	0.00266504
1062	0.0044925
1074	0.0162948
1086	0.118099
1098	0.226452
1110	0.0510165
1122	0.0322089
1134	0.0478946
1146	0.159826
1158	0.448564
1170	0.328714
1182	0.564912
1194	0.266352
1206	0.25493
1218	0.0995964
1230	0.0400517
1242	0.0188837
1254	0.0223102
1266	0.0226909
1278	0.0124115
1290	0.00799512
1302	0.0063961
1314	0.00723368
1326	0.010051
1338	0.0166755
1350	0.0230716
1362	0.0485037
1374	0.140866
1386	0.303129
1398	0.362293
1410	0.472854
1422	0.105992
1434	0.0320566
1446	0.0230716
1458	0.0280971
1470	0.0579456
1482	0.390314
1494	0.406685
1506	0.0551283
1518	0.0234524
1530	0.0154572
1542	0.0127922
1554	0.00769054
1566	0.00738597
1578	0.0130206
1590	0.022234
1602	0.0114977
1614	0.00921342
1626	0.0103556
1638	0.0127922
1650	0.0124115
1662	0.0057108
1674	0.00456864
1686	0.00395949
1698	0.00494936
1710	0.00342648
1722	0.00350262
1734	0.00548237
1746	0.00601538
1758	0.0088327
1770	0.00517779
1782	0.00335034
1794	0.00327419
1806	0.00319805
1818	0.00289347
1830	0.0025889
1842	0.00251275
1854	0.00251275
1866	0.00540622
1878	0.00913728
1890	0.0103556
1902	0.00578694
1914	0.00464478
1926	0.00487322
1938	0.00685296
1950	0.00799512
1962	0.00304576
1974	0.0025889
1986	0.00205589
1998	0.00228432
2010	0.00220818
2022	0.00274118
2034	0.0025889
2046	0.00251275
2058	0.00213203
2070	0.00243661
2082	0.00144674
2094	0.00106602
2106	0.00144674
2118	0.00152288
2130	0.00144674
2142	0.00106602
2154	0.000913728
2166	0.000989872
2178	0.000837584
2190	0.000913728
2202	0.000989872
2214	0.0012183
2226	0.00129445
2238	0.00152288
2250	0.00228432
2262	0.00281733
2274	0.00319805
2286	0.00357877
2298	0.00426406
2310	0.00563466
2322	0.00517779
2334	0.00388334
2346	0.00586309
2358	0.00464478
2370	0.00426406
2382	0.00426406
2394	0.00281733
2406	0.00220818
2418	0.00152288
2430	0.000837584
2442	0.00114216
2454	0.00137059
2466	0.0012183
2478	0.00129445
2490	0.00114216
2502	0.00137059
2514	0.00152288
2526	0.00159902
2538	0.0019036
2550	0.00289347
2562	0.00357877
2574	0.00395949
2586	0.00373106
2598	0.00251275
2610	0.00228432
2622	0.00205589
2634	0.00213203
2646	0.00220818
2658	0.00205589
2670	0.00175131
2682	0.00167517
2694	0.00175131
2706	0.00106602
2718	0.00076144
2730	0.00106602
2742	0.000989872
2754	0.00106602
2766	0.0012183
2778	0.00152288
2790	0.000989872
2802	0.0012183
2814	0.0012183
2826	0.00182746
2838	0.00296962
2850	0.00266504
2862	0.00205589
2874	0.00144674
2886	0.0012183
2898	0.000837584
2910	0.000837584
2922	0
2934	0.00114216
2946	0.00106602
2958	0.000456864
2970	0.00137059
2982	0.00167517
2994	0.00220818
3006	0.00266504
3018	0.00350262
3030	0.00685296
3042	0.00974643
3054	0.00609152
3066	0.00540622
3078	0.00700525
3090	0.00784283
3102	0.00837584
3114	0.00494936
3126	0.00266504
3138	0.00182746
3150	0.00167517
3162	0.00152288
3174	0.0012183
3186	0.000989872
3198	0.00114216
3210	0.0012183
3222	0.000989872
3234	0.000989872
3246	0.00114216
3258	0.0012183
3270	0.0012183
3282	0.00152288
3294	0.00137059
3306	0.00129445
3318	0.00152288
3330	0.0012183
3342	0.00182746
3354	0.00152288
3366	0.00197974
3378	0.00220818
3390	0.00167517
3402	0.00152288
3414	0.00182746
3426	0.00182746
3438	0.00106602
3450	0.00205589
3462	0.00152288
3474	0.00137059
3486	0.00159902
3498	0.00137059
3510	0.00159902
3522	0.00144674
3534	0.00152288
3546	0.00106602
3558	0.00106602
3570	0.00144674
3582	0.00182746
3594	0.00182746
3606	0.00129445
3618	0.00175131
3630	0.00152288
3642	0.00236046
3654	0.00335034
3666	0.00236046
3678	0.00106602
3690	0.00182746
3702	0.00167517
3714	0.00137059
3726	0.00197974
3738	0.00251275
3750	0.00144674
3762	0.00114216
3774	0.00167517
3786	0.0019036
3798	0.00159902
3810	0.00182746
3822	0.0025889
3834	0.0025889
3846	0.00175131
3858	0.00182746
3870	0.00205589
3882	0.00197974
3894	0.00243661
3906	0.00205589
3918	0.00274118
3930	0.00182746
3942	0.0012183
3954	0.00137059
3966	0.00144674
