Infrared Spectrum: Benzofuran, 2,3-dihydro-2,2,7-trimethyl-,
Formula: C 11 H 14 O
CAS: 30590-60-4
Origin: Sadtler Research Labs Under US-EPA Contract
1/CM	ABSORBANCE
450	0.0105112
462	0.0121657
474	0.00676416
486	0.0052556
498	0.0035524
510	0.008808
522	0.0101706
534	0.00686148
546	0.00389304
558	0.0114845
570	0.00939196
582	0.00472031
594	0.013285
606	0.00846736
618	0.00350374
630	0.00238449
642	9.7326e-05
654	0.00272513
666	0.00296844
678	0.00335775
690	0.00554758
702	0.00540159
714	0.0156208
726	0.0560111
738	0.0461812
750	0.175965
762	0.180296
774	0.0505609
786	0.0573737
798	0.026716
810	0.0126037
822	0.00890533
834	0.0236016
846	0.0513881
858	0.0326042
870	0.0918271
882	0.346529
894	0.200102
906	0.0284192
918	0.0229203
930	0.0250128
942	0.0409742
954	0.0333828
966	0.0378112
978	0.0365459
990	0.0149395
1002	0.0121657
1014	0.0106085
1026	0.00944062
1038	0.0149882
1050	0.0276406
1062	0.0480304
1074	0.0950388
1086	0.0518261
1098	0.0519234
1110	0.0741137
1122	0.159615
1134	0.251685
1146	0.238887
1158	0.166817
1170	0.135575
1182	0.0601475
1194	0.0767902
1206	0.0513395
1218	0.0365459
1230	0.0682742
1242	0.139711
1254	0.244824
1266	0.369887
1278	0.165698
1290	0.164286
1302	0.134894
1314	0.0859875
1326	0.117181
1338	0.0380058
1350	0.01747
1362	0.0572764
1374	0.165065
1386	0.118008
1398	0.0337721
1410	0.0199032
1422	0.0422395
1434	0.15577
1446	0.299569
1458	0.345945
1470	0.309935
1482	0.207548
1494	0.107886
1506	0.0476411
1518	0.0272999
1530	0.0185893
1542	0.0162534
1554	0.0125064
1566	0.0116305
1578	0.0153288
1590	0.0603421
1602	0.142729
1614	0.0422395
1626	0.027154
1638	0.0188812
1650	0.0121171
1662	0.0110465
1674	0.00997592
1686	0.00647218
1698	0.00715346
1710	0.00705613
1722	0.00851602
1734	0.00875934
1746	0.0048663
1758	0.00773742
1770	0.0102679
1782	0.00496363
1794	0.00360106
1806	0.00335775
1818	0.0057909
1830	0.0122631
1842	0.00788341
1854	0.00326042
1866	0.00277379
1878	0.00408769
1890	0.0109492
1902	0.0109492
1914	0.00350374
1926	0.00214117
1938	0.00150855
1950	0.00155722
1962	0.00155722
1974	0.00272513
1986	0.00306577
1998	0.0022385
2010	0.00180053
2022	0.0017032
2034	0.00165454
2046	0.00155722
2058	0.000827271
2070	0.000924597
2082	0.0017032
2094	0.00194652
2106	0.00253048
2118	0.00214117
2130	0.00150855
2142	0.00116791
2154	0.0013139
2166	0.00180053
2178	0.00141123
2190	0.00097326
2202	0.0013139
2214	0.00107059
2226	0.000778608
2238	0.00048663
2250	0.000145989
2262	0.000194652
2274	0.00097326
2286	0.00102192
2298	0.000875934
2310	0.000924597
2322	0.00180053
2334	0.0017032
2346	0.00243315
2358	0.00204385
2370	0.00155722
2382	0.00175187
2394	0.00287112
2406	0.00267646
2418	0.00233582
2430	0.0026278
2442	0.00330908
2454	0.0026278
2466	0.00253048
2478	0.00340641
2490	0.00374705
2502	0.00291978
2514	0.00335775
2526	0.00248181
2538	0.00214117
2550	0.00218983
2562	0.00296844
2574	0.0035524
2586	0.00433101
2598	0.00360106
2610	0.00321176
2622	0.00374705
2634	0.00360106
2646	0.0048663
2658	0.00330908
2670	0.00218983
2682	0.00277379
2694	0.00272513
2706	0.00296844
2718	0.00335775
2730	0.0057909
2742	0.00939196
2754	0.00725079
2766	0.0039417
2778	0.00413635
2790	0.0039417
2802	0.00545026
2814	0.00924597
2826	0.012847
2838	0.01747
2850	0.0376652
2862	0.108032
2874	0.115429
2886	0.0930437
2898	0.0916811
2910	0.115623
2922	0.188812
2934	0.275919
2946	0.24239
2958	0.144091
2970	0.201124
2982	0.48663
2994	0.179226
3006	0.031047
3018	0.0441373
3030	0.0983966
3042	0.0980073
3054	0.0969854
3066	0.132217
3078	0.0865228
3090	0.0305604
3102	0.0150855
3114	0.0105112
3126	0.0052556
3138	0.00321176
3150	0.00272513
3162	0.00311443
3174	0.00326042
3186	0.00515828
3198	0.00574223
3210	0.00428234
3222	0.00360106
3234	0.00335775
3246	0.00238449
3258	0.0013139
3270	0.000827271
3282	0.00107059
3294	0.00180053
3306	0.00204385
3318	0.0013139
3330	0.00145989
3342	0.00102192
3354	0.00155722
3366	0.0013139
3378	0.00150855
3390	0.000875934
3402	0.00136256
3414	0.000778608
3426	0.00165454
3438	0.00141123
3450	0.00116791
3462	0.00160588
3474	0.00126524
3486	0.00150855
3498	0.00155722
3510	0.0017032
3522	0.00111925
3534	0.00189786
3546	0.000681282
3558	0.000875934
3570	0.00126524
3582	0.00048663
3594	0.000681282
3606	0.000145989
3618	0.000681282
3630	0.000729945
3642	0.000875934
3654	0.00116791
3666	0.00150855
3678	0
3690	0.00121657
3702	0.000778608
3714	0.000145989
3726	0.00111925
3738	0.000632619
3750	0.000389304
3762	0.000437967
3774	9.7326e-05
3786	0.00126524
3798	0.000632619
3810	0.00121657
3822	0.000681282
3834	0.00116791
3846	0.00141123
3858	0.00111925
3870	0.00121657
3882	0.00150855
3894	0.00165454
3906	0.00175187
3918	0.00111925
3930	0.00180053
3942	0.000535293
3954	0.000924597
3966	9.7326e-05
