Infrared Spectrum: Ethane, 2,2-dichloro-1,1,1-trifluoro-
Formula: C 2 H Cl 2 F 3
CAS: 306-83-2
Origin: Sadtler Research Labs Under US-EPA Contract
1/CM	ABSORBANCE
450	0.00470668
462	0.0101622
474	0.00861108
486	0.0109644
498	0.00722047
510	0.0107505
522	0.0198964
534	0.0182384
546	0.0182919
558	0.0189337
570	0.00989473
582	0.00845063
594	0.00914594
606	0.00743441
618	0.0104831
630	0.00829018
642	0.00845063
654	0.0166338
666	0.0599032
678	0.0858969
690	0.00861108
702	0.00812972
714	0.00775533
726	0.00823669
738	0.0121946
750	0.0158316
762	0.0407021
774	0.0443391
786	0.0190407
798	0.0179175
810	0.0260472
822	0.0967544
834	0.278122
846	0.261274
858	0.0880363
870	0.0758417
882	0.0265286
894	0.010804
906	0.0111784
918	0.00946684
930	0.00807623
942	0.00909245
954	0.00727396
966	0.00807623
978	0.00984124
990	0.0125155
1002	0.0124085
1014	0.00834366
1026	0.00839714
1038	0.00893199
1050	0.00973427
1062	0.0121946
1074	0.0121946
1086	0.0138526
1098	0.0212335
1110	0.0338025
1122	0.0720978
1134	0.248224
1146	0.469705
1158	0.256247
1170	0.108575
1182	0.391029
1194	0.507091
1206	0.18939
1218	0.105045
1230	0.108254
1242	0.0854155
1254	0.0791043
1266	0.285556
1278	0.498106
1290	0.201745
1302	0.0583521
1314	0.208431
1326	0.190834
1338	0.0353536
1350	0.0167408
1362	0.0182919
1374	0.0144409
1386	0.0145479
1398	0.0135852
1410	0.00914594
1422	0.00935988
1434	0.00775533
1446	0.00663214
1458	0.00593683
1470	0.00566941
1482	0.00636471
1494	0.00684608
1506	0.0064182
1518	0.0074879
1530	0.00893199
1542	0.0103761
1554	0.00668562
1566	0.00513456
1578	0.00540198
1590	0.00443926
1602	0.00492062
1614	0.00518804
1626	0.00561592
1638	0.00588335
1650	0.00556244
1662	0.0053485
1674	0.00449274
1686	0.00577638
1698	0.00508108
1710	0.00492062
1722	0.00465319
1734	0.00513456
1746	0.00540198
1758	0.00443926
1770	0.00401138
1782	0.00363698
1794	0.00433228
1806	0.00369046
1818	0.00369046
1830	0.00374395
1842	0.00353001
1854	0.00374395
1866	0.00385092
1878	0.00267425
1890	0.0028347
1902	0.00272774
1914	0.00272774
1926	0.00256728
1938	0.00246031
1950	0.00246031
1962	0.00240683
1974	0.00229985
1986	0.00246031
1998	0.00294167
2010	0.00336956
2022	0.00315562
2034	0.00246031
2046	0.00272774
2058	0.00278122
2070	0.00246031
2082	0.00235334
2094	0.00246031
2106	0.00262077
2118	0.00240683
2130	0.00310213
2142	0.00374395
2154	0.00294167
2166	0.0021394
2178	0.00219288
2190	0.00224637
2202	0.00165803
2214	0.00160455
2226	0.0014441
2238	0.00128364
2250	0.00117667
2262	0.00155106
2274	0.00149758
2286	0.00117667
2298	0.000374395
2310	0
2322	0.0010697
2334	0.00203243
2346	0.0010697
2358	0.000160455
2370	0.00171152
2382	0.00208591
2394	0.00272774
2406	0.00267425
2418	0.00310213
2430	0.00278122
2442	0.00176501
2454	0.00123015
2466	0.00101622
2478	0.00128364
2490	0.0014441
2502	0.00203243
2514	0.00229985
2526	0.00187198
2538	0.00187198
2550	0.00149758
2562	0.0010697
2574	0.000909245
2586	0.0010697
2598	0.00123015
2610	0.00053485
2622	0.00042788
2634	0.000481365
2646	0.00064182
2658	0.000588335
2670	0.00101622
2682	0.00053485
2694	0.000695305
2706	0.00053485
2718	0.00064182
2730	0.00064182
2742	0.00074879
2754	0.000588335
2766	0.000695305
2778	0.00074879
2790	0.000909245
2802	0.00064182
2814	0.000588335
2826	0.000695305
2838	0.00053485
2850	0.00101622
2862	0.000588335
2874	0.00085576
2886	0.00085576
2898	0.000909245
2910	0.00085576
2922	0.00085576
2934	0.000909245
2946	0.000588335
2958	0.00096273
2970	0.00085576
2982	0.00149758
2994	0.0021394
3006	0.00866457
3018	0.00893199
3030	0.00155106
3042	0.000802275
3054	0.00064182
3066	0.00074879
3078	0.000588335
3090	0.00074879
3102	0.000802275
3114	0.000802275
3126	0.00053485
3138	0.000588335
3150	0.00085576
3162	0.00053485
3174	0.000802275
3186	0.000909245
3198	0.000695305
3210	0.000588335
3222	0.00085576
3234	0.00064182
3246	0.00042788
3258	0.000481365
3270	0.000695305
3282	0.00053485
3294	0.00074879
3306	0.000695305
3318	0.000267425
3330	0.00042788
3342	0
3354	0.00123015
3366	0.00112319
3378	0.000588335
3390	0.000802275
3402	0.00155106
3414	0.00074879
3426	0.000909245
3438	0.000481365
3450	0.000588335
3462	0.00133712
3474	0.00117667
3486	0.0014441
3498	0.0010697
3510	0.000267425
3522	0.00096273
3534	0.00112319
3546	0.0010697
3558	0.00123015
3570	0.0014441
3582	0.00171152
3594	0.00096273
3606	0.00203243
3618	0.0028347
3630	0.00262077
3642	0.00149758
3654	0.00139061
3666	0.00171152
3678	0.00294167
3690	0.0021394
3702	0.00160455
3714	0.00272774
3726	0.00363698
3738	0.00278122
3750	0.00192546
3762	0.00203243
3774	0.000588335
3786	0.00342304
3798	0.00304865
3810	0.00262077
3822	0.0025138
3834	0.00219288
3846	0.00187198
3858	0.00128364
3870	0.00160455
3882	0.00187198
3894	0.00262077
3906	0.0028347
3918	0.00187198
3930	0.0021394
3942	0.000909245
3954	0.00171152
3966	0.00117667
