Infrared Spectrum: 3,4-Furandimethanol, diacetate
Formula: C 10 H 12 O 5
CAS: 30614-73-4
Origin: Sadtler Research Labs Under US-EPA Contract
1/CM	ABSORBANCE
450	0
462	0.0199691
474	0.0344253
486	0.043001
498	0.0390807
510	0.0300149
522	0.0251145
534	0.0308725
546	0.0224193
558	0.0252371
570	0.0289124
582	0.0325877
594	0.0700757
606	0.105359
618	0.0556195
630	0.042756
642	0.0403058
654	0.0383456
666	0.0297699
678	0.0254821
690	0.03026
702	0.0347928
714	0.0378556
726	0.0332002
738	0.0339353
750	0.0431235
762	0.0374881
774	0.0461863
786	0.0585598
798	0.109769
810	0.108544
822	0.055252
834	0.0567221
846	0.0441036
858	0.0431235
870	0.0721584
882	0.120305
894	0.0632152
906	0.0563546
918	0.0553745
930	0.0437361
942	0.043491
954	0.0815917
966	0.140396
978	0.0882072
990	0.0873496
1002	0.1562
1014	0.235709
1026	0.343763
1038	0.267194
1050	0.18793
1062	0.21672
1074	0.0940877
1086	0.0798765
1098	0.0623576
1110	0.049249
1122	0.042511
1134	0.0482689
1146	0.106461
1158	0.126308
1170	0.0823267
1182	0.0884522
1194	0.118957
1206	0.243917
1218	0.73947
1230	1.2251
1242	0.805993
1254	0.362507
1266	0.18646
1278	0.134761
1290	0.111117
1302	0.0681156
1314	0.049494
1326	0.0417759
1338	0.0418984
1350	0.0569671
1362	0.147135
1374	0.21672
1386	0.215863
1398	0.0981305
1410	0.06101
1422	0.0535369
1434	0.0564771
1446	0.0635827
1458	0.0826942
1470	0.0744861
1482	0.049004
1494	0.0426335
1506	0.042756
1518	0.0415309
1530	0.0464313
1542	0.067503
1554	0.092495
1566	0.0701982
1578	0.0421434
1590	0.0379781
1602	0.0416534
1614	0.042511
1626	0.036508
1638	0.0345478
1650	0.0383456
1662	0.0354054
1674	0.0399383
1686	0.0438586
1698	0.049494
1710	0.0558646
1722	0.0796315
1734	0.117732
1746	0.21231
1758	0.639257
1770	0.82535
1782	0.286306
1794	0.152892
1806	0.0998456
1818	0.0605199
1830	0.0465538
1842	0.0400608
1854	0.0347928
1866	0.0320976
1878	0.0295249
1890	0.0290349
1902	0.0289124
1914	0.0290349
1926	0.0294024
1938	0.0291574
1950	0.0284223
1962	0.0282998
1974	0.0279323
1986	0.0279323
1998	0.0282998
2010	0.0282998
2022	0.0282998
2034	0.0282998
2046	0.0290349
2058	0.0298924
2070	0.0287898
2082	0.0276873
2094	0.0276873
2106	0.0279323
2118	0.0286673
2130	0.0285448
2142	0.0282998
2154	0.0281773
2166	0.0276873
2178	0.0270747
2190	0.0265847
2202	0.0269522
2214	0.0270747
2226	0.0270747
2238	0.0268297
2250	0.0262171
2262	0.0262171
2274	0.0262171
2286	0.0259721
2298	0.024257
2310	0.0200916
2322	0.0194791
2334	0.0194791
2346	0.0196016
2358	0.0196016
2370	0.0194791
2382	0.0235219
2394	0.0263396
2406	0.0262171
2418	0.0263396
2430	0.0264622
2442	0.0269522
2454	0.0274422
2466	0.0274422
2478	0.0265847
2490	0.0267072
2502	0.0264622
2514	0.0259721
2526	0.0257271
2538	0.0259721
2550	0.0262171
2562	0.0258496
2574	0.0254821
2586	0.0260946
2598	0.0258496
2610	0.0259721
2622	0.0260946
2634	0.0257271
2646	0.0252371
2658	0.0253596
2670	0.0248695
2682	0.0253596
2694	0.0253596
2706	0.0254821
2718	0.0258496
2730	0.0263396
2742	0.0260946
2754	0.0270747
2766	0.0271972
2778	0.0263396
2790	0.0258496
2802	0.0258496
2814	0.0267072
2826	0.0274422
2838	0.0278098
2850	0.0281773
2862	0.0291574
2874	0.0311175
2886	0.0358954
2898	0.0456962
2910	0.042756
2922	0.0389582
2934	0.043001
2946	0.0588048
2958	0.079999
2970	0.0921275
2982	0.0661554
2994	0.0514542
3006	0.042756
3018	0.036508
3030	0.0363855
3042	0.0352829
3054	0.0341803
3066	0.0332002
3078	0.03124
3090	0.0294024
3102	0.0282998
3114	0.0269522
3126	0.0259721
3138	0.0254821
3150	0.0252371
3162	0.024747
3174	0.024257
3186	0.0236444
3198	0.0236444
3210	0.0238894
3222	0.0232769
3234	0.0232769
3246	0.0232769
3258	0.0231544
3270	0.0232769
3282	0.0230319
3294	0.0231544
3306	0.0230319
3318	0.0235219
3330	0.0230319
3342	0.0232769
3354	0.0229094
3366	0.0230319
3378	0.0232769
3390	0.0226643
3402	0.0232769
3414	0.0229094
3426	0.0232769
3438	0.0227869
3450	0.0226643
3462	0.0227869
3474	0.024012
3486	0.0237669
3498	0.0258496
3510	0.0282998
3522	0.0256046
3534	0.0238894
3546	0.0218068
3558	0.0269522
3570	0.0270747
3582	0.0317301
3594	0.0276873
3606	0.0268297
3618	0.0218068
3630	0.0197241
3642	0.0205817
3654	0.0221743
3666	0.0226643
3678	0.0203367
3690	0.0208267
3702	0.0203367
3714	0.0210717
3726	0.0200916
3738	0.0194791
3750	0.0227869
3762	0.0224193
3774	0.0207042
3786	0.0215618
3798	0.0209492
3810	0.0230319
3822	0.0214392
3834	0.0207042
3846	0.0213167
3858	0.0211942
3870	0.0203367
3882	0.0204592
3894	0.0207042
3906	0.0207042
3918	0.0197241
3930	0.0203367
3942	0.0197241
3954	0.0224193
3966	0.0216843
