Infrared Spectrum: 4'-Methoxy-2'-hydroxybenzylidene-4-n-butylaniline
Formula: C 18 H 21 N O 2
CAS: 30633-94-4
Origin: Sadtler Research Labs Under US-EPA Contract
1/CM	ABSORBANCE
450	0.00081224
462	0.00745784
474	0.00502112
486	0.00712556
498	0.0115929
510	0.0128112
522	0.0139927
534	0.0182016
546	0.0232965
558	0.0136235
570	0.00077532
582	0.00635024
594	0.00657176
606	0.0113714
618	0.0101161
630	0.0042458
642	0.00993148
654	0.00974688
666	0.00487344
678	0.00468884
690	0.00465192
702	0.00638716
714	0.0104114
726	0.0130328
738	0.0151372
750	0.0150634
762	0.0184969
774	0.0246995
786	0.0408335
798	0.0510604
810	0.0468515
822	0.0520203
834	0.0827746
846	0.0488452
858	0.0321204
870	0.0237765
882	0.0404643
894	0.0203798
906	0.0070148
918	0.005538
930	0.00815932
942	0.00856544
954	0.0201214
966	0.0458546
978	0.0187554
990	0.00782704
1002	0.00908232
1014	0.025844
1026	0.0447101
1038	0.0282807
1050	0.010633
1062	0.00915616
1074	0.0119621
1086	0.0144726
1098	0.0246995
1110	0.0796364
1122	0.0944414
1134	0.106846
1146	0.0389875
1158	0.108508
1170	0.164183
1182	0.0571152
1194	0.124827
1206	0.170497
1218	0.0502112
1230	0.0579644
1242	0.0639824
1254	0.0403166
1266	0.0256225
1278	0.0613241
1290	0.145834
1302	0.0774951
1314	0.0317512
1326	0.0402428
1338	0.068782
1350	0.0476637
1362	0.0572998
1374	0.0537555
1386	0.0636501
1398	0.0490298
1410	0.0299421
1422	0.0277269
1434	0.0384337
1446	0.0694834
1458	0.0659022
1470	0.0660868
1482	0.0534971
1494	0.0770151
1506	0.181388
1518	0.199553
1530	0.0813348
1542	0.0638347
1554	0.0838453
1566	0.134906
1578	0.134315
1590	0.160085
1602	0.22499
1614	0.281995
1626	0.358013
1638	0.176625
1650	0.0547154
1662	0.023555
1674	0.0131435
1686	0.00708864
1698	0.00446732
1710	0.00310128
1722	0.00214136
1734	0.00195676
1746	0.00180908
1758	0.00232596
1770	0.00310128
1782	0.00217828
1794	0.0011076
1806	0.00107068
1818	0.00066456
1830	0.00033228
1842	0.0012922
1854	0.00232596
1866	0.00247364
1878	0.00291668
1890	0.00372892
1902	0.00280592
1914	0.00151372
1926	0.00162448
1938	0.00162448
1950	0.0011076
1962	0.00062764
1974	0.00044304
1986	0.0007384
1998	0.00077532
2010	0.00125528
2022	0.00173524
2034	0.00210444
2046	0.00247364
2058	0.002769
2070	0.00236288
2082	0.00188292
2094	0.0011076
2106	0.00081224
2118	0.00114452
2130	0.00118144
2142	0.00070148
2154	0.00077532
2166	0.00099684
2178	0.00114452
2190	0.00125528
2202	0.00143988
2214	0.00107068
2226	0.00121836
2238	0.00180908
2250	0.0022152
2262	0.00195676
2274	0.00214136
2286	0.00247364
2298	0.0025844
2310	0.00273208
2322	0.00310128
2334	0.00328588
2346	0.00468884
2358	0.0053534
2370	0.00531648
2382	0.00557492
2394	0.0060918
2406	0.00675636
2418	0.00690404
2430	0.00734708
2442	0.00808548
2454	0.00893464
2466	0.00934076
2478	0.0100792
2490	0.0100422
2502	0.010153
2514	0.0106699
2526	0.0113344
2538	0.0116298
2550	0.0116298
2562	0.0121836
2574	0.0130328
2586	0.0139927
2598	0.014288
2610	0.0153587
2622	0.0168355
2634	0.0173893
2646	0.0175001
2658	0.0178324
2670	0.0183492
2682	0.0186446
2694	0.0191615
2706	0.0199368
2718	0.0206752
2730	0.0207121
2742	0.0205644
2754	0.0199737
2766	0.0194938
2778	0.0195307
2790	0.0205644
2802	0.0227058
2814	0.0262132
2826	0.0325634
2838	0.0467776
2850	0.0634286
2862	0.0692988
2874	0.0696311
2886	0.0659391
2898	0.0652746
2910	0.0762398
2922	0.102675
2934	0.130734
2946	0.11364
2958	0.104927
2970	0.0971734
2982	0.0579644
2994	0.0460762
3006	0.0482544
3018	0.0468884
3030	0.0486236
3042	0.0356647
3054	0.0310866
3066	0.0289822
3078	0.0297944
3090	0.0280592
3102	0.0229642
3114	0.0200476
3126	0.0182016
3138	0.0172047
3150	0.0165032
3162	0.0159125
3174	0.0153956
3186	0.0143619
3198	0.0135496
3210	0.0129589
3222	0.0122944
3234	0.0113714
3246	0.0107068
3258	0.00934076
3270	0.00915616
3282	0.007384
3294	0.0071994
3306	0.00690404
3318	0.00612872
3330	0.00564876
3342	0.005538
3354	0.00491036
3366	0.00502112
3378	0.00402428
3390	0.0042458
3402	0.00383968
3414	0.00354432
3426	0.00317512
3438	0.0022152
3450	0.0023998
3462	0.00291668
3474	0.0025844
3486	0.00210444
3498	0.0025844
3510	0.00191984
3522	0.0011076
3534	0.00173524
3546	0.00180908
3558	0.00155064
3570	0.00158756
3582	0.00162448
3594	0.001846
3606	0.00169832
3618	0.00121836
3630	0.002769
3642	0.00180908
3654	0.0016614
3666	0.001846
3678	0.00169832
3690	0.00191984
3702	0.00118144
3714	0.00162448
3726	0.00199368
3738	0.00195676
3750	0.00162448
3762	0.00188292
3774	0.00199368
3786	0.00180908
3798	0.0016614
3810	0.00199368
3822	0.00140296
3834	0.00169832
3846	0.00217828
3858	0.00236288
3870	0.00291668
3882	0.00236288
3894	0.00210444
3906	0.00262132
3918	0.00177216
3930	0.00306436
3942	0.00217828
3954	0.0014768
3966	0.00188292
