Infrared Spectrum: Acrylamide, N-cyclohexyl-
Formula: C 9 H 15 N O
CAS: 3066-72-6
Origin: Sadtler Research Labs Under US-EPA Contract
1/CM	ABSORBANCE
450	0.0319137
462	0.0212069
474	0.0111615
486	0.0254235
498	0.011947
510	0.0140139
522	0.0142206
534	0.0223231
546	0.00698629
558	0.0135179
570	0.010004
582	0.0114922
594	0.0132698
606	0.0112442
618	0.00727566
630	0.00954931
642	0.010004
654	0.00810244
666	0.0142206
678	0.00450595
690	0.00553943
702	0.00504336
714	0.00334846
726	0.00785441
738	0.000950797
750	0.0162049
762	0.0108308
774	0.0115336
786	0.0253408
798	0.0337326
810	0.0228605
822	0.0229845
834	0.0177344
846	0.0209175
858	0.0182305
870	0.0191813
882	0.0234392
894	0.0253408
906	0.021703
918	0.0211656
930	0.0331539
942	0.0403055
954	0.0420831
966	0.0589908
978	0.0577506
990	0.0343114
1002	0.0208349
1014	0.0181892
1026	0.0144273
1038	0.0134352
1050	0.0145927
1062	0.014634
1074	0.0173624
1086	0.0183959
1098	0.0287306
1110	0.0276558
1122	0.024018
1134	0.0198841
1146	0.0232325
1158	0.0272424
1170	0.0330299
1182	0.0783374
1194	0.124761
1206	0.105042
1218	0.0550222
1230	0.0438607
1242	0.0456796
1254	0.0641168
1266	0.039272
1278	0.0317897
1290	0.0223231
1302	0.0319137
1314	0.0510537
1326	0.0407189
1338	0.0279865
1350	0.0293094
1362	0.0242247
1374	0.0249274
1386	0.0229845
1398	0.0420418
1410	0.0579159
1422	0.0421244
1434	0.0417111
1446	0.0739968
1458	0.11823
1470	0.156344
1482	0.276475
1494	0.388215
1506	0.246918
1518	0.102107
1530	0.0430339
1542	0.0283999
1554	0.0187266
1566	0.0178171
1578	0.0164943
1590	0.017197
1602	0.0199667
1614	0.0324098
1626	0.0435713
1638	0.0369571
1650	0.0256715
1662	0.026829
1674	0.041463
1686	0.103099
1698	0.273457
1710	0.287471
1722	0.0961132
1734	0.0343114
1746	0.0201734
1758	0.0141793
1770	0.0116163
1782	0.00855717
1794	0.00723432
1806	0.00520871
1818	0.00355515
1830	0.00438193
1842	0.00355515
1854	0.00289373
1866	0.0026457
1878	0.00334846
1890	0.00372051
1902	0.00347248
1914	0.00520871
1926	0.00587014
1938	0.00380319
1950	0.00132285
1962	0.00161222
1974	0.00144686
1986	0.00082678
1998	0.00082678
2010	0.00082678
2022	0.000744102
2034	0.000454729
2046	0.00082678
2058	0.000702763
2070	0.000909458
2082	0.00107481
2094	0.000578746
2106	0.000785441
2118	0.000868119
2130	0.000620085
2142	0.00124017
2154	0.00107481
2166	0.00119883
2178	0.00140553
2190	0.00119883
2202	0.00082678
2214	0.000661424
2226	0.000620085
2238	0.0016949
2250	0.00272837
2262	0.0039272
2274	0.00504336
2286	0.00458863
2298	0.0056221
2310	0.00640754
2322	0.00545675
2334	0.00446461
2346	0.00835048
2358	0.0056221
2370	0.00661424
2382	0.00595282
2394	0.00239766
2406	0.00177758
2418	0.00223231
2430	0.00190159
2442	0.00194293
2454	0.00181892
2466	0.00202561
2478	0.00186025
2490	0.00210829
2502	0.00186025
2514	0.0016949
2526	0.00202561
2538	0.00161222
2550	0.00165356
2562	0.00202561
2574	0.00256302
2586	0.00330712
2598	0.00363783
2610	0.00351381
2622	0.00347248
2634	0.00429926
2646	0.00504336
2658	0.00644888
2670	0.0075237
2682	0.0065729
2694	0.00566344
2706	0.00533273
2718	0.00458863
2730	0.00405122
2742	0.00400988
2754	0.00429926
2766	0.00467131
2778	0.00541541
2790	0.00694495
2802	0.00855717
2814	0.00917726
2826	0.011823
2838	0.0189746
2850	0.0532033
2862	0.13369
2874	0.105828
2886	0.0462583
2898	0.0475812
2910	0.0813965
2922	0.156633
2934	0.328893
2946	0.383957
2958	0.142082
2970	0.0378665
2982	0.019388
2994	0.0163289
3006	0.0137245
3018	0.0167836
3030	0.0190986
3042	0.0112029
3054	0.0101694
3066	0.00930127
3078	0.00859851
3090	0.0166183
3102	0.0153781
3114	0.00855717
3126	0.00570478
3138	0.00504336
3150	0.0043406
3162	0.0050847
3174	0.00384453
3186	0.00305909
3198	0.00405122
3210	0.00421658
3222	0.00388587
3234	0.00367917
3246	0.0041339
3258	0.00458863
3270	0.00421658
3282	0.00334846
3294	0.00326578
3306	0.00396854
3318	0.00446461
3330	0.00351381
3342	0.00367917
3354	0.00363783
3366	0.00409256
3378	0.00504336
3390	0.00525005
3402	0.00653156
3414	0.00673826
3426	0.00706897
3438	0.0122363
3450	0.0210002
3462	0.021827
3474	0.0128151
3486	0.00599416
3498	0.00380319
3510	0.00235632
3522	0.00322444
3534	0.00227364
3546	0.00210829
3558	0.00132285
3570	0.00276971
3582	0.00322444
3594	0.00152954
3606	0.00239766
3618	0.0014882
3630	0.00252168
3642	0.00310042
3654	0.00297641
3666	0.00231498
3678	0.00276971
3690	0.00260436
3702	0.00214963
3714	0.00293507
3726	0.00227364
3738	0.00223231
3750	0.0016949
3762	0.00136419
3774	0.00268703
3786	0.000124017
3798	0.000206695
3810	0.000578746
3822	0.000578746
3834	8.2678e-05
3846	0.00334846
3858	0
3870	0.000744102
3882	0.00165356
3894	0.000206695
3906	0.000496068
3918	0.00119883
3930	0.0014882
3942	0.00310042
3954	0.0041339
3966	0.00620085
