Infrared Spectrum: Butyl caprate
Formula: C 14 H 28 O 2
CAS: 30673-36-0
Origin: Sadtler Research Labs Under US-EPA Contract
1/CM	ABSORBANCE
450	0
462	0.0314048
474	0.0391056
486	0.0374211
498	0.0369398
510	0.028517
522	0.0293593
534	0.0332097
546	0.0273138
558	0.0261105
570	0.0283967
582	0.0332097
594	0.0302016
606	0.0291186
618	0.0312845
630	0.0291186
642	0.0277951
654	0.0262308
666	0.0261105
678	0.0238244
690	0.0275544
702	0.0294796
714	0.0406699
726	0.0411511
738	0.039226
750	0.0601625
762	0.0424747
774	0.0338113
786	0.0312845
798	0.0298406
810	0.0334503
822	0.0322471
834	0.0365788
846	0.0424747
858	0.0369398
870	0.0350146
882	0.038143
894	0.0397072
906	0.0412715
918	0.0380227
930	0.0428357
942	0.052582
954	0.0689462
966	0.0776096
978	0.0717137
990	0.06666
1002	0.0778503
1014	0.101675
1026	0.109014
1038	0.0991478
1050	0.101795
1062	0.137892
1074	0.145714
1086	0.121649
1098	0.151008
1110	0.213457
1122	0.198296
1134	0.193723
1146	0.315372
1158	0.501755
1170	0.501635
1182	0.436419
1194	0.37024
1206	0.317297
1218	0.299369
1230	0.317899
1242	0.342325
1254	0.292751
1266	0.226692
1278	0.189512
1290	0.160634
1302	0.154738
1314	0.143909
1326	0.130312
1338	0.138975
1350	0.166289
1362	0.149444
1374	0.110218
1386	0.113105
1398	0.0883185
1410	0.0604031
1422	0.0678633
1434	0.0922893
1446	0.116234
1458	0.169538
1470	0.168936
1482	0.0895218
1494	0.0507772
1506	0.0359772
1518	0.0309235
1530	0.0251479
1542	0.0253886
1554	0.0243056
1566	0.023704
1578	0.0243056
1590	0.0232227
1602	0.0211772
1614	0.0238244
1626	0.0222601
1638	0.0223804
1650	0.0241853
1662	0.024065
1674	0.0269528
1686	0.0334503
1698	0.0437983
1710	0.0671414
1722	0.105164
1734	0.199018
1746	0.567934
1758	0.770922
1770	0.25557
1782	0.104562
1794	0.0585983
1806	0.0394666
1818	0.0299609
1830	0.0255089
1842	0.0229821
1854	0.0218991
1866	0.0212975
1878	0.019974
1890	0.0202146
1902	0.0204553
1914	0.019974
1926	0.0202146
1938	0.0198536
1950	0.0204553
1962	0.019974
1974	0.0204553
1986	0.0204553
1998	0.0204553
2010	0.0203349
2022	0.0202146
2034	0.0211772
2046	0.0214178
2058	0.0203349
2070	0.0209365
2082	0.0198536
2094	0.0191317
2106	0.0186504
2118	0.018891
2130	0.0186504
2142	0.0187707
2154	0.0180487
2166	0.0178081
2178	0.0180487
2190	0.0176878
2202	0.0179284
2214	0.0175674
2226	0.0176878
2238	0.0174471
2250	0.0176878
2262	0.0178081
2274	0.0180487
2286	0.0179284
2298	0.0180487
2310	0.01853
2322	0.0184097
2334	0.0194927
2346	0.0198536
2358	0.0172065
2370	0.0203349
2382	0.0184097
2394	0.0182894
2406	0.0182894
2418	0.0179284
2430	0.0179284
2442	0.0173268
2454	0.0170862
2466	0.0169658
2478	0.0169658
2490	0.0173268
2502	0.0174471
2514	0.0176878
2526	0.0179284
2538	0.0181691
2550	0.0186504
2562	0.019252
2574	0.0200943
2586	0.0204553
2598	0.0206959
2610	0.0221398
2622	0.0223804
2634	0.0231024
2646	0.024065
2658	0.0251479
2670	0.0273138
2682	0.0286373
2694	0.0286373
2706	0.0280357
2718	0.0280357
2730	0.0294796
2742	0.0322471
2754	0.0327284
2766	0.03333
2778	0.0348943
2790	0.0391056
2802	0.0454828
2814	0.0542666
2826	0.0696682
2838	0.0975836
2850	0.181811
2862	0.427033
2874	0.443157
2886	0.387928
2898	0.331736
2910	0.450256
2922	0.758529
2934	1.20325
2946	1.01253
2958	0.729049
2970	0.827956
2982	0.428838
2994	0.1924
3006	0.10733
3018	0.0742405
3030	0.058117
3042	0.047769
3054	0.0398276
3066	0.0348943
3078	0.0316455
3090	0.0299609
3102	0.028517
3114	0.0275544
3126	0.0264715
3138	0.0255089
3150	0.0246666
3162	0.0238244
3174	0.0232227
3186	0.0232227
3198	0.0228618
3210	0.0220195
3222	0.0210569
3234	0.0194927
3246	0.0194927
3258	0.0193723
3270	0.01853
3282	0.0194927
3294	0.0191317
3306	0.0190113
3318	0.0190113
3330	0.019252
3342	0.0181691
3354	0.0186504
3366	0.0191317
3378	0.01853
3390	0.0186504
3402	0.0187707
3414	0.0179284
3426	0.018891
3438	0.0179284
3450	0.0193723
3462	0.019974
3474	0.0212975
3486	0.0257495
3498	0.0218991
3510	0.0203349
3522	0.0181691
3534	0.018891
3546	0.01853
3558	0.0181691
3570	0.0179284
3582	0.0178081
3594	0.0181691
3606	0.0174471
3618	0.0182894
3630	0.0203349
3642	0.0170862
3654	0.019613
3666	0.0182894
3678	0.0229821
3690	0.0190113
3702	0.0170862
3714	0.0191317
3726	0.0190113
3738	0.0197333
3750	0.0190113
3762	0.0186504
3774	0.0184097
3786	0.0182894
3798	0.0191317
3810	0.0173268
3822	0.0222601
3834	0.0208162
3846	0.0193723
3858	0.0227414
3870	0.0212975
3882	0.019252
3894	0.0212975
3906	0.0241853
3918	0.0193723
3930	0.0208162
3942	0.0200943
3954	0.0222601
3966	0.0235837
