Infrared Spectrum: n-Capric acid isobutyl ester
Formula: C 14 H 28 O 2
CAS: 30673-38-2
Origin: Sadtler Research Labs Under US-EPA Contract
1/CM	ABSORBANCE
450	0.0472362
462	0.0060203
474	0.0141245
486	0.00196817
498	0.0141245
510	0.0145876
522	0.0055572
534	0.0157454
546	0.00937777
558	0.00219973
570	0.0127353
582	0.0100724
594	0.0116933
606	0.0109986
618	0.0116933
630	0.00868312
642	0.0100724
654	0.0101882
666	0.00671495
678	0.00868312
690	0.0064834
702	0.0131983
714	0.022113
726	0.0239654
738	0.015977
750	0.0178294
762	0.0172505
774	0.0097251
786	0.0147034
798	0.00937777
810	0.00960933
822	0.014935
834	0.0140088
846	0.0125037
858	0.0153981
870	0.0177136
882	0.018524
894	0.022113
906	0.023155
918	0.0269756
930	0.0290595
942	0.0353114
954	0.037048
966	0.0383215
978	0.0459627
990	0.0868312
1002	0.149118
1014	0.177599
1026	0.131405
1038	0.106166
1050	0.0993349
1062	0.0904203
1074	0.0760642
1086	0.0840526
1098	0.127816
1110	0.197049
1122	0.187903
1134	0.190218
1146	0.334937
1158	0.531523
1170	0.48174
1182	0.409728
1194	0.363997
1206	0.311551
1218	0.294995
1230	0.313403
1242	0.323244
1254	0.262346
1266	0.192534
1278	0.166369
1290	0.156644
1302	0.134878
1314	0.124805
1326	0.108828
1338	0.120985
1350	0.149929
1362	0.129552
1374	0.15537
1386	0.169263
1398	0.0790743
1410	0.0457311
1422	0.0515199
1434	0.0724752
1446	0.0955144
1458	0.155138
1470	0.172389
1482	0.0911149
1494	0.0376269
1506	0.0215341
1518	0.0115775
1530	0.00856735
1542	0.00625185
1554	0.00544142
1566	0.00636763
1578	0.0032417
1590	0.0041679
1602	0.00532565
1614	0.00451522
1626	0.0050941
1638	0.00578875
1650	0.00706227
1662	0.00764115
1674	0.0114617
1686	0.0166716
1698	0.0261651
1710	0.0482782
1722	0.0867155
1734	0.180262
1746	0.527818
1758	0.776503
1770	0.271492
1782	0.0911149
1794	0.0421421
1806	0.0224604
1818	0.0130826
1830	0.0083358
1842	0.0055572
1854	0.004631
1866	0.00312592
1878	0.00219973
1890	0.00150508
1902	0.00150508
1914	0.00150508
1926	0.00243128
1938	0.00196817
1950	0.00219973
1962	0.0023155
1974	0.00150508
1986	0.0023155
1998	0.00254705
2010	0.00208395
2022	0.00312592
2034	0.0037048
2046	0.00335747
2058	0.00301015
2070	0.00219973
2082	0.00196817
2094	0.00219973
2106	0.00173662
2118	0.00173662
2130	0.00162085
2142	0.00127352
2154	0.000810425
2166	0.00104197
2178	0.000347325
2190	0.0004631
2202	0.00023155
2214	0.000347325
2226	0.00023155
2238	0.0004631
2250	0.000347325
2262	0.00069465
2274	0.00069465
2286	0.00104197
2298	0.00196817
2310	0.00208395
2322	0.0004631
2334	0.00023155
2346	0.000810425
2358	0.0004631
2370	0.0013893
2382	0.00173662
2394	0.00115775
2406	0.0009262
2418	0.00115775
2430	0.00115775
2442	0.000810425
2454	0.0004631
2466	0.0009262
2478	0.000810425
2490	0.00150508
2502	0.00150508
2514	0.0013893
2526	0.00196817
2538	0.0023155
2550	0.00289437
2562	0.00335747
2574	0.00382057
2586	0.00486255
2598	0.00567297
2610	0.00613607
2622	0.00671495
2634	0.00764115
2646	0.00856735
2658	0.00960933
2670	0.0107671
2682	0.0119248
2694	0.0113459
2706	0.0111144
2718	0.0119248
2730	0.0153981
2742	0.0184082
2754	0.017482
2766	0.0175978
2778	0.0193344
2790	0.0236181
2802	0.0296384
2814	0.0379742
2826	0.0526776
2838	0.077685
2850	0.153518
2862	0.390625
2874	0.406254
2886	0.387846
2898	0.341999
2910	0.439713
2922	0.721626
2934	1.15775
2946	0.965679
2958	0.715026
2970	0.84701
2982	0.530018
2994	0.167758
3006	0.0790743
3018	0.0485097
3030	0.0346167
3042	0.0262809
3054	0.0208395
3066	0.0177136
3078	0.0152823
3090	0.0141245
3102	0.0125037
3114	0.0116933
3126	0.00984087
3138	0.010304
3150	0.00937777
3162	0.0097251
3174	0.00949355
3186	0.00937777
3198	0.00822002
3210	0.00578875
3222	0.0050941
3234	0.00312592
3246	0.00335747
3258	0.0027786
3270	0.00196817
3282	0.0023155
3294	0.00196817
3306	0.00219973
3318	0.0018524
3330	0.0023155
3342	0.00266282
3354	0.00196817
3366	0.00266282
3378	0.00243128
3390	0.00266282
3402	0.00162085
3414	0.00243128
3426	0.00208395
3438	0.00254705
3450	0.00266282
3462	0.00347325
3474	0.00486255
3486	0.00845157
3498	0.00683072
3510	0.0018524
3522	0.0018524
3534	0.0009262
3546	0.0013893
3558	0.000810425
3570	0.00162085
3582	0.000578875
3594	0.00115775
3606	0.00104197
3618	0.00219973
3630	0.0018524
3642	0.000810425
3654	0.0023155
3666	0.000578875
3678	0.00405213
3690	0.000810425
3702	0.000578875
3714	0.00173662
3726	0.0004631
3738	0.0027786
3750	0.0023155
3762	0.00393635
3774	0.00219973
3786	0.0018524
3798	0.0032417
3810	0.00358903
3822	0.00451522
3834	0.00312592
3846	0.0023155
3858	0.004631
3870	0.00625185
3882	0.00173662
3894	0.00613607
3906	0.00335747
3918	0.000578875
3930	0.00358903
3942	0.0032417
3954	0.00289437
3966	0.0037048
