Infrared Spectrum: Spiro-2-cyclohexene-4-one-1,2'-(5-norbornene)
Formula: C 12 H 14 O
CAS: 30834-51-6
Origin: Sadtler Research Labs Under US-EPA Contract
1/CM	ABSORBANCE
450	0.0239664
462	0.00963963
474	0.0208711
486	0.0212249
498	0.0152996
510	0.0227283
522	0.0146805
534	0.0120274
546	0.0138846
558	0.0112315
570	0.00866683
582	0.0112315
594	0.0132655
606	0.0122043
618	0.0152996
630	0.0155649
642	0.0303339
654	0.0107009
666	0.092682
678	0.021048
690	0.0424498
702	0.0500553
714	0.0571303
726	0.13239
738	0.0443954
750	0.0397082
762	0.0390892
774	0.0247624
786	0.0460757
798	0.0593412
810	0.0321026
822	0.0479329
834	0.0344904
846	0.0421844
858	0.039266
870	0.0205174
882	0.0321026
894	0.0785321
906	0.0623481
918	0.054035
930	0.0608447
942	0.0416538
954	0.026708
966	0.0206943
978	0.0186602
990	0.0197215
1002	0.0197215
1014	0.0225514
1026	0.0285652
1038	0.0228167
1050	0.0192793
1062	0.014769
1074	0.018218
1086	0.0284767
1098	0.0312183
1110	0.0409463
1122	0.0481982
1134	0.037851
1146	0.0248508
1158	0.0212249
1170	0.0283883
1182	0.030157
1194	0.0403273
1206	0.0862261
1218	0.0939201
1230	0.100376
1242	0.0636746
1254	0.0407695
1266	0.0263542
1278	0.0160071
1290	0.0152112
1302	0.0171568
1314	0.0239664
1326	0.0388238
1338	0.0601372
1350	0.04696
1362	0.0289189
1374	0.0376742
1386	0.0580147
1398	0.0355517
1410	0.0234358
1422	0.044926
1434	0.041477
1446	0.0434226
1458	0.047756
1470	0.0309529
1482	0.0117621
1494	0.00910901
1506	0.00937432
1518	0.00751714
1530	0.00654434
1542	0.00751714
1554	0.00769402
1566	0.013973
1578	0.0247624
1590	0.0227283
1602	0.022463
1614	0.032987
1626	0.0286536
1638	0.0311298
1650	0.037851
1662	0.0555384
1674	0.082158
1686	0.197391
1698	0.534779
1710	0.876322
1722	0.239841
1734	0.0843689
1746	0.0471369
1758	0.0343136
1770	0.0251161
1782	0.0165377
1794	0.0146805
1806	0.014769
1818	0.0115852
1830	0.00857839
1842	0.0071634
1854	0.00565997
1866	0.00539466
1878	0.00504091
1890	0.00424498
1902	0.00336061
1914	0.00274155
1926	0.00274155
1938	0.00336061
1950	0.00291842
1962	0.00327217
1974	0.00362592
1986	0.00265311
1998	0.00265311
2010	0.00247624
2022	0.00229936
2034	0.0023878
2046	0.00291842
2058	0.00291842
2070	0.00291842
2082	0.00229936
2094	0.00256467
2106	0.00256467
2118	0.0023878
2130	0.0023878
2142	0.00282998
2154	0.00291842
2166	0.00274155
2178	0.00282998
2190	0.00282998
2202	0.00362592
2214	0.00353748
2226	0.0023878
2238	0.00159187
2250	0.00203405
2262	0.00176874
2274	0.00176874
2286	0.00176874
2298	0.00203405
2310	0.00221092
2322	0.00159187
2334	0.00123812
2346	0.00088437
2358	0.00088437
2370	0.000972807
2382	0.00132655
2394	0.000442185
2406	8.8437e-05
2418	0.000619059
2430	0.000707496
2442	0.00114968
2454	0.000619059
2466	0.000707496
2478	0.000442185
2490	0.000265311
2502	0.000795933
2514	0.000353748
2526	0.000795933
2538	0.000619059
2550	0.000707496
2562	0.000972807
2574	0.000707496
2586	0.00123812
2598	0.00106124
2610	0.00114968
2622	0.00106124
2634	0.00114968
2646	0.00150343
2658	0.00203405
2670	0.0023878
2682	0.00185718
2694	0.00141499
2706	0.00114968
2718	0.00185718
2730	0.00274155
2742	0.00318373
2754	0.00344904
2766	0.00300686
2778	0.00318373
2790	0.00336061
2802	0.00415654
2814	0.00530622
2826	0.00963963
2838	0.0132655
2850	0.0185718
2862	0.0411232
2874	0.0833961
2886	0.0820695
2898	0.0624365
2910	0.0743755
2922	0.0968385
2934	0.108601
2946	0.174044
2958	0.261597
2970	0.324122
2982	0.420341
2994	0.129118
3006	0.0207827
3018	0.0191908
3030	0.0395313
3042	0.051205
3054	0.0473138
3066	0.0762327
3078	0.0675659
3090	0.0302455
3102	0.0250277
3114	0.0148574
3126	0.0118506
3138	0.0100818
3150	0.00831308
3162	0.00389123
3174	0.00141499
3186	0.00176874
3198	0.0016803
3210	0.0023878
3222	0.00229936
3234	0.00212249
3246	0.00185718
3258	0.0016803
3270	0.00229936
3282	0.00212249
3294	0.00203405
3306	0.0016803
3318	0.00256467
3330	0.00300686
3342	0.00265311
3354	0.00353748
3366	0.00512935
3378	0.00804777
3390	0.0115852
3402	0.00946276
3414	0.00486404
3426	0.00274155
3438	0.00318373
3450	0.00256467
3462	0.00203405
3474	0.00300686
3486	0.00159187
3498	0.00123812
3510	0.00123812
3522	0.00159187
3534	0.00106124
3546	0.00132655
3558	0.00141499
3570	0.00185718
3582	0.00176874
3594	0.00176874
3606	0
3618	0.0016803
3630	0.00221092
3642	0.00150343
3654	0.00256467
3666	0.00114968
3678	0.00176874
3690	0.00114968
3702	0.00159187
3714	0.00114968
3726	0.00123812
3738	0.0023878
3750	0.00221092
3762	0.00176874
3774	0.00203405
3786	0.00282998
3798	0.00300686
3810	0.00132655
3822	0.0023878
3834	0.00282998
3846	0.00256467
3858	0.00327217
3870	0.00344904
3882	0.00362592
3894	0.00397966
3906	0.00318373
3918	0.00247624
3930	0.00309529
3942	0.00247624
3954	0.00282998
3966	0.00247624
