Infrared Spectrum: Spiro[5.5]undeca-1,8-dien-3-one
Formula: C 11 H 14 O
CAS: 30834-47-0
Origin: Sadtler Research Labs Under US-EPA Contract
1/CM	ABSORBANCE
450	0.0280373
462	0.0224299
474	0.00114226
486	0.00768431
498	0.0151609
510	0.0193146
522	0.0101765
534	0.00446521
546	0.00508826
558	0.00353063
570	0.00342679
582	0.00488057
594	0.00633436
606	0.00820352
618	0.0137071
630	0.0175493
642	0.0566977
654	0.151817
666	0.0896156
678	0.0204569
690	0.00893041
702	0.0139148
714	0.0171339
726	0.0145379
738	0.0226376
750	0.0549324
762	0.0507787
774	0.0317757
786	0.0745586
798	0.0958462
810	0.0385254
822	0.0105919
834	0.00768431
846	0.0113188
858	0.0261682
870	0.0398753
882	0.0231568
894	0.0148494
906	0.0403945
918	0.053894
930	0.0452751
942	0.0235721
954	0.014434
966	0.01973
978	0.0266874
990	0.0161994
1002	0.0202492
1014	0.0301142
1026	0.0194185
1038	0.0235721
1050	0.0343717
1062	0.0249221
1074	0.0239875
1086	0.0377985
1098	0.0614745
1110	0.0392523
1122	0.0200415
1134	0.0184839
1146	0.0284527
1158	0.0597092
1170	0.0658358
1182	0.0488057
1194	0.0528556
1206	0.101869
1218	0.0999998
1230	0.0666666
1242	0.0907579
1254	0.0694703
1266	0.0293873
1278	0.0143302
1290	0.0131879
1302	0.0145379
1314	0.028245
1326	0.0403945
1338	0.0385254
1350	0.0366562
1362	0.0199377
1374	0.031568
1386	0.0664589
1398	0.0433021
1410	0.0231568
1422	0.0522325
1434	0.0849428
1446	0.10135
1458	0.0734163
1470	0.0281412
1482	0.0103842
1494	0.00830736
1506	0.00571131
1518	0.00404984
1530	0.00353063
1542	0.00353063
1554	0.00508826
1566	0.00498442
1578	0.00768431
1590	0.0101765
1602	0.0169262
1614	0.0331256
1626	0.033541
1638	0.0288681
1650	0.065732
1662	0.0848389
1674	0.0886811
1686	0.226479
1698	0.665627
1710	1.03842
1722	0.368535
1734	0.0993768
1746	0.0492211
1758	0.040083
1770	0.0280373
1782	0.0146417
1794	0.0101765
1806	0.0071651
1818	0.00571131
1830	0.00612668
1842	0.00498442
1854	0.00477673
1866	0.00498442
1878	0.00425752
1890	0.00363447
1902	0.00436136
1914	0.00488057
1926	0.00591899
1938	0.00446521
1950	0.00384215
1962	0.00436136
1974	0.00415368
1986	0.00342679
1998	0.00311526
2010	0.00218068
2022	0.00207684
2034	0.00228452
2046	0.00238837
2058	0.00269989
2070	0.00280373
2082	0.00269989
2094	0.00280373
2106	0.00311526
2118	0.00259605
2130	0.00332294
2142	0.00332294
2154	0.0032191
2166	0.00269989
2178	0.00249221
2190	0.00238837
2202	0.00311526
2214	0.0032191
2226	0.00269989
2238	0.00259605
2250	0.00259605
2262	0.00238837
2274	0.00218068
2286	0.00207684
2298	0.00176531
2310	0.000726894
2322	0
2334	0.000103842
2346	0
2358	0
2370	0
2382	0.00134995
2394	0.00332294
2406	0.0032191
2418	0.00301142
2430	0.00301142
2442	0.00238837
2454	0.00249221
2466	0.00249221
2478	0.00207684
2490	0.00269989
2502	0.00249221
2514	0.00186916
2526	0.00238837
2538	0.00269989
2550	0.00238837
2562	0.00290758
2574	0.00228452
2586	0.00269989
2598	0.00342679
2610	0.00311526
2622	0.00415368
2634	0.00436136
2646	0.00498442
2658	0.00674973
2670	0.00706126
2682	0.00664589
2694	0.00602284
2706	0.00488057
2718	0.00415368
2730	0.00488057
2742	0.00529594
2754	0.00560747
2766	0.00706126
2778	0.00872273
2790	0.00861889
2802	0.00955346
2814	0.012461
2826	0.0265836
2838	0.0811006
2850	0.145379
2862	0.172066
2874	0.140291
2886	0.142783
2898	0.157632
2910	0.216718
2922	0.441225
2934	0.514849
2946	0.263551
2958	0.167393
2970	0.139148
2982	0.0636551
2994	0.0291796
3006	0.0250259
3018	0.0531671
3030	0.223676
3042	0.272585
3054	0.0526479
3066	0.0325025
3078	0.0179647
3090	0.00893041
3102	0.00477673
3114	0.00301142
3126	0.00218068
3138	0.00249221
3150	0.00259605
3162	0.00145379
3174	0
3186	0.000623052
3198	0.00103842
3210	0.00155763
3222	0.00166147
3234	0.00114226
3246	0.000726894
3258	0.00051921
3270	0.00134995
3282	0.00238837
3294	0.00363447
3306	0.00384215
3318	0.00384215
3330	0.00436136
3342	0.0032191
3354	0.0032191
3366	0.00529594
3378	0.00976115
3390	0.0160955
3402	0.0128764
3414	0.00612668
3426	0.00353063
3438	0.00259605
3450	0.00269989
3462	0.00207684
3474	0.00249221
3486	0.00207684
3498	0.00311526
3510	0.00155763
3522	0.00166147
3534	0.0032191
3546	0.00207684
3558	0.00280373
3570	0.0012461
3582	0.00301142
3594	0.00249221
3606	0.00166147
3618	0.00269989
3630	0.00228452
3642	0.00384215
3654	0.00373831
3666	0.00373831
3678	0.00363447
3690	0.00467289
3702	0.00238837
3714	0.00311526
3726	0.00155763
3738	0.00228452
3750	0.00311526
3762	0.0032191
3774	0.00176531
3786	0.00228452
3798	0.00342679
3810	0.00134995
3822	0.00176531
3834	0.00114226
3846	0.000830736
3858	0.000726894
3870	0.00145379
3882	0.00218068
3894	0.00176531
3906	0.000726894
3918	0.00176531
3930	0.00166147
3942	0
3954	0
3966	0.00176531
