Infrared Spectrum: Aldrin-R
Formula: C 12 H 8 Cl 6
CAS: 309-00-2
Origin: Sadtler Research Labs Under US-EPA Contract
1/CM	ABSORBANCE
450	0.000794928
462	0.0187802
474	0.0113277
486	0.0144081
498	0.0120233
510	0.0191776
522	0.036517
534	0.0125698
546	0.0320455
558	0.0208669
570	0.0140106
582	0.0262823
594	0.159979
606	0.0648363
618	0.0272263
630	0.0245434
642	0.0154514
654	0.0183827
666	0.0451618
678	0.122071
690	0.463145
702	0.334963
714	0.394433
726	0.0676186
738	0.0316978
750	0.0195751
762	0.053757
774	0.243049
786	0.0783501
798	0.0649854
810	0.242652
822	0.149943
834	0.340974
846	0.0530118
858	0.0334863
870	0.0449134
882	0.146465
894	0.230877
906	0.245682
918	0.131958
930	0.0778533
942	0.0331386
954	0.0204197
966	0.0264314
978	0.0443669
990	0.104185
1002	0.132107
1014	0.191429
1026	0.304209
1038	0.381218
1050	0.207824
1062	0.226306
1074	0.159781
1086	0.176474
1098	0.117997
1110	0.110048
1122	0.0272263
1134	0.0192273
1146	0.0275741
1158	0.0620541
1170	0.186262
1182	0.187802
1194	0.0244937
1206	0.0179852
1218	0.0359705
1230	0.0663765
1242	0.0979749
1254	0.298595
1266	0.0690097
1278	0.0398458
1290	0.0183827
1302	0.0261829
1314	0.183976
1326	0.0856535
1338	0.0239969
1350	0.0126195
1362	0.0099366
1374	0.0105328
1386	0.00814801
1398	0.00626006
1410	0.00939009
1422	0.0100856
1434	0.0123214
1446	0.0100856
1458	0.00611101
1470	0.0777042
1482	0.0340825
1494	0.00675689
1506	0.00332876
1518	0.00283193
1530	0.00253383
1542	0.000844611
1554	0.00894294
1566	0.0229535
1578	0.0221089
1590	0.127437
1602	0.264413
1614	0.0490371
1626	0.0337348
1638	0.00834674
1650	0.00283193
1662	0.00452115
1674	0.00228542
1686	0.00392496
1698	0.00208669
1710	0.00635942
1722	0.00571354
1734	0.00362686
1746	0.00765118
1758	0.00581291
1770	0.00601164
1782	0.00745245
1794	0.00626006
1806	0.00591228
1818	0.00645879
1830	0.00551481
1842	0.0043721
1854	0.00486893
1866	0.00462052
1878	0.00511735
1890	0.00382559
1902	0.00392496
1914	0.00481925
1926	0.00531608
1938	0.00521672
1950	0.0055645
1962	0.00417337
1974	0.00382559
1986	0.00417337
1998	0.00407401
2010	0.00392496
2022	0.00417337
2034	0.00551481
2046	0.00546513
2058	0.0052664
2070	0.00452115
2082	0.00501798
2094	0.00486893
2106	0.00546513
2118	0.0055645
2130	0.00481925
2142	0.00655816
2154	0.00660784
2166	0.00611101
2178	0.00561418
2190	0.00675689
2202	0.00735308
2214	0.00606133
2226	0.00452115
2238	0.0043721
2250	0.00432242
2262	0.00457084
2274	0.00471989
2286	0.0043721
2298	0.00417337
2310	0.00476957
2322	0.00372622
2334	0.00308035
2346	0.00253383
2358	0.0043721
2370	0.00163954
2382	0.00228542
2394	0.00273256
2406	0.00322939
2418	0.0026332
2430	0.00243447
2442	0.002037
2454	0.00198732
2466	0.002037
2478	0.00188795
2490	0.0023351
2502	0.00288161
2514	0.0026332
2526	0.00238478
2538	0.00337844
2550	0.00208669
2562	0.002037
2574	0.0023351
2586	0.00183827
2598	0.00183827
2610	0.00114271
2622	0.00134144
2634	0.00134144
2646	0.00198732
2658	0.00183827
2670	0.00149049
2682	0.00193764
2694	0.002037
2706	0.00213637
2718	0.00208669
2730	0.00278225
2742	0.00173891
2754	0.00248415
2766	0.00198732
2778	0.00253383
2790	0.00223573
2802	0.00342813
2814	0.0029313
2826	0.00308035
2838	0.00327908
2850	0.00357718
2862	0.00506767
2874	0.00675689
2886	0.00665752
2898	0.00899262
2910	0.0502295
2922	0.0689103
2934	0.0156501
2946	0.0145571
2958	0.0378088
2970	0.181293
2982	0.195205
2994	0.342813
3006	0.0158986
3018	0.00784991
3030	0.0124207
3042	0.0337348
3054	0.115612
3066	0.088237
3078	0.0908702
3090	0.0096385
3102	0.0108806
3114	0.0104831
3126	0.0242453
3138	0.0212146
3150	0.00536576
3162	0.00387527
3174	0.00432242
3186	0.00342813
3198	0.00208669
3210	0.00278225
3222	0.00253383
3234	0.00298098
3246	0.00362686
3258	0.00288161
3270	0.00308035
3282	0.00337844
3294	0.0029313
3306	0.00322939
3318	0.00332876
3330	0.00367654
3342	0.00308035
3354	0.00288161
3366	0.00308035
3378	0.00417337
3390	0.00278225
3402	0.00283193
3414	0.00337844
3426	0.00357718
3438	0.00357718
3450	0.00387527
3462	0.00362686
3474	0.00308035
3486	0.00407401
3498	0.00422305
3510	0.00377591
3522	0.00417337
3534	0.00352749
3546	0.00432242
3558	0.00422305
3570	0.00621037
3582	0.00521672
3594	0.00407401
3606	0.00432242
3618	0.00462052
3630	0.00407401
3642	0.00288161
3654	0.0029313
3666	0.00586259
3678	0.00144081
3690	0.00397464
3702	0.00417337
3714	0.00298098
3726	0.00397464
3738	0.00551481
3750	0.00814801
3762	0.00809833
3774	0.00412369
3786	0.00486893
3798	0.00352749
3810	0.00462052
3822	0.00412369
3834	0.00422305
3846	0.00521672
3858	0.00501798
3870	0.00566386
3882	0.00745245
3894	0.00402432
3906	0.00616069
3918	0.00635942
3930	0.00501798
3942	0.00452115
3954	0.00546513
3966	0.0067072
