Infrared Spectrum: Benzophenone, 2-hydroxy-4-methyl-,
Formula: C 14 H 12 O 2
CAS: 3098-18-8
Origin: Sadtler Research Labs Under US-EPA Contract
1/CM	ABSORBANCE
450	0.00729803
462	0.00202382
474	0.0152707
486	0.0141668
498	0.0096285
510	0.000981248
522	0.0203609
534	0.0299894
546	0.0072367
558	0.0177238
570	0.0200543
582	0.0294988
594	0.0116523
606	0.0651303
618	0.0458733
630	0.0256351
642	0.0185211
654	0.0214648
666	0.0339757
678	0.0527421
690	0.145286
702	0.219248
714	0.0694233
726	0.0480198
738	0.0630452
750	0.104626
762	0.123024
774	0.0846326
786	0.115235
798	0.0860432
810	0.0507796
822	0.0317066
834	0.0241019
846	0.0214035
858	0.0244085
870	0.0533554
882	0.0321359
894	0.0865338
906	0.195514
918	0.0589975
930	0.0550112
942	0.0261871
954	0.061144
966	0.114622
978	0.030296
990	0.0282109
1002	0.045996
1014	0.0269843
1026	0.0378394
1038	0.0261871
1050	0.0268617
1062	0.0200543
1074	0.0380847
1086	0.026739
1098	0.0284562
1110	0.0641491
1122	0.0999033
1134	0.0317679
1146	0.0388206
1158	0.0760467
1170	0.088435
1182	0.0663569
1194	0.0410284
1206	0.0787452
1218	0.166444
1230	0.274504
1242	0.436533
1254	0.290817
1266	0.102172
1278	0.0859205
1290	0.112476
1302	0.242123
1314	0.214157
1326	0.316943
1338	0.288855
1350	0.190239
1362	0.142097
1374	0.104871
1386	0.0888029
1398	0.0791744
1410	0.0777026
1422	0.080585
1434	0.0745748
1446	0.0897229
1458	0.0844487
1470	0.0716311
1482	0.0689327
1494	0.105423
1506	0.144489
1518	0.0911334
1530	0.0745135
1542	0.0889869
1554	0.107631
1566	0.170001
1578	0.15608
1590	0.099658
1602	0.133082
1614	0.233598
1626	0.515155
1638	0.602916
1650	0.333256
1662	0.107753
1674	0.0478972
1686	0.0350796
1698	0.026555
1710	0.0167425
1722	0.0152093
1734	0.0244699
1746	0.0191957
1758	0.0128176
1770	0.011775
1782	0.00993514
1794	0.00950584
1806	0.0126949
1818	0.00950584
1830	0.00938318
1842	0.00594882
1854	0.00662342
1866	0.00699139
1878	0.00619413
1890	0.00938318
1902	0.011591
1914	0.00987381
1926	0.00478358
1938	0.00545819
1950	0.00650077
1962	0.00772733
1974	0.00509022
1986	0.0030664
1998	0.00288242
2010	0.00294374
2022	0.00251445
2034	0.00239179
2046	0.00245312
2058	0.00147187
2070	0.00331171
2082	0.00177851
2094	0.0015332
2106	0.00122656
2118	0.00147187
2130	0.00061328
2142	0.00116523
2154	0.000429296
2166	0.000797264
2178	0.00091992
2190	0.000367968
2202	0.00165586
2214	0.000551952
2226	0.0011039
2238	0.000674608
2250	0.00116523
2262	6.1328e-05
2274	0.0019625
2286	0.00202382
2298	0.0030664
2310	0.0045996
2322	0.00466093
2334	0.00625546
2346	0.00650077
2358	0.00913787
2370	0.00490624
2382	0.00441562
2394	0.00116523
2406	0.0026371
2418	0.0030664
2430	0.00269843
2442	0.00337304
2454	0.00361835
2466	0.0034957
2478	0.0030664
2490	0.00343437
2502	0.00220781
2514	0.0041703
2526	0.00282109
2538	0.00435429
2550	0.00509022
2562	0.00564218
2574	0.00717538
2586	0.00827928
2598	0.00791131
2610	0.00680741
2622	0.00772733
2634	0.00576483
2646	0.00705272
2658	0.00662342
2670	0.00821795
2682	0.007666
2694	0.0096285
2706	0.00913787
2718	0.0107937
2730	0.0112844
2742	0.0112844
2754	0.0111617
2766	0.00901522
2778	0.0103644
2790	0.00975115
2802	0.011959
2814	0.011775
2826	0.0137375
2838	0.0137375
2850	0.0168652
2862	0.0229367
2874	0.0279042
2886	0.0278429
2898	0.0263097
2910	0.0287628
2922	0.0382073
2934	0.0620639
2946	0.0436042
2958	0.0355089
2970	0.0311546
2982	0.0321359
2994	0.0351409
3006	0.03833
3018	0.042623
3030	0.0582003
3042	0.080769
3054	0.0738389
3066	0.09236
3078	0.0995353
3090	0.0782545
3102	0.0543979
3114	0.0440335
3126	0.0363675
3138	0.0366741
3150	0.0348956
3162	0.0353249
3174	0.0342824
3186	0.0327492
3198	0.0337304
3210	0.0307253
3222	0.0307867
3234	0.0314613
3246	0.0337304
3258	0.0313999
3270	0.0319519
3282	0.0279042
3294	0.0275363
3306	0.0261257
3318	0.023366
3330	0.0234886
3342	0.0216488
3354	0.0200543
3366	0.0167425
3378	0.0180918
3390	0.0130629
3402	0.0146574
3414	0.0124496
3426	0.0122043
3438	0.00968982
3450	0.00950584
3462	0.00834061
3474	0.00668475
3486	0.00686874
3498	0.00423163
3510	0.00607147
3522	0.00269843
3534	0.00386366
3546	0.00239179
3558	0.00355702
3570	0.00269843
3582	0.00269843
3594	0.00294374
3606	0.00141054
3618	0.00214648
3630	0.00116523
3642	0.00147187
3654	0.000981248
3666	0.00091992
3678	0.0019625
3690	0.00220781
3702	0.000551952
3714	0.0019625
3726	0.00104258
3738	0.00233046
3750	0.0030664
3762	0.000122656
3774	0.00128789
3786	0.000122656
3798	0.0011039
3810	0.000245312
3822	0.00220781
3834	0.000490624
3846	0.00091992
3858	0.00091992
3870	0.00116523
3882	0.00104258
3894	6.1328e-05
3906	0.00134922
3918	6.1328e-05
3930	0.000735936
3942	6.1328e-05
3954	6.1328e-05
3966	6.1328e-05
