Infrared Spectrum: 1,4-Naphthoquinone, 3-methyl-2,5,8-trihydroxy-,
Formula: C 11 H 8 O 5
CAS: 31039-66-4
Origin: Sadtler Research Labs Under US-EPA Contract
1/CM	ABSORBANCE
450	0.0110023
462	0.0205537
474	0.00308305
486	0.0029017
498	0.0190424
510	0.0128158
522	0.00574294
534	0.0164429
546	0.0150525
558	0.0110627
570	0.0141458
582	0.0262966
594	0.0554949
606	0.0984763
618	0.0501147
630	0.00707288
642	0.00102768
654	0.00187401
666	0.00459435
678	0.00852373
690	0.0190424
702	0.0631723
714	0.0900735
726	0.0578526
738	0.026478
750	0.0131181
762	0.0116672
774	0.0394147
786	0.0765927
798	0.100955
810	0.0431023
822	0.0236972
834	0.0447345
846	0.0433441
858	0.0061661
870	0.0153548
882	0.0168057
894	0.00477571
906	0.00253898
918	0.00175311
930	0.00713334
942	0.0126345
954	0.00519887
966	0.00471526
978	0.00828192
990	0.0209164
1002	0.0195864
1014	0.0287752
1026	0.0453995
1038	0.0398983
1050	0.0422559
1062	0.042135
1074	0.0433441
1086	0.0567644
1098	0.132692
1110	0.164671
1122	0.087474
1134	0.0924916
1146	0.276447
1158	0.408897
1170	0.165155
1182	0.101801
1194	0.205053
1206	0.19399
1218	0.0761695
1230	0.0627492
1242	0.124894
1254	0.125498
1266	0.207592
1278	0.39324
1290	0.229113
1302	0.113952
1314	0.210675
1326	0.435194
1338	0.445652
1350	0.313383
1362	0.217264
1374	0.214967
1386	0.227723
1398	0.331096
1410	0.212851
1422	0.102103
1434	0.101378
1446	0.174162
1458	0.357332
1470	0.197315
1482	0.0846328
1494	0.0520492
1506	0.0336113
1518	0.022609
1530	0.0240599
1542	0.0278079
1554	0.0458831
1566	0.124773
1578	0.23806
1590	0.181537
1602	0.303046
1614	0.60452
1626	0.345725
1638	0.15645
1650	0.102164
1662	0.0941238
1674	0.0511424
1686	0.0198283
1698	0.0125136
1710	0.0125136
1722	0.0113045
1734	0.0121509
1746	0.0174706
1758	0.0197074
1770	0.0229718
1782	0.0211582
1794	0.0174102
1806	0.0140249
1818	0.00677062
1830	0.00217627
1842	0.000483616
1854	0.000785876
1866	0.000362712
1878	0.000423164
1890	0.000362712
1902	0.000483616
1914	0.00296215
1926	0.00507797
1938	0.00145085
1950	0.00132994
1962	0.000725424
1974	0.000181356
1986	0.000423164
1998	0.00108814
2010	0.00120904
2022	0.000241808
2034	0.000241808
2046	0.000483616
2058	0.000423164
2070	0.00108814
2082	0.00102768
2094	0.000967232
2106	0.000846328
2118	0.00102768
2130	0.000846328
2142	0.000664972
2154	0.000967232
2166	0.00126949
2178	0.00132994
2190	0.00145085
2202	0.00132994
2214	0.000725424
2226	0.000423164
2238	0.000120904
2250	0.000423164
2262	0.000785876
2274	0.00132994
2286	0.00332486
2298	0.00671017
2310	0.0101559
2322	0.00876554
2334	0.00652882
2346	0.0091887
2358	0.00846328
2370	0.00507797
2382	0.00713334
2394	0.00193446
2406	0.00169266
2418	0.00108814
2430	0.00108814
2442	0.00187401
2454	0.00187401
2466	0.00217627
2478	0.00175311
2490	0.00199492
2502	0.00247853
2514	0.00272034
2526	0.00278079
2538	0.00398983
2550	0.00519887
2562	0.00610565
2574	0.00628701
2586	0.00610565
2598	0.00525932
2610	0.0046548
2622	0.00447345
2634	0.00483616
2646	0.00658927
2658	0.0074356
2670	0.00671017
2682	0.00695198
2694	0.0076774
2706	0.00846328
2718	0.00840283
2730	0.00810057
2742	0.0074356
2754	0.00731469
2766	0.00640791
2778	0.00658927
2790	0.00731469
2802	0.00888644
2814	0.00930961
2826	0.00949096
2838	0.0105791
2850	0.0142062
2862	0.022609
2874	0.0214605
2886	0.018317
2898	0.018317
2910	0.0232136
2922	0.0321605
2934	0.0539836
2946	0.0456413
2958	0.0309514
2970	0.031435
2982	0.0204328
2994	0.0158989
3006	0.0160198
3018	0.0158384
3030	0.0159593
3042	0.0169266
3054	0.0172893
3066	0.019526
3078	0.0217023
3090	0.0217023
3102	0.0162011
3114	0.0150525
3126	0.0147503
3138	0.015113
3150	0.0150525
3162	0.0140853
3174	0.0146294
3186	0.0149921
3198	0.0141458
3210	0.0132994
3222	0.0132994
3234	0.0129972
3246	0.0135412
3258	0.0128763
3270	0.0108814
3282	0.00991413
3294	0.00912825
3306	0.00864464
3318	0.00810057
3330	0.00725424
3342	0.00695198
3354	0.00683108
3366	0.00713334
3378	0.00640791
3390	0.00719379
3402	0.00846328
3414	0.0154757
3426	0.0507192
3438	0.142304
3450	0.0931565
3462	0.0372384
3474	0.0298028
3486	0.0132994
3498	0.00713334
3510	0.00459435
3522	0.00386893
3534	0.00332486
3546	0.00429209
3558	0.0103373
3570	0.0120904
3582	0.0074356
3594	0.00368757
3606	0.00181356
3618	0.00265989
3630	0.00247853
3642	0.00108814
3654	0.00126949
3666	0.000362712
3678	0.00175311
3690	0.000483616
3702	0.000846328
3714	0.00157175
3726	0.00205537
3738	0.00187401
3750	0.000785876
3762	0.00205537
3774	0.00265989
3786	0.00090678
3798	0.000483616
3810	6.0452e-05
3822	0.0013904
3834	0.00199492
3846	0.00030226
3858	0.00090678
3870	0.00132994
3882	0.00145085
3894	0.000785876
3906	0.000967232
3918	0.0013904
3930	0.00102768
3942	0.000725424
3954	0.00157175
3966	0.000664972
