Infrared Spectrum: Methanesulfonic acid, octadecyl
Formula: C 19 H 40 O 3 S
CAS: 31081-59-1
Origin: Sadtler Research Labs Under US-EPA Contract
1/CM	ABSORBANCE
450	0.00737714
462	0.0118801
474	0.0162872
486	0.0200237
498	0.024335
510	0.0297002
522	0.0395683
534	0.0568136
546	0.0366941
558	0.0487658
570	0.0244308
582	0.022323
594	0.0209817
606	0.0197362
618	0.0187782
630	0.0184908
642	0.0196404
654	0.0206943
666	0.0200237
678	0.0212692
690	0.0261553
702	0.0306582
714	0.0378438
726	0.0383228
738	0.0330534
750	0.0309457
762	0.0363109
774	0.0443586
786	0.0426341
798	0.0421551
810	0.0505861
822	0.0423467
834	0.0342031
846	0.0290295
858	0.0256763
870	0.0260595
882	0.0282631
894	0.0342031
906	0.0426341
918	0.052119
930	0.057101
942	0.0694601
954	0.0847892
966	0.0877592
978	0.0553764
990	0.0454125
1002	0.0390893
1014	0.038227
1026	0.0419635
1038	0.0423467
1050	0.0776995
1062	0.0365025
1074	0.0286463
1086	0.0285505
1098	0.0270176
1110	0.0267302
1122	0.0275924
1134	0.0271134
1146	0.0314247
1158	0.043209
1170	0.0809569
1182	0.142752
1194	0.168237
1206	0.121675
1218	0.0694601
1230	0.0478077
1242	0.0354486
1254	0.0299876
1266	0.0321912
1278	0.027305
1290	0.0266343
1302	0.0292211
1314	0.0319037
1326	0.038227
1338	0.0506819
1350	0.0708014
1362	0.0847892
1374	0.0831605
1386	0.0674481
1398	0.0492448
1410	0.0296044
1422	0.0278798
1434	0.0313289
1446	0.0510651
1458	0.0748253
1470	0.0644781
1482	0.0263469
1494	0.0150417
1506	0.0115926
1518	0.0100597
1530	0.00881424
1542	0.0082394
1554	0.0081436
1566	0.00718552
1578	0.00708972
1590	0.00708972
1602	0.00708972
1614	0.00718552
1626	0.00747295
1638	0.00900586
1650	0.0082394
1662	0.00670649
1674	0.00622745
1686	0.00651488
1698	0.00641907
1710	0.00718552
1722	0.0081436
1734	0.00938909
1746	0.00900586
1758	0.0081436
1770	0.00718552
1782	0.00670649
1794	0.00594003
1806	0.00594003
1818	0.00536519
1830	0.00507777
1842	0.00440712
1854	0.00373647
1866	0.00364067
1878	0.00383228
1890	0.00373647
1902	0.00354486
1914	0.00335324
1926	0.00354486
1938	0.00344905
1950	0.00344905
1962	0.00325744
1974	0.00335324
1986	0.00316163
1998	0.00325744
2010	0.00325744
2022	0.00364067
2034	0.00354486
2046	0.00364067
2058	0.00325744
2070	0.00325744
2082	0.00354486
2094	0.00316163
2106	0.00297002
2118	0.0026826
2130	0.00239517
2142	0.00239517
2154	0.00249098
2166	0.00258679
2178	0.0026826
2190	0.00239517
2202	0.0026826
2214	0.00229937
2226	0.00220356
2238	0.00210775
2250	0.00210775
2262	0.00182033
2274	0.00172453
2286	0.00287421
2298	0.00469454
2310	0.00536519
2322	0.0041197
2334	0.0026826
2346	0.00354486
2358	0.00335324
2370	0.00287421
2382	0.00335324
2394	0.000766456
2406	0.00095807
2418	0.000670649
2430	0.000670649
2442	9.5807e-05
2454	0
2466	9.5807e-05
2478	0.000287421
2490	0.000383228
2502	0.000670649
2514	0.00153291
2526	0.00162872
2538	0.00210775
2550	0.00210775
2562	0.00239517
2574	0.0026826
2586	0.00287421
2598	0.00325744
2610	0.00373647
2622	0.00431131
2634	0.00479035
2646	0.00555681
2658	0.00641907
2670	0.00718552
2682	0.00852682
2694	0.0081436
2706	0.00747295
2718	0.00756875
2730	0.00795198
2742	0.00938909
2754	0.00977231
2766	0.0102513
2778	0.0123591
2790	0.0157123
2802	0.0207901
2814	0.0280715
2826	0.0395683
2838	0.0638075
2850	0.1531
2862	0.365695
2874	0.247661
2886	0.171782
2898	0.188357
2910	0.304379
2922	0.566315
2934	0.95807
2946	0.52301
2958	0.250535
2970	0.217099
2982	0.11037
2994	0.0622745
3006	0.0460832
3018	0.0423467
3030	0.0312331
3042	0.0205027
3054	0.0144669
3066	0.0123591
3078	0.0111136
3090	0.010922
3102	0.00718552
3114	0.00594003
3126	0.00479035
3138	0.00354486
3150	0.00325744
3162	0.00316163
3174	0.00239517
3186	0.00220356
3198	0.00162872
3210	0.0013413
3222	0.00095807
3234	0.00095807
3246	0.000479035
3258	0.000862263
3270	0.00095807
3282	0.000383228
3294	0.000670649
3306	0.000383228
3318	0.000383228
3330	0.000766456
3342	0.000479035
3354	0.000479035
3366	0.000479035
3378	0.000862263
3390	0.000383228
3402	0.000574842
3414	0.00105388
3426	0.000479035
3438	0.000574842
3450	0.000766456
3462	0.000670649
3474	0.000574842
3486	0.000383228
3498	0.000574842
3510	0.000670649
3522	0.000574842
3534	0.000191614
3546	0.0014371
3558	0.00114968
3570	0.00182033
3582	0.00249098
3594	0.00306582
3606	0.00373647
3618	0.00335324
3630	0.00373647
3642	0.00297002
3654	0.00239517
3666	0.0027784
3678	0.00249098
3690	0.00191614
3702	0.00172453
3714	0.00162872
3726	0.00210775
3738	0.00182033
3750	0.0013413
3762	0.00124549
3774	0.0014371
3786	0.00114968
3798	0.00172453
3810	0.000383228
3822	0.00153291
3834	0.00124549
3846	0.00095807
3858	0.0013413
3870	0.00162872
3882	0.00220356
3894	0.0014371
3906	0.00258679
3918	0.00182033
3930	0.00182033
3942	0.00172453
3954	0.00229937
3966	0.00172453
