Infrared Spectrum: Ethyl perfluorooctanonate
Formula: C 10 H 5 F 15 O 2
CAS: 3108-24-5
Origin: Sadtler Research Labs Under US-EPA Contract
1/CM	ABSORBANCE
450	0
462	0.0279338
474	0.0330837
486	0.0210674
498	0.0243446
510	0.0338639
522	0.0586767
534	0.0745943
546	0.0610175
558	0.0777154
570	0.0582085
582	0.0516542
594	0.0416667
606	0.0421349
618	0.0524345
630	0.0578964
642	0.0697566
654	0.0600812
666	0.0858302
678	0.0641386
690	0.0443196
702	0.0894195
714	0.0916043
726	0.140762
738	0.142946
750	0.140606
762	0.0418227
774	0.0672597
786	0.0803683
798	0.0808365
810	0.0869226
822	0.0613296
834	0.0621099
846	0.0558677
858	0.0613296
870	0.0401061
882	0.0352684
894	0.0477528
906	0.0348003
918	0.0308989
930	0.028246
942	0.0269975
954	0.025593
966	0.0245006
978	0.045412
990	0.0714732
1002	0.0791199
1014	0.128433
1026	0.152154
1038	0.0862984
1050	0.0646068
1062	0.0770912
1074	0.0983147
1086	0.113764
1098	0.0855181
1110	0.104869
1122	0.162609
1134	0.317884
1146	0.433521
1158	0.38452
1170	0.292447
1182	0.365481
1194	0.492822
1206	0.726748
1218	0.928371
1230	0.833646
1242	1.23346
1254	1.14841
1266	0.506242
1278	0.330212
1290	0.275749
1302	0.263109
1314	0.285112
1326	0.224563
1338	0.124688
1350	0.0983147
1362	0.0739701
1374	0.0699126
1386	0.0446317
1398	0.0365169
1410	0.0296504
1422	0.028402
1434	0.0288702
1446	0.034176
1458	0.0351124
1470	0.0393259
1482	0.0354245
1494	0.0263733
1506	0.0235643
1518	0.0265294
1530	0.022628
1542	0.0210674
1554	0.0230961
1566	0.0204432
1578	0.0223159
1590	0.019819
1602	0.0232522
1614	0.0209114
1626	0.0193508
1638	0.0210674
1650	0.0202872
1662	0.0191948
1674	0.0224719
1686	0.0212235
1698	0.0249688
1710	0.025437
1722	0.0248127
1734	0.0259051
1746	0.0358926
1758	0.0433833
1770	0.065387
1782	0.175094
1794	0.461143
1806	0.160737
1818	0.073814
1830	0.0433833
1842	0.0316792
1854	0.0266854
1866	0.0241885
1878	0.0221598
1890	0.0220038
1902	0.0213795
1914	0.0193508
1926	0.0201311
1938	0.0195069
1950	0.0187266
1962	0.019819
1974	0.019819
1986	0.0205993
1998	0.019819
2010	0.019975
2022	0.0196629
2034	0.019975
2046	0.0184145
2058	0.0184145
2070	0.0195069
2082	0.0191948
2094	0.0190387
2106	0.0191948
2118	0.0191948
2130	0.0195069
2142	0.0196629
2154	0.019819
2166	0.019975
2178	0.0193508
2190	0.0193508
2202	0.0195069
2214	0.019975
2226	0.0195069
2238	0.019975
2250	0.019975
2262	0.019975
2274	0.0202872
2286	0.019819
2298	0.0202872
2310	0.0207553
2322	0.0220038
2334	0.0249688
2346	0.0248127
2358	0.0230961
2370	0.0251249
2382	0.0237204
2394	0.0238764
2406	0.0240325
2418	0.0235643
2430	0.0235643
2442	0.0232522
2454	0.0230961
2466	0.022784
2478	0.0223159
2490	0.0224719
2502	0.022628
2514	0.0215356
2526	0.0210674
2538	0.0210674
2550	0.0204432
2562	0.0207553
2574	0.0207553
2586	0.0205993
2598	0.0204432
2610	0.0202872
2622	0.0195069
2634	0.0191948
2646	0.0191948
2658	0.0190387
2670	0.0187266
2682	0.0191948
2694	0.0187266
2706	0.0188827
2718	0.0187266
2730	0.0190387
2742	0.0191948
2754	0.0191948
2766	0.0196629
2778	0.0196629
2790	0.019819
2802	0.0195069
2814	0.0196629
2826	0.0202872
2838	0.0209114
2850	0.0207553
2862	0.0220038
2874	0.022628
2886	0.025437
2898	0.0260612
2910	0.0277778
2922	0.0299626
2934	0.0294944
2946	0.0374532
2958	0.036985
2970	0.0355805
2982	0.0455681
2994	0.0836455
3006	0.0518103
3018	0.0404182
3030	0.0296504
3042	0.0237204
3054	0.0223159
3066	0.0210674
3078	0.0210674
3090	0.0205993
3102	0.0204432
3114	0.0207553
3126	0.0204432
3138	0.0204432
3150	0.0201311
3162	0.0207553
3174	0.019975
3186	0.0210674
3198	0.0207553
3210	0.0201311
3222	0.0205993
3234	0.0209114
3246	0.0209114
3258	0.0209114
3270	0.019819
3282	0.0204432
3294	0.0209114
3306	0.019975
3318	0.0209114
3330	0.019975
3342	0.0212235
3354	0.0209114
3366	0.0220038
3378	0.0210674
3390	0.0205993
3402	0.0210674
3414	0.0213795
3426	0.0205993
3438	0.0215356
3450	0.0207553
3462	0.0202872
3474	0.0209114
3486	0.0201311
3498	0.0210674
3510	0.0202872
3522	0.0210674
3534	0.0204432
3546	0.0216916
3558	0.0223159
3570	0.0315231
3582	0.0273096
3594	0.0223159
3606	0.0218477
3618	0.0220038
3630	0.0234082
3642	0.0202872
3654	0.0237204
3666	0.0202872
3678	0.0187266
3690	0.0229401
3702	0.0215356
3714	0.0213795
3726	0.0195069
3738	0.0205993
3750	0.0277778
3762	0.0196629
3774	0.0205993
3786	0.019819
3798	0.022784
3810	0.0209114
3822	0.0223159
3834	0.0218477
3846	0.0240325
3858	0.0210674
3870	0.0232522
3882	0.0243446
3894	0.0193508
3906	0.0237204
3918	0.0262172
3930	0.0193508
3942	0.0235643
3954	0.0210674
3966	0.022784
