Infrared Spectrum: Perfluorotributylamine
Formula: C 12 F 27 N
CAS: 311-89-7
Origin: Sadtler Research Labs Under US-EPA Contract
1/CM	ABSORBANCE
450	0
462	0.0129239
474	0.0136583
486	0.0143926
498	0.00866492
510	0.0186516
522	0.035394
534	0.0449401
546	0.028932
558	0.00910551
570	0.011749
582	0.0251136
594	0.0420028
606	0.0447932
618	0.0306944
630	0.0511083
642	0.0574234
654	0.0345128
666	0.0161549
678	0.0148332
690	0.0328973
702	0.0585983
714	0.0832713
726	0.383019
738	0.245261
750	0.144513
762	0.0190922
774	0.0248198
786	0.135848
798	0.211042
810	0.115875
822	0.0491991
834	0.0251136
846	0.0295195
858	0.0375969
870	0.0348065
882	0.0292257
894	0.0229106
906	0.0220295
918	0.0277571
930	0.0408279
942	0.0840056
954	0.0757813
966	0.100748
978	0.0702005
990	0.0487585
1002	0.0408279
1014	0.0270228
1026	0.0348065
1038	0.0672633
1050	0.0637385
1062	0.0528707
1074	0.0757813
1086	0.0684382
1098	0.0700537
1110	0.0725503
1122	0.10721
1134	0.227344
1146	0.308265
1158	0.396971
1170	0.217064
1182	0.222057
1194	0.333526
1206	0.388306
1218	0.604341
1230	0.796585
1242	1.11748
1254	1.26082
1266	0.742099
1278	0.691431
1290	0.609335
1302	0.806131
1314	0.566597
1326	0.270081
1338	0.192978
1350	0.166249
1362	0.08474
1374	0.0377438
1386	0.0239387
1398	0.0195328
1410	0.0177704
1422	0.0148332
1434	0.0148332
1446	0.0142457
1458	0.0136583
1470	0.0102804
1482	0.0113085
1494	0.0105741
1506	0.00998668
1518	0.00910551
1530	0.0102804
1542	0.00837119
1554	0.00895864
1566	0.0101335
1578	0.00866492
1590	0.0105741
1602	0.0079306
1614	0.00704942
1626	0.00998668
1638	0.00763688
1650	0.00631511
1662	0.0113085
1674	0.00837119
1686	0.00807747
1698	0.00749001
1710	0.00895864
1722	0.00851805
1734	0.0108679
1746	0.0105741
1758	0.0095461
1770	0.00925237
1782	0.0101335
1794	0.00983982
1806	0.00969296
1818	0.00983982
1830	0.00939923
1842	0.010721
1854	0.0104273
1866	0.00910551
1878	0.00925237
1890	0.00939923
1902	0.00910551
1914	0.00895864
1926	0.00837119
1938	0.00837119
1950	0.00851805
1962	0.00851805
1974	0.00807747
1986	0.00822433
1998	0.00822433
2010	0.00807747
2022	0.00807747
2034	0.00763688
2046	0.00763688
2058	0.00719629
2070	0.00719629
2082	0.00719629
2094	0.00734315
2106	0.00734315
2118	0.00719629
2130	0.00704942
2142	0.00719629
2154	0.00749001
2166	0.00704942
2178	0.00704942
2190	0.00690256
2202	0.00704942
2214	0.00704942
2226	0.00704942
2238	0.00734315
2250	0.00734315
2262	0.00763688
2274	0.00837119
2286	0.00895864
2298	0.00925237
2310	0.00895864
2322	0.0095461
2334	0.00895864
2346	0.00925237
2358	0.00881178
2370	0.00969296
2382	0.00983982
2394	0.0095461
2406	0.00939923
2418	0.00969296
2430	0.00969296
2442	0.0095461
2454	0.00895864
2466	0.00910551
2478	0.00895864
2490	0.00851805
2502	0.00778374
2514	0.00690256
2526	0.00660884
2538	0.00616825
2550	0.00616825
2562	0.00572766
2574	0.00602138
2586	0.00631511
2598	0.00558079
2610	0.00499334
2622	0.00425903
2634	0.00352471
2646	0.00381844
2658	0.0039653
2670	0.00381844
2682	0.00367158
2694	0.00352471
2706	0.00381844
2718	0.00352471
2730	0.00367158
2742	0.00381844
2754	0.00352471
2766	0.00352471
2778	0.00381844
2790	0.00425903
2802	0.00367158
2814	0.00337785
2826	0.00425903
2838	0.00352471
2850	0.00367158
2862	0.00440589
2874	0.00367158
2886	0.00411216
2898	0.0039653
2910	0.00411216
2922	0.00411216
2934	0.00440589
2946	0.00381844
2958	0.00411216
2970	0.00455275
2982	0.00411216
2994	0.00425903
3006	0.00484648
3018	0.00455275
3030	0.00469962
3042	0.00425903
3054	0.00425903
3066	0.00425903
3078	0.00499334
3090	0.00440589
3102	0.00484648
3114	0.00469962
3126	0.00455275
3138	0.00558079
3150	0.00572766
3162	0.00484648
3174	0.00499334
3186	0.00484648
3198	0.00440589
3210	0.00543393
3222	0.00514021
3234	0.00484648
3246	0.00514021
3258	0.00499334
3270	0.00455275
3282	0.00514021
3294	0.00514021
3306	0.00425903
3318	0.00528707
3330	0.00484648
3342	0.00543393
3354	0.00528707
3366	0.00514021
3378	0.00440589
3390	0.00558079
3402	0.00528707
3414	0.00514021
3426	0.00543393
3438	0.00469962
3450	0.00587452
3462	0.00602138
3474	0.00499334
3486	0.00616825
3498	0.00543393
3510	0.00543393
3522	0.00528707
3534	0.00602138
3546	0.00587452
3558	0.00646197
3570	0.00646197
3582	0.00602138
3594	0.00646197
3606	0.00587452
3618	0.00602138
3630	0.00514021
3642	0.00514021
3654	0.00558079
3666	0.00587452
3678	0.00763688
3690	0.00455275
3702	0.00631511
3714	0.00631511
3726	0.00837119
3738	0.00734315
3750	0.00646197
3762	0.00543393
3774	0.00704942
3786	0.00704942
3798	0.00646197
3810	0.00558079
3822	0.00602138
3834	0.00646197
3846	0.00558079
3858	0.00484648
3870	0.00704942
3882	0.00704942
3894	0.00587452
3906	0.00690256
3918	0.00616825
3930	0.00660884
3942	0.00660884
3954	0.00719629
3966	0.00469962
