Infrared Spectrum: Sulfone, methyl phenyl
Formula: C 7 H 8 O 2 S
CAS: 3112-85-4
Origin: Sadtler Research Labs Under US-EPA Contract
1/CM	ABSORBANCE
450	0
462	0.0139382
474	0.00966683
486	0.00723888
498	0.00921721
510	0.0231105
522	0.0894744
534	0.234657
546	0.163392
558	0.0109258
570	0.00683422
582	0.00467605
594	0.00346207
606	0.0044962
618	0.00400162
630	0.0044962
642	0.00562025
654	0.00989164
666	0.0109707
678	0.0337215
690	0.0753563
702	0.0456814
714	0.0302594
726	0.112225
738	0.20071
750	0.0844836
762	0.0584956
774	0.0908232
786	0.034351
798	0.0135336
810	0.00849782
822	0.00562025
834	0.00382177
846	0.00440628
858	0.0044962
870	0.00687919
882	0.00800324
894	0.00575514
906	0.00476597
918	0.0076885
930	0.0120948
942	0.0372735
954	0.109932
966	0.0522009
978	0.00872263
990	0.00840789
1002	0.00980172
1014	0.00948698
1026	0.0137134
1038	0.00953194
1050	0.00917225
1062	0.0158266
1074	0.02365
1086	0.0495032
1098	0.0566521
1110	0.021267
1122	0.0112405
1134	0.0171755
1146	0.0724787
1158	0.320984
1170	0.414819
1182	0.10049
1194	0.0165011
1206	0.0107909
1218	0.00782339
1230	0.00651949
1242	0.00642957
1254	0.00692415
1266	0.0122746
1278	0.0156917
1290	0.0191988
1302	0.0384425
1314	0.0753113
1326	0.126388
1338	0.234522
1350	0.320174
1362	0.168023
1374	0.0333618
1386	0.0175801
1398	0.014208
1410	0.0148375
1422	0.0155569
1434	0.0210872
1446	0.0372285
1458	0.0280563
1470	0.0120049
1482	0.0138483
1494	0.00908232
1506	0.00575514
1518	0.00463109
1530	0.00454116
1542	0.00445124
1554	0.00395666
1566	0.00436131
1578	0.00606987
1590	0.00642957
1602	0.00454116
1614	0.00445124
1626	0.00418147
1638	0.00350704
1650	0.00436131
1662	0.0048559
1674	0.00490086
1686	0.00476597
1698	0.00512567
1710	0.00409154
1722	0.00382177
1734	0.0041365
1746	0.00386673
1758	0.00503574
1770	0.00566521
1782	0.00553033
1794	0.00553033
1806	0.00759858
1818	0.00714896
1830	0.00481093
1842	0.00431635
1854	0.00422643
1866	0.00431635
1878	0.00467605
1890	0.00606987
1902	0.00714896
1914	0.00660941
1926	0.00458612
1938	0.00386673
1950	0.00535048
1962	0.00665438
1974	0.00642957
1986	0.00458612
1998	0.00346207
2010	0.00350704
2022	0.00332719
2034	0.00337215
2046	0.00364192
2058	0.00359696
2070	0.00346207
2082	0.003552
2094	0.00377681
2106	0.00359696
2118	0.00359696
2130	0.00323726
2142	0.0031923
2154	0.00328223
2166	0.00328223
2178	0.00359696
2190	0.00359696
2202	0.00323726
2214	0.00332719
2226	0.00332719
2238	0.00395666
2250	0.00521559
2262	0.00548536
2274	0.00503574
2286	0.00427139
2298	0.00377681
2310	0.00400162
2322	0.00440628
2334	0.00368688
2346	0.00373185
2358	0.00328223
2370	0.00310238
2382	0.00418147
2394	0.00346207
2406	0.00346207
2418	0.00332719
2430	0.00364192
2442	0.00377681
2454	0.00373185
2466	0.00364192
2478	0.00377681
2490	0.00440628
2502	0.00463109
2514	0.00454116
2526	0.00382177
2538	0.00346207
2550	0.00350704
2562	0.00341711
2574	0.00400162
2586	0.00391169
2598	0.00377681
2610	0.00364192
2622	0.0041365
2634	0.003552
2646	0.003552
2658	0.00382177
2670	0.00404658
2682	0.00422643
2694	0.00350704
2706	0.00359696
2718	0.003552
2730	0.00377681
2742	0.00422643
2754	0.00404658
2766	0.00404658
2778	0.00373185
2790	0.00422643
2802	0.00404658
2814	0.0041365
2826	0.00400162
2838	0.00395666
2850	0.00427139
2862	0.0048559
2874	0.00499078
2886	0.00499078
2898	0.0048559
2910	0.00508071
2922	0.00602491
2934	0.00782339
2946	0.00854278
2958	0.00633964
2970	0.00557529
2982	0.00472101
2994	0.00530552
3006	0.00728384
3018	0.010701
3030	0.0120948
3042	0.0112855
3054	0.0138933
3066	0.0315633
3078	0.048469
3090	0.0263927
3102	0.0142979
3114	0.00696911
3126	0.00530552
3138	0.0054404
3150	0.00494582
3162	0.00535048
3174	0.00539544
3186	0.00467605
3198	0.00476597
3210	0.00440628
3222	0.00445124
3234	0.00422643
3246	0.00481093
3258	0.00440628
3270	0.00400162
3282	0.00440628
3294	0.00436131
3306	0.00422643
3318	0.00391169
3330	0.00377681
3342	0.00418147
3354	0.00422643
3366	0.0041365
3378	0.00368688
3390	0.00454116
3402	0.0041365
3414	0.00436131
3426	0.00377681
3438	0.00364192
3450	0.00395666
3462	0.00391169
3474	0.00409154
3486	0.0041365
3498	0.00346207
3510	0.00332719
3522	0.00332719
3534	0.00359696
3546	0.003552
3558	0.00386673
3570	0.00440628
3582	0.00373185
3594	0.00386673
3606	0.00436131
3618	0.00328223
3630	0.00418147
3642	0.00445124
3654	0.0048559
3666	0.00314734
3678	0.00431635
3690	0.00409154
3702	0.00328223
3714	0.00494582
3726	0.00382177
3738	0.00404658
3750	0.00377681
3762	0.00427139
3774	0.00377681
3786	0.00346207
3798	0.00386673
3810	0.00364192
3822	0.00310238
3834	0.00368688
3846	0.003552
3858	0.003552
3870	0.00310238
3882	0.00467605
3894	0.00440628
3906	0.00422643
3918	0.00395666
3930	0.00382177
3942	0.00440628
3954	0.00382177
3966	0.00404658
