Infrared Spectrum: 3-Methyl-4-nitrobenzoic acid
Formula: C 8 H 7 N O 4
CAS: 3113-71-1
Origin: Sadtler Research Labs Under US-EPA Contract
1/CM	ABSORBANCE
450	0.00167968
462	0.0193163
474	0.0560293
486	0.0375528
498	0.031194
510	0.0203961
522	0.0256751
534	0.0430717
546	0.0845838
558	0.138214
570	0.100541
582	0.0643077
594	0.0723461
606	0.0531498
618	0.0190763
630	0.00707864
642	0.0140373
654	0.10558
666	0.0405522
678	0.000959816
690	0.00707864
702	0.0141573
714	0.0814644
726	0.232995
738	0.166168
750	0.0957416
762	0.0479908
774	0.0638278
786	0.062748
798	0.0257951
810	0.020636
822	0.0965815
834	0.223517
846	0.0609483
858	0.0230356
870	0.00671871
882	0.00827841
894	0.0249552
906	0.0675471
918	0.0589087
930	0.0130775
942	0.0057589
954	0.0062388
966	0.0062388
978	0.00635878
990	0.00851837
1002	0.0152371
1014	0.0189564
1026	0.0223157
1038	0.0268748
1050	0.0299942
1062	0.0421119
1074	0.111939
1086	0.292144
1098	0.389925
1110	0.342534
1122	0.151051
1134	0.122736
1146	0.21116
1158	0.476909
1170	0.526819
1182	0.178766
1194	0.088423
1206	0.078345
1218	0.100541
1230	0.0613082
1242	0.0551894
1254	0.0662273
1266	0.0844638
1278	0.0899828
1290	0.137614
1302	0.185724
1314	0.175886
1326	0.200122
1338	0.241154
1350	0.447514
1362	0.423039
1374	0.190883
1386	0.122736
1398	0.1021
1410	0.123936
1422	0.0803846
1434	0.0555494
1446	0.068027
1458	0.0629879
1470	0.0515901
1482	0.0561492
1494	0.068027
1506	0.100901
1518	0.166528
1530	0.31218
1542	0.52394
1554	0.407682
1566	0.217038
1578	0.15609
1590	0.152611
1602	0.122017
1614	0.0945419
1626	0.0489506
1638	0.0281946
1650	0.020636
1662	0.0183565
1674	0.0164368
1686	0.0200362
1698	0.0257951
1710	0.046911
1722	0.0698266
1734	0.0566291
1746	0.123336
1758	0.645836
1770	1.19977
1782	0.216439
1794	0.0475109
1806	0.0553094
1818	0.0658674
1830	0.0292744
1842	0.0109179
1854	0.00707864
1866	0.00659873
1878	0.00695867
1890	0.00647876
1902	0.00599885
1914	0.00851837
1926	0.0113978
1938	0.00719862
1950	0.00383926
1962	0.00263949
1974	0.00167968
1986	0.00143972
1998	0.00143972
2010	0.00179965
2022	0.00131975
2034	0.00131975
2046	0.0015597
2058	0.00167968
2070	0.00167968
2082	0.00107979
2094	0.000359931
2106	0.000359931
2118	0.000479908
2130	0.000359931
2142	0
2154	0.00107979
2166	0.0015597
2178	0.0015597
2190	0.000959816
2202	0.000959816
2214	0.000959816
2226	0.000839839
2238	0.00131975
2250	0.00131975
2262	0.0015597
2274	0.00167968
2286	0.00227956
2298	0.00515901
2310	0.00647876
2322	0.0057589
2334	0.0041992
2346	0.00659873
2358	0.00539896
2370	0.00695867
2382	0.00755855
2394	0.0031194
2406	0.00299943
2418	0.00323938
2430	0.00407922
2442	0.00395924
2454	0.00371929
2466	0.00299943
2478	0.00287945
2490	0.00263949
2502	0.00251952
2514	0.00227956
2526	0.00203961
2538	0.00167968
2550	0.00167968
2562	0.00143972
2574	0.00167968
2586	0.00167968
2598	0.00203961
2610	0.00191963
2622	0.00191963
2634	0.00227956
2646	0.00251952
2658	0.00251952
2670	0.00335936
2682	0.00407922
2694	0.00431917
2706	0.00479908
2718	0.00407922
2730	0.00359931
2742	0.00431917
2754	0.00503903
2766	0.00491906
2778	0.00395924
2790	0.00335936
2802	0.00407922
2814	0.00455913
2826	0.00599885
2838	0.00767853
2850	0.010438
2862	0.0135574
2874	0.0191963
2886	0.021116
2898	0.0183565
2910	0.0159569
2922	0.0171567
2934	0.0253151
2946	0.0351533
2958	0.0280746
2970	0.0203961
2982	0.0256751
2994	0.031194
3006	0.0201561
3018	0.0123576
3030	0.00983811
3042	0.00971814
3054	0.010438
3066	0.0100781
3078	0.00947818
3090	0.00611883
3102	0.00551894
3114	0.00539896
3126	0.00443915
3138	0.00383926
3150	0.00371929
3162	0.0031194
3174	0.00275947
3186	0.00215959
3198	0.00191963
3210	0.00215959
3222	0.00203961
3234	0.00239954
3246	0.00227956
3258	0.00167968
3270	0.00179965
3282	0.00167968
3294	0.0015597
3306	0.00167968
3318	0.00167968
3330	0.00215959
3342	0.00179965
3354	0.00215959
3366	0.00227956
3378	0.0015597
3390	0.00203961
3402	0.00179965
3414	0.00203961
3426	0.00191963
3438	0.00131975
3450	0.0015597
3462	0.00191963
3474	0.00143972
3486	0.00167968
3498	0.00335936
3510	0.00911825
3522	0.00791848
3534	0.00299943
3546	0.00251952
3558	0.0077985
3570	0.0838639
3582	0.511462
3594	0.110619
3606	0.00671871
3618	0.00347933
3630	0.00395924
3642	0.000959816
3654	0.00347933
3666	0.00299943
3678	0.0015597
3690	0.00263949
3702	0.00131975
3714	0.00275947
3726	0.00287945
3738	0.00347933
3750	0.00335936
3762	0.00179965
3774	0.00131975
3786	0.000959816
3798	0.000839839
3810	0.00203961
3822	0.00143972
3834	0.00131975
3846	0.000959816
3858	0.00179965
3870	0.00191963
3882	0.00203961
3894	0.000719862
3906	0.00191963
3918	0.00131975
3930	0.00119977
3942	0.00167968
3954	0.00107979
3966	0.0015597
