Infrared Spectrum: Hexanoic acid, 2-butyl-
Formula: C 10 H 20 O 2
CAS: 3115-28-4
Origin: Sadtler Research Labs Under US-EPA Contract
1/CM	ABSORBANCE
450	0.0143837
462	0.0109919
474	0.00979852
486	0.0057158
498	0.00672078
510	0.00954727
522	0.0123738
534	0.0288302
546	0.0294584
558	0.0421462
570	0.0609267
582	0.101691
594	0.108537
606	0.0917041
618	0.0610523
630	0.0439049
642	0.0187177
654	0.00602986
666	0.00445958
678	0.00251244
690	0.00295212
702	0.00772575
714	0.0163309
726	0.0368701
738	0.0413296
750	0.0307146
762	0.02525
774	0.0160796
786	0.0145093
798	0.0125622
810	0.00521331
822	0.00244963
834	0.0016959
846	0.00125622
858	0.000376866
870	0.00131903
882	0.00238682
894	0.00445958
906	0.00420834
918	0.00276368
930	0.00364304
942	0.00866792
954	0.0166449
966	0.017273
978	0.0124366
990	0.00917041
1002	0.00929603
1014	0.0112432
1026	0.0128134
1038	0.0175871
1050	0.0292699
1062	0.0494951
1074	0.0770691
1086	0.138184
1098	0.272851
1110	0.272034
1122	0.174363
1134	0.144779
1146	0.127129
1158	0.12512
1170	0.105334
1182	0.0535778
1194	0.0325361
1206	0.0335411
1218	0.0399478
1230	0.0283278
1242	0.0195342
1254	0.0179011
1266	0.0195342
1278	0.0233029
1290	0.0320336
1302	0.0381891
1314	0.0303377
1326	0.0266319
1338	0.0294584
1350	0.0349857
1362	0.0332898
1374	0.0366816
1386	0.0554621
1398	0.0387544
1410	0.0258153
1422	0.0170218
1434	0.0163937
1446	0.032913
1458	0.0624341
1470	0.0721698
1482	0.0294584
1494	0.00885635
1506	0.00496207
1518	0.0040199
1530	0.00270087
1542	0.00138184
1554	0.00175871
1566	0.00119341
1578	0.0016959
1590	0.00150746
1602	0.00150746
1614	0.00238682
1626	0.00175871
1638	0.00131903
1650	0.00257525
1662	0.00244963
1674	0.00188433
1686	0.00521331
1698	0.0057158
1710	0.0175871
1722	0.0453495
1734	0.0582258
1746	0.0775088
1758	0.210731
1770	0.60531
1782	0.27172
1794	0.0733004
1806	0.0554621
1818	0.0269459
1830	0.0114944
1842	0.00810262
1854	0.00483645
1866	0.00383147
1878	0.00395709
1890	0.00188433
1902	0.00238682
1914	0.00163309
1926	0.00150746
1938	0.00182152
1950	0.00125622
1962	0.00138184
1974	0.00138184
1986	0.00062811
1998	0.000502488
2010	0.00100498
2022	0.00062811
2034	0.00119341
2046	0.00131903
2058	0.00062811
2070	0.000816543
2082	0.000690921
2094	0.000439677
2106	0.000879354
2118	0.000816543
2130	0.00062811
2142	0.00062811
2154	0.000942165
2166	0.000942165
2178	0.00144465
2190	0.00182152
2202	0.00194714
2214	0.00213557
2226	0.00157028
2238	0.0016959
2250	0.00163309
2262	0.00125622
2274	0.000942165
2286	0.000690921
2298	0.000314055
2310	0.00100498
2322	0.000879354
2334	0.000879354
2346	0.00150746
2358	0.00138184
2370	0.00138184
2382	0.00157028
2394	0.00157028
2406	0.00150746
2418	0.00150746
2430	0.00131903
2442	0.00131903
2454	0.00144465
2466	0.00144465
2478	0.00144465
2490	0.00163309
2502	0.00157028
2514	0.00182152
2526	0.00238682
2538	0.00238682
2550	0.0028265
2562	0.00263806
2574	0.00263806
2586	0.00301493
2598	0.00314055
2610	0.00320336
2622	0.00332898
2634	0.00351742
2646	0.00395709
2658	0.00439677
2670	0.00508769
2682	0.0057158
2694	0.00508769
2706	0.00477364
2718	0.00496207
2730	0.0057158
2742	0.00772575
2754	0.00772575
2766	0.00646953
2778	0.0074117
2790	0.00998695
2802	0.0125622
2814	0.0155143
2826	0.0197227
2838	0.0276368
2850	0.0439049
2862	0.118838
2874	0.21563
2886	0.194903
2898	0.123738
2910	0.141388
2922	0.224487
2934	0.372595
2946	0.480504
2958	0.352056
2970	0.474977
2982	0.187931
2994	0.0601101
3006	0.0381263
3018	0.027574
3030	0.0221723
3042	0.0164565
3054	0.012625
3066	0.0106779
3078	0.00967289
3090	0.00904478
3102	0.00791419
3114	0.0074117
3126	0.00690921
3138	0.00634391
3150	0.00602986
3162	0.00590423
3174	0.00552737
3186	0.00533894
3198	0.00483645
3210	0.00414553
3222	0.00345461
3234	0.00276368
3246	0.00244963
3258	0.00219839
3270	0.00207276
3282	0.00182152
3294	0.00263806
3306	0.00175871
3318	0.00150746
3330	0.00125622
3342	0.00131903
3354	0.00150746
3366	0.00119341
3378	0.000565299
3390	0.00119341
3402	0.00163309
3414	0.0016959
3426	0.000816543
3438	0.000565299
3450	0.000879354
3462	0.000439677
3474	0.000314055
3486	0.00144465
3498	0.00175871
3510	0.00219839
3522	0.00345461
3534	0.00295212
3546	0.00351742
3558	0.0334155
3570	0.177818
3582	0.108789
3594	0.00860511
3606	0.00301493
3618	0.00320336
3630	0.00257525
3642	0.00157028
3654	0.00182152
3666	0.000376866
3678	0.00150746
3690	0.00131903
3702	0.000502488
3714	0.00131903
3726	0.00150746
3738	0.00138184
3750	0.00106779
3762	0.000879354
3774	0.000188433
3786	0.0016959
3798	0.000314055
3810	0.000439677
3822	0.0028265
3834	0.00188433
3846	0.000565299
3858	0
3870	0.00062811
3882	0.0011306
3894	0.00138184
3906	0.000314055
3918	0.00288931
3930	0.00138184
3942	0.0022612
3954	0.00163309
3966	0.00332898
