Infrared Spectrum: Benzene, 1-fluoro-4-(phenylsulfonyl)-
Formula: C 12 H 9 F O 2 S
CAS: 312-31-2
Origin: Sadtler Research Labs Under US-EPA Contract
1/CM	ABSORBANCE
450	0.0117156
462	0.00503125
474	0.00524687
486	0.00646875
498	0.00345
510	0.0138719
522	0.0219219
534	0.0914969
546	0.388916
558	0.149212
570	0.508731
582	0.289872
594	0.0240062
606	0.0198375
618	0.0123625
630	0.0169625
642	0.0619562
654	0.279881
666	0.0424781
678	0.0892687
690	0.165384
702	0.124272
714	0.0897
726	0.476963
738	0.110759
750	0.0811469
762	0.0500969
774	0.0205562
786	0.0212031
798	0.0407531
810	0.0876156
822	0.115
834	0.289728
846	0.109681
858	0.0252281
870	0.0190469
882	0.0186156
894	0.0108531
906	0.0100625
918	0.0139437
930	0.0148781
942	0.0150219
954	0.01495
966	0.0173937
978	0.0153812
990	0.0192625
1002	0.0325594
1014	0.0589375
1026	0.0414719
1038	0.0308344
1050	0.02645
1062	0.0462156
1074	0.0753969
1086	0.0818656
1098	0.238553
1110	0.359303
1122	0.0677062
1134	0.0574281
1146	0.162653
1158	0.532306
1170	0.691941
1182	0.178897
1194	0.0490187
1206	0.0437719
1218	0.0707969
1230	0.130453
1242	0.467475
1254	0.105009
1266	0.0426219
1278	0.0636812
1290	0.120319
1302	0.0723063
1314	0.0834469
1326	0.122619
1338	0.191331
1350	0.4255
1362	0.154459
1374	0.025875
1386	0.0306906
1398	0.0360813
1410	0.0345719
1422	0.0281031
1434	0.03335
1446	0.092
1458	0.0492344
1470	0.0365125
1482	0.0789906
1494	0.325809
1506	0.104003
1518	0.0266656
1530	0.0232875
1542	0.0164594
1554	0.0280313
1566	0.0438438
1578	0.105728
1590	0.261841
1602	0.166247
1614	0.0452094
1626	0.0250844
1638	0.0196937
1650	0.0199812
1662	0.0173219
1674	0.0139437
1686	0.0117156
1698	0.00991875
1710	0.0111406
1722	0.0123625
1734	0.0083375
1746	0.0140875
1758	0.0158125
1770	0.0220656
1782	0.0146625
1794	0.0132969
1806	0.0207
1818	0.0132969
1830	0.0130812
1842	0.00884062
1854	0.0115719
1866	0.0111406
1878	0.0128656
1890	0.0211313
1902	0.0245812
1914	0.0196937
1926	0.0122188
1938	0.0123625
1950	0.0114281
1962	0.0163875
1974	0.0134406
1986	0.0107094
1998	0.00912812
2010	0.00682812
2022	0.00898437
2034	0.00668438
2046	0.009775
2058	0.0071875
2070	0.00905625
2082	0.0083375
2094	0.00783437
2106	0.00884062
2118	0.0048875
2130	0.00675625
2142	0.0054625
2154	0.0071875
2166	0.0071875
2178	0.0077625
2190	0.0071875
2202	0.00409687
2214	0.00733125
2226	0.00575
2238	0.00955938
2250	0.008625
2262	0.00797812
2274	0.00876875
2286	0.00797812
2298	0.0125781
2310	0.0105656
2322	0.0123625
2334	0.0077625
2346	0.00646875
2358	0.00805
2370	0.00265937
2382	0.00761875
2394	0.00848125
2406	0.0116437
2418	0.00805
2430	0.0130812
2442	0.00769062
2454	0.00912812
2466	0.0089125
2478	0.00898437
2490	0.00991875
2502	0.00855312
2514	0.0122188
2526	0.00805
2538	0.00991875
2550	0.00840938
2562	0.00970312
2574	0.0112125
2586	0.0100625
2598	0.0094875
2610	0.00840938
2622	0.0089125
2634	0.00646875
2646	0.0077625
2658	0.0089125
2670	0.00725938
2682	0.00848125
2694	0.00625313
2706	0.0089125
2718	0.00711562
2730	0.00898437
2742	0.00812188
2754	0.0083375
2766	0.008625
2778	0.00725938
2790	0.00848125
2802	0.00610938
2814	0.00840938
2826	0.00575
2838	0.00898437
2850	0.009775
2862	0.00912812
2874	0.0094875
2886	0.00646875
2898	0.0112125
2910	0.00819375
2922	0.00984687
2934	0.00984687
2946	0.00955938
2958	0.00884062
2970	0.010925
2982	0.0100625
2994	0.00819375
3006	0.0131531
3018	0.0136562
3030	0.0192625
3042	0.0187594
3054	0.0206281
3066	0.0463594
3078	0.0926469
3090	0.0542656
3102	0.0197656
3114	0.0151656
3126	0.00955938
3138	0.00984687
3150	0.00912812
3162	0.00826563
3174	0.00855312
3186	0.00905625
3198	0.00797812
3210	0.00646875
3222	0.0069
3234	0.0054625
3246	0.00610938
3258	0.00575
3270	0.00337813
3282	0.00539062
3294	0.0054625
3306	0.00711562
3318	0.00610938
3330	0.002875
3342	0.00639687
3354	0.00474375
3366	0.00560625
3378	0.00495938
3390	0.00474375
3402	0.00510313
3414	0.00668438
3426	0.00424062
3438	0.00553438
3450	0.00352187
3462	0.0046
3474	0.0043125
3486	0.00510313
3498	0.00567813
3510	0.0037375
3522	0.00481562
3534	0.00380937
3546	0.0025875
3558	0.004025
3570	0.00323437
3582	0.006325
3594	0.00510313
3606	0.00503125
3618	0.00589375
3630	0.00445625
3642	0.00754687
3654	0.00668438
3666	0.00819375
3678	0.00589375
3690	0.0101344
3702	0.0118594
3714	0.0111406
3726	0.0135125
3738	0.00912812
3750	0.0112125
3762	0.0143031
3774	0.0161
3786	0.0158844
3798	0.0180406
3810	0.0168188
3822	0.01725
3834	0.0181844
3846	0.0192625
3858	0.0184
3870	0.0194062
3882	0.0202687
3894	0.0214188
3906	0.0206281
3918	0.0219937
3930	0.0194062
3942	0.0193344
3954	0
3966	0.001725
