Infrared Spectrum: 4-Benzylpiperidine
Formula: C 12 H 17 N
CAS: 31252-42-3
Origin: Sadtler Research Labs Under US-EPA Contract
1/CM	ABSORBANCE
450	0.0145322
462	0.0116257
474	0.0238328
486	0.0401918
498	0.0856983
510	0.0538106
522	0.00921755
534	0.0046503
546	0.0104632
558	0.0241649
570	0.0702527
582	0.0719965
594	0.0616995
606	0.00755673
618	0.00847018
630	0.00822106
642	0.00930059
654	0.0117918
666	0.0205942
678	0.0386971
690	0.169653
702	0.308082
714	0.132949
726	0.191576
738	0.369865
750	0.387718
762	0.202952
774	0.0645229
786	0.0313065
798	0.0302269
810	0.024248
822	0.018186
834	0.00813802
846	0.00539767
858	0.00531462
870	0.00672632
882	0.00714153
894	0.0205111
906	0.0215076
918	0.00847018
930	0.0135357
942	0.00822106
954	0.0171895
966	0.020179
978	0.0231684
990	0.0119579
1002	0.0271544
1014	0.0227532
1026	0.0285661
1038	0.0292304
1050	0.0220059
1062	0.0307252
1074	0.0211755
1086	0.0299778
1098	0.0362889
1110	0.0457556
1122	0.0442609
1134	0.060703
1146	0.115095
1158	0.0557205
1170	0.0170234
1182	0.0160269
1194	0.0232515
1206	0.0151135
1218	0.0114597
1230	0.0140339
1242	0.0102971
1254	0.0237497
1266	0.0457556
1278	0.0372024
1290	0.0292304
1302	0.0195146
1314	0.0633603
1326	0.117005
1338	0.038448
1350	0.0298117
1362	0.056717
1374	0.0307252
1386	0.0391954
1398	0.0259088
1410	0.0132866
1422	0.0249953
1434	0.0677615
1446	0.139094
1458	0.123731
1470	0.0518176
1482	0.0294796
1494	0.091179
1506	0.0599556
1518	0.00606199
1530	0.00489942
1542	0.00664328
1554	0.00307252
1566	0.00456726
1578	0.0125392
1590	0.0287322
1602	0.056717
1614	0.0360398
1626	0.00722457
1638	0.0046503
1650	0.00514854
1662	0.00257427
1674	0.00207603
1686	0.00207603
1698	0.00257427
1710	0.00257427
1722	0.00265731
1734	0.00514854
1746	0.00406901
1758	0.00240819
1770	0.00265731
1782	0.00539767
1794	0.0139509
1806	0.00963276
1818	0.0036538
1830	0.0018269
1842	0.00224211
1854	0.00456726
1866	0.00871931
1878	0.00954972
1890	0.00639416
1902	0.0032386
1914	0.00274035
1926	0.00572983
1938	0.0137848
1950	0.0131205
1962	0.00589591
1974	0.00107953
1986	0.00107953
1998	0.000581287
2010	0.00107953
2022	0.00107953
2034	0.00107953
2046	0.000996492
2058	0.000332164
2070	0.000166082
2082	0.000415205
2094	0
2106	0
2118	0.000664328
2130	0.000913451
2142	0.000498246
2154	0.000332164
2166	0.000498246
2178	0.000913451
2190	0.000913451
2202	0.00107953
2214	0.000996492
2226	0.000913451
2238	0.0014117
2250	0.00215907
2262	0.00166082
2274	0.00132866
2286	0.00157778
2298	0.00282339
2310	0.00481638
2322	0.0046503
2334	0.00440117
2346	0.00440117
2358	0.00315556
2370	0.00207603
2382	0.00240819
2394	0.00215907
2406	0.00240819
2418	0.00265731
2430	0.00290644
2442	0.00290644
2454	0.00298948
2466	0.00406901
2478	0.00357076
2490	0.00290644
2502	0.00298948
2514	0.00307252
2526	0.0036538
2538	0.00481638
2550	0.00556375
2562	0.00572983
2574	0.0068924
2586	0.00880235
2598	0.00954972
2610	0.0114597
2622	0.014117
2634	0.0235836
2646	0.0234176
2658	0.0186842
2670	0.0215907
2682	0.028317
2694	0.0323029
2706	0.0264901
2718	0.0378667
2730	0.0905977
2742	0.129627
2754	0.0684258
2766	0.0610351
2778	0.101725
2790	0.137931
2802	0.209014
2814	0.280097
2826	0.137101
2838	0.114597
2850	0.215824
2862	0.269136
2874	0.212751
2886	0.165501
2898	0.215242
2910	0.444269
2922	0.78673
2934	0.768212
2946	0.741971
2958	0.433308
2970	0.078972
2982	0.0326351
2994	0.0255766
3006	0.036455
3018	0.0616995
3030	0.196392
3042	0.180282
3054	0.0696714
3066	0.144491
3078	0.167577
3090	0.0969088
3102	0.0534784
3114	0.0326351
3126	0.0132866
3138	0.00680936
3150	0.00523158
3162	0.00523158
3174	0.00481638
3186	0.00390293
3198	0.00257427
3210	0.00215907
3222	0.00174386
3234	0.00207603
3246	0.00199298
3258	0.00232515
3270	0.00240819
3282	0.00232515
3294	0.0018269
3306	0.00190994
3318	0.00215907
3330	0.00423509
3342	0.00340468
3354	0.00249123
3366	0.0036538
3378	0.00340468
3390	0.00249123
3402	0.00207603
3414	0.00174386
3426	0.00166082
3438	0.00116257
3450	0.00190994
3462	0.0014117
3474	0.00124562
3486	0.0014117
3498	0.00107953
3510	0.00224211
3522	0.00157778
3534	0.00157778
3546	0.00190994
3558	0.0018269
3570	0.0018269
3582	0.00132866
3594	0.000996492
3606	0.00190994
3618	0.00174386
3630	0.00224211
3642	0.00290644
3654	0.00390293
3666	0.0032386
3678	0.00232515
3690	0.00215907
3702	0.00290644
3714	0.00215907
3726	0.00199298
3738	0.00224211
3750	0.00199298
3762	0.00265731
3774	0.00207603
3786	0.00257427
3798	0.00240819
3810	0.00298948
3822	0.00274035
3834	0.00315556
3846	0.00207603
3858	0.00307252
3870	0.00232515
3882	0.0032386
3894	0.00083041
3906	0.0018269
3918	0.00274035
3930	0.00240819
3942	0.00132866
3954	0.00240819
3966	0.000913451
