Infrared Spectrum: Dibutyl isophthalate
Formula: C 16 H 22 O 4
CAS: 3126-90-7
Origin: Sadtler Research Labs Under US-EPA Contract
1/CM	ABSORBANCE
450	0.00897429
462	0.00924831
474	0.00753566
486	0.00554899
498	0.00664508
510	0.00445289
522	0.011646
534	0.00623405
546	0.00513795
558	0.0125366
570	0.0134957
582	0.00657658
594	0.00623405
606	0.00411036
618	0.00698761
630	0.00945383
642	0.011235
654	0.017469
666	0.0137012
678	0.0181541
690	0.0217164
702	0.0325403
714	0.0492558
726	0.0871396
738	0.0693281
750	0.0191817
762	0.0179486
774	0.0168525
786	0.0127421
798	0.0150028
810	0.0135642
822	0.0222644
834	0.0147288
846	0.0224015
858	0.0141122
870	0.0178801
882	0.0172635
894	0.0197297
906	0.0165785
918	0.0180856
930	0.0236346
942	0.0371988
954	0.0451455
966	0.0480227
978	0.0361712
990	0.0343215
1002	0.0439123
1014	0.0383634
1026	0.028978
1038	0.0197982
1050	0.0268544
1062	0.0523386
1074	0.108171
1086	0.120776
1098	0.177705
1110	0.0956344
1122	0.122968
1134	0.129956
1146	0.0828923
1158	0.0718628
1170	0.080289
1182	0.0436383
1194	0.0563804
1206	0.0932367
1218	0.261898
1230	0.677935
1242	0.401788
1254	0.144274
1266	0.115912
1278	0.118036
1290	0.190789
1302	0.278819
1314	0.11187
1326	0.0548733
1338	0.0376098
1350	0.0289095
1362	0.0280875
1374	0.0276764
1386	0.0450769
1398	0.0313072
1410	0.02247
1422	0.0233605
1434	0.0376098
1446	0.0303482
1458	0.0418572
1470	0.0408981
1482	0.0291836
1494	0.0180856
1506	0.0146603
1518	0.0123311
1530	0.0102074
1542	0.0119885
1554	0.0107554
1566	0.0100019
1578	0.0121256
1590	0.0118515
1602	0.0150028
1614	0.0161674
1626	0.00952233
1638	0.00938532
1650	0.00965935
1662	0.0108925
1674	0.0123996
1686	0.0160989
1698	0.0274024
1710	0.0312387
1722	0.0512425
1734	0.234907
1746	0.446865
1758	0.0944013
1770	0.0370617
1782	0.0266488
1794	0.0188391
1806	0.011646
1818	0.00753566
1830	0.00712462
1842	0.00541197
1854	0.00596002
1866	0.00589152
1878	0.0057545
1890	0.00500094
1902	0.00472691
1914	0.0057545
1926	0.00671359
1938	0.00506944
1950	0.0045899
1962	0.0045214
1974	0.00404185
1986	0.00308277
1998	0.00260323
2010	0.00301426
2022	0.00280875
2034	0.0034253
2046	0.00328829
2058	0.00267173
2070	0.00315128
2082	0.00308277
2094	0.00301426
2106	0.00246622
2118	0.00253472
2130	0.00205518
2142	0.00287725
2154	0.00191817
2166	0.00178116
2178	0.00171265
2190	0.00171265
2202	0.00219219
2214	0.00219219
2226	0.00205518
2238	0.00205518
2250	0.00205518
2262	0.00157564
2274	0.00150713
2286	0.00198667
2298	0.00438438
2310	0.00870026
2322	0.0145918
2334	0.0180171
2346	0.0193187
2358	0.0254842
2370	0.0202093
2382	0.005686
2394	0.000959084
2406	0.000959084
2418	0.000959084
2430	0.000890578
2442	0.000822072
2454	0.000822072
2466	0.000822072
2478	0.000548048
2490	0.000753566
2502	0.000890578
2514	0.000959084
2526	0.00102759
2538	0.00198667
2550	0.00178116
2562	0.00178116
2574	0.00178116
2586	0.00198667
2598	0.0022607
2610	0.00212369
2622	0.0022607
2634	0.0022607
2646	0.00191817
2658	0.00239771
2670	0.00253472
2682	0.00321978
2694	0.00287725
2706	0.00328829
2718	0.0034253
2730	0.00356231
2742	0.00445289
2754	0.00493243
2766	0.00465841
2778	0.00438438
2790	0.00500094
2802	0.00637106
2814	0.00602853
2826	0.00774118
2838	0.0102759
2850	0.0160989
2862	0.0239086
2874	0.0391854
2886	0.056997
2898	0.0466526
2910	0.051859
2922	0.0659028
2934	0.0822757
2946	0.112007
2958	0.116392
2970	0.169347
2982	0.0976896
2994	0.0435013
3006	0.0222644
3018	0.0140437
3030	0.0118515
3042	0.0108239
3054	0.00890578
3066	0.00808371
3078	0.0157564
3090	0.0121941
3102	0.00630255
3114	0.00534347
3126	0.00513795
3138	0.00431588
3150	0.00363082
3162	0.00363082
3174	0.00472691
3186	0.00363082
3198	0.00417887
3210	0.00356231
3222	0.00315128
3234	0.00274024
3246	0.00417887
3258	0.00274024
3270	0.00253472
3282	0.00404185
3294	0.00198667
3306	0.00294576
3318	0.00280875
3330	0.00246622
3342	0.00205518
3354	0.00198667
3366	0.00315128
3378	0.00178116
3390	0.00274024
3402	0.00191817
3414	0.00198667
3426	0.0022607
3438	0.00164414
3450	0.00246622
3462	0.00534347
3474	0.00253472
3486	0.0010961
3498	0.0011646
3510	0.0011646
3522	0.00137012
3534	0.000411036
3546	6.8506e-05
3558	6.8506e-05
3570	0.00068506
3582	0.00157564
3594	0.00178116
3606	0.00198667
3618	0.00157564
3630	0.00465841
3642	0.00212369
3654	0.00274024
3666	0.00390484
3678	0.00643956
3690	0.00808371
3702	0.00959084
3714	0.00965935
3726	0.0131532
3738	0.0145918
3750	0.0143863
3762	0.0159619
3774	0.017332
3786	0.0177431
3798	0.0188391
3810	0.0198667
3822	0.0204148
3834	0.0210998
3846	0.0211684
3858	0.0210313
3870	0.0213739
3882	0.0202093
3894	0.0202093
3906	0.0206888
3918	0.0177431
3930	0.0167155
3942	0.0158934
3954	0.00157564
3966	0.00308277
