Infrared Spectrum: Cyclohexanol, 2-tert-butyl-5-methyl-,
Formula: C 11 H 22 O
CAS: 3127-74-0
Origin: Sadtler Research Labs Under US-EPA Contract
1/CM	ABSORBANCE
450	0
462	0.0118013
474	0.00702105
486	0.0104569
498	0.00851489
510	0.0115026
522	0.0074692
534	0.00776797
546	0.00597536
558	0.00239014
570	0.00343583
582	0.00448152
594	0.00448152
606	0.00702105
618	0.0110544
630	0.0146396
642	0.0046309
654	0.0037346
666	0.00418275
678	0.00821612
690	0.00791735
702	0.00478029
714	0.00358522
726	0.00388398
738	0.00448152
750	0.00881366
762	0.00672228
774	0.0219594
786	0.0131458
798	0.00926181
810	0.014789
822	0.0195693
834	0.0394374
846	0.0343583
858	0.0242002
870	0.0153866
882	0.0140421
894	0.0191212
906	0.020615
918	0.0240508
930	0.0345077
942	0.0602018
954	0.103075
966	0.117117
978	0.0752895
990	0.0654302
1002	0.099191
1014	0.149085
1026	0.1213
1038	0.0857464
1050	0.074692
1062	0.0987428
1074	0.0905267
1086	0.0767834
1098	0.0730488
1110	0.0745426
1122	0.0879872
1134	0.0622931
1146	0.0516869
1158	0.0636376
1170	0.0887341
1182	0.107407
1194	0.0996391
1206	0.100834
1218	0.135491
1230	0.167758
1242	0.141168
1254	0.0908255
1266	0.070808
1278	0.052135
1290	0.048998
1302	0.0507906
1314	0.0476535
1326	0.0473547
1338	0.0654302
1350	0.0866427
1362	0.183742
1374	0.265455
1386	0.174331
1398	0.153119
1410	0.067671
1422	0.0379435
1434	0.0594548
1446	0.0976971
1458	0.156256
1470	0.181203
1482	0.169999
1494	0.0820118
1506	0.0228558
1518	0.0137433
1530	0.0107556
1542	0.0083655
1554	0.0074692
1566	0.00687166
1578	0.00731982
1590	0.00672228
1602	0.00672228
1614	0.00717043
1626	0.00672228
1638	0.00612474
1650	0.00597536
1662	0.00567659
1674	0.00612474
1686	0.00627413
1698	0.0074692
1710	0.0106063
1722	0.0195693
1734	0.0155359
1746	0.0074692
1758	0.00731982
1770	0.00627413
1782	0.00507906
1794	0.00448152
1806	0.0046309
1818	0.00418275
1830	0.0037346
1842	0.00418275
1854	0.00448152
1866	0.00358522
1878	0.00343583
1890	0.00343583
1902	0.00343583
1914	0.00328645
1926	0.00343583
1938	0.00298768
1950	0.00313706
1962	0.00298768
1974	0.00298768
1986	0.0028383
1998	0.00224076
2010	0.00253953
2022	0.00253953
2034	0.00253953
2046	0.00224076
2058	0.00239014
2070	0.00224076
2082	0.00253953
2094	0.00268891
2106	0.00253953
2118	0.00239014
2130	0.00253953
2142	0.0028383
2154	0.00268891
2166	0.00268891
2178	0.00268891
2190	0.00268891
2202	0.00253953
2214	0.00253953
2226	0.00268891
2238	0.0028383
2250	0.00298768
2262	0.00313706
2274	0.00358522
2286	0.00478029
2298	0.00627413
2310	0.00567659
2322	0.0037346
2334	0.00239014
2346	0.00448152
2358	0.00328645
2370	0.00328645
2382	0.00552721
2394	0.0046309
2406	0.00522844
2418	0.00522844
2430	0.00433214
2442	0.00403337
2454	0.00478029
2466	0.00522844
2478	0.00537782
2490	0.00507906
2502	0.00552721
2514	0.00537782
2526	0.00567659
2538	0.00582598
2550	0.00672228
2562	0.00731982
2574	0.00791735
2586	0.00911242
2598	0.0106063
2610	0.0122495
2622	0.0138927
2634	0.0159841
2646	0.0182248
2658	0.0200175
2670	0.0216607
2682	0.0240508
2694	0.0237521
2706	0.0228558
2718	0.0262916
2730	0.0325657
2742	0.0282336
2754	0.026441
2766	0.0255447
2778	0.0255447
2790	0.0309225
2802	0.0343583
2814	0.0430226
2826	0.0567659
2838	0.102926
2850	0.270236
2862	0.421113
2874	0.512985
2886	0.623828
2898	0.702553
2910	0.910944
2922	1.19164
2934	1.00446
2946	0.976075
2958	1.41243
2970	1.23212
2982	0.512387
2994	0.214366
3006	0.0918712
3018	0.0446658
3030	0.0265904
3042	0.0188224
3054	0.0155359
3066	0.0138927
3078	0.0131458
3090	0.0119507
3102	0.0125483
3114	0.0125483
3126	0.0112038
3138	0.0115026
3150	0.0123989
3162	0.0125483
3174	0.0129964
3186	0.0129964
3198	0.011652
3210	0.0107556
3222	0.00911242
3234	0.00791735
3246	0.00776797
3258	0.00702105
3270	0.00642351
3282	0.00522844
3294	0.00507906
3306	0.00567659
3318	0.00612474
3330	0.00492967
3342	0.00492967
3354	0.00478029
3366	0.00418275
3378	0.00478029
3390	0.00418275
3402	0.00403337
3414	0.00478029
3426	0.00492967
3438	0.00597536
3450	0.00537782
3462	0.00492967
3474	0.00492967
3486	0.00388398
3498	0.00343583
3510	0.00403337
3522	0.00448152
3534	0.00358522
3546	0.00388398
3558	0.00328645
3570	0.00239014
3582	0.00328645
3594	0.00388398
3606	0.00418275
3618	0.00731982
3630	0.0159841
3642	0.0445164
3654	0.0646833
3666	0.0460103
3678	0.0247977
3690	0.0140421
3702	0.00941119
3714	0.00672228
3726	0.00537782
3738	0.00567659
3750	0.00418275
3762	0.00448152
3774	0.0046309
3786	0.00492967
3798	0.00552721
3810	0.00642351
3822	0.00761858
3834	0.00717043
3846	0.0065729
3858	0.00821612
3870	0.00731982
3882	0.00761858
3894	0.00821612
3906	0.00642351
3918	0.00418275
3930	0.00642351
3942	0.00403337
3954	0.00612474
3966	0.00537782
