Infrared Spectrum: 4-Acetylbutyric acid
Formula: C 6 H 10 O 3
CAS: 3128-06-1
Origin: Sadtler Research Labs Under US-EPA Contract
1/CM	ABSORBANCE
450	0.0176839
462	0.0195104
474	0.0212539
486	0.0372773
498	0.0502289
510	0.0572859
522	0.0689921
534	0.0791209
546	0.090329
558	0.0981332
570	0.0893327
582	0.0987143
594	0.105273
606	0.112911
618	0.116315
630	0.115402
642	0.0945632
654	0.0549612
666	0.0392699
678	0.0268995
690	0.0228313
702	0.0210048
714	0.0259032
726	0.0393529
738	0.0456626
750	0.0258202
762	0.010793
774	0.00564556
786	0.00514743
798	0.00307185
810	0.00182651
822	0.00174348
834	0.00116232
846	0.000166046
858	0.00174348
870	0.00705695
882	0.0134497
894	0.00888346
906	0.00689091
918	0.0100458
930	0.0193444
942	0.0293071
954	0.0351187
966	0.039602
978	0.035949
990	0.0336243
1002	0.0367792
1014	0.0372773
1026	0.0439192
1038	0.0624333
1050	0.0969709
1062	0.124701
1074	0.140143
1086	0.145871
1098	0.176839
1110	0.317148
1122	0.605653
1134	0.570617
1146	0.374849
1158	0.356916
1170	0.311917
1182	0.225823
1194	0.19361
1206	0.173601
1218	0.15243
1230	0.127772
1242	0.104028
1254	0.0908272
1266	0.079536
1278	0.0739735
1290	0.0743886
1302	0.0812795
1314	0.0833551
1326	0.0850156
1338	0.113575
1350	0.177088
1362	0.270074
1374	0.248073
1386	0.184892
1398	0.138897
1410	0.104194
1422	0.110421
1434	0.105854
1446	0.0914083
1458	0.0727281
1470	0.0406813
1482	0.021503
1494	0.0136988
1506	0.0116232
1518	0.010793
1530	0.0102949
1542	0.0100458
1554	0.00971369
1566	0.00896648
1578	0.00813625
1590	0.00713998
1602	0.00689091
1614	0.00813625
1626	0.00979671
1638	0.0118723
1650	0.0132007
1662	0.014363
1674	0.0225823
1686	0.0436701
1698	0.0787888
1710	0.155336
1722	0.337572
1734	0.527528
1746	0.474892
1758	0.492825
1770	0.72944
1782	0.815535
1794	0.539234
1806	0.272315
1818	0.112911
1830	0.0420927
1842	0.0200085
1854	0.0117893
1866	0.00821928
1878	0.0061437
1890	0.00481533
1902	0.00423417
1914	0.00340394
1926	0.00307185
1938	0.00332092
1950	0.00315487
1962	0.0021586
1974	0.00157744
1986	0.000415115
1998	0.00083023
2010	0.000747207
2022	0.000332092
2034	8.3023e-05
2046	8.3023e-05
2058	8.3023e-05
2070	0.000166046
2082	0.000498138
2094	0.000664184
2106	0.000913253
2118	0.000913253
2130	0.000581161
2142	0.000581161
2154	0.000664184
2166	0.0010793
2178	0.00116232
2190	0.00149441
2202	0.00124534
2214	0.000913253
2226	0.00132837
2238	0.00190953
2250	0.00182651
2262	0.00149441
2274	0.000996276
2286	0.00124534
2298	0.00124534
2310	0.00182651
2322	0.00207557
2334	0.00249069
2346	0.00199255
2358	0.00116232
2370	0.00141139
2382	0.0010793
2394	0.000664184
2406	0.000249069
2418	8.3023e-05
2430	8.3023e-05
2442	0.000166046
2454	0.000166046
2466	0.000498138
2478	0.000415115
2490	0.000747207
2502	0.00124534
2514	0.000913253
2526	0.000913253
2538	0.000581161
2550	0.000498138
2562	0.000332092
2574	0.000581161
2586	0.000332092
2598	0.000498138
2610	0.000415115
2622	0.000415115
2634	0.000498138
2646	0.0010793
2658	0.00083023
2670	0.00116232
2682	0.00149441
2694	0.00166046
2706	0.00141139
2718	0.00157744
2730	0.00174348
2742	0.00166046
2754	0.00224162
2766	0.00273976
2778	0.00315487
2790	0.00415115
2802	0.00547952
2814	0.00805323
2826	0.0105439
2838	0.0132837
2850	0.0177669
2862	0.0244088
2874	0.0320469
2886	0.0415115
2898	0.0621842
2910	0.0826079
2922	0.090246
2934	0.106768
2946	0.119968
2958	0.129765
2970	0.124534
2982	0.0878383
2994	0.0553763
3006	0.0451645
3018	0.0383566
3030	0.0230804
3042	0.0172688
3054	0.0157744
3066	0.0154423
3078	0.0136158
3090	0.010959
3102	0.00846835
3114	0.00680789
3126	0.00547952
3138	0.00406813
3150	0.00356999
3162	0.00282278
3174	0.00240767
3186	0.00224162
3198	0.00190953
3210	0.00199255
3222	0.00116232
3234	0.00166046
3246	0.00141139
3258	0.000747207
3270	0.0010793
3282	0.000996276
3294	0.000996276
3306	0.00116232
3318	0.000913253
3330	0.000498138
3342	0.00083023
3354	0.0010793
3366	0.00083023
3378	0.00132837
3390	0.00174348
3402	0.00224162
3414	0.00257371
3426	0.00423417
3438	0.00680789
3450	0.00871741
3462	0.00589463
3474	0.00273976
3486	0.00232464
3498	0.00273976
3510	0.00381906
3522	0.00705695
3534	0.0102949
3546	0.0173518
3558	0.0423417
3570	0.240103
3582	0.296807
3594	0.0508101
3606	0.0131176
3618	0.00780416
3630	0.00622672
3642	0.00232464
3654	0.00273976
3666	0.00132837
3678	0.00157744
3690	0.00257371
3702	0.00174348
3714	0.00224162
3726	0.00265674
3738	0.00340394
3750	0.00456626
3762	0.00190953
3774	0.000581161
3786	0.000913253
3798	0.000913253
3810	0.00124534
3822	0.00174348
3834	0.00232464
3846	0.000664184
3858	0.00190953
3870	0.00265674
3882	0.00315487
3894	0.000747207
3906	0.00373603
3918	0.00157744
3930	0.000996276
3942	0.00132837
3954	0.000996276
3966	0.00124534
