Infrared Spectrum: Benzaldehyde, 3-bromo-
Formula: C 7 H 5 Br O
CAS: 3132-99-8
Origin: Sadtler Research Labs Under US-EPA Contract
1/CM	ABSORBANCE
450	0
462	0.0166234
474	0.018211
486	0.0204524
498	0.022507
510	0.0253087
522	0.0230673
534	0.0179309
546	0.0218533
558	0.0201722
570	0.0248417
582	0.0291377
594	0.0264294
606	0.0302584
618	0.0295112
630	0.0380097
642	0.0739649
654	0.0590225
666	0.131493
678	0.255328
690	0.116271
702	0.14354
714	0.124769
726	0.0548199
738	0.0363287
750	0.037356
762	0.0591159
774	0.142887
786	0.183605
798	0.0775137
810	0.0340874
822	0.0303518
834	0.0486562
846	0.0801286
858	0.0833039
870	0.0737781
882	0.0817163
894	0.0522984
906	0.0360485
918	0.0272699
930	0.0247483
942	0.0238145
954	0.0245616
966	0.0266161
978	0.0269897
990	0.0363287
1002	0.0512711
1014	0.0372626
1026	0.028484
1038	0.0259624
1050	0.0329667
1062	0.0948842
1074	0.0911486
1086	0.0494967
1098	0.0311923
1110	0.0282972
1122	0.0261492
1134	0.0277368
1146	0.0434264
1158	0.0862924
1170	0.108893
1182	0.363754
1194	0.465269
1206	0.149424
1218	0.0719103
1230	0.0453875
1242	0.0316592
1254	0.0383833
1266	0.07135
1278	0.0676144
1290	0.0524852
1302	0.042866
1314	0.0269897
1326	0.0244682
1338	0.0276434
1350	0.0255889
1362	0.0353014
1374	0.0973124
1386	0.132801
1398	0.0426792
1410	0.0430528
1422	0.0740583
1434	0.0952578
1446	0.0421189
1458	0.0480025
1470	0.0791947
1482	0.0644391
1494	0.0309121
1506	0.0274567
1518	0.0271765
1530	0.0264294
1542	0.0326865
1554	0.0494033
1566	0.118512
1578	0.208446
1590	0.103943
1602	0.050057
1614	0.031379
1626	0.0306319
1638	0.0315658
1650	0.0279236
1662	0.0265228
1674	0.0402511
1686	0.074712
1698	0.123088
1710	0.261118
1722	0.75758
1734	0.66475
1746	0.107398
1758	0.0690152
1770	0.0424925
1782	0.0294178
1794	0.0296046
1806	0.0283906
1818	0.0305385
1830	0.0287641
1842	0.0237211
1854	0.024655
1866	0.0267095
1878	0.0287641
1890	0.025869
1902	0.0233475
1914	0.0212929
1926	0.0197987
1938	0.0222268
1950	0.0237211
1962	0.0209194
1974	0.0197053
1986	0.0195185
1998	0.0193317
2010	0.0194251
2022	0.0195185
2034	0.0209194
2046	0.0216665
2058	0.020826
2070	0.0200788
2082	0.0183044
2094	0.0179309
2106	0.0177441
2118	0.0181177
2130	0.0179309
2142	0.0179309
2154	0.0181177
2166	0.0185846
2178	0.018678
2190	0.0183044
2202	0.0178375
2214	0.0174639
2226	0.0176507
2238	0.0181177
2250	0.0184912
2262	0.0183978
2274	0.0183978
2286	0.018211
2298	0.0187714
2310	0.0197053
2322	0.0205458
2334	0.0217599
2346	0.0226938
2358	0.0188648
2370	0.0238145
2382	0.0226938
2394	0.0197987
2406	0.0192383
2418	0.0188648
2430	0.0188648
2442	0.0194251
2454	0.0200788
2466	0.0200788
2478	0.0193317
2490	0.0192383
2502	0.0196119
2514	0.0202656
2526	0.0209194
2538	0.0211061
2550	0.0210128
2562	0.0222268
2574	0.0226004
2586	0.0226004
2598	0.022507
2610	0.02204
2622	0.0232541
2634	0.0234409
2646	0.0247483
2658	0.0253087
2670	0.0260558
2682	0.025869
2694	0.0322195
2706	0.0624779
2718	0.155961
2730	0.151292
2742	0.0383833
2754	0.0300716
2766	0.0441735
2778	0.0711632
2790	0.0954446
2802	0.138217
2814	0.14242
2826	0.150825
2838	0.0611705
2850	0.0398775
2862	0.0360485
2874	0.0307253
2886	0.0265228
2898	0.0267095
2910	0.0274567
2922	0.0276434
2934	0.028017
2946	0.026336
2958	0.024655
2970	0.0252153
2982	0.0254955
2994	0.0253087
3006	0.0254021
3018	0.0287641
3030	0.0317526
3042	0.0324063
3054	0.0370758
3066	0.0530455
3078	0.0596762
3090	0.0481892
3102	0.0350212
3114	0.0240012
3126	0.0213863
3138	0.0205458
3150	0.0204524
3162	0.0207326
3174	0.0211995
3186	0.0197987
3198	0.019145
3210	0.0184912
3222	0.018678
3234	0.019145
3246	0.0196119
3258	0.0193317
3270	0.0188648
3282	0.0183044
3294	0.0197987
3306	0.0195185
3318	0.0194251
3330	0.0206392
3342	0.0173705
3354	0.0180243
3366	0.0184912
3378	0.0183978
3390	0.0199855
3402	0.0226938
3414	0.0282972
3426	0.0328733
3438	0.0247483
3450	0.0227872
3462	0.0212929
3474	0.0187714
3486	0.0183044
3498	0.0198921
3510	0.0198921
3522	0.0212929
3534	0.0194251
3546	0.0187714
3558	0.0192383
3570	0.0213863
3582	0.0197987
3594	0.0211061
3606	0.0195185
3618	0.0197053
3630	0.0205458
3642	0.0202656
3654	0.0209194
3666	0.0227872
3678	0.0230673
3690	0.0227872
3702	0.0207326
3714	0.0235343
3726	0.0234409
3738	0.0204524
3750	0.0198921
3762	0.0224136
3774	0.0210128
3786	0.0242814
3798	0.0214797
3810	0.0194251
3822	0.0211061
3834	0.0230673
3846	0.0239078
3858	0.022507
3870	0.0234409
3882	0.0228805
3894	0.0250285
3906	0.0226938
3918	0.0207326
3930	0.0245616
3942	0.018211
3954	0.0217599
3966	0.0257756
