Infrared Spectrum: Ethylamine, N,N-dimethyl-2-(vinyloxy)-,
Formula: C 6 H 13 N O
CAS: 31442-54-3
Origin: Sadtler Research Labs Under US-EPA Contract
1/CM	ABSORBANCE
450	0.0103348
462	0.0134927
474	0.0185165
486	0.0134927
498	0.0149281
510	0.0223921
522	0.0251193
534	0.0190907
546	0.0172247
558	0.0117702
570	0.00760757
582	0.00631572
594	0.00990419
606	0.0142104
618	0.00947357
630	0.00100477
642	0
654	0.00114831
666	0.00200955
678	0.00746403
690	0.0160764
702	0.0198084
714	0.0122008
726	0.00875588
738	0.0120573
750	0.0193778
762	0.0358847
774	0.0637313
786	0.0938745
798	0.145836
810	0.266983
822	0.33301
834	0.296695
846	0.242437
858	0.158611
870	0.0925827
882	0.0747838
894	0.0786594
906	0.0800948
918	0.0877023
930	0.125597
942	0.18617
954	0.231241
966	0.249901
978	0.249327
990	0.264399
1002	0.295116
1014	0.315642
1026	0.355833
1038	0.473966
1050	0.490042
1062	0.448703
1074	0.447842
1086	0.467076
1098	0.358991
1110	0.214734
1122	0.132917
1134	0.168371
1146	0.321527
1158	0.47009
1170	0.564826
1182	0.708221
1194	0.941616
1206	1.41013
1218	1.09779
1230	0.264399
1242	0.152725
1254	0.175261
1266	0.268418
1278	0.304159
1290	0.257653
1302	0.234256
1314	0.384397
1326	0.467794
1338	0.214447
1350	0.141529
1362	0.203538
1374	0.157606
1386	0.107798
1398	0.091865
1410	0.0953099
1422	0.0780852
1434	0.0904296
1446	0.201672
1458	0.341192
1470	0.355259
1482	0.221194
1494	0.0990419
1506	0.0661715
1518	0.0533965
1530	0.0447842
1542	0.0391861
1554	0.0343058
1566	0.0399038
1578	0.0657409
1590	0.154735
1602	0.415976
1614	0.80712
1626	0.686834
1638	0.765063
1650	0.666882
1662	0.341336
1674	0.165788
1686	0.0961711
1698	0.0562673
1710	0.0493774
1722	0.042344
1734	0.0205261
1746	0.010909
1758	0.00947357
1770	0.00803818
1782	0.00732049
1794	0.00459325
1806	0.00430617
1818	0.00488033
1830	0.0033014
1842	0.00387555
1854	0.00545448
1866	0.00732049
1878	0.0124879
1890	0.00803818
1902	0.00789465
1914	0.010909
1926	0.0114831
1938	0.00832526
1950	0.00559802
1962	0.00373201
1974	0.0033014
1986	0.00430617
1998	0.00559802
2010	0.00674633
2022	0.00832526
2034	0.0110525
2046	0.0119137
2058	0.0106219
2070	0.00660279
2082	0.00559802
2094	0.00660279
2106	0.00703341
2118	0.00645926
2130	0.00602864
2142	0.00775111
2154	0.0101913
2166	0.00875588
2178	0.00444971
2190	0.0025837
2202	0.00215309
2214	0.00186601
2226	0.00215309
2238	0.00200955
2250	0.00172247
2262	0.00129185
2274	0.000574156
2286	0.000287078
2298	0
2310	0.000430617
2322	0.000143539
2334	0.000574156
2346	0.0025837
2358	0.00200955
2370	0.00430617
2382	0.00545448
2394	0.00430617
2406	0.00344494
2418	0.0033014
2430	0.00344494
2442	0.0033014
2454	0.00401909
2466	0.00488033
2478	0.00645926
2490	0.0091865
2502	0.0123444
2514	0.013062
2526	0.0133491
2538	0.0129185
2550	0.013062
2562	0.0124879
2574	0.0120573
2586	0.0120573
2598	0.0134927
2610	0.0139233
2622	0.0142104
2634	0.0153587
2646	0.018373
2658	0.0223921
2670	0.027703
2682	0.0351671
2694	0.0483726
2706	0.0724872
2718	0.106075
2730	0.144687
2742	0.188754
2754	0.270858
2766	0.531956
2778	0.861234
2790	0.762192
2802	0.546884
2814	0.540855
2826	0.654394
2838	0.543152
2850	0.363728
2862	0.36057
2874	0.430761
2886	0.448703
2898	0.417842
2910	0.423584
2922	0.491334
2934	0.621954
2946	0.806402
2958	0.850469
2970	0.74468
2982	0.723006
2994	0.386551
3006	0.15129
3018	0.0866976
3030	0.0677504
3042	0.056985
3054	0.0727743
3066	0.0694729
3078	0.0565544
3090	0.0508128
3102	0.036746
3114	0.0538271
3126	0.111673
3138	0.062583
3150	0.0198084
3162	0.0147845
3174	0.0134927
3186	0.0132056
3198	0.0120573
3210	0.010909
3222	0.00818172
3234	0.00602864
3246	0.00488033
3258	0.00430617
3270	0.00416263
3282	0.0033014
3294	0.00315786
3306	0.00244016
3318	0.00244016
3330	0.0025837
3342	0.00272724
3354	0.00272724
3366	0.0025837
3378	0.00244016
3390	0.00287078
3402	0.00301432
3414	0.00358848
3426	0.00373201
3438	0.0033014
3450	0.00301432
3462	0.0033014
3474	0.00373201
3486	0.00287078
3498	0.00172247
3510	0.00186601
3522	0.00200955
3534	0.00459325
3546	0.0051674
3558	0.00488033
3570	0.00272724
3582	0.00229662
3594	0.00172247
3606	0.00100477
3618	0.000574156
3630	0.00287078
3642	0.00200955
3654	0.00344494
3666	0.00502387
3678	0.00416263
3690	0.0033014
3702	0.00157893
3714	0.00129185
3726	0.00100477
3738	0.00100477
3750	0.00215309
3762	0.00186601
3774	0.00200955
3786	0.00114831
3798	0.00129185
3810	0.00287078
3822	0.00315786
3834	0.00315786
3846	0.00272724
3858	0.00358848
3870	0.00315786
3882	0.00287078
3894	0.00315786
3906	0.00229662
3918	0.00387555
3930	0.00344494
3942	0.00430617
3954	0.00531094
3966	0.00559802
