Infrared Spectrum: Pyrazine, methoxy-
Formula: C 5 H 6 N 2 O
CAS: 3149-28-8
Origin: Sadtler Research Labs Under US-EPA Contract
1/CM	ABSORBANCE
450	0.0765355
462	0
474	0.0109336
486	0.0427292
498	0.0968947
510	0.0286537
522	0.0669842
534	0.039713
546	0.0309158
558	0.0424778
570	0.0415981
582	0.0491385
594	0.104435
606	0.097523
618	0.0421008
630	0.0485102
642	0.0549195
654	0.0448656
666	0.0263915
678	0.0212389
690	0.0224956
702	0.02237
714	0.0241294
726	0.028528
738	0.0378279
750	0.0485102
762	0.0354401
774	0.0314185
786	0.0248835
798	0.0271456
810	0.0456197
822	0.130073
834	0.241043
846	0.174938
858	0.107954
870	0.0358171
882	0.0268942
894	0.0299104
906	0.0317955
918	0.0421008
930	0.0353144
942	0.0306645
954	0.033555
966	0.0375765
978	0.0495156
990	0.118259
1002	0.288548
1014	0.544168
1026	0.411331
1038	0.111473
1050	0.152317
1062	0.242802
1074	0.204974
1086	0.0502696
1098	0.0354401
1110	0.0492642
1122	0.0787976
1134	0.145908
1146	0.218044
1158	0.190647
1170	0.164382
1182	0.246572
1194	0.207236
1206	0.091742
1218	0.0370738
1230	0.034686
1242	0.0470021
1254	0.0717599
1266	0.141132
1278	0.546933
1290	0.896684
1302	0.940167
1314	0.850562
1326	0.536251
1338	0.208619
1350	0.147164
1362	0.0961406
1374	0.142514
1386	0.654007
1398	1.25674
1410	0.894045
1422	0.130827
1434	0.153825
1446	0.191904
1458	0.251097
1470	0.448531
1482	0.398764
1494	0.105315
1506	0.0853326
1518	0.145028
1530	0.624725
1542	0.955499
1554	0.51099
1566	0.140881
1578	0.232874
1590	0.175567
1602	0.0495156
1614	0.0447399
1626	0.0487615
1638	0.045494
1650	0.0514007
1662	0.0331779
1674	0.0338063
1686	0.0321725
1698	0.0322982
1710	0.017343
1722	0.0188511
1734	0.0322982
1746	0.0295334
1758	0.0268942
1770	0.0287793
1782	0.0266429
1794	0.0271456
1806	0.0150809
1818	0.0150809
1830	0.0255118
1842	0.0245064
1854	0.0147039
1866	0.0170917
1878	0.0139498
1890	0.0196051
1902	0.0250091
1914	0.027774
1926	0.0216159
1938	0.0172173
1950	0.0136985
1962	0.0106823
1974	0.00816881
1986	0.00816881
1998	0.0104309
2010	0.0149552
2022	0.0245064
2034	0.0266429
2046	0.0164633
2058	0.00728909
2070	0.00980257
2082	0.0101796
2094	0.0096769
2106	0.011562
2118	0.0145782
2130	0.0162119
2142	0.0150809
2154	0.0118134
2166	0.00716342
2178	0.00515263
2190	0.00502696
2202	0.00527831
2214	0.00728909
2226	0.00791746
2238	0.0062837
2250	0.00351887
2262	0.00351887
2274	0.00377022
2286	0.00427292
2298	0.00490129
2310	0.00364455
2322	0.00175944
2334	0.00377022
2346	0.00640937
2358	0.00527831
2370	0.00867151
2382	0.0104309
2394	0.00804314
2406	0.00603235
2418	0.00414724
2430	0.00477561
2442	0.00527831
2454	0.00703774
2466	0.00779179
2478	0.00867151
2490	0.0104309
2502	0.0104309
2514	0.00728909
2526	0.00552966
2538	0.00477561
2550	0.00590668
2562	0.00754044
2574	0.00980257
2586	0.0114363
2598	0.0123161
2610	0.011939
2622	0.00980257
2634	0.00816881
2646	0.0062837
2658	0.00527831
2670	0.00502696
2682	0.00691207
2694	0.00779179
2706	0.0114363
2718	0.0118134
2730	0.011185
2742	0.00942555
2754	0.00929988
2766	0.00980257
2778	0.0118134
2790	0.00980257
2802	0.00867151
2814	0.0116877
2826	0.0197308
2838	0.0278996
2850	0.0378279
2862	0.0545425
2874	0.0684923
2886	0.0668586
2898	0.0585641
2910	0.0609519
2922	0.0594438
2934	0.0639681
2946	0.122155
2958	0.223071
2970	0.214903
2982	0.122658
2994	0.134848
3006	0.114615
3018	0.138995
3030	0.126931
3042	0.0873434
3054	0.126177
3066	0.281384
3078	0.260899
3090	0.0723882
3102	0.0258888
3114	0.0172173
3126	0.0134471
3138	0.0136985
3150	0.0138241
3162	0.0104309
3174	0.00829448
3186	0.00791746
3198	0.00666072
3210	0.00527831
3222	0.00477561
3234	0.00565533
3246	0.00653505
3258	0.00540398
3270	0.00427292
3282	0.00515263
3294	0.00502696
3306	0.00364455
3318	0.00439859
3330	0.00653505
3342	0.00515263
3354	0.00389589
3366	0.00540398
3378	0.00490129
3390	0.00477561
3402	0.00527831
3414	0.00653505
3426	0.00766611
3438	0.00351887
3450	0.00527831
3462	0.0033932
3474	0.00502696
3486	0.00515263
3498	0.00615803
3510	0.00377022
3522	0.0033932
3534	0.00464994
3546	0.00552966
3558	0.00552966
3570	0.00791746
3582	0.0033932
3594	0.00603235
3606	0.005781
3618	0.00402157
3630	0.00842016
3642	0.00942555
3654	0.00603235
3666	0.00515263
3678	0.00942555
3690	0.00741477
3702	0.0113107
3714	0.00779179
3726	0.0028905
3738	0.00842016
3750	0.0096769
3762	0.00477561
3774	0.0158349
3786	0.00804314
3798	0.0116877
3810	0.0109336
3822	0.0114363
3834	0.0118134
3846	0.0105566
3858	0.0144525
3870	0.0116877
3882	0.00955122
3894	0.00728909
3906	0.00955122
3918	0.0113107
3930	0.010808
3942	0.0145782
3954	0.0118134
3966	0.0134471
