Infrared Spectrum: Pyran, 4-chloro-3-propyltetrahydro-,
Formula: C 8 H 15 Cl O
CAS: 31563-52-7
Origin: Sadtler Research Labs Under US-EPA Contract
1/CM	ABSORBANCE
450	0.00620901
462	0.0040176
474	0.00967875
486	0.00648294
498	0.0140616
510	0.022462
522	0.0201793
534	0.0208185
546	0.0158878
558	0.00666556
570	0.0115049
582	0.0368888
594	0.0454719
606	0.0273014
618	0.00493069
630	0.00556985
642	0.00602639
654	0.00666556
666	0.0123267
678	0.00885697
690	0.00456545
702	0.0107745
714	0.0430065
726	0.0454719
738	0.0397194
750	0.0540549
762	0.0514983
774	0.0276666
786	0.013605
798	0.0168009
810	0.0312277
822	0.0343322
834	0.0199054
846	0.020088
858	0.0275753
870	0.0328712
882	0.036341
894	0.0329625
906	0.0215489
918	0.0306798
930	0.030132
942	0.0205445
954	0.0396281
966	0.0573421
978	0.0756952
990	0.0882958
1002	0.109206
1014	0.0851913
1026	0.0793475
1038	0.0691209
1050	0.0718602
1062	0.0930439
1074	0.12345
1086	0.199967
1098	0.27904
1110	0.19394
1122	0.126646
1134	0.109662
1146	0.136142
1158	0.194488
1170	0.0743255
1182	0.033693
1194	0.0370715
1206	0.0609944
1218	0.0948701
1230	0.127833
1242	0.109936
1254	0.0860131
1266	0.053781
1278	0.0473894
1290	0.0609031
1302	0.0728646
1314	0.0485764
1326	0.0409064
1338	0.0530505
1350	0.0526853
1362	0.0490329
1374	0.0546028
1386	0.0697601
1398	0.0355192
1410	0.0159791
1422	0.0264796
1434	0.0520461
1446	0.0677513
1458	0.0932265
1470	0.117332
1482	0.0575247
1494	0.0164356
1506	0.0040176
1518	0.0091309
1530	0.00967875
1542	0.00885697
1554	0.00721341
1566	0.00721341
1578	0.00794388
1590	0.00876566
1602	0.00867435
1614	0.00785257
1626	0.00721341
1638	0.00648294
1650	0.00566116
1662	0.00483938
1674	0.00356105
1686	0.00146094
1698	0.00155225
1710	0.00173487
1722	0.00219142
1734	0.00328712
1746	0.00730472
1758	0.00840043
1770	0.00575247
1782	0.00228273
1794	0.00127833
1806	0.00155225
1818	0.00219142
1830	0.000821781
1842	9.1309e-05
1854	0.000182618
1866	0.000547854
1878	0.000821781
1890	0.00109571
1902	0.00155225
1914	0.00182618
1926	0.00228273
1938	0.00283058
1950	0.00374367
1962	0.00493069
1974	0.00538723
1986	0.00483938
1998	0.00447414
2010	0.00456545
2022	0.00547854
2034	0.00520461
2046	0.00493069
2058	0.00483938
2070	0.00420021
2082	0.00383498
2094	0.00374367
2106	0.00383498
2118	0.00356105
2130	0.00337843
2142	0.00356105
2154	0.00346974
2166	0.00337843
2178	0.00383498
2190	0.00374367
2202	0.00383498
2214	0.00374367
2226	0.00374367
2238	0.00374367
2250	0.00383498
2262	0.00383498
2274	0.00374367
2286	0.00410891
2298	0.00447414
2310	0.00520461
2322	0.00584378
2334	0.00630032
2346	0.00657425
2358	0.00721341
2370	0.00693948
2382	0.00739603
2394	0.00675687
2406	0.00703079
2418	0.00693948
2430	0.00693948
2442	0.00675687
2454	0.00693948
2466	0.00703079
2478	0.0071221
2490	0.00730472
2502	0.00785257
2514	0.00858305
2526	0.00894828
2538	0.00967875
2550	0.0101353
2562	0.0105918
2574	0.0114136
2586	0.0117789
2598	0.0125093
2610	0.0127833
2622	0.0133311
2634	0.0146094
2646	0.0161617
2658	0.0185357
2670	0.022462
2682	0.0258404
2694	0.0279406
2706	0.0323234
2718	0.0324147
2730	0.0330539
2742	0.037528
2754	0.0419108
2766	0.0380759
2778	0.0318668
2790	0.0324147
2802	0.0388976
2814	0.0514983
2826	0.10391
2838	0.218959
2850	0.335835
2862	0.278858
2874	0.362223
2886	0.308624
2898	0.212293
2910	0.253017
2922	0.357657
2934	0.464032
2946	0.504117
2958	0.573877
2970	0.91099
2982	0.565203
2994	0.127376
3006	0.0671121
3018	0.0514983
3030	0.0442849
3042	0.0383498
3054	0.0323234
3066	0.0279406
3078	0.0255665
3090	0.0238316
3102	0.0220055
3114	0.0210924
3126	0.0204532
3138	0.0190836
3150	0.0180792
3162	0.0178053
3174	0.01744
3186	0.0168009
3198	0.0159791
3210	0.0147007
3222	0.0130572
3234	0.0120528
3246	0.0113223
3258	0.0107745
3270	0.00967875
3282	0.00995268
3294	0.00903959
3306	0.00849174
3318	0.00757865
3330	0.00721341
3342	0.00693948
3354	0.00693948
3366	0.00538723
3378	0.00566116
3390	0.00538723
3402	0.005022
3414	0.005022
3426	0.005022
3438	0.00529592
3450	0.0051133
3462	0.00410891
3474	0.0040176
3486	0.0040176
3498	0.00410891
3510	0.00383498
3522	0.00420021
3534	0.00337843
3546	0.00383498
3558	0.00392629
3570	0.00392629
3582	0.00356105
3594	0.0040176
3606	0.00392629
3618	0.005022
3630	0.00721341
3642	0.00602639
3654	0.00684818
3666	0.0110484
3678	0.0101353
3690	0.00657425
3702	0.00483938
3714	0.00465676
3726	0.00447414
3738	0.0040176
3750	0.00346974
3762	0.00438283
3774	0.00410891
3786	0.00584378
3798	0.00438283
3810	0.00438283
3822	0.00356105
3834	0.0051133
3846	0.00538723
3858	0.00483938
3870	0.00483938
3882	0.00410891
3894	0.0051133
3906	0.00575247
3918	0.00520461
3930	0.00438283
3942	0.00620901
3954	0.00520461
3966	0.00593509
