Infrared Spectrum: Pyran, 4-chloro-3-heptyltetrahydro-,
Formula: C 12 H 23 Cl O
CAS: 31563-51-6
Origin: Sadtler Research Labs Under US-EPA Contract
1/CM	ABSORBANCE
450	0
462	0.014562
474	0.0229834
486	0.0159656
498	0.0214044
510	0.0277205
522	0.0282468
534	0.0296504
546	0.0279836
558	0.021229
570	0.0203517
582	0.038949
594	0.0420193
606	0.0385104
618	0.0203517
630	0.0189482
642	0.018685
654	0.0181587
666	0.0209658
678	0.0200008
690	0.0195622
702	0.0258783
714	0.0553532
726	0.0534233
738	0.0433352
750	0.0566691
762	0.0532479
774	0.034212
786	0.0278959
798	0.0273696
810	0.0338611
822	0.0350892
834	0.0292118
846	0.0264046
858	0.0287731
870	0.034212
882	0.0384227
894	0.0418439
906	0.0378963
918	0.0420193
930	0.042107
942	0.0427211
954	0.051932
966	0.0631606
978	0.0720206
990	0.07474
1002	0.0790384
1014	0.053511
1026	0.0512302
1038	0.0595639
1050	0.0620202
1062	0.0673713
1074	0.086144
1086	0.136585
1098	0.237203
1110	0.167375
1122	0.0930741
1134	0.0897406
1146	0.121847
1158	0.16913
1170	0.0632483
1182	0.0419316
1194	0.0443878
1206	0.0541251
1218	0.0781612
1230	0.107285
1242	0.0874598
1254	0.064915
1266	0.048774
1278	0.0494758
1290	0.061757
1302	0.0637746
1314	0.0497389
1326	0.0447387
1338	0.056055
1350	0.0599148
1362	0.0585112
1374	0.0595639
1386	0.0704416
1398	0.0367559
1410	0.0264923
1422	0.0328961
1434	0.0510548
1446	0.07474
1458	0.110706
1470	0.12869
1482	0.0546514
1494	0.0312294
1506	0.0226325
1518	0.0242993
1530	0.022808
1542	0.0215799
1554	0.0204395
1566	0.0203517
1578	0.0209658
1590	0.0219307
1602	0.0214921
1614	0.0206149
1626	0.0197377
1638	0.0187727
1650	0.01772
1662	0.0171937
1674	0.0156147
1686	0.0140357
1698	0.0138602
1710	0.0134216
1722	0.0130707
1734	0.0135093
1746	0.0149129
1758	0.0158779
1770	0.0149129
1782	0.0127198
1794	0.0120181
1806	0.0120181
1818	0.0117549
1830	0.0114917
1842	0.0113163
1854	0.0114917
1866	0.0113163
1878	0.0114917
1890	0.0116672
1902	0.0120181
1914	0.0121935
1926	0.0123689
1938	0.0124567
1950	0.0127198
1962	0.0136848
1974	0.0140357
1986	0.0135971
1998	0.0135093
2010	0.013948
2022	0.014562
2034	0.0148252
2046	0.0143866
2058	0.0142111
2070	0.0137725
2082	0.0135093
2094	0.0135093
2106	0.0134216
2118	0.0132462
2130	0.0128953
2142	0.0132462
2154	0.0130707
2166	0.0128953
2178	0.0132462
2190	0.0131585
2202	0.0134216
2214	0.0134216
2226	0.0131585
2238	0.0136848
2250	0.0138602
2262	0.0138602
2274	0.0137725
2286	0.0142988
2298	0.0150884
2310	0.0153515
2322	0.0160533
2334	0.0156147
2346	0.0164919
2358	0.0163165
2370	0.0159656
2382	0.0168428
2394	0.0166674
2406	0.0169305
2418	0.0170183
2430	0.0171937
2442	0.0172814
2454	0.0173692
2466	0.0176323
2478	0.01772
2490	0.0179832
2502	0.0185096
2514	0.01965
2526	0.020264
2538	0.0208781
2550	0.0213167
2562	0.021843
2574	0.0223694
2586	0.022808
2598	0.0236852
2610	0.0244747
2622	0.0253519
2634	0.0263169
2646	0.0279836
2658	0.0302644
2670	0.0335102
2682	0.0363173
2694	0.0376332
2706	0.0403526
2718	0.0403526
2730	0.0416684
2742	0.0449142
2754	0.0478968
2766	0.0452651
2778	0.0418439
2790	0.0445633
2802	0.0517566
2814	0.0650905
2826	0.113864
2838	0.198868
2850	0.304662
2862	0.395631
2874	0.424755
2886	0.282644
2898	0.230887
2910	0.328874
2922	0.553006
2934	0.87723
2946	0.668186
2958	0.533093
2970	0.703714
2982	0.346944
2994	0.12176
3006	0.0765822
3018	0.0589499
3030	0.0497389
3042	0.0448265
3054	0.0403526
3066	0.0376332
3078	0.0354401
3090	0.0336856
3102	0.0321943
3114	0.0304399
3126	0.0297381
3138	0.0286854
3150	0.0280714
3162	0.0272819
3174	0.0266678
3186	0.0261415
3198	0.0252642
3210	0.0238607
3222	0.0226325
3234	0.0214921
3246	0.0206149
3258	0.020264
3270	0.0194745
3282	0.0192991
3294	0.0184218
3306	0.01772
3318	0.0172814
3330	0.0169305
3342	0.0169305
3354	0.0165796
3366	0.016141
3378	0.0156147
3390	0.0159656
3402	0.0157024
3414	0.0150006
3426	0.0149129
3438	0.0154392
3450	0.0143866
3462	0.0141234
3474	0.0138602
3486	0.0140357
3498	0.0138602
3510	0.0138602
3522	0.0135093
3534	0.012983
3546	0.0135971
3558	0.0135093
3570	0.0137725
3582	0.0132462
3594	0.0150006
3606	0.013948
3618	0.0143866
3630	0.0153515
3642	0.0147375
3654	0.0143866
3666	0.0150006
3678	0.016141
3690	0.0142988
3702	0.0143866
3714	0.0143866
3726	0.0140357
3738	0.0142111
3750	0.0146497
3762	0.0142988
3774	0.0146497
3786	0.0146497
3798	0.014562
3810	0.0148252
3822	0.0146497
3834	0.0149129
3846	0.0147375
3858	0.0143866
3870	0.0146497
3882	0.0147375
3894	0.0151761
3906	0.016141
3918	0.0154392
3930	0.015527
3942	0.0148252
3954	0.0149129
3966	0.016141
