Infrared Spectrum: 1-(Nitromethyl)-cyclohexanol
Formula: C 7 H 13 N O 3
CAS: 3164-73-6
Origin: Sadtler Research Labs Under US-EPA Contract
1/CM	ABSORBANCE
450	0.0354609
462	0.0226154
474	0.0166449
486	0.0421551
498	0.0533723
510	0.039984
522	0.004704
534	0.00524677
546	0.00651323
558	0.0367274
570	0.0441452
582	0.0231581
594	0.0202634
606	0.0242437
618	0.028224
630	0.0199015
642	0.0356418
654	0.118505
666	0.0966129
678	0.0289477
690	0.0103126
702	0.0182732
714	0.098784
726	0.100955
738	0.0419741
750	0.018816
762	0.0439643
774	0.0220726
786	0.0199015
798	0.00922707
810	0.00506584
822	0.00976984
834	0.0273194
846	0.0287668
858	0.0262338
870	0.0173686
882	0.0396221
894	0.0937181
906	0.11959
918	0.0814153
930	0.0604283
942	0.0412504
954	0.0644086
966	0.091728
978	0.0741784
990	0.0562671
1002	0.0906424
1014	0.0474018
1026	0.025872
1038	0.0588
1050	0.0830437
1062	0.0919089
1074	0.0758067
1086	0.0815963
1098	0.119409
1110	0.109097
1122	0.0738166
1134	0.0763495
1146	0.091728
1158	0.102764
1170	0.13135
1182	0.210594
1194	0.19413
1206	0.111268
1218	0.0908233
1230	0.0906424
1242	0.0843101
1254	0.109097
1266	0.175857
1278	0.204986
1290	0.212765
1302	0.217831
1314	0.140577
1326	0.145281
1338	0.203177
1350	0.297799
1362	0.420284
1374	0.622013
1386	0.464429
1398	0.204081
1410	0.13334
1422	0.206433
1434	0.231039
1446	0.225068
1458	0.254016
1470	0.146729
1482	0.065675
1494	0.0689317
1506	0.106202
1518	0.157584
1530	0.287668
1542	0.563575
1554	1.16677
1566	1.77431
1578	0.973185
1590	0.457554
1602	0.241713
1614	0.110906
1626	0.0569907
1638	0.0445071
1650	0.0486683
1662	0.0224345
1674	0.0260529
1686	0.0293095
1698	0.0452308
1710	0.0483064
1722	0.0835864
1734	0.115972
1746	0.0902806
1758	0.0370892
1770	0.0285858
1782	0.0180923
1794	0.0195397
1806	0.0110363
1818	0.004704
1830	0.00832246
1842	0.00777969
1854	0.00108554
1866	0.00452307
1878	0.00144738
1890	0.00398031
1902	0.00162831
1914	0.00343754
1926	0.00180923
1938	0.000904615
1950	0.000904615
1962	0.00217108
1974	0.00144738
1986	0.000904615
1998	0.00180923
2010	0.00162831
2022	0.00253292
2034	0.00126646
2046	0.00253292
2058	0.000904615
2070	0.00180923
2082	0.00217108
2094	0.00253292
2106	0.00180923
2118	0.00144738
2130	0.00199015
2142	0.00199015
2154	0.00199015
2166	0.00253292
2178	0.00289477
2190	0.00343754
2202	0.00416123
2214	0.004704
2226	0.00524677
2238	0.00578954
2250	0.0063323
2262	0.00832246
2274	0.0103126
2286	0.00904615
2298	0.00597046
2310	0.004704
2322	0.00488492
2334	0.00325661
2346	0.00325661
2358	0.00180923
2370	0.00253292
2382	0.00271384
2394	0.00162831
2406	0.00162831
2418	0.00180923
2430	0.00289477
2442	0.00307569
2454	0.004704
2466	0.00452307
2478	0.00452307
2490	0.00398031
2502	0.00325661
2514	0.00307569
2526	0.00253292
2538	0.00162831
2550	0.000361846
2562	0.000542769
2574	0.00162831
2586	0.00325661
2598	0.00416123
2610	0.00506584
2622	0.00578954
2634	0.00597046
2646	0.0086843
2658	0.0121218
2670	0.0166449
2682	0.0157403
2694	0.0132074
2706	0.0132074
2718	0.0142929
2730	0.0166449
2742	0.0179114
2754	0.0155594
2766	0.0133883
2778	0.0150166
2790	0.0200825
2802	0.0247865
2814	0.0289477
2826	0.0372701
2838	0.0645895
2850	0.149261
2862	0.347915
2874	0.455745
2886	0.312273
2898	0.232305
2910	0.283325
2922	0.444528
2934	0.961425
2946	1.80923
2958	1.14018
2970	0.288934
2982	0.0922707
2994	0.0410695
3006	0.0298523
3018	0.0275003
3030	0.0256911
3042	0.0166449
3054	0.0104935
3066	0.00560861
3078	0.00361846
3090	0.00126646
3102	0.00307569
3114	0.00271384
3126	0.00162831
3138	0.00289477
3150	0.00325661
3162	0.00361846
3174	0.00253292
3186	0.00180923
3198	0.00253292
3210	0.000904615
3222	0.00271384
3234	0.00217108
3246	0.00343754
3258	0.00343754
3270	0.00524677
3282	0.00307569
3294	0.00180923
3306	0.00180923
3318	0.00217108
3330	0.00325661
3342	0.00398031
3354	0.004704
3366	0.00434215
3378	0.00434215
3390	0.00452307
3402	0.004704
3414	0.00615138
3426	0.00597046
3438	0.00886523
3450	0.00669415
3462	0.007056
3474	0.00759877
3486	0.0148357
3498	0.0173686
3510	0.0155594
3522	0.0128455
3534	0.0108554
3546	0.0159212
3558	0.030576
3570	0.117057
3582	0.261615
3594	0.21566
3606	0.118505
3618	0.068027
3630	0.0416123
3642	0.0278621
3654	0.0186351
3666	0.00904615
3678	0.00832246
3690	0.00560861
3702	0.00578954
3714	0.00651323
3726	0.00506584
3738	0.00832246
3750	0.00506584
3762	0.00307569
3774	0.004704
3786	0.00361846
3798	0.00560861
3810	0.00271384
3822	0.00597046
3834	0.000904615
3846	0.00615138
3858	0.00398031
3870	0.00832246
3882	0.00524677
3894	0.00615138
3906	0.00361846
3918	0.00398031
3930	0.00759877
3942	0.00416123
3954	0.00578954
3966	0.00144738
