Infrared Spectrum: Decyl 4-nitrophenyl ether
Formula: C 16 H 25 N O 3
CAS: 31657-37-1
Origin: Sadtler Research Labs Under US-EPA Contract
1/CM	ABSORBANCE
450	0.00534429
462	0.00540868
474	0.00251117
486	0.0132641
498	0.0245966
510	0.0191879
522	0.0120407
534	0.00843496
546	0.00579501
558	0.00296189
570	0.00631012
582	0.00540868
594	0.00830618
606	0.0176426
618	0.0422392
630	0.0352208
642	0.0471971
654	0.102443
666	0.018544
678	0.0257556
690	0.0703772
702	0.0275585
714	0.0268502
726	0.0294258
738	0.0351564
750	0.148803
762	0.0291682
774	0.0213128
786	0.0175138
798	0.0219566
810	0.0247254
822	0.0352208
834	0.0940723
846	0.243262
858	0.190849
870	0.0617491
882	0.0321945
894	0.0267214
906	0.0258844
918	0.0261419
930	0.0325164
942	0.0469396
954	0.0471971
966	0.0497727
978	0.0685099
990	0.10328
1002	0.13013
1014	0.136633
1026	0.121953
1038	0.106371
1050	0.0916255
1062	0.0723732
1074	0.0609764
1086	0.0589159
1098	0.0992234
1110	0.272816
1122	0.0886637
1134	0.0357359
1146	0.0357359
1158	0.0725664
1170	0.260325
1182	0.0954245
1194	0.0714074
1206	0.0853798
1218	0.141527
1230	0.231092
1242	0.393739
1254	0.63333
1266	0.441258
1278	0.189948
1290	0.184024
1302	0.197095
1314	0.169601
1326	0.30617
1338	0.445958
1350	0.553295
1362	0.17913
1374	0.11017
1386	0.0908529
1398	0.0604613
1410	0.0422392
1422	0.0564048
1434	0.0788121
1446	0.113389
1458	0.167218
1470	0.217442
1482	0.173335
1494	0.387107
1506	0.326259
1518	0.354011
1530	0.294515
1542	0.23399
1554	0.114033
1566	0.0976781
1578	0.174108
1590	0.434819
1602	0.369207
1614	0.160972
1626	0.043205
1638	0.0194455
1650	0.0155177
1662	0.00515112
1674	0.00418528
1686	0.00450723
1698	0.0052799
1710	0.002318
1722	0.00379895
1734	0.00785546
1746	0.00772668
1758	0.00978713
1770	0.00785546
1782	0.00334823
1794	0.00444284
1806	0.00218923
1818	0.00064389
1830	0.00109461
1842	0.000257556
1854	0.000450723
1866	0.00283312
1878	0.0041209
1890	0.00862813
1902	0.0110105
1914	0.00804863
1926	0.00418528
1938	0.00225362
1950	0.00257556
1962	0.00405651
1974	0.00424967
1986	0.00328384
1998	0.00399212
2010	0.00515112
2022	0.00515112
2034	0.00547307
2046	0.00502234
2058	0.00495795
2070	0.00367017
2082	0.00244678
2094	0.00251117
2106	0.00321945
2118	0.00392773
2130	0.00251117
2142	0.00135217
2154	0.00122339
2166	0.000837057
2178	0.000901446
2190	0.00141656
2202	0.00186728
2214	0.0028975
2226	0.00321945
2238	0.002318
2250	0.00206045
2262	0.0028975
2274	0.00347701
2286	0.00579501
2298	0.00721157
2310	0.00888568
2322	0.00669646
2334	0.00341262
2346	0.00824179
2358	0.00547307
2370	0.00695401
2382	0.00843496
2394	0.00676084
2406	0.00714718
2418	0.00785546
2430	0.00972274
2442	0.0130066
2454	0.0148739
2466	0.0108174
2478	0.00882129
2490	0.00946518
2502	0.0115256
2514	0.0108817
2526	0.0099803
2538	0.0108174
2550	0.0126846
2562	0.0131997
2574	0.0145519
2586	0.0160329
2598	0.0155177
2610	0.0157109
2622	0.0157753
2634	0.0160329
2646	0.0175138
2658	0.0171275
2670	0.0172563
2682	0.0175782
2694	0.0182221
2706	0.0184153
2718	0.0182221
2730	0.0198962
2742	0.0224074
2754	0.0247254
2766	0.0262707
2778	0.0280092
2790	0.0334823
2802	0.0402431
2814	0.0533785
2826	0.0758502
2838	0.12279
2850	0.233217
2862	0.313703
2874	0.267343
2886	0.231285
2898	0.256139
2910	0.336819
2922	0.483626
2934	0.615881
2946	0.484141
2958	0.343129
2970	0.253693
2982	0.122275
2994	0.0634876
3006	0.0403719
3018	0.0296833
3030	0.023502
3042	0.0198962
3054	0.0194455
3066	0.0214415
3078	0.0284599
3090	0.0339974
3102	0.018866
3114	0.0159685
3126	0.0113325
3138	0.00907885
3150	0.00811301
3162	0.00708279
3174	0.00734035
3186	0.00772668
3198	0.00849935
3210	0.00734035
3222	0.00515112
3234	0.00392773
3246	0.00341262
3258	0.00315506
3270	0.00315506
3282	0.00251117
3294	0.00257556
3306	0.00225362
3318	0.00276873
3330	0.00263995
3342	0.00225362
3354	0.00206045
3366	0.002318
3378	0.0028975
3390	0.00283312
3402	0.00251117
3414	0.00244678
3426	0.00212484
3438	0.00225362
3450	0.00238239
3462	0.00276873
3474	0.00180289
3486	0.00238239
3498	0.00238239
3510	0.00283312
3522	0.00270434
3534	0.00270434
3546	0.00315506
3558	0.00244678
3570	0.00315506
3582	0.00283312
3594	0.00367017
3606	0.00302628
3618	0.00431406
3630	0.00444284
3642	0.00424967
3654	0.00463601
3666	0.00347701
3678	0.00553745
3690	0.0047004
3702	0.00379895
3714	0.0047004
3726	0.00418528
3738	0.00521551
3750	0.00360578
3762	0.00450723
3774	0.00386334
3786	0.00431406
3798	0.00399212
3810	0.00302628
3822	0.00444284
3834	0.00495795
3846	0.00360578
3858	0.00489356
3870	0.00579501
3882	0.00611695
3894	0.00540868
3906	0.00573062
3918	0.0041209
3930	0.00502234
3942	0.00450723
3954	0.00418528
3966	0.0052799
