Infrared Spectrum: Cyclohexane, (1,1-dimethylethyl)-
Formula: C 10 H 20
CAS: 3178-22-1
Origin: Sadtler Research Labs Under US-EPA Contract
1/CM	ABSORBANCE
450	0.0221394
462	0.00573252
474	0.0106743
486	0.00395346
498	0.0110038
510	0.00856583
522	0.00500772
534	0.00942241
546	0.00942241
558	0.00579841
570	0.00836816
582	0.00922474
594	0.00454648
606	0.00757746
618	0.00863172
630	0.00599608
642	0.0065891
654	0.00797281
666	0.00639143
678	0.00639143
690	0.00698445
702	0.00612786
714	0.00665499
726	0.00573252
738	0.00685266
750	0.00632554
762	0.00645732
774	0.00672088
786	0.00520539
798	0.00698445
810	0.00882939
822	0.00625964
834	0.00962009
846	0.0179224
858	0.00797281
870	0.00698445
882	0.0109379
894	0.0145619
906	0.0110038
918	0.00942241
930	0.00935652
942	0.00737979
954	0.00705034
966	0.0065891
978	0.00922474
990	0.00830227
1002	0.00942241
1014	0.0109379
1026	0.0104767
1038	0.0140348
1050	0.00942241
1062	0.00639143
1074	0.00546895
1086	0.00606197
1098	0.00546895
1110	0.00718212
1122	0.0073139
1134	0.00625964
1146	0.00856583
1158	0.0094883
1170	0.00915885
1182	0.0113333
1194	0.0143642
1206	0.0110697
1218	0.0173952
1230	0.0315618
1242	0.0295192
1254	0.0193061
1266	0.0137053
1278	0.00929063
1290	0.00843405
1302	0.0100154
1314	0.0131782
1326	0.00915885
1338	0.00817048
1350	0.0149573
1362	0.0482322
1374	0.0724801
1386	0.0274765
1398	0.0353176
1410	0.0160774
1422	0.00843405
1434	0.0128487
1446	0.040523
1458	0.0612127
1470	0.0446741
1482	0.0475733
1494	0.0242479
1506	0.00764336
1518	0.00599608
1530	0.00487593
1542	0.00401935
1554	0.00382168
1566	0.00408524
1578	0.00434881
1590	0.00388757
1602	0.00408524
1614	0.00355811
1626	0.00408524
1638	0.00375579
1650	0.00316277
1662	0.003624
1674	0.00322866
1686	0.00375579
1698	0.00329455
1710	0.00375579
1722	0.00355811
1734	0.00375579
1746	0.00546895
1758	0.00388757
1770	0.00342633
1782	0.00336044
1794	0.0029651
1806	0.00329455
1818	0.00303099
1830	0.00283331
1842	0.00256975
1854	0.00256975
1866	0.00224029
1878	0.00263564
1890	0.00270153
1902	0.00256975
1914	0.00276742
1926	0.00283331
1938	0.00243797
1950	0.00283331
1962	0.00250386
1974	0.00276742
1986	0.00243797
1998	0.0021744
2010	0.0021744
2022	0.00204262
2034	0.00230618
2046	0.00243797
2058	0.00210851
2070	0.00191084
2082	0.00224029
2094	0.00204262
2106	0.00191084
2118	0.00184495
2130	0.00210851
2142	0.00204262
2154	0.00224029
2166	0.00237208
2178	0.00230618
2190	0.00237208
2202	0.00237208
2214	0.00191084
2226	0.0021744
2238	0.00191084
2250	0.00171317
2262	0.00171317
2274	0.0014496
2286	0.00125193
2298	0.00151549
2310	0.000790692
2322	0.000922474
2334	0.00065891
2346	0.000856583
2358	0.000527128
2370	0.000724801
2382	0.00112015
2394	0.00250386
2406	0.00270153
2418	0.00184495
2430	0.00151549
2442	0.00184495
2454	0.00125193
2466	0.00158138
2478	0.00151549
2490	0.00171317
2502	0.00151549
2514	0.00138371
2526	0.00151549
2538	0.00138371
2550	0.000790692
2562	0.00138371
2574	0.00250386
2586	0.00303099
2598	0.00401935
2610	0.00428291
2622	0.00448059
2634	0.00481004
2646	0.00494182
2658	0.00724801
2670	0.0109379
2682	0.00856583
2694	0.00632554
2706	0.00665499
2718	0.00711623
2730	0.00619375
2742	0.00533717
2754	0.00625964
2766	0.00573252
2778	0.00652321
2790	0.00836816
2802	0.0111356
2814	0.0133759
2826	0.0170658
2838	0.032616
2850	0.104701
2862	0.266529
2874	0.212301
2886	0.120119
2898	0.11353
2910	0.183177
2922	0.357986
2934	0.646127
2946	0.605736
2958	0.438966
2970	0.376501
2982	0.188185
2994	0.0430927
3006	0.0142325
3018	0.010279
3030	0.00856583
3042	0.00790692
3054	0.00481004
3066	0.00494182
3078	0.00461237
3090	0.00428291
3102	0.00395346
3114	0.00382168
3126	0.00388757
3138	0.00481004
3150	0.00500772
3162	0.00494182
3174	0.00599608
3186	0.00553484
3198	0.00474415
3210	0.00474415
3222	0.00454648
3234	0.00415113
3246	0.00454648
3258	0.00401935
3270	0.00230618
3282	0.00355811
3294	0.00401935
3306	0.0036899
3318	0.00428291
3330	0.003624
3342	0.00210851
3354	0.00342633
3366	0.00415113
3378	0.00243797
3390	0.0021744
3402	0.00243797
3414	0.00316277
3426	0.00375579
3438	0.00256975
3450	0.00210851
3462	0.00309688
3474	0.00303099
3486	0.000988365
3498	0.0021744
3510	0.00382168
3522	0.00204262
3534	0.0021744
3546	0.00204262
3558	0.00270153
3570	0.00184495
3582	0.00191084
3594	0.00197673
3606	0.00125193
3618	0.00118604
3630	0.0021744
3642	0.00256975
3654	0.00184495
3666	0.00151549
3678	0.00118604
3690	0.000988365
3702	0.00250386
3714	0.00184495
3726	0.000856583
3738	0.000724801
3750	0.00270153
3762	0.000131782
3774	0.00283331
3786	0.000856583
3798	0.00256975
3810	0.000856583
3822	0.00105426
3834	0.00322866
3846	0.000395346
3858	0.0021744
3870	0.00131782
3882	0.000790692
3894	0.00131782
3906	0.000790692
3918	0.000131782
3930	0.00204262
3942	0.00164727
3954	0
3966	0.00388757
