Infrared Spectrum: 1,1-Cyclohexanediethanol
Formula: C 10 H 20 O 2
CAS: 3187-27-7
Origin: Sadtler Research Labs Under US-EPA Contract
1/CM	ABSORBANCE
450	0.0318418
462	0.00882241
474	0.025656
486	0.00963366
498	0.0112562
510	0.0121688
522	0.0133857
534	0.00496894
546	0.00841678
558	0.0203828
570	0.00740271
582	0.0150082
594	0.0180504
606	0.0111548
618	0.0139942
630	0.0133857
642	0.0121688
654	0.0138928
666	0.0113576
678	0.00476613
690	0.0112562
702	0.00628723
714	0.0135885
726	0.0150082
738	0.0166307
750	0.0129801
762	0.0160223
774	0.0158195
786	0.0210927
798	0.0160223
810	0.019673
822	0.0215997
834	0.0212955
846	0.0225124
858	0.0215997
870	0.0180504
882	0.0172392
894	0.0251489
906	0.029408
918	0.0302193
930	0.038129
942	0.0462416
954	0.0527316
966	0.055064
978	0.0800101
990	0.109215
1002	0.165395
1014	0.210825
1026	0.231918
1038	0.225022
1050	0.203118
1062	0.17006
1074	0.124224
1086	0.0923818
1098	0.0790975
1110	0.069768
1122	0.0540499
1134	0.052326
1146	0.0512105
1158	0.0438078
1170	0.0476613
1182	0.0497908
1194	0.052326
1206	0.0514133
1218	0.0534415
1230	0.0538471
1242	0.0568893
1254	0.0586132
1266	0.0556724
1278	0.0477627
1290	0.0440106
1302	0.0425909
1314	0.0402586
1326	0.0390417
1338	0.0373178
1350	0.0427938
1362	0.0422867
1374	0.0420839
1386	0.0532387
1398	0.0582076
1410	0.0428952
1422	0.0340728
1434	0.0412726
1446	0.0677399
1458	0.109418
1470	0.081734
1482	0.0437064
1494	0.0198758
1506	0.0118646
1518	0.00760553
1530	0.00598301
1542	0.00801115
1554	0.00476613
1566	0.00608442
1578	0.0073013
1590	0.00395487
1602	0.00395487
1614	0.00740271
1626	0.00466472
1638	0.00699708
1650	0.00446191
1662	0.00365065
1674	0.00354924
1686	0.00628723
1698	0.00699708
1710	0.00314362
1722	0.00385347
1734	0.00537457
1746	0.00385347
1758	0.0057802
1770	0.0125745
1782	0.0139942
1794	0.00892382
1806	0.00273799
1818	0.00111548
1830	0.00131829
1842	0.00273799
1854	0.000912663
1866	0.00111548
1878	0.00131829
1890	0.00111548
1902	0.00162251
1914	0.00162251
1926	0.0014197
1938	0.00162251
1950	0.0014197
1962	0.00121688
1974	0.00162251
1986	0.00152111
1998	0.00192673
2010	0.0028394
2022	0.00273799
2034	0.00425909
2046	0.00405628
2058	0.00304221
2070	0.00253518
2082	0.00162251
2094	0.00131829
2106	0.000912663
2118	0.00111548
2130	0.000811256
2142	0.000507035
2154	0.00101407
2166	0.00111548
2178	0.00131829
2190	0.000912663
2202	0.00101407
2214	0.000608442
2226	0.000811256
2238	0.000811256
2250	0.000507035
2262	0.000912663
2274	0.0014197
2286	0.00182533
2298	0.00202814
2310	0.00223095
2322	0.00162251
2334	0.0014197
2346	0.00172392
2358	0.00223095
2370	0.00223095
2382	0.00273799
2394	0.00182533
2406	0.00182533
2418	0.00172392
2430	0.00212955
2442	0.00192673
2454	0.00192673
2466	0.00192673
2478	0.00202814
2490	0.00162251
2502	0.00243377
2514	0.00212955
2526	0.00172392
2538	0.00263658
2550	0.00243377
2562	0.00243377
2574	0.00202814
2586	0.00314362
2598	0.00405628
2610	0.00547598
2622	0.00618583
2634	0.00740271
2646	0.00912663
2658	0.0106477
2670	0.0125745
2682	0.0117632
2694	0.00983648
2706	0.0100393
2718	0.0111548
2730	0.0121688
2742	0.0128787
2754	0.0145012
2766	0.0173406
2778	0.02018
2790	0.023425
2802	0.0268729
2814	0.0306249
2826	0.0384333
2838	0.0603372
2850	0.139942
2862	0.275016
2874	0.28688
2886	0.246926
2898	0.265179
2910	0.355026
2922	0.564431
2934	0.984358
2946	0.754062
2958	0.339713
2970	0.161339
2982	0.0791989
2994	0.0388389
3006	0.0228166
3018	0.0165293
3030	0.0123717
3042	0.00953226
3054	0.008721
3066	0.00790975
3078	0.00598301
3090	0.00405628
3102	0.00365065
3114	0.00324502
3126	0.00334643
3138	0.00273799
3150	0.00212955
3162	0.00354924
3174	0.00233236
3186	0.0028394
3198	0.0029408
3210	0.00233236
3222	0.00253518
3234	0.00243377
3246	0.00223095
3258	0.0014197
3270	0.00223095
3282	0.00162251
3294	0.00223095
3306	0.00182533
3318	0.00202814
3330	0.00131829
3342	0.000709849
3354	0.00233236
3366	0.00223095
3378	0.00253518
3390	0.00121688
3402	0.00111548
3414	0.00253518
3426	0.00324502
3438	0.00314362
3450	0.0029408
3462	0.00446191
3474	0.00324502
3486	0.0029408
3498	0.00334643
3510	0.0014197
3522	0.00243377
3534	0.00354924
3546	0.00547598
3558	0.0100393
3570	0.0151096
3582	0.0112562
3594	0.0103435
3606	0.00638864
3618	0.00790975
3630	0.0129801
3642	0.0154139
3654	0.0506021
3666	0.0897452
3678	0.0521232
3690	0.0138928
3702	0.0073013
3714	0.00841678
3726	0.00385347
3738	0.00182533
3750	0.0105463
3762	0.000811256
3774	0.00375206
3786	0.00466472
3798	0.00537457
3810	0.0028394
3822	0.00770693
3834	0.00486754
3846	0.00679427
3858	0.00912663
3870	0.00811256
3882	0.00507035
3894	0.0073013
3906	0.00517176
3918	0.0103435
3930	0.00212955
3942	0.00354924
3954	0.0057802
3966	0.00618583
