Infrared Spectrum: 2,5-Dichlorobenzotrifluoride
Formula: C 7 H 3 Cl 2 F 3
CAS: 320-50-3
Origin: Sadtler Research Labs Under US-EPA Contract
1/CM	ABSORBANCE
450	0.0178382
462	0.0115146
474	0.00509663
486	0.00547416
498	0.00953258
510	0.0144404
522	0.034827
534	0.0453977
546	0.0450202
558	0.00660674
570	0.00849438
582	0.00972135
594	0.00339775
606	0.030391
618	0.0612539
630	0.00292584
642	0.00509663
654	0.0259551
666	0.0683326
678	0.00453034
690	0.00405843
702	0.0084
714	0.00915505
726	0.0476629
738	0.0392629
750	0.00707865
762	0.00622921
774	0.00528539
786	0.00802247
798	0.0112315
810	0.027182
822	0.139402
834	0.0816404
846	0.0110427
858	0.00887191
870	0.00481348
882	0.0198202
894	0.076355
906	0.0173663
918	0.00405843
930	0.00434157
942	0.00481348
954	0.00698427
966	0.00500225
978	0.00537977
990	0.0047191
1002	0.0047191
1014	0.00792809
1026	0.0481348
1038	0.202449
1050	0.0811685
1062	0.0222742
1074	0.0282202
1086	0.0288809
1098	0.0686157
1110	0.273047
1122	0.134872
1134	0.123452
1146	0.156297
1158	0.384795
1170	0.87058
1182	0.678229
1194	0.270216
1206	0.0860764
1218	0.0392629
1230	0.0433213
1242	0.112031
1254	0.130436
1266	0.0965528
1278	0.0946651
1290	0.126283
1302	0.622921
1314	0.727496
1326	0.062009
1338	0.0170831
1350	0.0201977
1362	0.0153843
1374	0.0184045
1386	0.0591775
1398	0.236427
1410	0.136288
1422	0.0386022
1434	0.018782
1446	0.0256719
1458	0.0616314
1470	0.178382
1482	0.134306
1494	0.0146292
1506	0.0104764
1518	0.00953258
1530	0.00462472
1542	0.00462472
1554	0.0073618
1566	0.0150067
1578	0.0143461
1590	0.013591
1602	0.013591
1614	0.00651236
1626	0.00528539
1638	0.00783371
1650	0.0112315
1662	0.00773932
1674	0.00453034
1686	0.00396404
1698	0.00434157
1710	0.00311461
1722	0.00537977
1734	0.0047191
1746	0.00396404
1758	0.0047191
1770	0.00802247
1782	0.0108539
1794	0.00811685
1806	0.00377528
1818	0.00254831
1830	0.00302022
1842	0.00500225
1854	0.00396404
1866	0.00330337
1878	0.00198202
1890	0.00481348
1902	0.00887191
1914	0.00556854
1926	0.0026427
1938	0.00302022
1950	0.00226517
1962	0.00226517
1974	0.00217079
1986	0.00245393
1998	0.00330337
2010	0.00320899
2022	0.00320899
2034	0.00254831
2046	0.00217079
2058	0.00245393
2070	0.000377528
2082	0.00160449
2094	0.00151011
2106	0.00179326
2118	0.00141573
2130	0.00198202
2142	0.00302022
2154	0.00188764
2166	0.00160449
2178	0.00188764
2190	0.00198202
2202	0.00226517
2214	0.0026427
2226	0.00226517
2238	0.00198202
2250	0.00179326
2262	0.00302022
2274	0.00330337
2286	0.00377528
2298	0.00377528
2310	0.00349213
2322	0.00198202
2334	0.00254831
2346	0.00292584
2358	0.00188764
2370	0.00132135
2382	0.0036809
2394	0.00179326
2406	0.00160449
2418	0.00245393
2430	0.00245393
2442	0.00151011
2454	0.0020764
2466	0.00151011
2478	0.00273708
2490	0.00179326
2502	0.00141573
2514	0.00198202
2526	0.00151011
2538	0.00302022
2550	0.00217079
2562	0.00188764
2574	0.00339775
2586	0.00188764
2598	0.00122697
2610	0.00226517
2622	0.00273708
2634	0.00122697
2646	0.00302022
2658	0.00188764
2670	0.00113258
2682	9.4382e-05
2694	0.00179326
2706	0.00160449
2718	0.00141573
2730	0.00122697
2742	0.00198202
2754	0.00122697
2766	0.00198202
2778	0.00235955
2790	0.00245393
2802	0.00330337
2814	0.00443595
2826	0.00292584
2838	0.00311461
2850	0.00217079
2862	0.00311461
2874	0.00226517
2886	0.00311461
2898	0.00358652
2910	0.00217079
2922	0.00349213
2934	0.00179326
2946	0.00226517
2958	0.00235955
2970	0.00302022
2982	0.0026427
2994	0.00283146
3006	0.00235955
3018	0.00235955
3030	0.0036809
3042	0.00302022
3054	0.00302022
3066	0.000188764
3078	0.00500225
3090	0.010382
3102	0.00726741
3114	0.0036809
3126	0.00273708
3138	0.00377528
3150	0.00226517
3162	0.00226517
3174	0.00179326
3186	0.00283146
3198	0.00226517
3210	0.00235955
3222	0.00349213
3234	0.00283146
3246	0.0026427
3258	0.00226517
3270	0.00254831
3282	0.00245393
3294	0.00273708
3306	0.00302022
3318	0.00396404
3330	0.00122697
3342	0.00160449
3354	0.00198202
3366	0.00434157
3378	0.00302022
3390	0.00217079
3402	0.00160449
3414	0.00311461
3426	0.00330337
3438	0.0020764
3450	0.00254831
3462	0.00292584
3474	0.00273708
3486	0.00311461
3498	0.00386966
3510	0.00160449
3522	0.00235955
3534	0.0020764
3546	0.00358652
3558	0.00330337
3570	0.00273708
3582	0.00217079
3594	0.00283146
3606	0.00349213
3618	0.00320899
3630	0.00226517
3642	0.00292584
3654	0.00386966
3666	0.00283146
3678	0.0026427
3690	0.00292584
3702	0.00547416
3714	0.00405843
3726	0.00462472
3738	0.00443595
3750	0.00386966
3762	0.00415281
3774	0.00604045
3786	0.00528539
3798	0.00500225
3810	0.00424719
3822	0.00386966
3834	0.0036809
3846	0.00556854
3858	0.00405843
3870	0.00349213
3882	0.00386966
3894	0.0026427
3906	0.00405843
3918	0.00349213
3930	0.00339775
3942	0.00330337
3954	0.00358652
3966	0.00396404
