Infrared Spectrum: Phthalic acid, 4-fluoro-, diethyl ester
Formula: C 12 H 13 F O 4
CAS: 320-96-7
Origin: Sadtler Research Labs Under US-EPA Contract
1/CM	ABSORBANCE
450	0.00648008
462	0.00299081
474	0.00531699
486	0.00398774
498	0.000498468
510	0.000498468
522	0.00465237
534	0.00697855
546	0.0114648
558	0.0147879
570	0.0235942
582	0.0294096
594	0.034062
606	0.0471883
618	0.073441
630	0.0375513
642	0.00747702
654	0.00481852
666	0.00797549
678	0.00847396
690	0.0112986
702	0.0174464
714	0.00897242
726	0.0101355
738	0.0132925
750	0.0305727
762	0.0887273
774	0.131429
786	0.107669
798	0.0621423
810	0.0638039
822	0.0747702
834	0.11714
846	0.0704501
858	0.0691209
870	0.0855703
882	0.086235
894	0.0672932
906	0.0222649
918	0.0199387
930	0.0568254
942	0.140568
954	0.0566592
966	0.0240926
978	0.0219326
990	0.0304065
1002	0.0639701
1014	0.168648
1026	0.19839
1038	0.107004
1050	0.158845
1062	0.501126
1074	0.320183
1086	0.172802
1098	0.330318
1110	1.00009
1122	0.779105
1134	0.395617
1146	0.14871
1158	0.114149
1170	0.129103
1182	0.165325
1194	0.376177
1206	0.73657
1218	0.373353
1230	0.310213
1242	0.583374
1254	0.797216
1266	1.08483
1278	1.57765
1290	1.52498
1302	0.948585
1314	0.388639
1326	0.164494
1338	0.0873981
1350	0.0661301
1362	0.122623
1374	0.218827
1386	0.100358
1398	0.110992
1410	0.160174
1422	0.18759
1434	0.0890596
1446	0.0845734
1458	0.098032
1470	0.14306
1482	0.129269
1494	0.133589
1506	0.0749364
1518	0.034062
1530	0.0292435
1542	0.0292435
1554	0.0370528
1566	0.0549976
1578	0.146383
1590	0.257043
1602	0.235942
1614	0.246409
1626	0.0760994
1638	0.0312373
1650	0.0260865
1662	0.028745
1674	0.0343943
1686	0.0432006
1698	0.0648008
1710	0.10634
1722	0.203541
1734	0.576561
1746	1.45669
1758	1.14764
1770	0.330318
1782	0.104014
1794	0.0611454
1806	0.0475206
1818	0.0325666
1830	0.0232618
1842	0.0172802
1854	0.0136248
1866	0.0121294
1878	0.0126279
1890	0.0129602
1902	0.014954
1914	0.0109663
1926	0.0083078
1938	0.00764318
1950	0.00664624
1962	0.0068124
1974	0.00731086
1986	0.00714471
1998	0.0056493
2010	0.00481852
2022	0.00365543
2034	0.00382159
2046	0.0041539
2058	0.0056493
2070	0.00714471
2082	0.0068124
2094	0.00598162
2106	0.00581546
2118	0.00598162
2130	0.00631393
2142	0.00697855
2154	0.00548315
2166	0.00348928
2178	0.00299081
2190	0.00232618
2202	0.00249234
2214	0.00282465
2226	0.00332312
2238	0.00315696
2250	0.00315696
2262	0.00348928
2274	0.00299081
2286	0.00182772
2298	0.00083078
2310	0.000166156
2322	0.00132925
2334	0.00249234
2346	0.00398774
2358	0.00083078
2370	0.00199387
2382	0.00382159
2394	0.00531699
2406	0.00515084
2418	0.00398774
2430	0.00365543
2442	0.00299081
2454	0.00282465
2466	0.00382159
2478	0.00448621
2490	0.00432006
2502	0.00315696
2514	0.00282465
2526	0.00282465
2538	0.00348928
2550	0.00382159
2562	0.0041539
2574	0.00465237
2586	0.00398774
2598	0.00299081
2610	0.00249234
2622	0.00182772
2634	0.00132925
2646	0.00132925
2658	0.00166156
2670	0.00182772
2682	0.00216003
2694	0.00249234
2706	0.00216003
2718	0.00216003
2730	0.00348928
2742	0.00348928
2754	0.00398774
2766	0.00598162
2778	0.0068124
2790	0.00581546
2802	0.00614777
2814	0.0083078
2826	0.0108001
2838	0.0114648
2850	0.0146217
2862	0.0199387
2874	0.0320681
2886	0.0568254
2898	0.056493
2910	0.074604
2922	0.075601
2934	0.0928812
2946	0.165159
2958	0.119632
2970	0.147713
2982	0.263025
2994	0.276484
3006	0.147713
3018	0.0760994
3030	0.0400436
3042	0.0242588
3054	0.0201049
3066	0.0182772
3078	0.023428
3090	0.0264188
3102	0.0124617
3114	0.00880627
3126	0.00731086
3138	0.00614777
3150	0.0056493
3162	0.0056493
3174	0.00548315
3186	0.00531699
3198	0.00432006
3210	0.00282465
3222	0.00216003
3234	0.00249234
3246	0.00216003
3258	0.00199387
3270	0.00199387
3282	0.00132925
3294	0.00166156
3306	0.00199387
3318	0.00249234
3330	0.00182772
3342	0.00249234
3354	0.00199387
3366	0.00216003
3378	0.00199387
3390	0.00249234
3402	0.0026585
3414	0.0014954
3426	0.00282465
3438	0.00299081
3450	0.00382159
3462	0.00714471
3474	0.0098032
3486	0.0098032
3498	0.00515084
3510	0.00166156
3522	0.00116309
3534	0.000664624
3546	0.00132925
3558	0.00116309
3570	0.00216003
3582	0.0014954
3594	0.00232618
3606	0.00083078
3618	0.00182772
3630	0.0026585
3642	0.00182772
3654	0.00232618
3666	0.000166156
3678	0.00282465
3690	0.00182772
3702	0.00249234
3714	0.0026585
3726	0.00249234
3738	0.00332312
3750	0.00199387
3762	0.00182772
3774	0.00166156
3786	0.00216003
3798	0.00199387
3810	0.000166156
3822	0.00199387
3834	0.00232618
3846	0.00083078
3858	0.00249234
3870	0.00199387
3882	0.000664624
3894	0.00166156
3906	0.00132925
3918	0.00182772
3930	0.00199387
3942	0.000166156
3954	0.00116309
3966	0.00199387
