Infrared Spectrum: Benzene, 1,2-dichloro-3-nitro-
Formula: C 6 H 3 Cl 2 N O 2
CAS: 3209-22-1
Origin: Sadtler Research Labs Under US-EPA Contract
1/CM	ABSORBANCE
450	0.0799423
462	0.0394777
474	0.0358888
486	0.0530257
498	0.059396
510	0.0374141
522	0.0226997
534	0.00197388
546	0.0217127
558	0.00430666
570	0.00789554
582	0.0148041
594	0.00619082
606	0.00475527
618	0.00870303
630	0.0143555
642	0.00888248
654	0.011933
666	0.0183033
678	0.0246736
690	0.0343635
702	0.0923239
714	0.187968
726	0.183212
738	0.144273
750	0.158898
762	0.296172
774	0.128213
786	0.139428
798	0.151182
810	0.0482704
822	0.0292494
834	0.0252119
846	0.0175855
858	0.0172266
870	0.0386702
882	0.0609212
894	0.0235969
906	0.0089722
918	0.00960025
930	0.0153425
942	0.0166883
954	0.0102283
966	0.0115741
978	0.0107666
990	0.0125611
1002	0.017765
1014	0.0201875
1026	0.021623
1038	0.0265577
1050	0.0851462
1062	0.102373
1074	0.0253016
1086	0.0250324
1098	0.0539229
1110	0.0480013
1122	0.0195594
1134	0.0184827
1146	0.0665737
1158	0.162845
1170	0.0965409
1182	0.024853
1194	0.0218922
1206	0.048719
1218	0.0383113
1230	0.0203669
1242	0.0197388
1254	0.0397468
1266	0.0673812
1278	0.0331074
1290	0.0273652
1302	0.0320308
1314	0.0336458
1326	0.0611904
1338	0.189583
1350	0.421065
1362	0.465747
1374	0.158987
1386	0.0931314
1398	0.0645998
1410	0.0699832
1422	0.179982
1434	0.231124
1446	0.15818
1458	0.0562557
1470	0.0334663
1482	0.0414516
1494	0.0482704
1506	0.0731234
1518	0.147862
1530	0.25813
1542	0.443316
1554	0.808754
1566	0.765329
1578	0.382485
1590	0.254182
1602	0.14535
1614	0.0618185
1626	0.0488088
1638	0.0348121
1650	0.0236866
1662	0.0110358
1674	0.0101386
1686	0.0149836
1698	0.0142658
1710	0.00690859
1722	0.00601137
1734	0.00466554
1746	0.00502443
1758	0.00753665
1770	0.00708804
1782	0.00619082
1794	0.00825442
1806	0.0107666
1818	0.00744693
1830	0.00466554
1842	0.00278138
1854	0.00717776
1866	0.0148041
1878	0.00861331
1890	0.00493471
1902	0.00385805
1914	0.0061011
1926	0.01292
1938	0.0127405
1950	0.00574221
1962	0.00296083
1974	0.00331971
1986	0.00278138
1998	0.00251222
2010	0.00206361
2022	0.00197388
2034	0.00215333
2046	0.00197388
2058	0.00188416
2070	0.00179444
2082	0.00170472
2094	0.00125611
2106	0.00134583
2118	0.00170472
2130	0.001615
2142	0.001615
2154	0.00206361
2166	0.00197388
2178	0.00179444
2190	0.00107666
2202	0.00089722
2214	0.000986942
2226	0.000807498
2238	0.000358888
2250	0.00125611
2262	0.00197388
2274	0.00305055
2286	0.00349916
2298	0.00511415
2310	0.00645998
2322	0.00493471
2334	0.00152527
2346	0.00654971
2358	0.000538332
2370	0.00403749
2382	0.00511415
2394	0.001615
2406	0.00179444
2418	0.00322999
2430	0.00376832
2442	0.00340944
2454	0.00233277
2466	0.00179444
2478	0.00170472
2490	0.00188416
2502	0.00224305
2514	0.00296083
2526	0.00430666
2538	0.00430666
2550	0.00260194
2562	0.00233277
2574	0.00179444
2586	0.00215333
2598	0.00206361
2610	0.00152527
2622	0.00170472
2634	0.00224305
2646	0.00260194
2658	0.0028711
2670	0.00466554
2682	0.00511415
2694	0.00645998
2706	0.00672915
2718	0.00556276
2730	0.00493471
2742	0.00457582
2754	0.00439638
2766	0.00340944
2778	0.00305055
2790	0.00269166
2802	0.00224305
2814	0.00206361
2826	0.00296083
2838	0.00340944
2850	0.00502443
2862	0.00672915
2874	0.00852359
2886	0.0115741
2898	0.0148041
2910	0.0154322
2922	0.0104078
2934	0.00780581
2946	0.0052936
2958	0.0028711
2970	0.00331971
2982	0.00358888
2994	0.00322999
3006	0.00322999
3018	0.00251222
3030	0.00251222
3042	0.00269166
3054	0.00349916
3066	0.0073572
3078	0.0174958
3090	0.0165986
3102	0.00672915
3114	0.00314027
3126	0.00296083
3138	0.00322999
3150	0.0036786
3162	0.00233277
3174	0.00224305
3186	0.00260194
3198	0.00233277
3210	0.00224305
3222	0.00340944
3234	0.00314027
3246	0.00305055
3258	0.00305055
3270	0.00314027
3282	0.00296083
3294	0.00206361
3306	0.00179444
3318	0.00242249
3330	0.00224305
3342	0.00242249
3354	0.00233277
3366	0.0028711
3378	0.00296083
3390	0.0028711
3402	0.00403749
3414	0.00538332
3426	0.00547304
3438	0.00475527
3450	0.0036786
3462	0.00322999
3474	0.00412721
3486	0.00421693
3498	0.00340944
3510	0.00394777
3522	0.00430666
3534	0.00349916
3546	0.0028711
3558	0.00385805
3570	0.00457582
3582	0.00269166
3594	0.00574221
3606	0.001615
3618	0.00376832
3630	0.00870303
3642	0.00322999
3654	0.0108564
3666	0.00170472
3678	0.00789554
3690	0.00654971
3702	0.00331971
3714	0.00726748
3726	0.00412721
3738	0.00538332
3750	0.0110358
3762	0.00197388
3774	0.00466554
3786	0.00619082
3798	0.00690859
3810	0.00269166
3822	0.0104975
3834	0.00744693
3846	0.00565249
3858	0.00942081
3870	0.00762637
3882	0.00358888
3894	0.00412721
3906	0.00654971
3918	0.00305055
3930	0.00511415
3942	0.00502443
3954	0.00394777
3966	0.00924137
