Infrared Spectrum: Benzoic acid, 5-chloro-2-hydroxy-
Formula: C 7 H 5 Cl O 3
CAS: 321-14-2
Origin: Sadtler Research Labs Under US-EPA Contract
1/CM	ABSORBANCE
450	0.00842095
462	0.0317668
474	0.0288229
486	0.0241674
498	0.0412147
510	0.0356008
522	0.0413517
534	0.0584674
546	0.105296
558	0.0718861
570	0.143841
582	0.124671
594	0.0486772
606	0.025879
618	0.0243044
630	0.0282068
642	0.0803756
654	0.0801017
666	0.0718177
678	0.206895
690	0.109609
702	0.080444
714	0.043474
726	0.0204704
738	0.0193066
750	0.0445694
762	0.076747
774	0.0590151
786	0.0351215
798	0.038887
810	0.0225928
822	0.0616852
834	0.105091
846	0.0404616
858	0.020402
870	0.0179373
882	0.0229351
894	0.0180058
906	0.011981
918	0.022182
930	0.0182796
942	0.0134872
954	0.0200597
966	0.00958482
978	0.00636706
990	0.00650398
1002	0.00650398
1014	0.00376546
1026	0.00342315
1038	0.0092425
1050	0.0253313
1062	0.0840041
1074	0.110773
1086	0.0579882
1098	0.0970121
1110	0.121385
1122	0.131723
1134	0.177935
1146	0.199707
1158	0.305413
1170	0.573241
1182	0.233322
1194	0.0866742
1206	0.0922881
1218	0.116935
1230	0.103585
1242	0.0905081
1254	0.112211
1266	0.108719
1278	0.161778
1290	0.106939
1302	0.0798279
1314	0.0644237
1326	0.0592205
1338	0.0689422
1350	0.100093
1362	0.108993
1374	0.0922197
1386	0.0881803
1398	0.218808
1410	0.209497
1422	0.0741454
1434	0.074077
1446	0.0864688
1458	0.100298
1470	0.212988
1482	0.260707
1494	0.135009
1506	0.0381339
1518	0.024099
1530	0.0227982
1542	0.0231405
1554	0.0206758
1566	0.0298499
1578	0.0579197
1590	0.0580566
1602	0.0594259
1614	0.074077
1626	0.0386131
1638	0.0262213
1650	0.0263583
1662	0.0237567
1674	0.0309453
1686	0.0454594
1698	0.106665
1710	0.505668
1722	0.588303
1734	0.190464
1746	0.0616167
1758	0.0677099
1770	0.0793486
1782	0.0431317
1794	0.0256736
1806	0.0135557
1818	0.00787324
1830	0.00732554
1842	0.00451856
1854	0.00479241
1866	0.00321776
1878	0.00472395
1890	0.00705169
1902	0.00931097
1914	0.00650398
1926	0.00376546
1938	0.0044501
1950	0.00267006
1962	0.000821556
1974	0.0013008
1986	0.00068463
1998	0.000753093
2010	0.00219082
2022	0.00198543
2034	0.00157465
2046	0.00260159
2058	0.00219082
2070	0.000890019
2082	0.00102695
2094	0.00205389
2106	0.000410778
2118	6.8463e-05
2130	0.0018485
2142	0.00150619
2154	0.00178004
2166	0.00260159
2178	0.00178004
2190	0.00178004
2202	0.00116387
2214	0.000342315
2226	0.000821556
2238	0.000616167
2250	0.00136926
2262	0.00150619
2274	0.00164311
2286	0.00191696
2298	0.00376546
2310	0.00534011
2322	0.00424471
2334	0.0049978
2346	0.00883173
2358	0.00308084
2370	0.00534011
2382	0.00492934
2394	0.00164311
2406	0.00136926
2418	0.00164311
2430	0.00212235
2442	0.00232774
2454	0.00294391
2466	0.00356008
2478	0.00308084
2490	0.00273852
2502	0.00171157
2514	0.00178004
2526	0.00253313
2538	0.00246467
2550	0.00273852
2562	0.00465548
2574	0.00513472
2586	0.00410778
2598	0.00479241
2610	0.00479241
2622	0.0044501
2634	0.00390239
2646	0.00465548
2658	0.003697
2670	0.00424471
2682	0.00424471
2694	0.00424471
2706	0.00506626
2718	0.00403932
2730	0.00492934
2742	0.00670937
2754	0.00561397
2766	0.00595628
2778	0.00568243
2790	0.00643552
2802	0.00650398
2814	0.00636706
2826	0.00664091
2838	0.00623013
2850	0.00602474
2862	0.00527165
2874	0.0062986
2886	0.00677784
2898	0.00677784
2910	0.00602474
2922	0.00390239
2934	0.00561397
2946	0.007394
2958	0.00801017
2970	0.0086948
2982	0.0107487
2994	0.00937943
3006	0.00972175
3018	0.00931097
3030	0.00944789
3042	0.0108856
3054	0.0104064
3066	0.0115702
3078	0.0156096
3090	0.0178004
3102	0.012871
3114	0.011981
3126	0.0114333
3138	0.0108172
3150	0.0109541
3162	0.0123233
3174	0.0141718
3186	0.0162942
3198	0.0197858
3210	0.0253313
3222	0.0327938
3234	0.0457333
3246	0.0649029
3258	0.086948
3270	0.0977652
3282	0.0921512
3294	0.0790063
3306	0.0653822
3318	0.0555235
3330	0.0473764
3342	0.0421047
3354	0.0383393
3366	0.0340261
3378	0.0301237
3390	0.0283437
3402	0.0229351
3414	0.0204704
3426	0.022182
3438	0.0205389
3450	0.0162942
3462	0.0143772
3474	0.0125972
3486	0.0107487
3498	0.00985867
3510	0.010201
3522	0.0139665
3534	0.0201281
3546	0.0149249
3558	0.0125287
3570	0.0672307
3582	0.268923
3594	0.0764732
3606	0.00417624
3618	0.00198543
3630	0.00520319
3642	0.00335469
3654	0.00417624
3666	0.00342315
3678	6.8463e-05
3690	0.00335469
3702	0.00410778
3714	0.00520319
3726	0.00376546
3738	0.00260159
3750	0.0136241
3762	0.00883173
3774	0.00349161
3786	0.00383393
3798	0.00486087
3810	0.00506626
3822	0.00527165
3834	0.00575089
3846	0.00698323
3858	0.00212235
3870	0.00376546
3882	0.00581936
3894	0.00287545
3906	0.00479241
3918	0.0044501
3930	0.00417624
3942	0.00232774
3954	0.0062986
3966	0.00479241
