Infrared Spectrum: 3,4-Dichlorophenylacetonitrile
Formula: C 8 H 5 Cl 2 N
CAS: 3218-49-3
Origin: Sadtler Research Labs Under US-EPA Contract
1/CM	ABSORBANCE
450	0.0594023
462	0.0468242
474	0.00634188
486	0.00930142
498	0.0167003
510	0.0281157
522	0.0251561
534	0.0208225
546	0.0288556
558	0.0385798
570	0.0400595
582	0.0294897
594	0.0175459
606	0.0052849
618	0.00232536
630	0.00190256
642	0.00158547
654	0.0183915
666	0.107072
678	0.128952
690	0.0971365
702	0.0837128
714	0.0633131
726	0.0446046
738	0.0288556
750	0.0162775
762	0.0106755
774	0.0143749
786	0.0364658
798	0.178947
810	0.435053
822	0.199029
834	0.062996
846	0.085404
858	0.165946
870	0.168588
882	0.103373
894	0.0683866
906	0.0439704
918	0.0497838
930	0.0726145
942	0.0572883
954	0.0305467
966	0.0133179
978	0.00708177
990	0.00560199
1002	0.0115211
1014	0.0406937
1026	0.152522
1038	0.477755
1050	0.167637
1062	0.020294
1074	0.00909003
1086	0.00951282
1098	0.0158547
1110	0.0371
1122	0.151782
1134	0.613471
1146	0.270904
1158	0.157173
1170	0.0486211
1182	0.0579225
1194	0.105381
1206	0.0862496
1218	0.0417507
1230	0.0372057
1242	0.0399538
1254	0.0788507
1266	0.0784279
1278	0.0457672
1290	0.029067
1302	0.0621504
1314	0.0536946
1326	0.0134236
1338	0.00961852
1350	0.0147977
1362	0.0281157
1374	0.0650043
1386	0.163515
1398	0.321745
1410	0.229153
1422	0.191419
1434	0.218689
1446	0.103901
1458	0.208436
1470	1.00529
1482	0.562102
1494	0.114048
1506	0.0490439
1518	0.0209282
1530	0.0164889
1542	0.0247333
1554	0.0657442
1566	0.101681
1578	0.066484
1590	0.079802
1602	0.0765254
1614	0.0297011
1626	0.0140578
1638	0.00708177
1650	0.00348803
1662	0.00496781
1674	0.00496781
1686	0.00369943
1698	0.00443932
1710	0.0120496
1722	0.022408
1734	0.0272701
1746	0.0263188
1758	0.0252618
1770	0.0164889
1782	0.0134236
1794	0.0150091
1806	0.0143749
1818	0.00887863
1830	0.00412222
1842	0.00243105
1854	0.00306524
1866	0.00465071
1878	0.0123667
1890	0.0209282
1902	0.0194484
1914	0.00951282
1926	0.00317094
1938	0.00137407
1950	0.000317094
1962	0.000105698
1974	0.000211396
1986	0.000317094
1998	0.000211396
2010	0.00052849
2022	0.00052849
2034	0.000634188
2046	0.00052849
2058	0.000422792
2070	0.000634188
2082	0.00116268
2094	0.00126838
2106	0.00211396
2118	0.00253675
2130	0.00306524
2142	0.00391083
2154	0.00274815
2166	0.00147977
2178	0.00126838
2190	0.000739886
2202	0.000739886
2214	0.000634188
2226	0.00116268
2238	0.00369943
2250	0.00930142
2262	0.014692
2274	0.00887863
2286	0.00676467
2298	0.00856154
2310	0.00856154
2322	0.00845584
2334	0.00919573
2346	0.0120496
2358	0.010147
2370	0.00930142
2382	0.00909003
2394	0.00613048
2406	0.00391083
2418	0.00232536
2430	0.00253675
2442	0.00253675
2454	0.00243105
2466	0.00274815
2478	0.00253675
2490	0.00232536
2502	0.00264245
2514	0.00253675
2526	0.00412222
2538	0.0052849
2550	0.00634188
2562	0.00634188
2574	0.0053906
2586	0.00496781
2598	0.0053906
2610	0.0050735
2622	0.00454501
2634	0.00348803
2646	0.00221966
2658	0.00126838
2670	0.00147977
2682	0.00147977
2694	0.00221966
2706	0.00264245
2718	0.00401652
2730	0.00644758
2742	0.00560199
2754	0.00232536
2766	0.00169117
2778	0.00264245
2790	0.00285385
2802	0.00317094
2814	0.0050735
2826	0.00803305
2838	0.0103584
2850	0.00750456
2862	0.00475641
2874	0.00348803
2886	0.00253675
2898	0.00338234
2910	0.00750456
2922	0.0208225
2934	0.0404823
2946	0.0287499
2958	0.0155376
2970	0.013635
2982	0.0100413
2994	0.0054963
3006	0.0050735
3018	0.00708177
3030	0.015749
3042	0.0266359
3054	0.0303353
3066	0.0460843
3078	0.0270587
3090	0.0159604
3102	0.0106755
3114	0.00327664
3126	0.00232536
3138	0.00232536
3150	0.00243105
3162	0.00327664
3174	0.00391083
3186	0.00496781
3198	0.00602479
3210	0.00591909
3222	0.00401652
3234	0.00221966
3246	0.00126838
3258	0.00137407
3270	0.00137407
3282	0.000951282
3294	0.00116268
3306	0.00116268
3318	0.00137407
3330	0.00105698
3342	0.00126838
3354	0.000317094
3366	0.000634188
3378	0.00116268
3390	0.000845584
3402	0.000951282
3414	0.00116268
3426	0.00179687
3438	0.00137407
3450	0.00137407
3462	0.000845584
3474	0.00116268
3486	0.00052849
3498	0.000739886
3510	0.00105698
3522	0.00137407
3534	0.00211396
3546	0.00211396
3558	0.00295954
3570	0.00327664
3582	0.00306524
3594	0.00126838
3606	0.00158547
3618	0.00147977
3630	0.00243105
3642	0.00147977
3654	0.00147977
3666	0.00221966
3678	0.00348803
3690	0.00190256
3702	0.00306524
3714	0.00274815
3726	0.00264245
3738	0.00306524
3750	0.00380513
3762	0.00454501
3774	0.00317094
3786	0.00211396
3798	0.00158547
3810	0.00243105
3822	0.00221966
3834	0.00158547
3846	0.00232536
3858	0.00179687
3870	0.00221966
3882	0.00169117
3894	0.00169117
3906	0.00190256
3918	0.00158547
3930	0.00264245
3942	0.000739886
3954	0.00169117
3966	0.00116268
