Infrared Spectrum: Benzophenone, 2,2'-dimethoxy-5,5'-dimethyl-,
Formula: C 17 H 18 O 3
CAS: 32229-36-0
Origin: Sadtler Research Labs Under US-EPA Contract
1/CM	ABSORBANCE
450	0.0019171
462	0.00357278
474	0.00110379
486	0.00578035
498	0.00307898
510	0.00386325
522	0.00322422
534	0.0127516
546	0.0101374
558	0.010515
570	0.0116478
582	0.00194615
594	0.0014814
606	0.00180091
618	0.00133616
630	0.000493799
642	0.0188225
654	0.028408
666	0.00278851
678	0.000493799
690	0.00453133
702	0.00400849
714	0.0134197
726	0.0262294
738	0.00935313
750	0.00668081
762	0.00639034
774	0.00578035
786	0.0103407
798	0.0278561
810	0.0681443
822	0.0824935
834	0.0188805
846	0.00534465
858	0.00177187
870	0.00264328
882	0.00656462
894	0.00900457
906	0.0038923
918	0.00209138
930	0.00293375
942	0.0058094
954	0.00862696
966	0.0286113
978	0.0318936
990	0.0204491
1002	0.0273913
1014	0.0504256
1026	0.0833939
1038	0.0818835
1050	0.0372092
1062	0.0167892
1074	0.0121707
1086	0.0143783
1098	0.027217
1110	0.02347
1122	0.0186482
1134	0.0384001
1146	0.0566417
1158	0.0382259
1170	0.0725013
1182	0.106951
1194	0.0375868
1206	0.0266361
1218	0.0400849
1230	0.0978303
1242	0.150696
1254	0.217969
1266	0.163622
1278	0.131147
1290	0.143521
1302	0.14997
1314	0.0430186
1326	0.0176315
1338	0.0135649
1350	0.011125
1362	0.0122578
1374	0.0147849
1386	0.0231505
1398	0.0453133
1410	0.0680281
1422	0.0621025
1434	0.0467947
1446	0.0434543
1458	0.0495542
1470	0.0683185
1482	0.0898424
1494	0.267988
1506	0.170884
1518	0.0433962
1530	0.0187934
1542	0.0138554
1554	0.0138554
1566	0.019781
1578	0.0435995
1590	0.0408982
1602	0.0437448
1614	0.0521394
1626	0.0246028
1638	0.0202458
1650	0.0300346
1662	0.0564383
1674	0.121039
1686	0.107735
1698	0.063642
1710	0.0282337
1722	0.0124321
1734	0.0110379
1746	0.00804602
1758	0.00368897
1770	0.00505418
1782	0.00429896
1794	0.00371802
1806	0.00235281
1818	0.00278851
1830	0.00418277
1842	0.00296279
1854	0.00206234
1866	0.0033985
1878	0.00293375
1890	0.00232376
1902	0.00130711
1914	0.00121997
1926	0.000929504
1938	0.00124902
1950	0.00133616
1962	0.00182996
1974	0.00275947
1986	0.00307898
1998	0.00313708
2010	0.00313708
2022	0.00316612
2034	0.00336945
2046	0.00328231
2058	0.00322422
2070	0.00334041
2082	0.00243995
2094	0.00121997
2106	0.00104569
2118	0.000668081
2130	0.000639034
2142	0.000639034
2154	0.000668081
2166	0.000261423
2178	0.000435705
2190	0.00029047
2202	0.000319517
2214	0.000609987
2226	0.000435705
2238	0.000609987
2250	0.000464752
2262	0.00029047
2274	0.00113283
2286	0.00124902
2298	0.00156854
2310	0.00165568
2322	0.00127807
2334	0.000116188
2346	0.00165568
2358	0.000609987
2370	0.00107474
2382	0.00243995
2394	0.00107474
2406	0.000900457
2418	0.000522846
2430	0.000551893
2442	0.000406658
2454	0.000697128
2466	0.00101665
2478	0.00133616
2490	0.00162663
2502	0.00185901
2514	0.00182996
2526	0.00209138
2538	0.00200424
2550	0.0014233
2562	0.00116188
2574	0.000784269
2586	0.00127807
2598	0.00110379
2610	0.00124902
2622	0.00110379
2634	0.00153949
2646	0.00113283
2658	0.00121997
2670	0.00107474
2682	0.0014233
2694	0.00113283
2706	0.00174282
2718	0.00194615
2730	0.00261423
2742	0.00426991
2754	0.0038923
2766	0.00307898
2778	0.00313708
2790	0.00397944
2802	0.00554798
2814	0.00853982
2826	0.0158887
2838	0.0403172
2850	0.0399977
2862	0.0305284
2874	0.0386035
2886	0.038952
2898	0.0419439
2910	0.0529527
2922	0.0637291
2934	0.0950418
2946	0.0948094
2958	0.0649491
2970	0.0397653
2982	0.0328231
2994	0.0422634
3006	0.0573097
3018	0.0413339
3030	0.0494089
3042	0.0412758
3054	0.0226567
3066	0.0196358
3078	0.019142
3090	0.0118802
3102	0.0087141
3114	0.00720366
3126	0.004328
3138	0.00275947
3150	0.00223662
3162	0.00185901
3174	0.00188806
3186	0.00185901
3198	0.00116188
3210	0.00121997
3222	0.00104569
3234	0.000784269
3246	0.000784269
3258	0.000987598
3270	0.000813316
3282	0.00058094
3294	0.000522846
3306	0.000900457
3318	0.00124902
3330	0.00124902
3342	0.00153949
3354	0.000784269
3366	0.00168473
3378	0.00116188
3390	0.00151044
3402	0.000697128
3414	0.000493799
3426	0.00130711
3438	0.000900457
3450	0.00127807
3462	0.00139426
3474	0.00136521
3486	0.000377611
3498	0.00151044
3510	0.000958551
3522	0.000813316
3534	0.000813316
3546	0.00110379
3558	0.000639034
3570	0.00151044
3582	0.000842363
3594	0.0014233
3606	0.000784269
3618	0.00119093
3630	0.00235281
3642	0.00153949
3654	0.00110379
3666	0.00162663
3678	0.000813316
3690	0.000435705
3702	0.00168473
3714	0.000987598
3726	0.00261423
3738	0.00121997
3750	0.00217853
3762	0.00165568
3774	0.00121997
3786	0.00226567
3798	0.000522846
3810	0.0014233
3822	0.000929504
3834	0.00156854
3846	0.000987598
3858	0.00130711
3870	0.00217853
3882	0.00087141
3894	0.00243995
3906	0.00165568
3918	0.00331136
3930	0.00206234
3942	0.00101665
3954	0.00238185
3966	0.00267232
