Infrared Spectrum: Benzophenone, 5,5'-dimethyl-2-hydroxy-2'-methoxy-,
Formula: C 16 H 16 O 3
CAS: 32229-35-9
Origin: Sadtler Research Labs Under US-EPA Contract
1/CM	ABSORBANCE
450	0.00737389
462	0.0107203
474	0.00947648
486	0.00826231
498	0.00841038
510	0.0103353
522	0.0127932
534	0.0263268
546	0.022329
558	0.0167319
570	0.00956532
582	0.00769964
594	0.00971339
606	0.00746273
618	0.00503438
630	0.00322793
642	0.00624855
654	0.0279556
666	0.0796913
678	0.0134151
690	0.0229212
702	0.0171761
714	0.0201671
726	0.0389424
738	0.0455759
750	0.0386463
762	0.0272745
774	0.0217663
786	0.0430588
798	0.0373433
810	0.0588726
822	0.156421
834	0.0568293
846	0.0115198
858	0.00772925
870	0.00556743
882	0.0108387
894	0.00900266
906	0.0040275
918	0.00370175
930	0.00530091
942	0.00678161
954	0.0170873
966	0.0600276
978	0.043503
990	0.0221217
1002	0.0233062
1014	0.033375
1026	0.05677
1038	0.0574512
1050	0.0278668
1062	0.0166727
1074	0.0146885
1086	0.0180053
1098	0.0423184
1110	0.0359218
1122	0.0213517
1134	0.0466124
1146	0.0524168
1158	0.047412
1170	0.0779144
1182	0.206173
1194	0.140696
1206	0.135069
1218	0.0954163
1230	0.128258
1242	0.208956
1254	0.25702
1266	0.16187
1278	0.175818
1290	0.138919
1302	0.170873
1314	0.086621
1326	0.156569
1338	0.153637
1350	0.0807574
1362	0.0558224
1374	0.0459017
1386	0.0492481
1398	0.0711624
1410	0.0825638
1422	0.0637886
1434	0.0516764
1446	0.057925
1458	0.0674311
1470	0.112148
1482	0.263802
1494	0.286427
1506	0.168829
1518	0.0552597
1530	0.0343226
1542	0.0302359
1554	0.0297621
1566	0.0403343
1578	0.0758118
1590	0.137616
1602	0.101694
1614	0.11736
1626	0.137291
1638	0.256339
1650	0.2325
1662	0.0849033
1674	0.0375209
1686	0.0263268
1698	0.0180942
1710	0.0117864
1722	0.010898
1734	0.0116087
1746	0.00974301
1758	0.00932841
1770	0.0138297
1782	0.00986146
1794	0.00681122
1806	0.00358329
1818	0.00358329
1830	0.00515284
1842	0.00426442
1854	0.00195452
1866	0.00346484
1878	0.0025468
1890	0.00284294
1902	0.00396828
1914	0.00387943
1926	0.00198414
1938	0.00165838
1950	0.00133263
1962	0.00130302
1974	0.0018953
1986	0.00219144
1998	0.00272449
2010	0.00222105
2022	0.00272449
2034	0.00245796
2046	0.00248758
2058	0.00266526
2070	0.00290217
2082	0.00302063
2094	0.00159916
2106	0.000947648
2118	0.00074035
2130	0.000414596
2142	0.000266526
2154	8.8842e-05
2166	0.000236912
2178	8.8842e-05
2190	8.8842e-05
2202	0.000355368
2214	0.000533052
2226	0.00074035
2238	0.000918034
2250	0.000414596
2262	0.00109572
2274	0.00151031
2286	0.00151031
2298	0.00171761
2310	0.00162877
2322	0.00198414
2334	0.00151031
2346	0.0012734
2358	0.00180645
2370	0.000858806
2382	0.00228028
2394	0.00174723
2406	0.00165838
2418	0.00180645
2430	0.00192491
2442	0.00195452
2454	0.00162877
2466	0.00180645
2478	0.00210259
2490	0.00263565
2502	0.00325754
2514	0.00361291
2526	0.00343522
2538	0.0044421
2550	0.00438287
2562	0.00376098
2574	0.00405712
2586	0.00417557
2598	0.00429403
2610	0.00390905
2622	0.00399789
2634	0.00405712
2646	0.0042348
2658	0.0040275
2670	0.00500477
2682	0.00574512
2694	0.0055082
2706	0.00530091
2718	0.00610048
2730	0.00704813
2742	0.00894343
2754	0.00938764
2766	0.00769964
2778	0.00829192
2790	0.0088842
2802	0.00992069
2814	0.0119048
2826	0.0161989
2838	0.0300878
2850	0.0382613
2862	0.0343226
2874	0.0468197
2886	0.0467013
2898	0.0434437
2910	0.0523872
2922	0.0690302
2934	0.101309
2946	0.0869467
2958	0.0670757
2970	0.0477378
2982	0.0402454
2994	0.0418446
3006	0.0564739
3018	0.0598203
3030	0.0690895
3042	0.0623967
3054	0.0455759
3066	0.0448356
3078	0.0413708
3090	0.0289921
3102	0.0263268
3114	0.0267118
3126	0.0246685
3138	0.0233654
3150	0.0229212
3162	0.022477
3174	0.0227732
3186	0.0230397
3198	0.0229509
3210	0.0223882
3222	0.0219736
3234	0.0207002
3246	0.0204337
3258	0.0200783
3270	0.0194268
3282	0.0180053
3294	0.0173834
3306	0.0165838
3318	0.015192
3330	0.0139186
3342	0.0134744
3354	0.012349
3366	0.011431
3378	0.00980223
3390	0.0102761
3402	0.00838076
3414	0.00838076
3426	0.00704813
3438	0.00722582
3450	0.00654469
3462	0.00559705
3474	0.00441249
3486	0.00379059
3498	0.00379059
3510	0.00349445
3522	0.00305024
3534	0.00284294
3546	0.00334638
3558	0.00331677
3570	0.00236912
3582	0.00219144
3594	0.00133263
3606	0.00133263
3618	0.000829192
3630	0.000918034
3642	0.0012734
3654	0.00103649
3666	0.00029614
3678	0.000384982
3690	0.000621894
3702	0.00121417
3714	0.00213221
3726	0.00124379
3738	0.00130302
3750	0.00121417
3762	0.000918034
3774	0.000858806
3786	0.000533052
3798	0.00115495
3810	0.0012734
3822	0.00118456
3834	0.00136224
3846	0.000710736
3858	0.000829192
3870	0.00180645
3882	0.00121417
3894	0.00133263
3906	0.0014807
3918	0.000207298
3930	0.00133263
3942	0.00192491
3954	0.00103649
3966	0.000533052
