Infrared Spectrum: 2,4-Dimethoxy-3-hydroxybenzaldehyde
Formula: C 9 H 10 O 4
CAS: 32246-34-7
Origin: Sadtler Research Labs Under US-EPA Contract
1/CM	ABSORBANCE
450	0.0491432
462	0.0400726
474	0.0292623
486	0.0200673
498	0.0270257
510	0.0429926
522	0.0469688
534	0.0140409
546	0.0108103
558	0.0147865
570	0.00602642
582	0.00192597
594	0.0011183
606	0.0026715
618	0.00658557
630	0.00882218
642	0.00962984
654	0.0104996
666	0.012115
678	0.0137303
690	0.0249133
702	0.025721
714	0.0126741
726	0.00714472
738	0.00714472
750	0.0124256
762	0.031064
774	0.0919494
786	0.127797
798	0.0818226
810	0.0359721
822	0.0147243
834	0.00689621
846	0.00565365
858	0.00571578
870	0.00938133
882	0.0187627
894	0.0493296
906	0.0527467
918	0.0146622
930	0.00751749
942	0.00757962
954	0.00944346
966	0.0182656
978	0.0244784
990	0.0237329
1002	0.0366555
1014	0.0679059
1026	0.0687136
1038	0.0415015
1050	0.050013
1062	0.0967333
1074	0.171846
1086	0.317723
1098	0.414207
1110	0.252115
1122	0.0872277
1134	0.0393892
1146	0.0395134
1158	0.109159
1170	0.110091
1182	0.0866064
1194	0.122889
1206	0.144199
1218	0.232297
1230	0.345867
1242	0.369848
1254	0.311137
1266	0.300016
1278	0.465898
1290	0.606991
1302	0.256029
1314	0.106612
1326	0.128356
1338	0.225276
1350	0.15035
1362	0.0556046
1374	0.0353508
1386	0.0652965
1398	0.0801451
1410	0.0428683
1422	0.0480249
1434	0.087849
1446	0.108475
1458	0.130966
1470	0.185949
1482	0.212105
1494	0.22627
1506	0.119907
1518	0.0434896
1530	0.0227388
1542	0.0216827
1554	0.0295108
1566	0.050013
1578	0.089775
1590	0.139229
1602	0.269698
1614	0.313995
1626	0.140223
1638	0.0568471
1650	0.0350402
1662	0.0290759
1674	0.0321823
1686	0.0588352
1698	0.375812
1710	0.492302
1722	0.170044
1734	0.0415636
1746	0.0239193
1758	0.019881
1770	0.0137303
1782	0.0104996
1794	0.00702046
1806	0.00434896
1818	0.00192597
1830	0.00161533
1842	0.00173958
1854	0.00341704
1866	0.00478386
1878	0.0031064
1890	0.00260938
1902	0.00323066
1914	0.00410045
1926	0.00515662
1938	0.00410045
1950	0.00211235
1962	0.00130469
1974	0.00217448
1986	0.00347917
1998	0.00316853
2010	0.00236086
2022	0.00236086
2034	0.00316853
2046	0.00292002
2058	0.00236086
2070	0.00217448
2082	0.0019881
2094	0.00217448
2106	0.0031064
2118	0.00323066
2130	0.00378981
2142	0.00323066
2154	0.00242299
2166	0.00260938
2178	0.00292002
2190	0.00316853
2202	0.00205022
2214	0.0011183
2226	0.000497024
2238	0.000434896
2250	0.000559152
2262	0.0015532
2274	0.00130469
2286	0.00149107
2298	0.00260938
2310	0.00372768
2322	0.00292002
2334	0.00118043
2346	0.00329278
2358	0.00304427
2370	0.00149107
2382	0.0050945
2394	0.00273363
2406	0.00118043
2418	0.000745536
2430	0.00031064
2442	0.00105618
2454	0.00223661
2466	0.0026715
2478	0.00298214
2490	0.00335491
2502	0.00453534
2514	0.00503237
2526	0.00434896
2538	0.00273363
2550	0.00285789
2562	0.00323066
2574	0.0035413
2586	0.00335491
2598	0.00341704
2610	0.00335491
2622	0.00347917
2634	0.00366555
2646	0.00341704
2658	0.0042247
2670	0.00584003
2682	0.00720685
2694	0.00981622
2706	0.020378
2718	0.0331764
2730	0.0275227
2742	0.0186384
2754	0.0278955
2766	0.0248512
2778	0.0118664
2790	0.0104375
2802	0.0139167
2814	0.0224282
2826	0.0370904
2838	0.07766
2850	0.157867
2862	0.112265
2874	0.0469066
2886	0.0359721
2898	0.0377117
2910	0.0452292
2922	0.0532437
2934	0.0610718
2946	0.107544
2958	0.120466
2970	0.0811392
2982	0.0657314
2994	0.0534301
3006	0.0642404
3018	0.0718821
3030	0.0333627
3042	0.0221176
3054	0.0185763
3066	0.0172095
3078	0.0160912
3090	0.0178929
3102	0.0144758
3114	0.00751749
3126	0.00490811
3138	0.00335491
3150	0.00285789
3162	0.00223661
3174	0.00236086
3186	0.00186384
3198	0.00105618
3210	0.000434896
3222	0.00062128
3234	0.0011183
3246	0.00118043
3258	0.000745536
3270	0.00124256
3282	0.00124256
3294	0.00118043
3306	0.0015532
3318	0.00118043
3330	0.000807664
3342	0.0011183
3354	0.00136682
3366	0.00217448
3378	0.00366555
3390	0.00714472
3402	0.00316853
3414	0.00161533
3426	0.00173958
3438	0.00093192
3450	0.000434896
3462	0.00124256
3474	0.00173958
3486	0.00211235
3498	0.00279576
3510	0.00329278
3522	0.00907069
3534	0.0167124
3546	0.0259074
3558	0.0436139
3570	0.133637
3582	0.182905
3594	0.0661663
3606	0.0129226
3618	0.00534301
3630	0.00304427
3642	0.000807664
3654	0.00205022
3666	0.00136682
3678	0.000124256
3690	0.0015532
3702	0.000124256
3714	0.00031064
3726	0.000994048
3738	0.000497024
3750	0.000807664
3762	6.2128e-05
3774	0.000186384
3786	6.2128e-05
3798	0.000248512
3810	0.00031064
3822	6.2128e-05
3834	0.000994048
3846	0.00105618
3858	6.2128e-05
3870	0.00142894
3882	0.000745536
3894	0
3906	0.000497024
3918	6.2128e-05
3930	6.2128e-05
3942	0.00062128
3954	0.00062128
3966	0.000497024
