Infrared Spectrum: Pentaerythrityl tetrachloride
Formula: C 5 H 8 Cl 4
CAS: 3228-99-7
Origin: Sadtler Research Labs Under US-EPA Contract
1/CM	ABSORBANCE
450	0.00747642
462	0.00770027
474	0.00353675
486	0.00886426
498	0.00984918
510	0.0295475
522	0.0378298
534	0.0439184
546	0.00461121
558	0.00358152
570	0.00385013
582	0.00299952
594	0.0018803
606	0.00286522
618	0.000402921
630	0.000179076
642	0.00487982
654	0.00349198
666	0.00456644
678	0.00720781
690	0.0244886
702	0.147156
714	0.269241
726	0.082554
738	0.0745404
750	0.265391
762	0.27524
774	0.230695
786	0.0473656
798	0.0325918
810	0.0364867
822	0.0228322
834	0.0319203
846	0.150603
858	0.369658
870	0.29655
882	0.0767788
894	0.0220711
906	0.0167436
918	0.0146395
930	0.00962533
942	0.00568566
954	0.00273091
966	0.0038949
978	0.00452167
990	0.00465598
1002	0.00532751
1014	0.00608858
1026	0.00805842
1038	0.0122219
1050	0.0160721
1062	0.014147
1074	0.0096701
1086	0.00729735
1098	0.00492459
1110	0.00358152
1122	0.00250706
1134	0.00250706
1146	0.00277568
1158	0.00322337
1170	0.00452167
1182	0.00586474
1194	0.00662581
1206	0.00743165
1218	0.0120429
1230	0.0398892
1242	0.0577072
1254	0.0738688
1266	0.0586474
1278	0.0343826
1290	0.0458435
1302	0.163496
1314	0.256616
1326	0.0955818
1338	0.0202356
1350	0.00774504
1362	0.00693919
1374	0.00761073
1386	0.00783457
1398	0.00850611
1410	0.0108341
1422	0.0461121
1434	0.202401
1446	0.44769
1458	0.111251
1470	0.00993872
1482	0.00510367
1494	0.00671535
1506	0.00671535
1518	0.00711827
1530	0.00774504
1542	0.00756596
1554	0.00532751
1566	0.00331291
1578	0.00174599
1590	0.00152215
1602	0.00107446
1614	0.00205937
1626	0.00322337
1638	0.00219368
1650	0.00264137
1662	0.000179076
1674	0.00107446
1686	0.00241753
1698	0.00425305
1710	0.00246229
1722	0.00331291
1734	0.00496936
1746	0.00295475
1758	0.00268614
1770	0.00286522
1782	0.00250706
1794	0.00349198
1806	0.00196984
1818	0.00183553
1830	0.00228322
1842	0.00183553
1854	0.00192507
1866	0.00205937
1878	0.00143261
1890	0.0018803
1902	0.00147738
1914	0.00120876
1926	0.00125353
1938	0.000940149
1950	0.00138784
1962	0.00125353
1974	0.00125353
1986	0.00134307
1998	0.00165645
2010	0.00156691
2022	0.00174599
2034	0.00161168
2046	0.00232799
2058	0.00299952
2070	0.00313383
2082	0.00349198
2094	0.00246229
2106	0.00250706
2118	0.00295475
2130	0.00241753
2142	0.00192507
2154	0.00210414
2166	0.00205937
2178	0.0018803
2190	0.00196984
2202	0.00170122
2214	0.00138784
2226	0.00196984
2238	0.00161168
2250	0.00237276
2262	0.00228322
2274	0.00232799
2286	0.0025966
2298	0.00411875
2310	0.00313383
2322	0.00232799
2334	0.00183553
2346	0.00205937
2358	0.00367106
2370	0.00228322
2382	0.00219368
2394	0.00201461
2406	0.00143261
2418	0.00147738
2430	0.00147738
2442	0.00116399
2454	0.00102969
2466	0.000805842
2478	0.000850611
2490	0.00147738
2502	0.00147738
2514	0.00147738
2526	0.00138784
2538	0.0012983
2550	0.00089538
2562	0.000537228
2574	0.000268614
2586	0.000402921
2598	0.000313383
2610	8.9538e-05
2622	0.00044769
2634	0.00044769
2646	0.000805842
2658	0.00107446
2670	0.00156691
2682	0.00228322
2694	0.0012983
2706	0.00152215
2718	0.00174599
2730	0.00344721
2742	0.00514843
2754	0.00470075
2766	0.00295475
2778	0.00134307
2790	0.00116399
2802	0.00107446
2814	0.00125353
2826	0.00201461
2838	0.00295475
2850	0.00846134
2862	0.0197879
2874	0.0167436
2886	0.00850611
2898	0.00702873
2910	0.00658104
2922	0.00720781
2934	0.00676012
2946	0.011237
2958	0.0362181
2970	0.132606
2982	0.144559
2994	0.0140127
3006	0.0109684
3018	0.0229217
3030	0.00734212
3042	0.00353675
3054	0.00174599
3066	0.00214891
3078	0.00246229
3090	0.0018803
3102	0.00134307
3114	0.00107446
3126	0.000984918
3138	0.00179076
3150	0.000671535
3162	0.000626766
3174	0.000716304
3186	0.000626766
3198	0.000716304
3210	0.00120876
3222	0.000850611
3234	0.00107446
3246	0.00111922
3258	0.000805842
3270	0.00174599
3282	0.00111922
3294	0.000984918
3306	0.00102969
3318	0.000626766
3330	0.0012983
3342	0.00107446
3354	0.000223845
3366	0.000850611
3378	0.000940149
3390	0.000581997
3402	0.000850611
3414	0.000805842
3426	0.000805842
3438	0.00102969
3450	0.000984918
3462	0.000492459
3474	0.00111922
3486	0.000984918
3498	0.00111922
3510	0.00107446
3522	0.00107446
3534	0.00102969
3546	0.00089538
3558	0.00111922
3570	0.00161168
3582	0.00165645
3594	0.00183553
3606	0.00255183
3618	0.00250706
3630	0.00282045
3642	0.00264137
3654	0.00344721
3666	0.00398444
3678	0.00331291
3690	0.0031786
3702	0.00219368
3714	0.0018803
3726	0.00183553
3738	0.00179076
3750	0.00196984
3762	0.00143261
3774	0.00205937
3786	0.00210414
3798	0.00111922
3810	0.00147738
3822	0.00205937
3834	0.00143261
3846	0.0018803
3858	4.4769e-05
3870	0.00165645
3882	0.00134307
3894	0.000223845
3906	0.00161168
3918	0.00183553
3930	0.00174599
3942	0.00138784
3954	0.00237276
3966	0.00089538
