Infrared Spectrum: Naphthalene, 2-fluoro-
Formula: C 10 H 7 F
CAS: 323-09-1
Origin: Sadtler Research Labs Under US-EPA Contract
1/CM	ABSORBANCE
450	0.0974423
462	0.14403
474	0.14403
486	0.0429483
498	0.00992842
510	0.0110066
522	0.0118602
534	0.00332445
546	0.001797
558	0.00637935
570	0.0068286
582	0.00561562
594	0.00552578
606	0.0128036
618	0.0625356
630	0.0404774
642	0.0100183
654	0.00534608
666	0.00080865
678	0.00390847
690	0.0171164
702	0.0746204
714	0.0956453
726	0.0690497
738	0.168064
750	0.168514
762	0.0612777
774	0.0178352
786	0.0478901
798	0.138998
810	0.123723
822	0.0610082
834	0.103642
846	0.231274
858	0.192324
870	0.147219
882	0.0696787
894	0.112447
906	0.109662
918	0.0284375
930	0.0259217
942	0.025158
954	0.0648717
966	0.139402
978	0.0285723
990	0.0132079
1002	0.0110066
1014	0.0188685
1026	0.0142412
1038	0.005391
1050	0.00606487
1062	0.0055707
1074	0.00601995
1086	0.00584025
1098	0.0121297
1110	0.123858
1122	0.14048
1134	0.0368385
1146	0.0418701
1158	0.242865
1170	0.229746
1182	0.0156788
1194	0.0223277
1206	0.163302
1218	0.265731
1230	0.0620863
1242	0.341071
1254	0.447094
1266	0.12853
1278	0.0274043
1290	0.00422295
1302	0.0030549
1314	0.0127138
1326	0.0258319
1338	0.0366139
1350	0.0644674
1362	0.0864357
1374	0.0583127
1386	0.0390848
1398	0.019183
1410	0.01496
1422	0.0166223
1434	0.0180598
1446	0.031762
1458	0.103642
1470	0.222963
1482	0.0996437
1494	0.0831112
1506	0.212316
1518	0.287969
1530	0.0327952
1542	0.0121747
1554	0.0106922
1566	0.0257869
1578	0.0823026
1590	0.121522
1602	0.201354
1614	0.183698
1626	0.215415
1638	0.21537
1650	0.0628501
1662	0.0523376
1674	0.047935
1686	0.0270898
1698	0.0151847
1710	0.0128935
1722	0.0153194
1734	0.0178802
1746	0.0183743
1758	0.00929947
1770	0.0105124
1782	0.012579
1794	0.0109168
1806	0.010782
1818	0.0179251
1830	0.0140166
1842	0.00822128
1854	0.00669383
1866	0.00822128
1878	0.0151847
1890	0.0216089
1902	0.018554
1914	0.015589
1926	0.0147354
1938	0.0185091
1950	0.0146006
1962	0.00507653
1974	0.00247087
1986	0.00157237
1998	0.00112312
2010	0.0025158
2022	0.0026955
2034	0.00242595
2046	0.00292012
2058	0.00372878
2070	0.00399833
2082	0.00426787
2094	0.0021564
2106	0.0023361
2118	0.00300998
2130	0.00300998
2142	0.0032346
2154	0.00368385
2166	0.00345923
2178	0.00336937
2190	0.00220133
2202	0.00170715
2214	0.00274042
2226	0.00260565
2238	0.00202162
2250	0.0025158
2262	0.0032346
2274	0.0046722
2286	0.0043128
2298	0.00229117
2310	0.0014376
2322	0.00372878
2334	0.00296505
2346	0.00296505
2358	0.00256073
2370	0.0032346
2382	0.00462728
2394	0.00386355
2406	0.00480697
2418	0.00494175
2430	0.0041331
2442	0.00336937
2454	0.00404325
2466	0.0043128
2478	0.00318967
2490	0.00381862
2502	0.00422295
2514	0.00386355
2526	0.0030549
2538	0.00265058
2550	0.0028752
2562	0.00332445
2574	0.00399833
2586	0.00435772
2598	0.00525622
2610	0.00417803
2622	0.00390847
2634	0.0039534
2646	0.0026955
2658	0.0023361
2670	0.00206655
2682	0.00184193
2694	0.00224625
2706	0.00238103
2718	0.00309983
2730	0.00309983
2742	0.0032346
2754	0.00283028
2766	0.00242595
2778	0.00224625
2790	0.0021564
2802	0.00224625
2814	0.00247087
2826	0.00238103
2838	0.00188685
2850	0.00152745
2862	0.00103327
2874	8.985e-05
2886	0.000763725
2898	0.000673875
2910	0.0012579
2922	0.00130283
2934	0.00220133
2946	0.00498668
2958	0.00543593
2970	0.00965888
2982	0.0129384
2994	0.0142862
3006	0.0189583
3018	0.0313127
3030	0.0571895
3042	0.0783043
3054	0.130687
3066	0.256612
3078	0.215999
3090	0.0923209
3102	0.0465423
3114	0.0204409
3126	0.00561562
3138	0.00399833
3150	0.00372878
3162	0.00274042
3174	0.00336937
3186	0.00318967
3198	0.00256073
3210	0.00220133
3222	0.00256073
3234	0.0028752
3246	0.00242595
3258	0.00206655
3270	0.00229117
3282	0.00139268
3294	0.00175208
3306	0.00121298
3318	0.00103327
3330	0.0016173
3342	0.0019767
3354	0.00188685
3366	0.0021564
3378	0.00184193
3390	0.0026955
3402	0.00283028
3414	0.00188685
3426	0.00229117
3438	0.00220133
3450	0.0025158
3462	0.00206655
3474	0.0023361
3486	0.0023361
3498	0.00278535
3510	0.00247087
3522	0.0023361
3534	0.00247087
3546	0.00206655
3558	0.0026955
3570	0.0016173
3582	0.00274042
3594	0.00318967
3606	0.00260565
3618	0.00166223
3630	0.000673875
3642	0.00296505
3654	0.00354908
3666	0.0028752
3678	0.00242595
3690	0.00278535
3702	0.00220133
3714	0.0023361
3726	0.00188685
3738	0.00336937
3750	0.0021564
3762	0.00229117
3774	0.003594
3786	0.00381862
3798	0.00372878
3810	0.00296505
3822	0.00296505
3834	0.00296505
3846	0.00296505
3858	0.00242595
3870	0.00242595
3882	0.0028752
3894	0.00332445
3906	0.00390847
3918	0.00458235
3930	0.00588518
3942	0.00673875
3954	0.00741262
3966	0.0082662
