Infrared Spectrum: Oxirane, dodecyl-
Formula: C 14 H 28 O
CAS: 3234-28-4
Origin: Sadtler Research Labs Under US-EPA Contract
1/CM	ABSORBANCE
450	0
462	0.00863569
474	0.00652698
486	0.0080332
498	0.00722988
510	0.00893694
522	0.00883652
534	0.00451868
546	0.00512117
558	0.00542241
570	0.00321328
582	0.00712947
594	0.00512117
606	0.00582407
618	0.00522158
630	0.00522158
642	0.00361494
654	0.005322
666	0.00652698
678	0.00702905
690	0.00692864
702	0.0108448
714	0.0170706
726	0.0194805
738	0.0194805
750	0.0183759
762	0.0177735
774	0.0189784
786	0.0198822
798	0.0209867
810	0.0253046
822	0.0337394
834	0.0485004
846	0.0476971
858	0.0321328
870	0.0225934
882	0.0216896
894	0.0215892
906	0.0264091
918	0.0320324
930	0.0296224
942	0.0219909
954	0.018878
966	0.0158656
978	0.013556
990	0.0126523
1002	0.013054
1014	0.0116481
1026	0.0107444
1038	0.0102423
1050	0.0100415
1062	0.00933859
1074	0.0100415
1086	0.0103427
1098	0.00984067
1110	0.0100415
1122	0.011849
1134	0.0138573
1146	0.0110457
1158	0.00974026
1170	0.00933859
1182	0.00974026
1194	0.00994109
1206	0.00974026
1218	0.0104432
1230	0.0113469
1242	0.0134556
1254	0.0186772
1266	0.0199826
1278	0.0160664
1290	0.0160664
1302	0.0182755
1314	0.0190789
1326	0.0178739
1338	0.0199826
1350	0.0276141
1362	0.0280158
1374	0.0248025
1386	0.0247021
1398	0.0221917
1410	0.0354465
1422	0.0227942
1434	0.0257062
1446	0.0447851
1458	0.0729013
1470	0.0704913
1482	0.0353461
1494	0.0208863
1506	0.0121502
1518	0.00933859
1530	0.00722988
1542	0.00672781
1554	0.00592449
1566	0.00562324
1578	0.005322
1590	0.00542241
1602	0.00502075
1614	0.00481992
1626	0.00481992
1638	0.00512117
1650	0.00492034
1662	0.00461909
1674	0.00461909
1686	0.00471951
1698	0.00502075
1710	0.00502075
1722	0.005322
1734	0.00692864
1746	0.00743071
1758	0.00522158
1770	0.00421743
1782	0.00391618
1794	0.0033137
1806	0.00341411
1818	0.00301245
1830	0.00341411
1842	0.0033137
1854	0.00291204
1866	0.00311287
1878	0.00311287
1890	0.00291204
1902	0.00281162
1914	0.00321328
1926	0.00311287
1938	0.00341411
1950	0.00311287
1962	0.0033137
1974	0.00341411
1986	0.00321328
1998	0.00351453
2010	0.00361494
2022	0.0040166
2034	0.00411701
2046	0.0040166
2058	0.00391618
2070	0.00341411
2082	0.00341411
2094	0.00341411
2106	0.0033137
2118	0.00321328
2130	0.00341411
2142	0.00311287
2154	0.00381577
2166	0.00361494
2178	0.00371536
2190	0.00381577
2202	0.00371536
2214	0.00381577
2226	0.00391618
2238	0.00411701
2250	0.00461909
2262	0.00451868
2274	0.00431785
2286	0.00431785
2298	0.00461909
2310	0.00542241
2322	0.00512117
2334	0.00481992
2346	0.00481992
2358	0.00542241
2370	0.00451868
2382	0.00451868
2394	0.00311287
2406	0.00311287
2418	0.0033137
2430	0.00311287
2442	0.00301245
2454	0.00311287
2466	0.00311287
2478	0.00341411
2490	0.00301245
2502	0.00351453
2514	0.00391618
2526	0.0040166
2538	0.00461909
2550	0.00431785
2562	0.00461909
2574	0.00512117
2586	0.00572366
2598	0.00612532
2610	0.00662739
2622	0.00682822
2634	0.00773196
2646	0.00823403
2658	0.00913777
2670	0.0102423
2682	0.0112465
2694	0.0114473
2706	0.0103427
2718	0.0103427
2730	0.0105436
2742	0.0119494
2754	0.0119494
2766	0.0124515
2778	0.0137569
2790	0.0167693
2802	0.0217901
2814	0.0271121
2826	0.0365511
2838	0.056132
2850	0.124916
2862	0.360389
2874	0.288291
2886	0.187977
2898	0.178036
2910	0.295019
2922	0.552182
2934	1.00415
2946	0.653501
2958	0.308073
2970	0.300341
2982	0.17412
2994	0.108549
3006	0.0785245
3018	0.0500067
3030	0.0433793
3042	0.0721984
3054	0.0608515
3066	0.0226938
3078	0.0152631
3090	0.0128531
3102	0.0102423
3114	0.00883652
3126	0.00783237
3138	0.00692864
3150	0.00712947
3162	0.00672781
3174	0.00622573
3186	0.00622573
3198	0.00562324
3210	0.00552283
3222	0.00461909
3234	0.00431785
3246	0.00411701
3258	0.00411701
3270	0.00421743
3282	0.00441826
3294	0.00421743
3306	0.00431785
3318	0.00391618
3330	0.00411701
3342	0.00451868
3354	0.00451868
3366	0.00461909
3378	0.00391618
3390	0.00381577
3402	0.0040166
3414	0.00451868
3426	0.00361494
3438	0.00411701
3450	0.00371536
3462	0.00411701
3474	0.00381577
3486	0.00301245
3498	0.00371536
3510	0.0033137
3522	0.00341411
3534	0.00391618
3546	0.00311287
3558	0.00341411
3570	0.00351453
3582	0.00441826
3594	0.00431785
3606	0.00461909
3618	0.00471951
3630	0.00542241
3642	0.00492034
3654	0.00431785
3666	0.00492034
3678	0.005322
3690	0.00502075
3702	0.00512117
3714	0.0060249
3726	0.00552283
3738	0.00431785
3750	0.00572366
3762	0.00492034
3774	0.00552283
3786	0.00502075
3798	0.00502075
3810	0.00682822
3822	0.00632615
3834	0.00502075
3846	0.00612532
3858	0.00461909
3870	0.00622573
3882	0.00642656
3894	0.00612532
3906	0.00451868
3918	0.00431785
3930	0.00522158
3942	0.00642656
3954	0.00632615
3966	0.00381577
