Infrared Spectrum: Cyclohexanecarbonitrile, 1-hydroxy-, acetate
Formula: C 9 H 13 N O 2
CAS: 32379-37-6
Origin: Sadtler Research Labs Under US-EPA Contract
1/CM	ABSORBANCE
450	0
462	0.0161078
474	0.0209845
486	0.0135956
498	0.0147778
510	0.0192111
522	0.0168467
534	0.0208367
546	0.0233489
558	0.0356145
570	0.044629
582	0.0299989
594	0.0339889
606	0.0480278
618	0.0266
630	0.0242356
642	0.0260089
654	0.0200978
666	0.0198023
678	0.0147778
690	0.0155167
702	0.0177334
714	0.0220189
726	0.0214278
738	0.0184722
750	0.0169945
762	0.0147778
774	0.0155167
786	0.01463
798	0.0135956
810	0.0200978
822	0.0246789
834	0.0308856
846	0.0453678
858	0.0297034
870	0.0422645
882	0.0397523
894	0.0273389
906	0.0509834
918	0.0651701
930	0.0518701
942	0.0650223
954	0.102853
966	0.143936
978	0.128124
990	0.093839
1002	0.127089
1014	0.173787
1026	0.21413
1038	0.277084
1050	0.361465
1062	0.356441
1074	0.161521
1086	0.114676
1098	0.0994546
1110	0.061919
1122	0.0523134
1134	0.0919179
1146	0.167876
1158	0.161669
1170	0.1463
1182	0.118961
1194	0.221963
1206	0.636332
1218	1.39887
1230	1.00223
1242	0.198466
1254	0.103297
1266	0.112164
1278	0.0764012
1290	0.0769923
1302	0.0577812
1314	0.0430034
1326	0.0393089
1338	0.0468456
1350	0.0834946
1362	0.158122
1374	0.251075
1386	0.124577
1398	0.0517223
1410	0.0382745
1422	0.0413778
1434	0.0610323
1446	0.106991
1458	0.156054
1470	0.0902924
1482	0.0375356
1494	0.0299989
1506	0.0266
1518	0.0267478
1530	0.0254178
1542	0.0205411
1554	0.0248267
1566	0.0209845
1578	0.0227578
1590	0.0206889
1602	0.0205411
1614	0.0206889
1626	0.01862
1638	0.0202456
1650	0.0189156
1662	0.0218711
1674	0.0200978
1686	0.0263045
1698	0.0297034
1710	0.0356145
1722	0.0375356
1734	0.0475845
1746	0.077879
1758	0.230681
1770	0.610471
1782	0.649484
1794	0.245903
1806	0.0821646
1818	0.0407867
1830	0.0336934
1842	0.0387178
1854	0.0336934
1866	0.0248267
1878	0.0200978
1890	0.0195067
1902	0.0184722
1914	0.0175856
1926	0.01729
1938	0.0161078
1950	0.0152211
1962	0.0137434
1974	0.0135956
1986	0.0138911
1998	0.0144822
2010	0.0141867
2022	0.0144822
2034	0.0147778
2046	0.0153689
2058	0.01596
2070	0.0162556
2082	0.0158122
2094	0.0168467
2106	0.0158122
2118	0.0143345
2130	0.0135956
2142	0.0133
2154	0.0127089
2166	0.0128567
2178	0.0134478
2190	0.0140389
2202	0.0137434
2214	0.0140389
2226	0.0152211
2238	0.0165511
2250	0.0153689
2262	0.0135956
2274	0.0134478
2286	0.0149256
2298	0.0165511
2310	0.0181767
2322	0.0169945
2334	0.01463
2346	0.0224623
2358	0.0147778
2370	0.0165511
2382	0.0165511
2394	0.0130045
2406	0.0130045
2418	0.0133
2430	0.0137434
2442	0.0130045
2454	0.0121178
2466	0.0118222
2478	0.0121178
2490	0.01197
2502	0.0122656
2514	0.01197
2526	0.0121178
2538	0.0121178
2550	0.0116745
2562	0.0118222
2574	0.0125611
2586	0.0127089
2598	0.0133
2610	0.0131522
2622	0.0135956
2634	0.0138911
2646	0.0143345
2658	0.0153689
2670	0.0175856
2682	0.0175856
2694	0.0153689
2706	0.0140389
2718	0.0140389
2730	0.01463
2742	0.0150734
2754	0.0147778
2766	0.0149256
2778	0.0158122
2790	0.0175856
2802	0.0198023
2814	0.0211323
2826	0.0217234
2838	0.0234967
2850	0.0328067
2862	0.112016
2874	0.198909
2886	0.128567
2898	0.0669434
2910	0.0799479
2922	0.10108
2934	0.197727
2946	0.621259
2958	0.618451
2970	0.174821
2982	0.0533479
2994	0.0480278
3006	0.0359101
3018	0.0240878
3030	0.0246789
3042	0.0243834
3054	0.0230534
3066	0.0221667
3078	0.0217234
3090	0.0203934
3102	0.0187678
3114	0.01729
3126	0.0164034
3138	0.0156645
3150	0.0156645
3162	0.0156645
3174	0.0155167
3186	0.0156645
3198	0.0156645
3210	0.0153689
3222	0.0155167
3234	0.0153689
3246	0.0149256
3258	0.01463
3270	0.0150734
3282	0.0153689
3294	0.01463
3306	0.0147778
3318	0.01463
3330	0.0144822
3342	0.0149256
3354	0.0149256
3366	0.0147778
3378	0.0149256
3390	0.0150734
3402	0.01463
3414	0.0141867
3426	0.0147778
3438	0.0150734
3450	0.0150734
3462	0.0152211
3474	0.0150734
3486	0.01596
3498	0.0156645
3510	0.0164034
3522	0.0192111
3534	0.0209845
3546	0.0195067
3558	0.0187678
3570	0.0190634
3582	0.0149256
3594	0.0158122
3606	0.0161078
3618	0.01596
3630	0.0144822
3642	0.0169945
3654	0.01729
3666	0.0135956
3678	0.0158122
3690	0.0155167
3702	0.0152211
3714	0.0155167
3726	0.0158122
3738	0.0180289
3750	0.0109356
3762	0.0152211
3774	0.0153689
3786	0.0143345
3798	0.0177334
3810	0.0121178
3822	0.0138911
3834	0.0152211
3846	0.0143345
3858	0.0158122
3870	0.01596
3882	0.0153689
3894	0.01862
3906	0.0164034
3918	0.0168467
3930	0.0165511
3942	0.0156645
3954	0.0174378
3966	0.0161078
