Infrared Spectrum: 1,1'-Biphenyl, 4-fluoro-
Formula: C 12 H 9 F
CAS: 324-74-3
Origin: Sadtler Research Labs Under US-EPA Contract
1/CM	ABSORBANCE
450	0.00110127
462	0.00747289
474	0.0222613
486	0.0277677
498	0.0423202
510	0.062143
522	0.0426348
534	0.0459386
546	0.0972262
558	0.149222
570	0.00668627
582	0.00637162
594	0.00652895
606	0.010934
618	0.00881014
630	0.0140805
642	0.010462
654	0.0147098
666	0.0364992
678	0.0537261
690	0.151582
702	0.18462
714	0.0825164
726	0.0385444
738	0.0534115
750	0.145682
762	0.246527
774	0.0965969
786	0.0287903
798	0.023284
810	0.072605
822	0.142536
834	0.2916
846	0.170618
858	0.0394883
870	0.0177776
882	0.0112487
894	0.0173056
906	0.0231266
918	0.016755
930	0.0143951
942	0.0132939
954	0.010698
966	0.00857416
978	0.00920345
990	0.0130579
1002	0.0374431
1014	0.0769314
1026	0.017227
1038	0.0265878
1050	0.0170697
1062	0.021868
1074	0.0326447
1086	0.0434214
1098	0.0530182
1110	0.0224973
1122	0.0130579
1134	0.0125073
1146	0.0224187
1158	0.22104
1170	0.0452306
1182	0.0154178
1194	0.0243066
1206	0.0362632
1218	0.101867
1230	0.369633
1242	0.703396
1254	0.0722904
1266	0.0729983
1278	0.0289476
1290	0.0320154
1302	0.0243852
1314	0.0147885
1326	0.0132152
1338	0.0103834
1350	0.00983275
1362	0.011406
1374	0.0129792
1386	0.0107767
1398	0.0130579
1410	0.0130579
1422	0.0106194
1434	0.0178563
1446	0.0423202
1458	0.0384657
1470	0.067492
1482	0.332111
1494	0.417459
1506	0.174158
1518	0.501864
1530	0.0815725
1542	0.0206094
1554	0.0322514
1566	0.0461746
1578	0.0335887
1590	0.0530969
1602	0.128062
1614	0.155043
1626	0.0323301
1638	0.0195868
1650	0.0212387
1662	0.0156537
1674	0.0148671
1686	0.00527035
1698	0.00676493
1710	0.00865282
1722	0.0102261
1734	0.0105407
1746	0.0146311
1758	0.0191149
1770	0.0103047
1782	0.00975409
1794	0.0151818
1806	0.0110127
1818	0.0078662
1830	0.00409042
1842	0.00487704
1854	0.00676493
1866	0.0147098
1878	0.0243066
1890	0.027689
1902	0.0105407
1914	0.00550634
1926	0.00810219
1938	0.0132152
1950	0.016047
1962	0.011406
1974	0.00464106
1986	0.00416909
1998	0.00353979
2010	0.00306782
2022	0.00291049
2034	0.00385444
2046	0.00613564
2058	0.00684359
2070	0.00527035
2082	0.00353979
2094	0.00149458
2106	0.00220254
2118	0.00149458
2130	0.00125859
2142	0.00110127
2154	0.00110127
2166	0.00157324
2178	0.00149458
2190	0.00149458
2202	0.000471972
2214	0.00149458
2226	0.00188789
2238	0.00188789
2250	0.00298916
2262	0.00377578
2274	0.00322514
2286	0.00479838
2298	0.00637162
2310	0.00904613
2322	0.0084955
2334	0.00888881
2346	0.00943944
2358	0.0102261
2370	0.00802352
2382	0.00715824
2394	0.00534902
2406	0.0039331
2418	0.00353979
2430	0.00479838
2442	0.00401176
2454	0.00448373
2466	0.00589965
2478	0.00503437
2490	0.00346113
2502	0.00401176
2514	0.00314648
2526	0.00361845
2538	0.00306782
2550	0.00361845
2562	0.00409042
2574	0.00314648
2586	0.00275317
2598	0.0033038
2610	0.00346113
2622	0.00361845
2634	0.0022812
2646	0.00283183
2658	0.00125859
2670	0.0022812
2682	0.00173056
2694	0.0022812
2706	0.00291049
2718	0.00322514
2730	0.00283183
2742	0.00243852
2754	0.00424775
2766	0.00283183
2778	0.00275317
2790	0.00235986
2802	0.00212387
2814	0.00243852
2826	0.00346113
2838	0.00338247
2850	0.0039331
2862	0.00479838
2874	0.00676493
2886	0.00731557
2898	0.00676493
2910	0.00416909
2922	0.00385444
2934	0.00519169
2946	0.00589965
2958	0.00684359
2970	0.00700092
2982	0.00943944
2994	0.0120353
3006	0.0163617
3018	0.0258011
3030	0.0755942
3042	0.141041
3054	0.103991
3066	0.146862
3078	0.167786
3090	0.0909333
3102	0.0582885
3114	0.0347686
3126	0.0209241
3138	0.00975409
3150	0.00715824
3162	0.00652895
3174	0.0039331
3186	0.00409042
3198	0.0022812
3210	0.00283183
3222	0.00157324
3234	0.00180923
3246	0.00220254
3258	0.00243852
3270	0.00361845
3282	0.00212387
3294	0.00188789
3306	0.00298916
3318	0.00369711
3330	0.00275317
3342	0.00196655
3354	0.00188789
3366	0.00306782
3378	0.00369711
3390	0.00322514
3402	0.00291049
3414	0.00235986
3426	0.00283183
3438	0.00078662
3450	0.00369711
3462	0.00306782
3474	0.00243852
3486	0.00235986
3498	0.00353979
3510	0.00204521
3522	0.00306782
3534	0.00235986
3546	0.00235986
3558	0.00141592
3570	0.00409042
3582	0.00377578
3594	0.00385444
3606	0.00306782
3618	0.00235986
3630	0.00235986
3642	0.00471972
3654	0.00589965
3666	0.00550634
3678	0.00361845
3690	0.00440507
3702	0.00534902
3714	0.00597831
3726	0.00668627
3738	0.00503437
3750	0.00495571
3762	0.00747289
3774	0.00629296
3786	0.00684359
3798	0.00574233
3810	0.00503437
3822	0.005585
3834	0.00676493
3846	0.00574233
3858	0.00707958
3870	0.00755155
3882	0.00715824
3894	0.00652895
3906	0.00833817
3918	0.00613564
3930	0.005585
3942	0.00566366
3954	0
3966	0.000471972
