Infrared Spectrum: Diethyl cyclohexylaminophosphonate
Formula: C 10 H 22 N O 3 P
CAS: 32405-88-2
Origin: Sadtler Research Labs Under US-EPA Contract
1/CM	ABSORBANCE
450	0.0271155
462	0.0263272
474	0.047925
486	0.0570686
498	0.0502897
510	0.0742522
522	0.119182
534	0.133686
546	0.177354
558	0.199109
570	0.108777
582	0.0438261
594	0.0193907
606	0.013873
618	0.036259
630	0.00851299
642	0.0154495
654	0.0173413
666	0.0127695
678	0.0154495
690	0.0187601
702	0.0167107
714	0.0186025
726	0.0381508
738	0.0709416
750	0.111299
762	0.110984
774	0.109881
786	0.198636
798	0.239467
810	0.191858
822	0.107516
834	0.0576992
846	0.059118
858	0.067631
870	0.0895441
882	0.144879
894	0.148189
906	0.154653
918	0.19974
930	0.31372
942	0.643834
954	0.812833
966	0.584086
978	0.337051
990	0.316242
1002	0.364482
1014	0.493911
1026	0.812833
1038	1.44579
1050	1.47275
1062	1.19355
1074	0.726127
1086	0.481142
1098	0.52481
1110	0.353289
1122	0.224175
1134	0.164427
1146	0.175778
1158	0.142829
1170	0.125961
1182	0.107831
1194	0.0830805
1206	0.0219131
1218	0.0269578
1230	0.0830805
1242	0.131794
1254	0.23663
1266	0.399795
1278	0.538841
1290	0.38072
1302	0.331376
1314	0.227171
1326	0.117763
1338	0.0939582
1350	0.11997
1362	0.115714
1374	0.134474
1386	0.175462
1398	0.25066
1410	0.247823
1422	0.253656
1434	0.173413
1446	0.158909
1458	0.17893
1470	0.111457
1482	0.0576992
1494	0.0416191
1506	0.0354708
1518	0.0294802
1530	0.0187601
1542	0.0160801
1554	0.0132424
1566	0.00677886
1578	0.00804005
1590	0.011666
1602	0.0160801
1614	0.0231743
1626	0.019706
1638	0.0154495
1650	0.00772475
1662	0.00725181
1674	0.00583298
1686	0.00882829
1698	0.00583298
1710	0.00599062
1722	0.00693651
1734	0.00583298
1746	0.00504474
1758	0.00457179
1770	0.00583298
1782	0.0078824
1794	0.00662122
1806	0.00614827
1818	0.00583298
1830	0.00551768
1842	0.0078824
1854	0.0078824
1866	0.00725181
1878	0.00614827
1890	0.00472944
1902	0.00346826
1914	0.00268002
1926	0.00173413
1938	0.00078824
1950	0.000472944
1962	0.000157648
1974	0.000157648
1986	0
1998	0.000157648
2010	0.000157648
2022	0.000157648
2034	0.000315296
2046	0.000472944
2058	0.000315296
2070	0.000472944
2082	0.000630592
2094	0
2106	0.000157648
2118	0.000315296
2130	0
2142	0.000472944
2154	0.000630592
2166	0.000630592
2178	0.000945888
2190	0.00141883
2202	0.00110354
2214	0.000630592
2226	0.000945888
2238	0.00126118
2250	0.00204942
2262	0.00268002
2274	0.00236472
2286	0.00268002
2298	0.00488709
2310	0.00740946
2322	0.00804005
2334	0.00835534
2346	0.0107201
2358	0.00867064
2370	0.00914358
2382	0.00504474
2394	0.000472944
2406	0.000157648
2418	0.000315296
2430	0.00078824
2442	0.000945888
2454	0.00126118
2466	0.00126118
2478	0.00173413
2490	0.00157648
2502	0.00157648
2514	0.00110354
2526	0.00204942
2538	0.00189178
2550	0.00173413
2562	0.00204942
2574	0.00331061
2586	0.00488709
2598	0.00614827
2610	0.00599062
2622	0.00662122
2634	0.00740946
2646	0.0102471
2658	0.0137154
2670	0.016553
2682	0.0137154
2694	0.0119812
2706	0.0115083
2718	0.0121389
2730	0.0141883
2742	0.0148189
2754	0.0167107
2766	0.0198636
2778	0.0253813
2790	0.0288496
2802	0.0342096
2814	0.0397273
2826	0.0509203
2838	0.0792969
2850	0.181453
2862	0.42092
2874	0.314981
2886	0.216293
2898	0.243566
2910	0.404209
2922	0.625074
2934	1.16045
2946	1.21468
2958	0.478146
2970	0.293541
2982	0.372522
2994	0.314981
3006	0.17357
3018	0.103732
3030	0.0621133
3042	0.0408308
3054	0.0290072
3066	0.0214401
3078	0.017026
3090	0.0148189
3102	0.0132424
3114	0.0113507
3126	0.0105624
3138	0.00977418
3150	0.0102471
3162	0.00961653
3174	0.00867064
3186	0.00725181
3198	0.00614827
3210	0.00583298
3222	0.00551768
3234	0.00520238
3246	0.00457179
3258	0.0042565
3270	0.00268002
3282	0.00204942
3294	0.00204942
3306	0.00173413
3318	0.00189178
3330	0.00252237
3342	0.00268002
3354	0.00252237
3366	0.00252237
3378	0.00283766
3390	0.00567533
3402	0.0121389
3414	0.0331061
3426	0.0600639
3438	0.0411461
3450	0.0157648
3462	0.0078824
3474	0.00441414
3486	0.0039412
3498	0.00283766
3510	0.00236472
3522	0.00141883
3534	0.00141883
3546	0.00173413
3558	0.00204942
3570	0.00126118
3582	0.000472944
3594	0.00204942
3606	0.000315296
3618	0.00173413
3630	0.00488709
3642	0.00252237
3654	0.00220707
3666	0.000157648
3678	0.00851299
3690	0.00236472
3702	0.00252237
3714	0.0036259
3726	0.00283766
3738	0.00331061
3750	0.00346826
3762	0.00204942
3774	0.00157648
3786	0.00126118
3798	0.00126118
3810	0.00078824
3822	0.00472944
3834	0.00299531
3846	0.00299531
3858	0.00441414
3870	0.00331061
3882	0.0036259
3894	0.00236472
3906	0.00315296
3918	0.00252237
3930	0.0036259
3942	0.00268002
3954	0.0039412
3966	0.00441414
