Infrared Spectrum: Octadecanoic acid, decyl ester
Formula: C 28 H 56 O 2
CAS: 32509-55-0
Origin: Sadtler Research Labs Under US-EPA Contract
1/CM	ABSORBANCE
450	0
462	0.0139258
474	0.0049696
486	0.00671715
498	0.00535188
510	0.00819165
522	0.00622565
534	0.00682637
546	0.00671715
558	0.00633488
570	0.00589799
582	0.00606182
594	0.00709943
606	0.0079186
618	0.00655332
630	0.00611643
642	0.00622565
654	0.00469655
666	0.00425966
678	0.00518805
690	0.00884698
702	0.0113591
714	0.0179124
726	0.0198784
738	0.0143627
750	0.0126698
762	0.0107584
774	0.00982998
786	0.00928387
798	0.00879237
810	0.00939309
822	0.00933848
834	0.00890159
846	0.0100484
858	0.00988459
870	0.0109768
882	0.0110314
894	0.0112499
906	0.0108676
918	0.0110314
930	0.0117414
942	0.012779
954	0.0140896
966	0.0161102
978	0.0197146
990	0.0237012
1002	0.0241381
1014	0.0240835
1026	0.0244657
1038	0.0270324
1050	0.0290531
1062	0.0299814
1074	0.0317836
1086	0.0338588
1098	0.0354972
1110	0.0424874
1122	0.043525
1134	0.0486038
1146	0.0729057
1158	0.0960607
1170	0.101194
1182	0.0821896
1194	0.0679361
1206	0.0623112
1218	0.062748
1230	0.0670623
1242	0.0683184
1254	0.0590345
1266	0.0485492
1278	0.0417774
1290	0.0387738
1302	0.0383915
1314	0.0354972
1326	0.0319474
1338	0.0366986
1350	0.0423235
1362	0.0379546
1374	0.0310737
1386	0.0309644
1398	0.0210252
1410	0.0182401
1422	0.0253395
1434	0.0348964
1446	0.0536826
1458	0.0833364
1470	0.0605636
1482	0.0208068
1494	0.0125059
1506	0.00966615
1518	0.0079186
1530	0.00655332
1542	0.00611643
1554	0.00611643
1566	0.00507882
1578	0.00600721
1590	0.00502421
1602	0.00513343
1614	0.00529727
1626	0.0054611
1638	0.00600721
1650	0.00622565
1662	0.00628027
1674	0.00813704
1686	0.0116321
1698	0.0173663
1710	0.0256672
1722	0.0482215
1734	0.13194
1746	0.173608
1758	0.0725234
1770	0.0333673
1782	0.0216806
1794	0.0138166
1806	0.00906543
1818	0.00600721
1830	0.00486038
1842	0.00409582
1854	0.00393199
1866	0.00376816
1878	0.00322205
1890	0.00338588
1902	0.00338588
1914	0.00305822
1926	0.00316744
1938	0.00338588
1950	0.00305822
1962	0.00344049
1974	0.00338588
1986	0.0034951
1998	0.00344049
2010	0.00365894
2022	0.00382277
2034	0.00404121
2046	0.00376816
2058	0.00365894
2070	0.00365894
2082	0.00344049
2094	0.00333127
2106	0.00333127
2118	0.00344049
2130	0.00316744
2142	0.00316744
2154	0.00360433
2166	0.00371355
2178	0.0034951
2190	0.00360433
2202	0.00338588
2214	0.00327666
2226	0.00316744
2238	0.00344049
2250	0.00371355
2262	0.00393199
2274	0.00415044
2286	0.00507882
2298	0.00709943
2310	0.0089562
2322	0.00884698
2334	0.00775476
2346	0.0103215
2358	0.00731787
2370	0.0101576
2382	0.00753632
2394	0.00425966
2406	0.00393199
2418	0.00376816
2430	0.00420505
2442	0.00404121
2454	0.00393199
2466	0.00415044
2478	0.00436888
2490	0.00415044
2502	0.0044781
2514	0.00464193
2526	0.00502421
2538	0.00562493
2550	0.0054611
2562	0.00584338
2574	0.00606182
2586	0.00671715
2598	0.00715404
2610	0.00759093
2622	0.00802782
2634	0.00873776
2646	0.00950231
2658	0.0102669
2670	0.0114137
2682	0.0118506
2694	0.0113045
2706	0.0110314
2718	0.0112499
2730	0.0123421
2742	0.012779
2754	0.013762
2766	0.0149634
2778	0.0177486
2790	0.0211891
2802	0.0264317
2814	0.0347872
2826	0.0502967
2838	0.0870499
2850	0.211017
2862	0.261751
2874	0.17268
2886	0.148924
2898	0.199494
2910	0.296101
2922	0.472385
2934	0.521426
2946	0.31587
2958	0.224124
2970	0.150508
2982	0.075254
2994	0.0418866
3006	0.0279062
3018	0.0201515
3030	0.0155641
3042	0.0122875
3054	0.0105945
3066	0.00955693
3078	0.00764554
3090	0.00731787
3102	0.00628027
3114	0.00660793
3126	0.00562493
3138	0.00535188
3150	0.00535188
3162	0.00507882
3174	0.00469655
3186	0.00453271
3198	0.00453271
3210	0.00420505
3222	0.00409582
3234	0.00376816
3246	0.0039866
3258	0.00404121
3270	0.0039866
3282	0.00409582
3294	0.00393199
3306	0.00376816
3318	0.00387738
3330	0.00431427
3342	0.00415044
3354	0.00393199
3366	0.00415044
3378	0.00453271
3390	0.0044781
3402	0.00415044
3414	0.00425966
3426	0.00404121
3438	0.00420505
3450	0.00475116
3462	0.0054611
3474	0.00431427
3486	0.00404121
3498	0.00344049
3510	0.00365894
3522	0.00333127
3534	0.0039866
3546	0.00453271
3558	0.00409582
3570	0.00518805
3582	0.00649871
3594	0.00458732
3606	0.00436888
3618	0.0049696
3630	0.00562493
3642	0.00436888
3654	0.00469655
3666	0.00513343
3678	0.00491499
3690	0.00464193
3702	0.0049696
3714	0.0049696
3726	0.00589799
3738	0.00502421
3750	0.00578877
3762	0.00436888
3774	0.00480577
3786	0.00486038
3798	0.00480577
3810	0.00404121
3822	0.00578877
3834	0.00557032
3846	0.00480577
3858	0.00573416
3870	0.00469655
3882	0.00453271
3894	0.00442349
3906	0.00567954
3918	0.00475116
3930	0.00480577
3942	0.00365894
3954	0.00425966
3966	0.00458732
