Infrared Spectrum: Toluene, p-(4-bromobutoxy)-,
Formula: C 11 H 15 Br O
CAS: 3257-49-6
Origin: Sadtler Research Labs Under US-EPA Contract
1/CM	ABSORBANCE
450	0.00836012
462	0.010075
474	0.0131833
486	0.018328
498	0.0334405
510	0.0442658
522	0.0282958
534	0.018971
546	0.0257234
558	0.0335477
570	0.0383708
582	0.017792
594	0.00353697
606	0.000750267
618	0.00310825
630	0.0090032
642	0.0221865
654	0.0305466
666	0.0202572
678	0.0114684
690	0.0255091
702	0.07224
714	0.0410503
726	0.0526259
738	0.0503751
750	0.0466237
762	0.0345123
774	0.0300107
786	0.0465166
798	0.10911
810	0.158735
822	0.179099
834	0.0936762
846	0.0624865
858	0.0375134
870	0.0246516
882	0.0237942
894	0.0250804
906	0.0274383
918	0.0329046
930	0.0453376
942	0.0557341
954	0.0612004
966	0.0578777
978	0.0531618
990	0.0556269
1002	0.0696676
1014	0.115541
1026	0.145552
1038	0.210611
1050	0.237406
1062	0.170525
1074	0.106002
1086	0.0730974
1098	0.0658091
1110	0.0668809
1122	0.0538049
1134	0.0308681
1146	0.0310825
1158	0.0506966
1170	0.200536
1182	0.110396
1194	0.0972132
1206	0.204394
1218	0.422079
1230	0.737405
1242	1.07181
1254	0.489817
1266	0.290139
1278	0.27374
1290	0.231511
1302	0.140836
1314	0.0902464
1326	0.0602357
1338	0.0416934
1350	0.0419078
1362	0.0391211
1374	0.0468381
1386	0.101608
1398	0.0688102
1410	0.0429796
1422	0.0482315
1434	0.0733118
1446	0.120043
1458	0.0788852
1470	0.111254
1482	0.162486
1494	0.17299
1506	0.616934
1518	0.63494
1530	0.104823
1542	0.0341907
1554	0.030225
1566	0.032583
1578	0.0557341
1590	0.0853161
1602	0.102572
1614	0.163451
1626	0.0809217
1638	0.0319399
1650	0.017149
1662	0.0174705
1674	0.00975347
1686	0.00696676
1698	0.00192926
1710	0.00664522
1722	0.0062165
1734	0.00160772
1746	0.00535905
1758	0.00782421
1770	0.00525187
1782	0.00610932
1794	0.00836012
1806	0.013612
1818	0.0153269
1830	0.0135048
1842	0.0162915
1854	0.0215434
1866	0.0264737
1878	0.0247588
1890	0.0192926
1902	0.0178992
1914	0.0153269
1926	0.0161843
1938	0.017792
1950	0.0176849
1962	0.0178992
1974	0.018328
1986	0.017149
1998	0.0163987
2010	0.0167202
2022	0.0160772
2034	0.0156484
2046	0.0151125
2058	0.0153269
2070	0.0150053
2082	0.0152197
2094	0.013612
2106	0.0115755
2118	0.0105037
2130	0.00911039
2142	0.00793139
2154	0.00728831
2166	0.00664522
2178	0.0067524
2190	0.00653804
2202	0.0067524
2214	0.00685958
2226	0.0067524
2238	0.00653804
2250	0.00632368
2262	0.00589496
2274	0.0062165
2286	0.00793139
2298	0.00975347
2310	0.0107181
2322	0.0084673
2334	0.00525187
2346	0.00685958
2358	0.00535905
2370	0.00418006
2382	0.00696676
2394	0.00482315
2406	0.00535905
2418	0.00589496
2430	0.00557341
2442	0.00610932
2454	0.00707395
2466	0.00707395
2478	0.00685958
2490	0.00525187
2502	0.00471596
2514	0.00557341
2526	0.00653804
2538	0.00493033
2550	0.00289389
2562	0.00214362
2574	0.00160772
2586	0.00160772
2598	0.00139335
2610	0.000535905
2622	0.000214362
2634	0.000428724
2646	0.000750267
2658	0.000750267
2670	0.00107181
2682	0.00214362
2694	0.00289389
2706	0.00342979
2718	0.00493033
2730	0.00771703
2742	0.0139335
2754	0.0126474
2766	0.00836012
2778	0.00771703
2790	0.00836012
2802	0.0101822
2814	0.0128617
2826	0.0188639
2838	0.0312969
2850	0.0637727
2862	0.104823
2874	0.164737
2886	0.176313
2898	0.157985
2910	0.179207
2922	0.224651
2934	0.285959
2946	0.282636
2958	0.258628
2970	0.214469
2982	0.135906
2994	0.0973203
3006	0.104394
3018	0.118971
3030	0.148017
3042	0.137406
3054	0.0693461
3066	0.0632368
3078	0.0534833
3090	0.0360128
3102	0.0308681
3114	0.0203644
3126	0.012433
3138	0.00814576
3150	0.00407288
3162	0.00214362
3174	0.00160772
3186	0.00117899
3198	0.000964629
3210	0.00128617
3222	0.000321543
3234	0.000428724
3246	0.000643086
3258	0.000750267
3270	0.000321543
3282	0.000428724
3294	0.000321543
3306	0.000214362
3318	0.000643086
3330	0.000964629
3342	0.000750267
3354	0.000643086
3366	0.000535905
3378	0.000964629
3390	0.00128617
3402	0.00117899
3414	0.00128617
3426	0.000750267
3438	0.00139335
3450	0.000321543
3462	0.00107181
3474	0.000750267
3486	0.000857448
3498	0.000964629
3510	0.00117899
3522	0.000535905
3534	0.00150053
3546	0.00107181
3558	0.000750267
3570	0.0017149
3582	0.000428724
3594	0.000321543
3606	0.000107181
3618	0.00107181
3630	0.00128617
3642	0.00160772
3654	0.00214362
3666	0.00192926
3678	0.00235798
3690	0.00160772
3702	0.00160772
3714	0.00150053
3726	0.00107181
3738	0.00160772
3750	0.0017149
3762	0.00182208
3774	0.00128617
3786	0.00192926
3798	0.0022508
3810	0.00267952
3822	0.00246516
3834	0.00257234
3846	0.00439442
3858	0.00278671
3870	0.00278671
3882	0.00364415
3894	0.00375134
3906	0.00375134
3918	0.00364415
3930	0.00375134
3942	0.00428724
3954	0.00257234
3966	0.00192926
