Infrared Spectrum: Benzhydryl 2-chloroethyl ether
Formula: C 15 H 15 Cl O
CAS: 32669-06-0
Origin: Sadtler Research Labs Under US-EPA Contract
1/CM	ABSORBANCE
450	0.00195074
462	0.018123
474	0.0178713
486	0.0188781
498	0.0213952
510	0.00478245
522	0.00497123
534	0.00761417
546	0.0218357
558	0.0222762
570	0.00673319
582	0.00641855
594	0.0130888
606	0.0818051
618	0.114653
630	0.0300791
642	0.0469435
654	0.0887271
666	0.0742539
678	0.163358
690	0.297078
702	0.594723
714	0.193186
726	0.146431
738	0.255987
750	0.241451
762	0.236857
774	0.167763
786	0.0467548
798	0.0256113
810	0.0187522
822	0.0188781
834	0.0333513
846	0.0281284
858	0.027562
870	0.0408396
882	0.0207659
894	0.0186264
906	0.0294498
918	0.0487055
930	0.031904
942	0.0338547
954	0.0317781
966	0.0476987
978	0.0678353
990	0.0723031
1002	0.0926285
1014	0.0977256
1026	0.149766
1038	0.125414
1050	0.151591
1062	0.190983
1074	0.326088
1086	0.464464
1098	0.62927
1110	0.551178
1122	0.406445
1134	0.147564
1146	0.0778407
1158	0.0648148
1170	0.089671
1182	0.196647
1194	0.116478
1206	0.0787846
1218	0.0485796
1230	0.0457479
1242	0.063808
1254	0.119247
1266	0.132587
1278	0.127994
1290	0.12384
1302	0.180726
1314	0.124721
1326	0.103641
1338	0.0886641
1350	0.0745056
1362	0.0342323
1374	0.033603
1386	0.0346099
1398	0.026681
1410	0.0157947
1422	0.0244786
1434	0.0717368
1446	0.117044
1458	0.147186
1470	0.0480762
1482	0.0478874
1494	0.160716
1506	0.0495235
1518	0.0125854
1530	0.0122078
1542	0.0137181
1554	0.0095649
1566	0.0101312
1578	0.0182488
1590	0.0376303
1602	0.066388
1614	0.0227796
1626	0.00969076
1638	0.00654441
1650	0.00893563
1662	0.0124595
1674	0.0265552
1686	0.0322816
1698	0.0122708
1710	0.00729953
1722	0.00836929
1734	0.0113269
1746	0.0154171
1758	0.0166127
1770	0.0129
1782	0.0107605
1794	0.0230942
1806	0.0300162
1818	0.0127113
1830	0.00786587
1842	0.00490831
1854	0.00497123
1866	0.00874685
1878	0.0152913
1890	0.0196962
1902	0.0137181
1914	0.00673319
1926	0.00874685
1938	0.0201996
1950	0.0278137
1962	0.0235347
1974	0.00566343
1986	0.00409026
1998	0.00251708
2010	0.0023283
2022	0.00289464
2034	0.00383855
2046	0.00453074
2058	0.00541172
2070	0.00591514
2082	0.00497123
2094	0.00415318
2106	0.00346099
2118	0.00339806
2130	0.00358684
2142	0.00364977
2154	0.00314635
2166	0.00264293
2178	0.00245415
2190	0.00201366
2202	0.00157318
2214	0.00138439
2226	0.00125854
2238	0.00138439
2250	0.00182488
2262	0.00176196
2274	0.00213952
2286	0.00276879
2298	0.0039644
2310	0.00811758
2322	0.00729953
2334	0.00578928
2346	0.00654441
2358	0.00421611
2370	0.00402733
2382	0.00377562
2394	0.000880978
2406	0.000943905
2418	0.000880978
2430	0.000566343
2442	0.000503416
2454	0.000377562
2466	0.000755124
2478	0.00106976
2490	0.000943905
2502	0.00125854
2514	0.00151025
2526	0.00169903
2538	0.00176196
2550	0.00169903
2562	0.00151025
2574	0.00226537
2586	0.00339806
2598	0.00390147
2610	0.00390147
2622	0.00390147
2634	0.00478245
2646	0.00446782
2658	0.00390147
2670	0.00409026
2682	0.00434196
2694	0.00516001
2706	0.0056005
2718	0.00578928
2730	0.00780295
2742	0.00880978
2754	0.0117673
2766	0.0164239
2778	0.0144103
2790	0.0125854
2802	0.0132776
2814	0.01548
2826	0.0244786
2838	0.0464401
2850	0.0999281
2862	0.14511
2874	0.135734
2886	0.107353
2898	0.0841334
2910	0.0723661
2922	0.0729953
2934	0.0671431
2946	0.0643743
2958	0.0785958
2970	0.113206
2982	0.0616685
2994	0.0388889
3006	0.0649407
3018	0.0906149
3030	0.208603
3042	0.207722
3054	0.13888
3066	0.255547
3078	0.311615
3090	0.164554
3102	0.0992988
3114	0.0531733
3126	0.0186264
3138	0.00849515
3150	0.00654441
3162	0.00729953
3174	0.00673319
3186	0.00289464
3198	0.00207659
3210	0.00176196
3222	0.00188781
3234	0.00182488
3246	0.00176196
3258	0.00106976
3270	0.00157318
3282	0.00157318
3294	0.00182488
3306	0.00195074
3318	0.00119561
3330	0.00195074
3342	0.00176196
3354	0.00151025
3366	0.00157318
3378	0.00113269
3390	0.00119561
3402	0.00176196
3414	0.00113269
3426	0.00151025
3438	0.00106976
3450	0.00138439
3462	0.00151025
3474	0.00119561
3486	0.00151025
3498	0.000566343
3510	0.000818051
3522	0.0016361
3534	0.00138439
3546	0.00113269
3558	0.00157318
3570	0.00151025
3582	0.00144732
3594	0.000818051
3606	0.00100683
3618	0.00276879
3630	0.0039644
3642	0.0039644
3654	0.00453074
3666	0.0032722
3678	0.00421611
3690	0.00333513
3702	0.00383855
3714	0.00459367
3726	0.0046566
3738	0.00352391
3750	0.00188781
3762	0.00188781
3774	0.000755124
3786	0.00119561
3798	0.00220244
3810	0.00264293
3822	0.00270586
3834	0.00251708
3846	0.000880978
3858	0.00251708
3870	0.00188781
3882	0.00258001
3894	0.00295757
3906	0.00251708
3918	0.00220244
3930	0.00289464
3942	0.00390147
3954	0.00295757
3966	0.00213952
