Infrared Spectrum: Benzene, 1,5-difluoro-2,4-dinitro-
Formula: C 6 H 2 F 2 N 2 O 4
CAS: 327-92-4
Origin: Sadtler Research Labs Under US-EPA Contract
1/CM	ABSORBANCE
450	0
462	0.00819315
474	0.00576555
486	0.00631176
498	0.0030345
510	0.00358071
522	0.00406623
534	0.00200277
546	0.00400554
558	0.00430899
570	0.010378
582	0.0291312
594	0.0407837
606	0.017418
618	0.0133518
630	0.0185711
642	0.0526182
654	0.0639066
666	0.0497051
678	0.038963
690	0.0335009
702	0.0447892
714	0.0481879
726	0.0339864
738	0.0406623
750	0.0405409
762	0.0243974
774	0.0151118
786	0.00855729
798	0.00710073
810	0.0101352
822	0.0246401
834	0.0657273
846	0.0318623
858	0.0920667
870	0.0479451
882	0.0110456
894	0.0154153
906	0.0368388
918	0.0443644
930	0.0201491
942	0.0109849
954	0.00886074
966	0.00995316
978	0.0109849
990	0.0114704
1002	0.0123201
1014	0.0159008
1026	0.0238512
1038	0.0558348
1050	0.132061
1062	0.0490982
1074	0.019178
1086	0.0126235
1098	0.00837522
1110	0.0105601
1122	0.012927
1134	0.017236
1146	0.0350181
1158	0.0951012
1170	0.152878
1182	0.0424223
1194	0.0235477
1206	0.0157794
1218	0.0132304
1230	0.0157794
1242	0.0203312
1254	0.028585
1266	0.0317409
1278	0.0449106
1290	0.10906
1302	0.203129
1314	0.152453
1326	0.172906
1338	0.524908
1350	0.473321
1362	0.162042
1374	0.0622679
1386	0.0415727
1398	0.0341078
1410	0.036414
1422	0.0324692
1434	0.0261574
1446	0.0297988
1458	0.0412085
1470	0.0573521
1482	0.0720997
1494	0.14511
1506	0.117921
1518	0.0858157
1530	0.148751
1542	0.197728
1554	0.361409
1566	0.428957
1578	0.252774
1590	0.24367
1602	0.272498
1614	0.423556
1626	0.460819
1638	0.259146
1650	0.0784115
1662	0.0422402
1674	0.0231836
1686	0.0115918
1698	0.00940695
1710	0.0129877
1722	0.0141408
1734	0.0101959
1746	0.00746487
1758	0.00722211
1770	0.00704004
1782	0.0054621
1794	0.00491589
1806	0.00588693
1818	0.00528003
1830	0.00455175
1842	0.00297381
1854	0.00279174
1866	0.00230622
1878	0.00224553
1890	0.0024276
1902	0.00400554
1914	0.00327726
1926	0.00236691
1938	0.00248829
1950	0.00194208
1962	0.00224553
1974	0.00206346
1986	0.00230622
1998	0.00236691
2010	0.00236691
2022	0.00248829
2034	0.00309519
2046	0.00297381
2058	0.00230622
2070	0.00212415
2082	0.00206346
2094	0.00224553
2106	0.00212415
2118	0.00206346
2130	0.00194208
2142	0.00176001
2154	0.00200277
2166	0.00212415
2178	0.00230622
2190	0.00254898
2202	0.00260967
2214	0.00254898
2226	0.00218484
2238	0.00218484
2250	0.00188139
2262	0.00169932
2274	0.00206346
2286	0.00236691
2298	0.00309519
2310	0.00370209
2322	0.00503727
2334	0.00534072
2346	0.00697935
2358	0.00691866
2370	0.00558348
2382	0.0054621
2394	0.0042483
2406	0.00333795
2418	0.00315588
2430	0.00321657
2442	0.00321657
2454	0.00394485
2466	0.00540141
2478	0.00455175
2490	0.00291312
2502	0.00267036
2514	0.00260967
2526	0.00285243
2538	0.00267036
2550	0.00236691
2562	0.00260967
2574	0.00297381
2586	0.00394485
2598	0.00455175
2610	0.00436968
2622	0.00443037
2634	0.00455175
2646	0.00534072
2658	0.00612969
2670	0.00764694
2682	0.00819315
2694	0.00570486
2706	0.00509796
2718	0.00521934
2730	0.00570486
2742	0.00467313
2754	0.00412692
2766	0.00436968
2778	0.00509796
2790	0.00528003
2802	0.00515865
2814	0.00388416
2826	0.00443037
2838	0.00534072
2850	0.00649383
2862	0.00758625
2874	0.00934626
2886	0.0125021
2898	0.0134125
2910	0.0101959
2922	0.00825384
2934	0.00691866
2946	0.006069
2958	0.00473382
2970	0.00370209
2982	0.00388416
2994	0.00406623
3006	0.00327726
3018	0.00358071
3030	0.00376278
3042	0.00418761
3054	0.00582624
3066	0.0105601
3078	0.0222732
3090	0.0277353
3102	0.0190567
3114	0.0115311
3126	0.0097104
3138	0.00928557
3150	0.00570486
3162	0.00309519
3174	0.00188139
3186	0.00206346
3198	0.00230622
3210	0.0024276
3222	0.00260967
3234	0.00260967
3246	0.00291312
3258	0.0024276
3270	0.00267036
3282	0.00230622
3294	0.00273105
3306	0.00254898
3318	0.0024276
3330	0.00218484
3342	0.00236691
3354	0.0024276
3366	0.00254898
3378	0.00236691
3390	0.00169932
3402	0.00236691
3414	0.00273105
3426	0.00224553
3438	0.00309519
3450	0.00236691
3462	0.00267036
3474	0.00279174
3486	0.00212415
3498	0.00248829
3510	0.00285243
3522	0.00309519
3534	0.00285243
3546	0.00279174
3558	0.00321657
3570	0.00370209
3582	0.00291312
3594	0.00345933
3606	0.0024276
3618	0.00236691
3630	0.0042483
3642	0.00230622
3654	0.00248829
3666	0.00254898
3678	0.00382347
3690	0.00273105
3702	0.0030345
3714	0.00309519
3726	0.00388416
3738	0.0036414
3750	0.00309519
3762	0.00254898
3774	0.00345933
3786	0.00157794
3798	0.0030345
3810	0.00236691
3822	0.00443037
3834	0.00260967
3846	0.00333795
3858	0.00339864
3870	0.00254898
3882	0.00254898
3894	0.00279174
3906	0.00285243
3918	0.00412692
3930	0.00473382
3942	0.00206346
3954	0.00212415
3966	0.00352002
