Infrared Spectrum: Acetic acid, 2-methoxyethyl ester
Formula: C 5 H 10 O 3
CAS: 32718-56-2
Origin: Sadtler Research Labs Under US-EPA Contract
1/CM	ABSORBANCE
450	0
462	0.00657727
474	0.0179961
486	0.0263091
498	0.00182702
510	0.0264004
522	0.0142508
534	0.0234772
546	0.0209194
558	0.01014
570	0.0139767
582	0.0136113
594	0.0158951
606	0.0318815
618	0.0255783
630	0.0274967
642	0.0347134
654	0.0252129
666	0.0266745
678	0.0143421
690	0.0144335
702	0.0154383
714	0.0196405
726	0.0199145
738	0.0142508
750	0.0217415
762	0.0131545
774	0.0178134
786	0.0116929
798	0.019001
810	0.0168086
822	0.0194578
834	0.0308766
846	0.0330691
858	0.0357182
870	0.0326123
882	0.0190924
894	0.0169913
906	0.0172653
918	0.0307853
930	0.0448533
942	0.0490555
954	0.0341653
966	0.022381
978	0.034348
990	0.0374539
1002	0.0467717
1014	0.0426609
1026	0.0758213
1038	0.135565
1050	0.192933
1062	0.23733
1074	0.200607
1086	0.138214
1098	0.115285
1110	0.112453
1122	0.147532
1134	0.254595
1146	0.263091
1158	0.143786
1170	0.0904375
1182	0.0849564
1194	0.141137
1206	0.221069
1218	0.36376
1230	0.798773
1242	0.838419
1254	0.385136
1266	0.189645
1278	0.135839
1290	0.0951877
1302	0.0573684
1314	0.0318815
1326	0.0221983
1338	0.0225637
1350	0.0374539
1362	0.100212
1374	0.165437
1386	0.134834
1398	0.0855045
1410	0.0563636
1422	0.0337999
1434	0.0388242
1446	0.0521614
1458	0.0682392
1470	0.057003
1482	0.0338912
1494	0.0218329
1506	0.0162605
1518	0.0135199
1530	0.0115102
1542	0.00940915
1554	0.0095005
1566	0.00858699
1578	0.00749078
1590	0.00621187
1602	0.00557241
1614	0.00575511
1626	0.00666862
1638	0.00666862
1650	0.00739943
1662	0.0093178
1674	0.00968321
1686	0.0111448
1698	0.0146162
1710	0.0234772
1722	0.0393723
1734	0.0781965
1746	0.199237
1758	0.490007
1770	0.565919
1782	0.273139
1794	0.0943656
1806	0.0367231
1818	0.0198232
1830	0.0130632
1842	0.0095005
1854	0.00776484
1866	0.00776484
1878	0.00739943
1890	0.00703403
1902	0.00694268
1914	0.00657727
1926	0.00612052
1938	0.00602917
1950	0.00566376
1962	0.00538971
1974	0.00621187
1986	0.00630322
1998	0.00685133
2010	0.00749078
2022	0.00785619
2034	0.00858699
2046	0.00867835
2058	0.00867835
2070	0.00867835
2082	0.00959185
2094	0.00959185
2106	0.00813024
2118	0.00675997
2130	0.00575511
2142	0.00475025
2154	0.00438485
2166	0.00420215
2178	0.00475025
2190	0.00392809
2202	0.00347134
2214	0.00301458
2226	0.00310593
2238	0.00337999
2250	0.00328864
2262	0.00274053
2274	0.00283188
2286	0.00301458
2298	0.00310593
2310	0.00319728
2322	0.00219242
2334	0.00237513
2346	0.00310593
2358	0.00283188
2370	0.00319728
2382	0.00255783
2394	0.00228378
2406	0.00274053
2418	0.00264918
2430	0.00237513
2442	0.00255783
2454	0.00283188
2466	0.00337999
2478	0.00301458
2490	0.00274053
2502	0.00173567
2514	0.00200972
2526	0.00164432
2538	0.00219242
2550	0.00182702
2562	0.00237513
2574	0.00255783
2586	0.00310593
2598	0.00374539
2610	0.00347134
2622	0.00365404
2634	0.00337999
2646	0.00365404
2658	0.00347134
2670	0.0041108
2682	0.00420215
2694	0.00475025
2706	0.00602917
2718	0.00858699
2730	0.0108708
2742	0.0111448
2754	0.0110535
2766	0.0116016
2778	0.0144335
2790	0.0190924
2802	0.0290496
2814	0.0537144
2826	0.0899807
2838	0.0944569
2850	0.0889759
2862	0.0940915
2874	0.110169
2886	0.132916
2898	0.135108
2910	0.120492
2922	0.113458
2934	0.127891
2946	0.132002
2958	0.130084
2970	0.116838
2982	0.105236
2994	0.116016
3006	0.0851391
3018	0.0385501
3030	0.0243907
3042	0.0197318
3054	0.017448
3066	0.0152556
3078	0.0130632
3090	0.0110535
3102	0.00858699
3114	0.00758213
3126	0.00557241
3138	0.0046589
3150	0.00347134
3162	0.00319728
3174	0.00310593
3186	0.00246648
3198	0.00255783
3210	0.00228378
3222	0.00219242
3234	0.00182702
3246	0.00274053
3258	0.00219242
3270	0.00155297
3282	0.00228378
3294	0.00274053
3306	0.00200972
3318	0.00264918
3330	0.00255783
3342	0.00246648
3354	0.00283188
3366	0.00319728
3378	0.00237513
3390	0.00237513
3402	0.00246648
3414	0.00200972
3426	0.00292323
3438	0.00283188
3450	0.00328864
3462	0.00301458
3474	0.00283188
3486	0.00337999
3498	0.00602917
3510	0.00785619
3522	0.00639457
3534	0.00520701
3546	0.00337999
3558	0.00292323
3570	0.00310593
3582	0.00264918
3594	0.00200972
3606	0.00301458
3618	0.00274053
3630	0.00210107
3642	0.00301458
3654	0.00328864
3666	0.00292323
3678	0.00219242
3690	0.00319728
3702	0.00228378
3714	0.00237513
3726	0.00274053
3738	0.00356269
3750	0.00191837
3762	0.00246648
3774	0.00301458
3786	0.00356269
3798	0.00356269
3810	0.00173567
3822	0.00182702
3834	0.0048416
3846	0.00173567
3858	0.00347134
3870	0.00392809
3882	0.0041108
3894	0.00557241
3906	0.00164432
3918	0.00337999
3930	0.00264918
3942	0.0046589
3954	0.00319728
3966	0.00520701
