Infrared Spectrum: 3-Methyl-p-anisaldehyde
Formula: C 9 H 10 O 2
CAS: 32723-67-4
Origin: Sadtler Research Labs Under US-EPA Contract
1/CM	ABSORBANCE
450	0.0122714
462	0.00772897
474	0.00176275
486	0.00806796
498	0.0110511
510	0.00494925
522	0.006712
534	0.00732218
546	0.0114579
558	0.013085
570	0.00922053
582	0.00637301
594	0.0033899
606	0.00732218
618	0.0301701
630	0.0267124
642	0.0367465
654	0.00447467
666	0.000542384
678	0.00108477
690	0.00467806
702	0.00318651
714	0.00223733
726	0.0111867
738	0.0403398
750	0.0224411
762	0.015119
774	0.032882
786	0.0303735
798	0.0348482
810	0.0629165
822	0.0410856
834	0.0113223
846	0.00237293
858	0.000813576
870	0.00488146
882	0.0126782
894	0.0153223
906	0.0131528
918	0.00793237
930	0.0195258
942	0.0227801
954	0.0318651
966	0.0168139
978	0.00969511
990	0.0114579
1002	0.0139664
1014	0.0169495
1026	0.0489502
1038	0.100138
1050	0.0537638
1062	0.0140342
1074	0.00976291
1086	0.0120002
1098	0.0248141
1110	0.080544
1122	0.279328
1134	0.20258
1146	0.0446789
1158	0.0546452
1170	0.0273226
1182	0.0219666
1194	0.0154579
1206	0.014102
1218	0.0364753
1230	0.0593233
1242	0.132409
1254	0.577842
1266	0.494044
1278	0.11763
1290	0.0711201
1302	0.0606114
1314	0.095324
1326	0.0658319
1338	0.0203394
1350	0.0151868
1362	0.0205428
1374	0.0344414
1386	0.0444077
1398	0.0347804
1410	0.0139664
1422	0.0231191
1434	0.0286108
1446	0.061764
1458	0.0642725
1470	0.0811542
1482	0.0568825
1494	0.119799
1506	0.207597
1518	0.0656963
1530	0.0177631
1542	0.0145766
1554	0.0145088
1566	0.0202716
1578	0.0515943
1590	0.133359
1602	0.275463
1614	0.223869
1626	0.0491536
1638	0.0189834
1650	0.0122714
1662	0.0120002
1674	0.021153
1686	0.0418314
1698	0.126647
1710	0.378584
1722	0.480078
1734	0.118782
1746	0.0215598
1758	0.013085
1770	0.0107121
1782	0.00766117
1794	0.00840695
1806	0.0069154
1818	0.00515265
1830	0.00535604
1842	0.00406788
1854	0.00454247
1866	0.00603402
1878	0.00542384
1890	0.00705099
1902	0.00508485
1914	0.0033221
1926	0.00298311
1938	0.0033221
1950	0.0032543
1962	0.00257632
1974	0.00257632
1986	0.00318651
1998	0.00522045
2010	0.00840695
2022	0.00549164
2034	0.00386449
2046	0.00447467
2058	0.00589843
2070	0.00732218
2082	0.00562723
2094	0.00257632
2106	0.00223733
2118	0.00176275
2130	0.00216954
2142	0.00244073
2154	0.00244073
2166	0.00284752
2178	0.00203394
2190	0.00216954
2202	0.00291531
2214	0.00305091
2226	0.00277972
2238	0.00291531
2250	0.00386449
2262	0.00427127
2274	0.00257632
2286	0.00149156
2298	0.00108477
2310	0.00033899
2322	0
2334	0.00128816
2346	0.00291531
2358	0.00189834
2370	0.00237293
2382	0.00359329
2394	0.00264412
2406	0.00257632
2418	0.00210174
2430	0.00196614
2442	0.00244073
2454	0.00237293
2466	0.00230513
2478	0.00196614
2490	0.00244073
2502	0.00386449
2514	0.00589843
2526	0.00542384
2538	0.00508485
2550	0.00508485
2562	0.00562723
2574	0.00745778
2586	0.00698319
2598	0.00549164
2610	0.00589843
2622	0.00603402
2634	0.00630521
2646	0.00725439
2658	0.00725439
2670	0.00793237
2682	0.00935612
2694	0.01878
2706	0.0557978
2718	0.0954596
2730	0.0713913
2742	0.0313905
2754	0.0248141
2766	0.0312549
2778	0.032882
2790	0.0370177
2802	0.0613572
2814	0.0703065
2826	0.0460348
2838	0.0397296
2850	0.0571537
2862	0.035255
2874	0.026848
2886	0.0231869
2898	0.0267124
2910	0.0414924
2922	0.0560689
2934	0.0614928
2946	0.0816966
2958	0.0858323
2970	0.0727473
2982	0.0437975
2994	0.0338312
3006	0.0522045
3018	0.0656963
3030	0.0265768
3042	0.0200004
3054	0.0195936
3066	0.0160681
3078	0.0166105
3090	0.0157291
3102	0.0115257
3114	0.00949172
3126	0.006712
3138	0.00379669
3150	0.00277972
3162	0.00196614
3174	0.00257632
3186	0.00291531
3198	0.00230513
3210	0.00244073
3222	0.00135596
3234	0.00142376
3246	0.00135596
3258	0.000745778
3270	0.000949172
3282	0.000745778
3294	0.00122036
3306	0.000949172
3318	0.00176275
3330	0.00108477
3342	0.00155935
3354	0.000745778
3366	0.00155935
3378	0.000949172
3390	0.00271192
3402	0.00623742
3414	0.0067798
3426	0.00311871
3438	0.00122036
3450	0.00115257
3462	0.00128816
3474	0.00108477
3486	0.00115257
3498	0.000745778
3510	0.00067798
3522	0.00149156
3534	0.000135596
3546	0.00067798
3558	0.00142376
3570	0.000949172
3582	0.000406788
3594	0.00128816
3606	0.000881374
3618	0.000474586
3630	0.000271192
3642	0.00067798
3654	0.00128816
3666	0.00122036
3678	0.000406788
3690	0.00149156
3702	0.000406788
3714	0.00101697
3726	0.000949172
3738	0.00128816
3750	0.00101697
3762	0.000881374
3774	0.000474586
3786	0.00196614
3798	0.00101697
3810	0.00142376
3822	0.00135596
3834	0.00169495
3846	0.00203394
3858	0.00149156
3870	0.00108477
3882	0.000610182
3894	0.000813576
3906	0.00128816
3918	0.000542384
3930	0.00115257
3942	0.00162715
3954	0.00203394
3966	0.00155935
