Infrared Spectrum: 2(1H)-Pyridinone, 6-methyl-
Formula: C 6 H 7 N O
CAS: 3279-76-3
Origin: Sadtler Research Labs Under US-EPA Contract
1/CM	ABSORBANCE
450	0.123377
462	0.179661
474	0.150587
486	0.167584
498	0.100043
510	0.0545691
522	0.02721
534	0.0328011
546	0.0354848
558	0.0501708
570	0.0182643
582	0.00849847
594	0.00253463
606	0.00812573
618	0.00551655
630	0.00223644
642	0.00812573
654	0.0337702
666	0.0493508
678	0.0480835
690	0.0275082
702	0.0137914
714	0.0292228
726	0.0511399
738	0.0517363
750	0.0234826
762	0.0452506
774	0.144325
786	0.35209
798	0.179288
810	0.069926
822	0.0187861
834	0.0172206
846	0.0251972
858	0.0151332
870	0.0093185
882	0.0117786
894	0.0291483
906	0.0357085
918	0.0226626
930	0.0150587
942	0.00812573
954	0.00506926
966	0.00797664
978	0.0301919
990	0.0602348
1002	0.0688078
1014	0.0231844
1026	0.0180406
1038	0.0164751
1050	0.0158787
1062	0.0219917
1074	0.048978
1086	0.0560601
1098	0.0355594
1110	0.0169969
1122	0.048978
1134	0.2267
1146	0.273666
1158	0.18719
1170	0.268149
1182	0.362154
1194	0.311536
1206	0.108393
1218	0.0795427
1230	0.0556128
1242	0.0301919
1254	0.0275082
1266	0.0588929
1278	0.128297
1290	0.181673
1302	0.155507
1314	0.104218
1326	0.0696278
1338	0.0453252
1350	0.0109586
1362	0.00670932
1374	0.0164006
1386	0.0306392
1398	0.0373485
1410	0.0476362
1422	0.120917
1434	0.282611
1446	0.362303
1458	0.318842
1470	0.3216
1482	0.253538
1494	0.118457
1506	0.066795
1518	0.0630676
1530	0.0866993
1542	0.114208
1554	0.173995
1566	0.269044
1578	0.396521
1590	0.46846
1602	0.417842
1614	0.370578
1626	0.367894
1638	0.24817
1650	0.128223
1662	0.136423
1674	0.383251
1686	0.381909
1698	0.65811
1710	0.74548
1722	0.4906
1734	0.268298
1746	0.177052
1758	0.127179
1770	0.0606075
1782	0.0358576
1794	0.0244517
1806	0.0198298
1818	0.00894576
1830	0.00402559
1842	0.00335466
1854	0.00253463
1866	0.000969124
1878	0.000820028
1890	0.00037274
1902	0.00134186
1914	0.00208734
1926	0.00350376
1938	0.00700751
1950	0.00790209
1962	0.00566565
1974	0.00134186
1986	0.00037274
1998	0.00037274
2010	0.000596384
2022	7.4548e-05
2034	0.000521836
2046	0.00141641
2058	0.00164006
2070	0.00141641
2082	0.000670932
2094	0.000447288
2106	0.000969124
2118	0.000894576
2130	0.000447288
2142	7.4548e-05
2154	0.00111822
2166	0.000894576
2178	0.000894576
2190	0.00104367
2202	0.00164006
2214	0.00156551
2226	0.00141641
2238	0.00126732
2250	0.000521836
2262	0.000670932
2274	0.0018637
2286	0.00335466
2298	0.00588929
2310	0.00790209
2322	0.00693296
2334	0.00477107
2346	0.00492017
2358	0.00439833
2370	0.00670932
2382	0.00827483
2394	0.0074548
2406	0.00805118
2418	0.00864757
2430	0.0091694
2442	0.0102131
2454	0.0102876
2466	0.00954214
2478	0.00887121
2490	0.00834938
2502	0.00909486
2514	0.00909486
2526	0.00752935
2538	0.00782754
2550	0.00849847
2562	0.00902031
2574	0.00961669
2586	0.0101385
2598	0.0109586
2610	0.0114804
2622	0.0122259
2634	0.0122259
2646	0.0124495
2658	0.013195
2670	0.014015
2682	0.014015
2694	0.0137914
2706	0.014015
2718	0.0146114
2730	0.0166988
2742	0.0202025
2754	0.0220662
2766	0.023259
2778	0.0238554
2790	0.02557
2802	0.0281046
2814	0.0296701
2826	0.0308629
2838	0.0323538
2850	0.0355594
2862	0.0427906
2874	0.0468907
2886	0.045027
2898	0.0457725
2910	0.0536
2922	0.0743989
2934	0.0959433
2946	0.0891594
2958	0.0678387
2970	0.0623967
2982	0.0579983
2994	0.0588929
3006	0.0577002
3018	0.0524818
3030	0.0577002
3042	0.0735043
3054	0.0800646
3066	0.0772317
3078	0.0706715
3090	0.066795
3102	0.0543455
3114	0.0373485
3126	0.0298937
3138	0.0264645
3150	0.0240045
3162	0.0213207
3174	0.0182643
3186	0.0160278
3198	0.0134932
3210	0.0114058
3222	0.00939305
3234	0.00827483
3246	0.00790209
3258	0.00790209
3270	0.00820028
3282	0.00738025
3294	0.00738025
3306	0.00685842
3318	0.0057402
3330	0.00499472
3342	0.00410014
3354	0.00335466
3366	0.00305647
3378	0.0035783
3390	0.00611294
3402	0.0205007
3414	0.0615766
3426	0.0667205
3438	0.0482326
3450	0.0091694
3462	0.00231099
3474	0.00178915
3486	0.00149096
3498	0.00126732
3510	0.0018637
3522	0.00149096
3534	0.00246008
3546	0.00208734
3558	0.0035783
3570	0.0208734
3582	0.123153
3594	0.17325
3606	0.178692
3618	0.0304156
3630	0.00596384
3642	0.00298192
3654	0.00521836
3666	0.0037274
3678	0.00134186
3690	0.00134186
3702	0.00208734
3714	0.00178915
3726	0.00141641
3738	0.0017146
3750	0.00119277
3762	0.00283282
3774	0.00231099
3786	0.00246008
3798	0.00193825
3810	0.00223644
3822	0.00320556
3834	0.00268373
3846	0.00223644
3858	0.00275828
3870	0.00238554
3882	0.00275828
3894	0.00342921
3906	0.0038765
3918	0.00149096
3930	0.0017146
3942	0.00275828
3954	0.00298192
3966	0.00253463
