Infrared Spectrum: Benzenamine, 3,5-bis(trifluoromethyl)-
Formula: C 8 H 5 F 6 N
CAS: 328-74-5
Origin: Sadtler Research Labs Under US-EPA Contract
1/CM	ABSORBANCE
450	0.0201239
462	0.0169935
474	0.0201239
486	0.0144594
498	0.0144594
510	0.0174407
522	0.0166954
534	0.024894
546	0.0138631
558	0.0108818
570	0.0119253
582	0.0105837
594	0.00283225
606	0.0126706
618	0.0123725
630	0.00506824
642	0.00924209
654	0.0229562
666	0.0672288
678	0.138035
690	0.158308
702	0.0864583
714	0.0423347
726	0.0447198
738	0.0263847
750	0.0143103
762	0.00924209
774	0.0079005
786	0.00596264
798	0.00983836
810	0.0126706
822	0.0141613
834	0.0198258
846	0.0576885
858	0.0386081
870	0.102408
882	0.0752783
894	0.0134159
906	0.00968929
918	0.0128197
930	0.0245959
942	0.108818
954	0.0570923
966	0.00804956
978	0.00968929
990	0.0116271
1002	0.0283225
1014	0.0102856
1026	0.00521731
1038	0.00596264
1050	0.00864583
1062	0.0169935
1074	0.0365212
1086	0.0296641
1098	0.0263847
1110	0.0253412
1122	0.0536638
1134	0.0962966
1146	0.592686
1158	1.05017
1170	0.201984
1182	0.784683
1194	0.613705
1206	0.099427
1218	0.0515768
1230	0.0347324
1242	0.0585829
1254	0.0588811
1266	0.10047
1278	1.02065
1290	0.743988
1302	0.0782597
1314	0.0237015
1326	0.0232543
1338	0.0163973
1350	0.0189314
1362	0.02713
1374	0.0746821
1386	0.3591
1398	0.433186
1410	0.0591792
1422	0.015801
1434	0.0102856
1446	0.0159501
1458	0.0558997
1470	0.0962966
1482	0.0536638
1494	0.0263847
1506	0.0101365
1518	0.00819863
1530	0.0065589
1542	0.00715517
1554	0.0083477
1566	0.0116271
1578	0.0166954
1590	0.0146085
1602	0.0199748
1614	0.0524712
1626	0.115377
1638	0.196767
1650	0.0863092
1662	0.0211674
1674	0.0129687
1686	0.00864583
1698	0.0065589
1710	0.00894396
1722	0.0107328
1734	0.0102856
1746	0.0155029
1758	0.0175898
1770	0.00968929
1782	0.00879489
1794	0.0065589
1806	0.00596264
1818	0.00551544
1830	0.00447198
1842	0.00342852
1854	0.00477011
1866	0.00402478
1878	0.00447198
1890	0.00432291
1902	0.00536638
1914	0.00551544
1926	0.00551544
1938	0.00521731
1950	0.00491918
1962	0.00387572
1974	0.00462105
1986	0.00447198
1998	0.00432291
2010	0.00357758
2022	0.00193786
2034	0.00208692
2046	0.000447198
2058	0.000596264
2070	0.00477011
2082	0.00477011
2094	0.00432291
2106	0.00477011
2118	0.00477011
2130	0.00491918
2142	0.00447198
2154	0.00447198
2166	0.00432291
2178	0.00506824
2190	0.00640984
2202	0.00536638
2214	0.00477011
2226	0.00491918
2238	0.00596264
2250	0.00596264
2262	0.00477011
2274	0.00551544
2286	0.00640984
2298	0.00730423
2310	0.00685704
2322	0.00760237
2334	0.00491918
2346	0.000149066
2358	0.00491918
2370	0
2382	0
2394	0.00387572
2406	0.00462105
2418	0.00402478
2430	0.00372665
2442	0.00313039
2454	0.00298132
2466	0.00268319
2478	0.00223599
2490	0.00223599
2502	0.00253412
2514	0.00193786
2526	0.00223599
2538	0.00149066
2550	0.00193786
2562	0.00238506
2574	0.00223599
2586	0.00238506
2598	0.00208692
2610	0.00193786
2622	0.00313039
2634	0.00462105
2646	0.00640984
2658	0.00626077
2670	0.00804956
2682	0.0074533
2694	0.00313039
2706	0.00104346
2718	0.000894396
2730	0.00119253
2742	0.000596264
2754	0.000298132
2766	0.000447198
2778	0.000149066
2790	0.000298132
2802	0.000447198
2814	0.000596264
2826	0.00119253
2838	0.000149066
2850	0.00163973
2862	0.00253412
2874	0.00387572
2886	0.00357758
2898	0.00357758
2910	0.00193786
2922	0.00387572
2934	0.0065589
2946	0.00760237
2958	0.00551544
2970	0.00626077
2982	0.00462105
2994	0.00313039
3006	0.00387572
3018	0.00402478
3030	0.00313039
3042	0.00462105
3054	0.011329
3066	0.0079005
3078	0.00521731
3090	0.00447198
3102	0.00387572
3114	0.00342852
3126	0.00387572
3138	0.00342852
3150	0.00372665
3162	0.00298132
3174	0.00327945
3186	0.00387572
3198	0.00402478
3210	0.00521731
3222	0.00819863
3234	0.0070061
3246	0.0070061
3258	0.00611171
3270	0.00521731
3282	0.00611171
3294	0.00640984
3306	0.00611171
3318	0.0070061
3330	0.00715517
3342	0.00715517
3354	0.00760237
3366	0.0083477
3378	0.00819863
3390	0.0102856
3402	0.0144594
3414	0.0275772
3426	0.0368193
3438	0.0400988
3450	0.0177389
3462	0.00954022
3474	0.00954022
3486	0.0116271
3498	0.018037
3510	0.0195276
3522	0.0165463
3534	0.022509
3546	0.00372665
3558	0.00521731
3570	0.00462105
3582	0.00596264
3594	0.00447198
3606	0.00611171
3618	0.00327945
3630	0.00372665
3642	0.00491918
3654	0.00193786
3666	0.00283225
3678	0.00506824
3690	0.00611171
3702	0.00238506
3714	0.00462105
3726	0.00283225
3738	0.00253412
3750	0.00387572
3762	0.00462105
3774	0.00283225
3786	0.00432291
3798	0.00104346
3810	0.00238506
3822	0.00268319
3834	0.00283225
3846	0.00432291
3858	0.00685704
3870	0.00417385
3882	0.00313039
3894	0.00283225
3906	0.00298132
3918	0.00178879
3930	0.00491918
3942	0.00670797
3954	0.00924209
3966	0.00298132
