Infrared Spectrum: Acetanilide, 2,4'-dichloro-,
Formula: C 8 H 7 Cl 2 N O
CAS: 3289-75-6
Origin: Sadtler Research Labs Under US-EPA Contract
1/CM	ABSORBANCE
450	0.0161192
462	0.00610455
474	0.0104136
486	0.0177152
498	0.0356298
510	0.0200293
522	0.0132864
534	0.0134859
546	0.0180343
558	0.0188323
570	0.0118101
582	0.00702222
594	0.00857828
606	0.0108126
618	0.00909697
630	0.00666313
642	0.00558586
654	0.00462828
666	0.00458838
678	0.0041894
690	0.0037904
702	0.00969546
714	0.0310015
726	0.0235404
738	0.00993485
750	0.00961566
762	0.0257349
774	0.0539434
786	0.020947
798	0.0212263
810	0.0345126
822	0.0506318
834	0.0555394
846	0.0203884
858	0.00578535
870	0.00319192
882	0.00135657
894	0.00163586
906	0.00163586
918	0.00291263
930	0.00291263
942	0.00163586
954	0.00155606
966	0.00155606
978	0.000837879
990	0.00235404
1002	0.00554596
1014	0.0393803
1026	0.00650354
1038	0.00482778
1050	0.00586515
1062	0.00670303
1074	0.0121293
1086	0.0443278
1098	0.109762
1110	0.0376647
1122	0.0254556
1134	0.0140843
1146	0.0126081
1158	0.012648
1170	0.0172763
1182	0.0227823
1194	0.018154
1206	0.0237
1218	0.0338743
1230	0.0582126
1242	0.0596091
1254	0.0502727
1266	0.0567364
1278	0.0733344
1290	0.0417743
1302	0.055699
1314	0.0568561
1326	0.0252162
1338	0.0241788
1350	0.0157601
1362	0.0144833
1374	0.0177152
1386	0.0318394
1398	0.089693
1410	0.0471606
1422	0.0361086
1434	0.0246576
1446	0.0224631
1458	0.028448
1470	0.0333955
1482	0.0743318
1494	0.272989
1506	0.30403
1518	0.384626
1530	0.304828
1542	0.0957177
1554	0.048996
1566	0.0308419
1578	0.0363081
1590	0.0882167
1602	0.0809152
1614	0.0297647
1626	0.0234606
1638	0.018154
1650	0.0145232
1662	0.0158399
1674	0.0207475
1686	0.0268919
1698	0.0456445
1710	0.14619
1722	0.269119
1734	0.137971
1746	0.0445672
1758	0.0272111
1770	0.0199096
1782	0.0153611
1794	0.0125283
1806	0.00953586
1818	0.00654344
1830	0.00442879
1842	0.0038702
1854	0.00446869
1866	0.00498737
1878	0.00486768
1890	0.00438889
1902	0.00339142
1914	0.00239394
1926	0.00167576
1938	0.00131667
1950	0.00107727
1962	0.00079798
1974	0.00079798
1986	0.000598485
1998	0.000638384
2010	0.000598485
2022	0.000917677
2034	0.00143636
2046	0.00163586
2058	0.00211465
2070	0.00275303
2082	0.00283283
2094	0.00243384
2106	0.00235404
2118	0.00239394
2130	0.00207475
2142	0.00147626
2154	0.00223434
2166	0.00307222
2178	0.00343131
2190	0.00315202
2202	0.00283283
2214	0.00239394
2226	0.00251364
2238	0.00247374
2250	0.00343131
2262	0.00706212
2274	0.0116904
2286	0.00993485
2298	0.00929647
2310	0.00825909
2322	0.00674293
2334	0.00522677
2346	0.00618434
2358	0.00650354
2370	0.00538636
2382	0.00482778
2394	0.00131667
2406	0.00103737
2418	0.000758081
2430	0.00107727
2442	0.000997475
2454	0.00147626
2466	0.00127677
2478	0.00139646
2490	0.00079798
2502	0.000678283
2514	0.000718182
2526	0.000678283
2538	0.000598485
2550	0.000279293
2562	0.000319192
2574	0.000478788
2586	0.000438889
2598	0.00039899
2610	0.000159596
2622	0.000718182
2634	0.000598485
2646	0.000558586
2658	0.000877778
2670	0.00139646
2682	0.00195505
2694	0.00115707
2706	0.00251364
2718	0.00151616
2730	0.00307222
2742	0.00151616
2754	0.0037904
2766	0.00119697
2778	0.00339142
2790	0.000957576
2802	0.00343131
2814	0.00163586
2826	0.00255354
2838	0.00163586
2850	0.00139646
2862	0.00271313
2874	0.00247374
2886	0.00275303
2898	0.00311212
2910	0.00307222
2922	0.00395
2934	0.0041894
2946	0.00750101
2958	0.00526667
2970	0.00694243
2982	0.00945606
2994	0.00690253
3006	0.0039101
3018	0.00618434
3030	0.0103737
3042	0.0147626
3054	0.00658334
3066	0.00570556
3078	0.00638384
3090	0.00706212
3102	0.0078601
3114	0.00594495
3126	0.0039899
3138	0.00287273
3150	0.00247374
3162	0.00231414
3174	0.00195505
3186	0.00215455
3198	0.00235404
3210	0.00199495
3222	0.00243384
3234	0.00239394
3246	0.00239394
3258	0.00251364
3270	0.00231414
3282	0.00223434
3294	0.00267323
3306	0.00227424
3318	0.00287273
3330	0.00251364
3342	0.00247374
3354	0.00207475
3366	0.00259343
3378	0.00363081
3390	0.00442879
3402	0.00853839
3414	0.0219843
3426	0.0629606
3438	0.0539035
3450	0.0126081
3462	0.00486768
3474	0.00315202
3486	0.00287273
3498	0.00115707
3510	0.00179545
3522	0.000957576
3534	0.00039899
3546	0.00127677
3558	0.00119697
3570	0.00159596
3582	0.00155606
3594	0.00167576
3606	0.000638384
3618	0.00079798
3630	0.000478788
3642	0.000678283
3654	0.000718182
3666	0.000997475
3678	3.9899e-05
3690	0.000997475
3702	0.00107727
3714	0.000678283
3726	0.00119697
3738	0.00135657
3750	7.9798e-05
3762	0.000837879
3774	0.000917677
3786	0.000877778
3798	0.00107727
3810	0.000877778
3822	0.000957576
3834	0.00135657
3846	0.00079798
3858	0.00147626
3870	0.00159596
3882	0.00127677
3894	0.00079798
3906	0.00135657
3918	0.00103737
3930	0.00175556
3942	0.000678283
3954	0.00195505
3966	0.00139646
