Infrared Spectrum: Benzene, 1-isocyanato-3-(trifluoromethyl)-
Formula: C 8 H 4 F 3 N O
CAS: 329-01-1
Origin: Sadtler Research Labs Under US-EPA Contract
1/CM	ABSORBANCE
450	0.00924757
462	0.0107077
474	0.00892309
486	0.00730071
498	0.00730071
510	0.00519162
522	0.0107077
534	0.0047049
546	0.00632728
558	0.0107077
570	0.0194686
582	0.0254714
594	0.0230378
606	0.027256
618	0.0462378
630	0.0296896
642	0.0399105
654	0.074305
666	0.109024
678	0.0893931
690	0.109024
702	0.103508
714	0.0329343
726	0.0261203
738	0.0551609
750	0.0223888
762	0.0113567
774	0.0287161
786	0.0908533
798	0.097505
810	0.0267693
822	0.0133035
834	0.0175217
846	0.06814
858	0.090691
870	0.040235
882	0.05727
894	0.0812812
906	0.0397483
918	0.00794966
930	0.00210909
942	0.00210909
954	0.00178462
966	0.00356924
978	0.00421819
990	0.00794966
1002	0.0142769
1014	0.0111944
1026	0.00973428
1038	0.0111944
1050	0.0259581
1062	0.125897
1074	0.187385
1086	0.130115
1098	0.0858239
1110	0.0705735
1122	0.12249
1134	0.259905
1146	0.683995
1158	0.673774
1170	0.437556
1182	0.615044
1194	0.208314
1206	0.0644085
1218	0.0434798
1230	0.0446154
1242	0.0721959
1254	0.108537
1266	0.105455
1278	0.101723
1290	0.067491
1302	0.180733
1314	0.373959
1326	0.935951
1338	0.461567
1350	0.170188
1362	0.0345567
1374	0.0173595
1386	0.0180084
1398	0.0212532
1410	0.0366658
1422	0.0499693
1434	0.0502938
1446	0.0650574
1458	0.100588
1470	0.142283
1482	0.0765763
1494	0.090691
1506	0.131413
1518	0.113891
1530	0.0603525
1542	0.0418574
1554	0.0376392
1566	0.0345567
1578	0.0488336
1590	0.0877708
1602	0.106266
1614	0.134333
1626	0.136118
1638	0.0775498
1650	0.0360168
1662	0.0214154
1674	0.0193063
1686	0.0184951
1698	0.0212532
1710	0.0184951
1722	0.0131413
1734	0.0150881
1746	0.0142769
1758	0.0118434
1770	0.0131413
1782	0.0141147
1794	0.0144392
1806	0.00973428
1818	0.00730071
1830	0.00502938
1842	0.00324476
1854	0.003407
1866	0.00389371
1878	0.00584057
1890	0.00438043
1902	0.00292028
1914	0.00308252
1926	0.003407
1938	0.00373147
1950	0.00308252
1962	0.0012979
1974	0.0012979
1986	0.00162238
1998	0.00146014
2010	0.0012979
2022	0.00113567
2034	0.00113567
2046	0.00210909
2058	0.00389371
2070	0.00502938
2082	0.00584057
2094	0.00697623
2106	0.00746295
2118	0.0107077
2130	0.0149259
2142	0.0223888
2154	0.0327721
2166	0.0429931
2178	0.0559721
2190	0.067491
2202	0.0958827
2214	0.138551
2226	0.176353
2238	0.279536
2250	0.517864
2262	0.887117
2274	1.57436
2286	1.25718
2298	0.451671
2310	0.304358
2322	0.304683
2334	0.286188
2346	0.254551
2358	0.28927
2370	0.219184
2382	0.104157
2394	0.0298518
2406	0.0183329
2418	0.012979
2430	0.0110322
2442	0.00908533
2454	0.00778742
2466	0.00713847
2478	0.00535385
2490	0.00292028
2502	0.00210909
2514	0.00113567
2526	0.00113567
2538	0.0012979
2550	0.000486714
2562	0.000486714
2574	0.00081119
2586	0.0012979
2598	0.000973428
2610	0.000973428
2622	0.00113567
2634	0.00113567
2646	0.0012979
2658	0.0012979
2670	0.00194686
2682	0.00194686
2694	0.00210909
2706	0.00227133
2718	0.00227133
2730	0.00308252
2742	0.00373147
2754	0.00405595
2766	0.00324476
2778	0.00308252
2790	0.00275805
2802	0.00275805
2814	0.00275805
2826	0.00275805
2838	0.00308252
2850	0.00356924
2862	0.00454266
2874	0.00486714
2886	0.00486714
2898	0.00567833
2910	0.00730071
2922	0.00957204
2934	0.0103832
2946	0.00892309
2958	0.00778742
2970	0.00713847
2982	0.00778742
2994	0.00778742
3006	0.0081119
3018	0.010221
3030	0.0149259
3042	0.0162238
3054	0.0176839
3066	0.0225511
3078	0.0246602
3090	0.0215777
3102	0.0147637
3114	0.0126546
3126	0.0126546
3138	0.00973428
3150	0.00713847
3162	0.00600281
3174	0.00567833
3186	0.00551609
3198	0.00519162
3210	0.00519162
3222	0.00551609
3234	0.00567833
3246	0.00502938
3258	0.00502938
3270	0.00519162
3282	0.00502938
3294	0.00519162
3306	0.00502938
3318	0.00454266
3330	0.0047049
3342	0.00519162
3354	0.00600281
3366	0.00665176
3378	0.00762519
3390	0.00908533
3402	0.0126546
3414	0.0160616
3426	0.0167105
3438	0.0116811
3450	0.00519162
3462	0.00292028
3474	0.00210909
3486	0.00535385
3498	0.00665176
3510	0.00486714
3522	0.00519162
3534	0.00146014
3546	0.00227133
3558	0.000973428
3570	0.000648952
3582	0.00227133
3594	0.00324476
3606	0.00162238
3618	0.00113567
3630	0.00162238
3642	0.00146014
3654	0.00162238
3666	0.00227133
3678	0.00632728
3690	0.0047049
3702	0.00486714
3714	0.00373147
3726	0.0012979
3738	0.00389371
3750	0.00210909
3762	0.00113567
3774	0.00324476
3786	0.00421819
3798	0.00421819
3810	0.0012979
3822	0.00210909
3834	0.00178462
3846	0
3858	0.00178462
3870	0.00259581
3882	0.00113567
3894	0.0012979
3906	0.000324476
3918	0.000324476
3930	0.00081119
3942	0.000324476
3954	0.000324476
3966	0.000324476
