Infrared Spectrum: Hexanoic acid, 3,5,5-trimethyl-
Formula: C 9 H 18 O 2
CAS: 3302-10-1
Origin: Sadtler Research Labs Under US-EPA Contract
1/CM	ABSORBANCE
450	0.0132884
462	0.017689
474	0.0169987
486	0.0124255
498	0.0234703
510	0.030546
522	0.0321854
534	0.0372764
546	0.050047
558	0.0854251
570	0.110362
582	0.082405
594	0.0774866
606	0.113382
618	0.110362
630	0.122356
642	0.0894807
654	0.0479761
666	0.0337386
678	0.0226075
690	0.0224349
702	0.0313225
714	0.0268356
726	0.0213994
738	0.017689
750	0.0106997
762	0.00327894
774	0.00319266
786	0.00181205
798	0.00241606
810	0.00379667
822	0.00750706
834	0.0116489
846	0.015877
858	0.0189834
870	0.0206228
882	0.0199325
894	0.0220034
906	0.0239881
918	0.0232978
930	0.0216583
942	0.0159633
954	0.0154456
966	0.027871
978	0.0337386
990	0.01976
1002	0.0205365
1014	0.0279573
1026	0.0333935
1038	0.0464229
1050	0.0842171
1062	0.156785
1074	0.201569
1086	0.166363
1098	0.197686
1110	0.322717
1122	0.447921
1134	0.352314
1146	0.266198
1158	0.202777
1170	0.149623
1182	0.145309
1194	0.149365
1206	0.1139
1218	0.08508
1230	0.0809381
1242	0.0890492
1254	0.0763649
1266	0.06532
1278	0.0686852
1290	0.0648886
1302	0.0599702
1314	0.0528083
1326	0.053326
1338	0.0686852
1350	0.0884452
1362	0.147035
1374	0.231424
1386	0.170074
1398	0.11554
1410	0.0578992
1422	0.0446109
1434	0.0509099
1446	0.048839
1458	0.0705836
1470	0.121235
1482	0.117438
1494	0.0451286
1506	0.0154456
1518	0.00836994
1530	0.00483213
1542	0.00465955
1554	0.00422811
1566	0.00327894
1578	0.0036241
1590	0.0036241
1602	0.00345152
1614	0.00448698
1626	0.00422811
1638	0.00345152
1650	0.00621274
1662	0.00517728
1674	0.00673046
1686	0.0108723
1698	0.0138061
1710	0.0308048
1722	0.0633354
1734	0.0920693
1746	0.163171
1758	0.302785
1770	0.633095
1782	0.754157
1794	0.297694
1806	0.142979
1818	0.0669595
1830	0.0316677
1842	0.0195011
1854	0.01139
1866	0.00759334
1878	0.00543614
1890	0.00345152
1902	0.00345152
1914	0.00293379
1926	0.00267493
1938	0.0036241
1950	0.00327894
1962	0.0028475
1974	0.00310637
1986	0.00258864
1998	0.00207091
2010	0.00207091
2022	0.00129432
2034	0.00155318
2046	0.00138061
2058	0.000604016
2070	0.000258864
2082	0.000345152
2094	0.000258864
2106	0.000517728
2118	0.000776592
2130	0.000258864
2142	0.000604016
2154	0.00043144
2166	0.000345152
2178	0.00086288
2190	0.00155318
2202	0.00163947
2214	0.00189834
2226	0.00138061
2238	0.00155318
2250	0.00138061
2262	0.00086288
2274	0.00086288
2286	0.000949168
2298	0.00086288
2310	0.00120803
2322	0.00103546
2334	0.00155318
2346	0.00138061
2358	0.00181205
2370	0.00172576
2382	0.00163947
2394	0.00103546
2406	0.00163947
2418	0.00163947
2430	0.00120803
2442	0.00120803
2454	0.00120803
2466	0.000949168
2478	0.00129432
2490	0.0014669
2502	0.00155318
2514	0.00120803
2526	0.00189834
2538	0.0014669
2550	0.00181205
2562	0.0021572
2574	0.0021572
2586	0.00241606
2598	0.00276122
2610	0.00276122
2622	0.00319266
2634	0.0036241
2646	0.00388296
2658	0.00414182
2670	0.00457326
2682	0.00534986
2694	0.00664418
2706	0.00707562
2718	0.00888766
2730	0.0106134
2742	0.00975054
2754	0.0106997
2766	0.00914653
2778	0.00776592
2790	0.00992312
2802	0.0129432
2814	0.0185519
2826	0.0257138
2838	0.041936
2850	0.0707562
2862	0.107515
2874	0.198204
2886	0.240571
2898	0.242124
2910	0.285958
2922	0.285613
2934	0.297952
2946	0.426867
2958	0.723007
2970	0.785825
2982	0.327377
2994	0.12995
3006	0.0582444
3018	0.028475
3030	0.0175165
3042	0.0133746
3054	0.0119077
3066	0.010786
3078	0.00983683
3090	0.00975054
3102	0.0093191
3114	0.00906024
3126	0.00940539
3138	0.00914653
3150	0.00897395
3162	0.00975054
3174	0.0100957
3186	0.0100094
3198	0.00940539
3210	0.0093191
3222	0.00836994
3234	0.00742077
3246	0.0064716
3258	0.00552243
3270	0.00422811
3282	0.0036241
3294	0.00302008
3306	0.00336523
3318	0.00302008
3330	0.00319266
3342	0.00293379
3354	0.0021572
3366	0.00276122
3378	0.00241606
3390	0.00181205
3402	0.0021572
3414	0.00181205
3426	0.00198462
3438	0.00172576
3450	0.00112174
3462	0.00103546
3474	0.000690304
3486	0.00181205
3498	0.00276122
3510	0.00396925
3522	0.00604016
3534	0.00854251
3546	0.012598
3558	0.027267
3570	0.271117
3582	0.238759
3594	0.02278
3606	0.0079385
3618	0.00759334
3630	0.00673046
3642	0.00353781
3654	0.00474584
3666	0.00103546
3678	0.00457326
3690	0.00414182
3702	0.0028475
3714	0.00440069
3726	0.00483213
3738	0.0064716
3750	0.00612645
3762	0.00388296
3774	0.00250235
3786	0.00276122
3798	0.00405554
3810	0.00207091
3822	0.00474584
3834	0.00422811
3846	0.00353781
3858	0.0050047
3870	0.00612645
3882	0.00552243
3894	0.00465955
3906	0.00629902
3918	0.00474584
3930	0.00422811
3942	0.00422811
3954	0.00345152
3966	0.0021572
