Infrared Spectrum: Furan, 2,5-dihydro-2,5-dimethoxy-
Formula: C 6 H 10 O 3
CAS: 332-77-4
Origin: Sadtler Research Labs Under US-EPA Contract
1/CM	ABSORBANCE
450	0.00854143
462	0.0116791
474	0.00122021
486	0.00755365
498	0.0189422
510	0.0147587
522	0.0132479
534	0.0178382
546	0.0137709
558	0.0123183
570	0.0141776
582	0.0128993
594	0.0186517
606	0.0251014
618	0.0289944
630	0.0247527
642	0.0241136
654	0.0187098
666	0.0123764
678	0.019349
690	0.0271931
702	0.0371291
714	0.0396857
726	0.0269026
738	0.0203368
750	0.0190584
762	0.0164437
774	0.0175477
786	0.0266121
798	0.0612427
810	0.0925032
822	0.0642641
834	0.0288782
846	0.0164437
858	0.0186517
870	0.0219056
882	0.0199881
894	0.0223123
906	0.0301565
918	0.0397438
930	0.0546187
942	0.0573496
954	0.0632763
966	0.121323
978	0.188725
990	0.172049
1002	0.146076
1014	0.217778
1026	0.398717
1038	0.541074
1050	0.317951
1062	0.161532
1074	0.132538
1086	0.141892
1098	0.14259
1110	0.170887
1122	0.210979
1134	0.216092
1146	0.179022
1158	0.107494
1170	0.0710043
1182	0.0839036
1194	0.141311
1206	0.133002
1218	0.0727475
1230	0.0506676
1242	0.046484
1254	0.0568267
1266	0.060313
1278	0.0501446
1290	0.0410221
1302	0.0443922
1314	0.0438693
1326	0.0506095
1338	0.0588023
1350	0.0517135
1362	0.100057
1374	0.157348
1386	0.0912248
1398	0.0441598
1410	0.0274256
1422	0.0219056
1434	0.029343
1446	0.0443922
1458	0.0441598
1470	0.0357346
1482	0.0302727
1494	0.0213245
1506	0.0224866
1518	0.0242879
1530	0.0241136
1542	0.0278323
1554	0.0181288
1566	0.0148168
1578	0.0173153
1590	0.0198719
1602	0.0328293
1614	0.0426491
1626	0.0380007
1638	0.02545
1650	0.0180707
1662	0.0146425
1674	0.01441
1686	0.0208016
1698	0.0350373
1710	0.0543282
1722	0.0492149
1734	0.032655
1746	0.0396857
1758	0.0399181
1770	0.0235906
1782	0.0152235
1794	0.0205111
1806	0.0285877
1818	0.034863
1830	0.0240555
1842	0.0169086
1854	0.0108075
1866	0.00923869
1878	0.0081928
1890	0.00749555
1902	0.00842522
1914	0.00889007
1926	0.00784418
1938	0.00796039
1950	0.00918059
1962	0.0081928
1974	0.00714692
1986	0.00761176
1998	0.00778607
2010	0.00889007
2022	0.0092968
2034	0.0092968
2046	0.00970353
2058	0.0108075
2070	0.0109237
2082	0.0115048
2094	0.0103427
2106	0.00842522
2118	0.00778607
2130	0.00784418
2142	0.00685639
2154	0.00668207
2166	0.00766986
2178	0.0070307
2190	0.00656586
2202	0.00598482
2214	0.00551997
2226	0.00551997
2238	0.0058105
2250	0.00517134
2262	0.00482271
2274	0.0057524
2286	0.00505513
2298	0.00453219
2310	0.0058105
2322	0.00639155
2334	0.00534566
2346	0.0046484
2358	0.0045903
2370	0.0022661
2382	0.00412546
2394	0.00290525
2406	0.00255662
2418	0.00389303
2430	0.00307956
2442	0.0023823
2454	0.00325388
2466	0.00255662
2478	0.00156883
2490	0.00214988
2502	0.00162694
2514	0.00151073
2526	0.00255662
2538	0.00249852
2550	0.00261473
2562	0.0046484
2574	0.00360251
2586	0.00337009
2598	0.00482271
2610	0.00476461
2622	0.00441598
2634	0.00528756
2646	0.00615913
2658	0.00621723
2670	0.00557808
2682	0.00505513
2694	0.00505513
2706	0.00674018
2718	0.00825091
2730	0.0102265
2742	0.0131317
2754	0.0104589
2766	0.00830901
2778	0.0108656
2790	0.0143519
2802	0.0187679
2814	0.0289363
2826	0.0533985
2838	0.0916316
2850	0.0832645
2862	0.0582793
2874	0.0868089
2886	0.115919
2898	0.0886682
2910	0.0768729
2922	0.0983718
2934	0.132131
2946	0.129981
2958	0.101277
2970	0.0861697
2982	0.0631601
2994	0.0668207
3006	0.0822767
3018	0.049796
3030	0.028762
3042	0.0220218
3054	0.0174315
3066	0.0169667
3078	0.0153978
3090	0.0142938
3102	0.0172572
3114	0.0147006
3126	0.00708881
3138	0.00592671
3150	0.00604292
3162	0.00517134
3174	0.00435787
3186	0.0034863
3198	0.0023823
3210	0.00337009
3222	0.00429977
3234	0.00244041
3246	0.00337009
3258	0.00551997
3270	0.00313767
3282	0.00267283
3294	0.00482271
3306	0.00331198
3318	0.00325388
3330	0.0057524
3342	0.00424167
3354	0.00424167
3366	0.0058105
3378	0.00354441
3390	0.00377683
3402	0.0045903
3414	0.00209178
3426	0.00180126
3438	0.00429977
3450	0.00261473
3462	0.00011621
3474	0.00331198
3486	0.00156883
3498	0.00162694
3510	0.00180126
3522	0.00069726
3534	0.00273093
3546	0.00418356
3558	0.00174315
3570	0.00383493
3582	0.00551997
3594	0.00290525
3606	0.00069726
3618	0.0047065
3630	0.00650776
3642	0.00429977
3654	0.00708881
3666	0.00714692
3678	0.00743744
3690	0.00650776
3702	0.0057524
3714	0.00621723
3726	0.00650776
3738	0.00644966
3750	0.00610103
3762	0.00604292
3774	0.00482271
3786	0.00331198
3798	0.00522945
3810	0.00534566
3822	0.00488082
3834	0.00604292
3846	0.00743744
3858	0.0058105
3870	0.00749555
3882	0.00482271
3894	0.00244041
3906	0.00453219
3918	0.00220799
3930	0.00011621
3942	0.000406735
3954	0
3966	0.00011621
