Infrared Spectrum: Furan, 2,5-diethoxytetrahydro-
Formula: C 8 H 16 O 3
CAS: 3320-90-9
Origin: Sadtler Research Labs Under US-EPA Contract
1/CM	ABSORBANCE
450	0
462	0.0799107
474	0.124106
486	0.116604
498	0.0918157
510	0.111712
522	0.0914896
534	0.104862
546	0.0875756
558	0.0986652
570	0.109103
582	0.112038
594	0.129325
606	0.113669
618	0.103721
630	0.100785
642	0.10421
654	0.103068
666	0.0998068
678	0.098176
690	0.0937727
702	0.0973606
714	0.092305
726	0.100459
738	0.103558
750	0.114974
762	0.118888
774	0.130956
786	0.138621
798	0.157701
810	0.182979
822	0.257345
834	0.402489
846	0.3671
858	0.244951
870	0.206626
882	0.197167
894	0.213965
906	0.215759
918	0.212008
930	0.268272
942	0.349487
954	0.335625
966	0.405098
978	0.687721
990	1.22704
1002	1.55402
1014	1.04585
1026	1.19148
1038	1.53396
1050	1.04765
1062	0.687395
1074	0.622814
1086	0.615801
1098	0.71202
1110	1.03786
1122	1.27564
1134	0.824221
1146	0.472288
1158	0.363838
1170	0.329917
1182	0.401673
1194	0.703214
1206	0.750345
1218	0.44538
1230	0.252616
1242	0.19733
1254	0.17564
1266	0.174825
1278	0.196026
1290	0.249028
1302	0.257345
1314	0.253757
1326	0.21527
1338	0.310999
1350	0.609604
1362	0.390747
1374	0.433964
1386	0.358946
1398	0.229132
1410	0.208583
1422	0.175477
1434	0.165692
1446	0.210214
1458	0.267456
1470	0.201571
1482	0.153298
1494	0.12802
1506	0.105515
1518	0.0973606
1530	0.0905111
1542	0.0949143
1554	0.0927942
1566	0.0892064
1578	0.0888802
1590	0.0872494
1602	0.0905111
1614	0.0952405
1626	0.0955666
1638	0.0950774
1650	0.0978498
1662	0.0914896
1674	0.0931204
1686	0.0937727
1698	0.0940989
1710	0.0945881
1722	0.105352
1734	0.129977
1746	0.153135
1758	0.15607
1770	0.137479
1782	0.118235
1794	0.111223
1806	0.108776
1818	0.104047
1830	0.0970344
1842	0.0880648
1854	0.0861078
1866	0.0867602
1878	0.0857817
1890	0.0877387
1902	0.0882279
1914	0.0911634
1926	0.0932835
1938	0.0940989
1950	0.0960559
1962	0.0968713
1974	0.094262
1986	0.0901849
1998	0.0888802
2010	0.0882279
2022	0.0875756
2034	0.0857817
2046	0.0849662
2058	0.084477
2070	0.0836616
2082	0.0831723
2094	0.0834985
2106	0.0838247
2118	0.0831723
2130	0.0836616
2142	0.0833354
2154	0.0828462
2166	0.0820307
2178	0.0826831
2190	0.0833354
2202	0.0831723
2214	0.0826831
2226	0.08252
2238	0.0820307
2250	0.08252
2262	0.0826831
2274	0.0815415
2286	0.0812153
2298	0.0813784
2310	0.0808892
2322	0.0803999
2334	0.0810523
2346	0.0795845
2358	0.0808892
2370	0.0808892
2382	0.0823569
2394	0.0813784
2406	0.0800738
2418	0.0776275
2430	0.0759967
2442	0.0771383
2454	0.0795845
2466	0.0821938
2478	0.0831723
2490	0.0838247
2502	0.0838247
2514	0.0828462
2526	0.0815415
2538	0.0802368
2550	0.0795845
2562	0.0784429
2574	0.0784429
2586	0.0784429
2598	0.0792583
2610	0.08252
2622	0.0870863
2634	0.0833354
2646	0.0790953
2658	0.0776275
2670	0.0781168
2682	0.0797476
2694	0.0820307
2706	0.0813784
2718	0.0821938
2730	0.0817046
2742	0.0833354
2754	0.0818677
2766	0.0875756
2778	0.0988283
2790	0.116604
2802	0.138294
2814	0.142045
2826	0.141882
2838	0.156723
2850	0.203038
2862	0.316544
2874	0.480443
2886	0.540131
2898	0.559049
2910	0.799596
2922	0.734363
2934	0.567692
2946	0.584
2958	0.572421
2970	0.648418
2982	0.867928
2994	0.716424
3006	0.439998
3018	0.19521
3030	0.1259
3042	0.103558
3054	0.0926311
3066	0.0854555
3078	0.0797476
3090	0.0781168
3102	0.0773013
3114	0.0777906
3126	0.0781168
3138	0.0781168
3150	0.0779537
3162	0.0781168
3174	0.0781168
3186	0.0787691
3198	0.0800738
3210	0.0815415
3222	0.0818677
3234	0.0813784
3246	0.0800738
3258	0.0790953
3270	0.0782798
3282	0.0790953
3294	0.0792583
3306	0.0795845
3318	0.0800738
3330	0.0800738
3342	0.0789322
3354	0.0781168
3366	0.0781168
3378	0.0777906
3390	0.078606
3402	0.0794214
3414	0.0799107
3426	0.0787691
3438	0.0781168
3450	0.0779537
3462	0.0763228
3474	0.0771383
3486	0.0781168
3498	0.0781168
3510	0.0773013
3522	0.0769752
3534	0.0761598
3546	0.0764859
3558	0.0764859
3570	0.0799107
3582	0.0800738
3594	0.0815415
3606	0.0782798
3618	0.0777906
3630	0.0792583
3642	0.0764859
3654	0.0818677
3666	0.0790953
3678	0.0830092
3690	0.0826831
3702	0.0799107
3714	0.0781168
3726	0.0758336
3738	0.0763228
3750	0.0795845
3762	0.0758336
3774	0.0774644
3786	0.0763228
3798	0.0784429
3810	0.0759967
3822	0.0787691
3834	0.0758336
3846	0.0758336
3858	0.0799107
3870	0.0808892
3882	0.0782798
3894	0.0790953
3906	0.076649
3918	0.0758336
3930	0.0758336
3942	0.0758336
3954	0.0758336
3966	0.0769752
