Infrared Spectrum: Decanoic acid
Formula: C 10 H 20 O 2
CAS: 334-48-5
Origin: Sadtler Research Labs Under US-EPA Contract
1/CM	ABSORBANCE
450	0.0230436
462	0.0212001
474	0.0218146
486	0.0255528
498	0.0308272
510	0.032261
522	0.0390717
534	0.0414273
546	0.0498766
558	0.0594525
570	0.0547414
582	0.0579675
594	0.0645733
606	0.0639076
618	0.0567897
630	0.0530003
642	0.0364089
654	0.0230948
666	0.0173083
678	0.0160281
690	0.0166938
702	0.0171035
714	0.0202272
726	0.0195102
738	0.0180764
750	0.014287
762	0.0112658
774	0.0083469
786	0.00655462
798	0.00076812
810	0.00235557
822	0.00440389
834	0.00491597
846	0.00558167
858	0.00553046
870	0.00670825
882	0.00655462
894	0.00788603
906	0.00614496
918	0.00655462
930	0.00691308
942	0.00583771
954	0.00788603
966	0.00916623
978	0.00921744
990	0.00998556
1002	0.0130068
1014	0.0168986
1026	0.0254504
1038	0.0377403
1050	0.0471114
1062	0.0562776
1074	0.0749173
1086	0.111941
1098	0.165709
1110	0.171803
1122	0.162841
1134	0.182096
1146	0.148554
1158	0.10303
1170	0.0831106
1182	0.073125
1194	0.0607327
1206	0.0493133
1218	0.0401983
1230	0.0339509
1242	0.0312369
1254	0.0310833
1266	0.0335924
1278	0.0328755
1290	0.0297518
1302	0.0301615
1314	0.0281644
1326	0.0280108
1338	0.0354359
1350	0.0466505
1362	0.0556631
1374	0.0606815
1386	0.0623201
1398	0.0387132
1410	0.0242214
1422	0.0233508
1434	0.0287789
1446	0.0366137
1458	0.0527442
1470	0.046036
1482	0.0209953
1494	0.0082957
1506	0.00465993
1518	0.00332852
1530	0.00153624
1542	0.00286765
1554	0.00112658
1566	0.000819328
1578	0.00102416
1590	0.000153624
1602	0.0012802
1614	0.00112658
1626	0.00199711
1638	0.00235557
1650	0.00225315
1662	0.00343094
1674	0.00378939
1686	0.00747637
1698	0.00870536
1710	0.0159257
1722	0.0282156
1734	0.0535124
1746	0.103338
1758	0.180559
1770	0.32215
1782	0.383753
1794	0.216917
1806	0.11107
1818	0.0469577
1830	0.0203808
1842	0.00947348
1854	0.00670825
1866	0.0044551
1878	0.00327731
1890	0.00271402
1902	0.00220194
1914	0.00225315
1926	0.00184349
1938	0.00133141
1950	0.00163866
1962	0.00163866
1974	0.00117778
1986	0.00122899
1998	0.00122899
2010	0.000972952
2022	0.00076812
2034	0.000819328
2046	0.00117778
2058	0.000870536
2070	0.00143382
2082	0.00133141
2094	0.0012802
2106	0.00163866
2118	0.0018947
2130	0.00230436
2142	0.0012802
2154	0.00230436
2166	0.00174107
2178	0.00230436
2190	0.00184349
2202	0.00276523
2214	0.00148503
2226	0.00276523
2238	0.00179228
2250	0.00220194
2262	0.00163866
2274	0.00184349
2286	0.00220194
2298	0.0031749
2310	0.00337973
2322	0.00235557
2334	0.00199711
2346	0.00276523
2358	0.000614496
2370	0.00148503
2382	0.00261161
2394	0.00133141
2406	0.000819328
2418	0.00133141
2430	0.00107537
2442	0.00122899
2454	0.000307248
2466	0.000921744
2478	0.00133141
2490	0.000870536
2502	0.000819328
2514	0.000819328
2526	0.00174107
2538	0.00168986
2550	0.00143382
2562	0.00102416
2574	0.00199711
2586	0.00209953
2598	0.0031749
2610	0.00312369
2622	0.00358456
2634	0.00373818
2646	0.00414785
2658	0.00414785
2670	0.00460872
2682	0.00517201
2694	0.00506959
2706	0.00594013
2718	0.00629858
2730	0.00624738
2742	0.00762999
2754	0.0070667
2766	0.0070667
2778	0.00783482
2790	0.0104464
2802	0.0134165
2814	0.0181276
2826	0.0240678
2838	0.0366137
2850	0.076812
2862	0.178665
2874	0.183017
2886	0.137545
2898	0.118188
2910	0.17211
2922	0.326861
2934	0.51208
2946	0.40992
2958	0.263465
2970	0.229668
2982	0.112094
2994	0.0528467
3006	0.0311857
3018	0.0208417
3030	0.0150039
3042	0.0110609
3054	0.00793724
3066	0.00757878
3078	0.00696429
3090	0.0057865
3102	0.00517201
3114	0.00373818
3126	0.00414785
3138	0.00327731
3150	0.00348214
3162	0.00425026
3174	0.00163866
3186	0.00281644
3198	0.00250919
3210	0.00153624
3222	0.00215074
3234	0.00158745
3246	0.00153624
3258	0.00174107
3270	0.00199711
3282	0.00148503
3294	0.00163866
3306	0.000563288
3318	0.00122899
3330	0.00199711
3342	0.00230436
3354	0.00143382
3366	0.0018947
3378	0.00138262
3390	0.00245798
3402	0.000819328
3414	0.00327731
3426	0.00143382
3438	0.00240678
3450	0.0032261
3462	0.00368698
3474	0.0031749
3486	0.00153624
3498	0.00425026
3510	0.00430147
3522	0.00742516
3534	0.00588892
3546	0.0118803
3558	0.0246823
3570	0.105949
3582	0.132168
3594	0.0295982
3606	0.00921744
3618	0.00885898
3630	0.00967831
3642	0.00619617
3654	0.00691308
3666	0.00594013
3678	0.00778362
3690	0.00926865
3702	0.00583771
3714	0.00665704
3726	0.00665704
3738	0.00747637
3750	0.00783482
3762	0.00343094
3774	0.00404543
3786	0.00517201
3798	0.0070667
3810	0.00563288
3822	0.00660583
3834	0.0070667
3846	0.00686187
3858	0.00773241
3870	0.00860294
3882	0.00737395
3894	0.00742516
3906	0.00783482
3918	0.00660583
3930	0.00547926
3942	0.00563288
3954	0.00527442
3966	0.00609375
