Infrared Spectrum: Decane, 1-fluoro-
Formula: C 10 H 21 F
CAS: 334-56-5
Origin: Sadtler Research Labs Under US-EPA Contract
1/CM	ABSORBANCE
450	0.0109202
462	0.00773874
474	0.00292352
486	0.00593303
498	0.00619099
510	0.00687888
522	0.00730881
534	0.00593303
546	0.00481522
558	0.00619099
570	0.00171972
582	0.00292352
594	0.00533113
606	0.00361141
618	0.00524515
630	0.00515916
642	0.0042993
654	0.00533113
666	0.00343944
678	0.00558909
690	0.00705085
702	0.012124
714	0.0153055
726	0.0188309
738	0.0142737
750	0.0130699
762	0.0103183
774	0.0111782
786	0.0113502
798	0.00842663
810	0.0110922
822	0.0115221
834	0.00885656
846	0.0119521
858	0.0144456
870	0.0154775
882	0.0187449
894	0.0188309
906	0.0197768
918	0.0190889
930	0.0226143
942	0.0240761
954	0.0251079
966	0.0269996
978	0.0325027
990	0.0449707
1002	0.06148
1014	0.0834924
1026	0.114103
1038	0.124422
1050	0.118231
1062	0.105677
1074	0.0791931
1086	0.0479802
1098	0.0267416
1110	0.018659
1122	0.018229
1134	0.0164233
1146	0.012038
1158	0.0110062
1170	0.0129839
1182	0.0134138
1194	0.0116081
1206	0.0104043
1218	0.0108342
1230	0.0128119
1242	0.0132418
1254	0.0131559
1266	0.0132418
1278	0.0136718
1290	0.0149616
1302	0.0165093
1314	0.0165953
1326	0.0145316
1338	0.0177131
1350	0.0240761
1362	0.0271716
1374	0.0297512
1386	0.0480662
1398	0.0477222
1410	0.0198628
1422	0.0187449
1434	0.0263977
1446	0.0412733
1458	0.0741199
1470	0.07369
1482	0.0397255
1494	0.0171112
1506	0.0147036
1518	0.00997438
1530	0.00713684
1542	0.0107482
1554	0.00653494
1566	0.00593303
1578	0.00679289
1590	0.00421331
1602	0.00481522
1614	0.0049012
1626	0.0055031
1638	0.00644895
1650	0.00464324
1662	0.00438529
1674	0.00533113
1686	0.00748078
1698	0.00653494
1710	0.0042993
1722	0.00464324
1734	0.00713684
1746	0.0049012
1758	0.00481522
1770	0.00438529
1782	0.00378338
1794	0.0049012
1806	0.00318148
1818	0.00318148
1830	0.0036974
1842	0.00283754
1854	0.00257958
1866	0.0030955
1878	0.00249359
1890	0.0030955
1902	0.00300951
1914	0.00249359
1926	0.00240761
1938	0.00257958
1950	0.00283754
1962	0.00318148
1974	0.00275155
1986	0.00275155
1998	0.00257958
2010	0.00300951
2022	0.00361141
2034	0.00404134
2046	0.00343944
2058	0.00352543
2070	0.00300951
2082	0.00249359
2094	0.00240761
2106	0.00206366
2118	0.00180571
2130	0.00180571
2142	0.00180571
2154	0.00223564
2166	0.00223564
2178	0.00223564
2190	0.00266557
2202	0.00214965
2214	0.00171972
2226	0.00197768
2238	0.00206366
2250	0.00197768
2262	0.00171972
2274	0.00171972
2286	0.00171972
2298	0.00180571
2310	0.00232162
2322	0.00223564
2334	0.00275155
2346	0.00223564
2358	0.00111782
2370	0.00214965
2382	0.00128979
2394	0.00111782
2406	0.00146176
2418	0.00154775
2430	0.00128979
2442	0.000945846
2454	0.00085986
2466	0.000773874
2478	0.00085986
2490	0.00085986
2502	0.000945846
2514	0.00085986
2526	0.00154775
2538	0.00197768
2550	0.00189169
2562	0.00154775
2574	0.00257958
2586	0.0030955
2598	0.00335345
2610	0.00361141
2622	0.00464324
2634	0.0049012
2646	0.00533113
2658	0.00627698
2670	0.00730881
2682	0.00834064
2694	0.00868459
2706	0.0073948
2718	0.00705085
2730	0.00902853
2742	0.0110922
2754	0.012554
2766	0.0119521
2778	0.012038
2790	0.0136718
2802	0.0174552
2814	0.0232162
2826	0.0329326
2838	0.0513336
2850	0.119607
2862	0.310667
2874	0.301209
2886	0.213503
2898	0.203357
2910	0.323393
2922	0.536467
2934	0.85986
2946	0.650312
2958	0.464238
2970	0.511101
2982	0.187879
2994	0.0730881
3006	0.0436809
3018	0.0294072
3030	0.0211526
3042	0.0158214
3054	0.0118661
3066	0.00928649
3078	0.00782473
3090	0.00679289
3102	0.00498719
3114	0.00507317
3126	0.00395536
3138	0.00386937
3150	0.00404134
3162	0.00421331
3174	0.00378338
3186	0.00318148
3198	0.00275155
3210	0.00275155
3222	0.00283754
3234	0.00206366
3246	0.00171972
3258	0.00206366
3270	0.00103183
3282	0.000601902
3294	0.00146176
3306	0.000515916
3318	0.0012038
3330	0.000687888
3342	0.000515916
3354	0.00154775
3366	0.00146176
3378	0.00137578
3390	0.00180571
3402	0.00163373
3414	0.00146176
3426	0.00103183
3438	0.000945846
3450	0.00103183
3462	0.00146176
3474	0.00111782
3486	0.000601902
3498	0.00111782
3510	0.000773874
3522	0.000601902
3534	0.000773874
3546	0.00128979
3558	0.0012038
3570	0.00171972
3582	0.00103183
3594	0.00240761
3606	0.00154775
3618	0.00232162
3630	0.00404134
3642	0.00249359
3654	0.00300951
3666	0.00275155
3678	0.00404134
3690	0.0042993
3702	0.00214965
3714	0.00361141
3726	0.00361141
3738	0.00464324
3750	0.00481522
3762	0.00335345
3774	0.00318148
3786	0.00361141
3798	0.00438529
3810	0.00438529
3822	0.00507317
3834	0.00533113
3846	0.00464324
3858	0.00421331
3870	0.00515916
3882	0.00481522
3894	0.00412733
3906	0.00335345
3918	0.00386937
3930	0.00438529
3942	0.00395536
3954	0
3966	0.000257958
