Infrared Spectrum: Benzoic acid, 3,4-dimethyl-, ethyl ester
Formula: C 11 H 14 O 2
CAS: 33499-44-4
Origin: Sadtler Research Labs Under US-EPA Contract
1/CM	ABSORBANCE
450	0.00262075
462	0.00442252
474	0.00163797
486	0.00212936
498	0.00131038
510	0.00687947
522	0.00966402
534	0.020147
546	0.00802605
558	0.00262075
570	0.00343974
582	0.0057329
594	0.00409493
606	0.00311214
618	0.00311214
630	0.0124486
642	0.0119572
654	0.000655188
666	0
678	0.00245696
690	0.00262075
702	0.00458632
714	0.00737086
726	0.0054053
738	0.0163797
750	0.0868124
762	0.247661
774	0.0907435
786	0.0253885
798	0.0203108
810	0.0309576
822	0.0334146
834	0.0461908
846	0.021785
858	0.0171987
870	0.0260437
882	0.0158883
894	0.0208022
906	0.0319404
918	0.0425872
930	0.0384923
942	0.0144141
954	0.0119572
966	0.0139227
978	0.0216212
990	0.0530702
1002	0.0648636
1014	0.0954937
1026	0.230135
1038	0.151021
1050	0.05651
1062	0.0368543
1074	0.0398027
1086	0.0910711
1098	0.404579
1110	0.612601
1122	0.333491
1134	0.410475
1146	0.404579
1158	0.112201
1170	0.297947
1182	0.657973
1194	0.117606
1206	0.147581
1218	0.506952
1230	0.175263
1242	0.152823
1254	0.540039
1266	1.63797
1278	0.584264
1290	0.628325
1302	0.690404
1314	0.183616
1326	0.0625705
1338	0.0368543
1350	0.0317766
1362	0.0719069
1374	0.140538
1386	0.0742
1398	0.0892694
1410	0.148728
1422	0.0869762
1434	0.0586393
1446	0.0951661
1458	0.133986
1470	0.121701
1482	0.0735449
1494	0.0515961
1506	0.0497943
1518	0.019328
1530	0.0124486
1542	0.00999162
1554	0.0158883
1566	0.0304662
1578	0.0542168
1590	0.0438976
1602	0.0506133
1614	0.112365
1626	0.0517599
1638	0.01294
1650	0.00884504
1662	0.0171987
1674	0.0186729
1686	0.0304662
1698	0.057329
1710	0.0802605
1722	0.215557
1734	1.02226
1746	1.03896
1758	0.14365
1770	0.0371819
1782	0.0412768
1794	0.0329232
1806	0.0194918
1818	0.0111382
1830	0.00458632
1842	0.00294835
1854	0.00278455
1866	0.00245696
1878	0.00262075
1890	0.00475011
1902	0.00802605
1914	0.00900883
1926	0.0054053
1938	0.00245696
1950	0.00229316
1962	0.00393113
1974	0.00409493
1986	0.00245696
1998	0.00147417
2010	0.00147417
2022	0.000818985
2034	0.00212936
2046	0.00327594
2058	0.00196556
2070	0.000818985
2082	0.000818985
2094	0
2106	0.000327594
2118	0.00180177
2130	0.00343974
2142	0.00196556
2154	0.000163797
2166	0
2178	0.000327594
2190	0.00114658
2202	0.00114658
2214	0.00114658
2226	0.000982782
2238	0.000491391
2250	0
2262	0.000327594
2274	0.000818985
2286	0.00131038
2298	0.000818985
2310	0.00131038
2322	0.00212936
2334	0.000818985
2346	0.00180177
2358	0.00212936
2370	0.00327594
2382	0.00278455
2394	0.00262075
2406	0.00229316
2418	0.00147417
2430	0.00147417
2442	0.00147417
2454	0.00147417
2466	0.00180177
2478	0.00180177
2490	0.00147417
2502	0.00114658
2514	0.00131038
2526	0.00163797
2538	0.00212936
2550	0.00294835
2562	0.00327594
2574	0.00262075
2586	0.00360353
2598	0.00311214
2610	0.00212936
2622	0.000818985
2634	0.000818985
2646	0.00114658
2658	0.00147417
2670	0.00212936
2682	0.00180177
2694	0.00212936
2706	0.00229316
2718	0.00262075
2730	0.0054053
2742	0.010483
2754	0.00851744
2766	0.00835365
2778	0.00999162
2790	0.00818985
2802	0.00818985
2814	0.0108106
2826	0.0157245
2838	0.0204746
2850	0.0311214
2862	0.0530702
2874	0.0894332
2886	0.122029
2898	0.111054
2910	0.118261
2922	0.141848
2934	0.24242
2946	0.247006
2958	0.194755
2970	0.197867
2982	0.309576
2994	0.262239
3006	0.139227
3018	0.084683
3030	0.0927091
3042	0.0894332
3054	0.0547082
3066	0.0448804
3078	0.0440614
3090	0.0375095
3102	0.023423
3114	0.0180177
3126	0.0150693
3138	0.00917263
3150	0.00687947
3162	0.00507771
3174	0.00475011
3186	0.00475011
3198	0.00393113
3210	0.00327594
3222	0.00294835
3234	0.00212936
3246	0.00229316
3258	0.00180177
3270	0.00147417
3282	0.00131038
3294	0.00114658
3306	0.00212936
3318	0.00163797
3330	0.00196556
3342	0.00245696
3354	0.00294835
3366	0.00229316
3378	0.00229316
3390	0.00262075
3402	0.00262075
3414	0.00245696
3426	0.00278455
3438	0.00311214
3450	0.00769846
3462	0.00982782
3474	0.00245696
3486	0.000982782
3498	0.00131038
3510	0.00163797
3522	0.00114658
3534	0.00147417
3546	0.000655188
3558	0.000982782
3570	0.00147417
3582	0.00343974
3594	0.00262075
3606	0.000163797
3618	0
3630	0.00147417
3642	0.000655188
3654	0.000655188
3666	0.000818985
3678	0.00163797
3690	0.00163797
3702	0.000982782
3714	0.000491391
3726	0.00163797
3738	0.00147417
3750	0.000982782
3762	0.00163797
3774	0.00131038
3786	0.00245696
3798	0.000818985
3810	0.00229316
3822	0.000327594
3834	0.00278455
3846	0.00147417
3858	0.00245696
3870	0.00163797
3882	0.00147417
3894	0.00163797
3906	0.00278455
3918	0.000982782
3930	0.00114658
3942	0.00114658
3954	0.00278455
3966	0.00229316
