Infrared Spectrum: Perfluoroheptyl iodide
Formula: C 7 F 15 I
CAS: 335-58-0
Origin: Sadtler Research Labs Under US-EPA Contract
1/CM	ABSORBANCE
450	0.0377003
462	0
474	0.0221175
486	0.0236255
498	0.0242958
510	0.0288198
522	0.0542885
534	0.0743953
546	0.0551263
558	0.0703739
570	0.095675
582	0.0574721
594	0.0556289
606	0.0614934
618	0.0725522
630	0.105226
642	0.164709
654	0.138402
666	0.126338
678	0.11109
690	0.115447
702	0.114274
714	0.119803
726	0.214976
738	0.108242
750	0.171746
762	0.0566343
774	0.138905
786	0.0665201
798	0.0630014
810	0.0671904
822	0.05144
834	0.038203
846	0.0445702
858	0.0636717
870	0.0760709
882	0.0576396
894	0.0304954
906	0.0271442
918	0.0356896
930	0.0502671
942	0.058645
954	0.060153
966	0.0953399
978	0.0864594
990	0.0789193
1002	0.0408839
1014	0.0398786
1026	0.0428946
1038	0.0623312
1050	0.0847838
1062	0.0804274
1074	0.0626663
1086	0.0720495
1098	0.121981
1110	0.216484
1122	0.156666
1134	0.26407
1146	0.421406
1158	0.514065
1170	0.267589
1182	0.328579
1194	0.464971
1206	0.739261
1218	0.889728
1230	0.857389
1242	1.34263
1254	1.31147
1266	0.505017
1278	0.300932
1290	0.21263
1302	0.145607
1314	0.111258
1326	0.0750655
1338	0.0834434
1350	0.108577
1362	0.0991937
1374	0.0301603
1386	0.0182637
1398	0.0159179
1410	0.0144099
1422	0.0142423
1434	0.0130694
1446	0.0125668
1458	0.0125668
1470	0.0118965
1482	0.0115614
1494	0.0105561
1506	0.0110588
1518	0.0108912
1530	0.0110588
1542	0.0103885
1554	0.0103885
1566	0.0100534
1578	0.0100534
1590	0.00938319
1602	0.00955075
1614	0.00938319
1626	0.00804274
1638	0.00904808
1650	0.00871296
1662	0.00754007
1674	0.00837785
1686	0.00854541
1698	0.00804274
1710	0.00821029
1722	0.00871296
1734	0.00837785
1746	0.00770762
1758	0.00821029
1770	0.00888052
1782	0.00888052
1794	0.0100534
1806	0.00988586
1818	0.0103885
1830	0.00837785
1842	0.00770762
1854	0.00854541
1866	0.00619961
1878	0.00686984
1890	0.00720495
1902	0.00670228
1914	0.00636717
1926	0.00619961
1938	0.00619961
1950	0.00603205
1962	0.00636717
1974	0.00569694
1986	0.00603205
1998	0.00569694
2010	0.00586449
2022	0.00552938
2034	0.00536182
2046	0.00552938
2058	0.00519427
2070	0.00519427
2082	0.00485915
2094	0.00536182
2106	0.00502671
2118	0.00485915
2130	0.00485915
2142	0.00536182
2154	0.00519427
2166	0.00502671
2178	0.00536182
2190	0.00536182
2202	0.00552938
2214	0.00586449
2226	0.00552938
2238	0.00536182
2250	0.00569694
2262	0.00619961
2274	0.00636717
2286	0.00670228
2298	0.00754007
2310	0.00804274
2322	0.00804274
2334	0.00770762
2346	0.00737251
2358	0.00754007
2370	0.00821029
2382	0.00821029
2394	0.00787518
2406	0.00754007
2418	0.00703739
2430	0.00670228
2442	0.00653472
2454	0.00603205
2466	0.00603205
2478	0.00619961
2490	0.00536182
2502	0.00485915
2514	0.00418893
2526	0.00418893
2538	0.0035187
2550	0.00301603
2562	0.00268091
2574	0.00284847
2586	0.00318358
2598	0.0023458
2610	0.00184313
2622	0.00134046
2634	0.00100534
2646	0.000837785
2658	0.0011729
2670	0.000837785
2682	0.000502671
2694	0.000335114
2706	0.000502671
2718	0.000502671
2730	0.000502671
2742	0.000670228
2754	0.000670228
2766	0.000837785
2778	0.000670228
2790	0.00100534
2802	0.000502671
2814	0.000502671
2826	0.0011729
2838	0.000837785
2850	0.000670228
2862	0.00100534
2874	0.00100534
2886	0.00134046
2898	0.00134046
2910	0.00100534
2922	0.000837785
2934	0.00167557
2946	0.00167557
2958	0.00100534
2970	0.00167557
2982	0.000670228
2994	0.00134046
3006	0.00150801
3018	0.000837785
3030	0.0011729
3042	0.000670228
3054	0.0011729
3066	0.000670228
3078	0.00134046
3090	0.000837785
3102	0.00100534
3114	0.0011729
3126	0.0011729
3138	0.00134046
3150	0.00184313
3162	0.00134046
3174	0.00100534
3186	0.00150801
3198	0.0011729
3210	0.00134046
3222	0.000837785
3234	0.00134046
3246	0.00134046
3258	0.00167557
3270	0.000670228
3282	0.00150801
3294	0.0011729
3306	0.000670228
3318	0.00150801
3330	0.0011729
3342	0.00201068
3354	0.00134046
3366	0.00184313
3378	0.00100534
3390	0.00150801
3402	0.00184313
3414	0.00167557
3426	0.00150801
3438	0.00100534
3450	0.00100534
3462	0.00150801
3474	0.0011729
3486	0.00150801
3498	0.00150801
3510	0.000502671
3522	0.00150801
3534	0.000837785
3546	0.00134046
3558	0.00150801
3570	0.00251336
3582	0.00268091
3594	0.00201068
3606	0.00150801
3618	0.000837785
3630	0.00150801
3642	0.000335114
3654	0.0023458
3666	0.00217824
3678	0.00201068
3690	0.00150801
3702	0.00251336
3714	0.00150801
3726	0.00167557
3738	0.0023458
3750	0.00251336
3762	0.0011729
3774	0.0011729
3786	0.00100534
3798	0.00217824
3810	0.000502671
3822	0.00134046
3834	0.0023458
3846	0.00217824
3858	0.000502671
3870	0.00301603
3882	0.0023458
3894	0.00167557
3906	0.000167557
3918	0.00301603
3930	0.00368625
3942	0.0023458
3954	0.0046916
3966	0.00552938
