Infrared Spectrum: 1H,1H,7H-Dodecafluoro-1-heptanol
Formula: C 7 H 4 F 12 O
CAS: 335-99-9
Origin: Sadtler Research Labs Under US-EPA Contract
1/CM	ABSORBANCE
450	0.00840768
462	0.00824443
474	0.00718326
486	0.00718326
498	0.0128156
510	0.023264
522	0.0319982
534	0.0488135
546	0.0607312
558	0.0333859
570	0.0328961
582	0.0297126
594	0.021713
606	0.0220396
618	0.0178765
630	0.0130605
642	0.0119177
654	0.00906071
666	0.00489768
678	0.0040814
690	0.0155093
702	0.0338756
714	0.0488135
726	0.0453852
738	0.0685675
750	0.0546091
762	0.0663636
774	0.0604047
786	0.0525684
798	0.0895459
810	0.0566498
822	0.0338756
834	0.0439975
846	0.0435077
858	0.0549356
870	0.0227742
882	0.0081628
894	0.0141216
906	0.0282433
918	0.0258761
930	0.0315084
942	0.0278351
954	0.0192642
966	0.0155909
978	0.0157542
990	0.0164889
1002	0.01404
1014	0.0138768
1026	0.0199172
1038	0.0403242
1050	0.0630168
1062	0.0736285
1074	0.102606
1086	0.145298
1098	0.0918315
1110	0.10481
1122	0.215416
1134	0.343736
1146	0.447893
1158	0.337777
1170	0.35149
1182	0.417935
1194	0.595803
1206	0.81628
1218	0.499808
1230	0.257536
1242	0.181541
1254	0.174847
1266	0.137951
1278	0.0858727
1290	0.0584456
1302	0.0488135
1314	0.0402426
1326	0.0313452
1338	0.0236721
1350	0.0269372
1362	0.0514256
1374	0.0351817
1386	0.0199172
1398	0.0435894
1410	0.0377938
1422	0.00955048
1434	0.00514256
1446	0.00424466
1458	0.00938722
1470	0.0066935
1482	0.00236721
1494	0.0014693
1506	0.00318349
1518	0.00155093
1530	0.00122442
1542	0.0014693
1554	0.00163256
1566	0.000897908
1578	0.000653024
1590	0.00081628
1602	0.000979536
1614	0.00106116
1626	0.00106116
1638	0.00122442
1650	0.000653024
1662	0.00122442
1674	0.0014693
1686	0.00195907
1698	0.00163256
1710	0.00220396
1722	0.00244884
1734	0.00244884
1746	0.00253047
1758	0.00228558
1770	0.00228558
1782	0.00302024
1794	0.00318349
1806	0.00351
1818	0.00359163
1830	0.00334675
1842	0.00318349
1854	0.00351
1866	0.00359163
1878	0.00351
1890	0.00399977
1902	0.00416303
1914	0.00432628
1926	0.00440791
1938	0.00391814
1950	0.00432628
1962	0.00448954
1974	0.00391814
1986	0.00391814
1998	0.00424466
2010	0.00440791
2022	0.00448954
2034	0.00448954
2046	0.00440791
2058	0.00481605
2070	0.00457117
2082	0.00391814
2094	0.00391814
2106	0.00448954
2118	0.00448954
2130	0.00457117
2142	0.00497931
2154	0.00522419
2166	0.00546908
2178	0.00546908
2190	0.00538745
2202	0.0055507
2214	0.00506094
2226	0.0055507
2238	0.00595884
2250	0.00644861
2262	0.00693838
2274	0.00726489
2286	0.00693838
2298	0.00653024
2310	0.00620373
2322	0.00644861
2334	0.00644861
2346	0.0081628
2358	0.00685675
2370	0.00938722
2382	0.00832606
2394	0.00685675
2406	0.00693838
2418	0.00644861
2430	0.00636698
2442	0.00644861
2454	0.00595884
2466	0.00587722
2478	0.00587722
2490	0.00595884
2502	0.00595884
2514	0.00538745
2526	0.00546908
2538	0.00595884
2550	0.00538745
2562	0.00546908
2574	0.00546908
2586	0.00489768
2598	0.00497931
2610	0.00489768
2622	0.00440791
2634	0.00448954
2646	0.0040814
2658	0.00424466
2670	0.00432628
2682	0.00391814
2694	0.00448954
2706	0.00448954
2718	0.00489768
2730	0.00481605
2742	0.00489768
2754	0.00522419
2766	0.0055507
2778	0.00489768
2790	0.00530582
2802	0.00489768
2814	0.00489768
2826	0.00497931
2838	0.00489768
2850	0.00546908
2862	0.00563233
2874	0.00579559
2886	0.0087342
2898	0.0133054
2910	0.00955048
2922	0.00799954
2934	0.0111014
2946	0.0176316
2958	0.0191826
2970	0.0156726
2982	0.0208151
2994	0.0148563
3006	0.0201621
3018	0.0156726
3030	0.00832606
3042	0.00595884
3054	0.00497931
3066	0.00489768
3078	0.00497931
3090	0.00457117
3102	0.00399977
3114	0.00391814
3126	0.00399977
3138	0.00399977
3150	0.00391814
3162	0.00391814
3174	0.00399977
3186	0.00416303
3198	0.00399977
3210	0.0040814
3222	0.00399977
3234	0.00399977
3246	0.00399977
3258	0.00399977
3270	0.00391814
3282	0.00391814
3294	0.00383652
3306	0.00383652
3318	0.00440791
3330	0.00391814
3342	0.00391814
3354	0.00416303
3366	0.00481605
3378	0.00489768
3390	0.00391814
3402	0.00522419
3414	0.00497931
3426	0.00448954
3438	0.00473442
3450	0.00440791
3462	0.00457117
3474	0.00391814
3486	0.00473442
3498	0.00530582
3510	0.0046528
3522	0.00538745
3534	0.00440791
3546	0.0046528
3558	0.00530582
3570	0.00587722
3582	0.00497931
3594	0.00514256
3606	0.00514256
3618	0.00767303
3630	0.0113463
3642	0.0172235
3654	0.0598333
3666	0.0440791
3678	0.0238354
3690	0.0110198
3702	0.0075914
3714	0.00702001
3726	0.00661187
3738	0.00702001
3750	0.00546908
3762	0.00604047
3774	0.0061221
3786	0.00587722
3798	0.00530582
3810	0.00538745
3822	0.00685675
3834	0.00653024
3846	0.00693838
3858	0.00767303
3870	0.0066935
3882	0.00726489
3894	0.00587722
3906	0.00742815
3918	0.00604047
3930	0.0061221
3942	0.0055507
3954	0.00628536
3966	0.00702001
