Infrared Spectrum: Heptafluoro-2,3,3-trichlorobutane
Formula: C 4 Cl 3 F 7
CAS: 335-44-4
Origin: Sadtler Research Labs Under US-EPA Contract
1/CM	ABSORBANCE
450	0.0633353
462	0.0196853
474	0.031097
486	0.0199706
498	0.0119823
510	0.0139794
522	0.00570588
534	0.0251059
546	0.0496412
558	0.0225382
570	0.031097
582	0.0131235
594	0.0208265
606	0.0114118
618	0.0045647
630	0.00370882
642	0.00798823
654	0.00256765
666	0.00684706
678	0.0279588
690	0.202273
702	0.135515
714	0.137512
726	0.167182
738	0.0718941
750	0.0165471
762	0.0094147
774	0.0154059
786	0.02425
798	0.0430794
810	0.219962
822	0.218535
834	0.0365176
846	0.1455
858	0.229662
870	0.169179
882	0.0485
894	0.0904382
906	0.275594
918	0.0841617
930	0.0467882
942	0.0299559
954	0.0442206
966	0.0798823
978	0.0579147
990	0.0108412
1002	0.00570588
1014	0.00770294
1026	0.0142647
1038	0.0419382
1050	0.0707529
1062	0.0507823
1074	0.0174029
1086	0.0176882
1098	0.0176882
1110	0.079597
1122	0.198279
1134	0.0502117
1146	0.0213971
1158	0.0228235
1170	0.0410823
1182	0.0907235
1194	0.217965
1206	1.04731
1218	2.15682
1230	2.45125
1242	2.09463
1254	0.560603
1266	0.581429
1278	0.348344
1290	0.108982
1302	0.0439353
1314	0.0276735
1326	0.0182588
1338	0.01455
1350	0.0128382
1362	0.0142647
1374	0.01455
1386	0.0111265
1398	0.0108412
1410	0.0139794
1422	0.0131235
1434	0.0111265
1446	0.00798823
1458	0.00827353
1470	0.00713235
1482	0.00827353
1494	0.00741764
1506	0.00656176
1518	0.00656176
1530	0.00627647
1542	0.00513529
1554	0.00513529
1566	0.00542059
1578	0.00399412
1590	0.00599117
1602	0.00513529
1614	0.00399412
1626	0.00427941
1638	0.00285294
1650	0.00342353
1662	0.00342353
1674	0.00256765
1686	0.00256765
1698	0.00342353
1710	0.00370882
1722	0.00342353
1734	0.00342353
1746	0.00313823
1758	0.00427941
1770	0.00513529
1782	0.00485
1794	0.0045647
1806	0.00427941
1818	0.00427941
1830	0.00485
1842	0.00342353
1854	0.00342353
1866	0.00485
1878	0.00370882
1890	0.00370882
1902	0.00399412
1914	0.00399412
1926	0.0045647
1938	0.00427941
1950	0.00427941
1962	0.00599117
1974	0.00542059
1986	0.00399412
1998	0.00370882
2010	0.00313823
2022	0.00256765
2034	0.00370882
2046	0.00485
2058	0.00342353
2070	0.00599117
2082	0.00855882
2094	0.00684706
2106	0.00513529
2118	0.0045647
2130	0.0045647
2142	0.00627647
2154	0.00542059
2166	0.00599117
2178	0.00627647
2190	0.00570588
2202	0.00599117
2214	0.00570588
2226	0.00684706
2238	0.00684706
2250	0.00570588
2262	0.00485
2274	0.00542059
2286	0.00542059
2298	0.00599117
2310	0.00884411
2322	0.0094147
2334	0.00656176
2346	0.00513529
2358	0.00884411
2370	0
2382	0.00256765
2394	0.00427941
2406	0.00570588
2418	0.00884411
2430	0.0105559
2442	0.0102706
2454	0.00998529
2466	0.00656176
2478	0.00570588
2490	0.00513529
2502	0.00513529
2514	0.00542059
2526	0.00342353
2538	0.00256765
2550	0.00199706
2562	0.00199706
2574	0.00171176
2586	0.00199706
2598	0.000285294
2610	0.000285294
2622	0.00142647
2634	0.00228235
2646	0.00228235
2658	0.00228235
2670	0.00427941
2682	0.00427941
2694	0.00256765
2706	0.00171176
2718	0.00142647
2730	0.00142647
2742	0.000570588
2754	0.00142647
2766	0.000855882
2778	0.000570588
2790	0.00199706
2802	0.00114118
2814	0.00114118
2826	0.00142647
2838	0.00142647
2850	0.00171176
2862	0.00199706
2874	0.000855882
2886	0.00114118
2898	0.00171176
2910	0.000570588
2922	0.00228235
2934	0.00142647
2946	0.00114118
2958	0.00228235
2970	0.00199706
2982	0.00114118
2994	0.00228235
3006	0.00199706
3018	0.00114118
3030	0.00199706
3042	0
3054	0.00114118
3066	0.00199706
3078	0.00313823
3090	0.00171176
3102	0.00285294
3114	0.00114118
3126	0.00256765
3138	0.00313823
3150	0.00142647
3162	0.00285294
3174	0.00342353
3186	0.00199706
3198	0.00256765
3210	0.00256765
3222	0.00199706
3234	0.00313823
3246	0.00199706
3258	0.00285294
3270	0.00342353
3282	0.00256765
3294	0.00256765
3306	0.00399412
3318	0.00228235
3330	0.00427941
3342	0.00142647
3354	0.00228235
3366	0.00171176
3378	0.00313823
3390	0.00370882
3402	0.000855882
3414	0.00399412
3426	0.00256765
3438	0.00313823
3450	0.00370882
3462	0.00285294
3474	0.00399412
3486	0.00427941
3498	0.00171176
3510	0.00370882
3522	0.00313823
3534	0.00256765
3546	0.00513529
3558	0.00313823
3570	0.00342353
3582	0.0045647
3594	0.00513529
3606	0.00427941
3618	0.00485
3630	0.00228235
3642	0.00285294
3654	0.00399412
3666	0.00399412
3678	0.00342353
3690	0.00114118
3702	0.00228235
3714	0.00370882
3726	0.000570588
3738	0.00342353
3750	0.00256765
3762	0.00427941
3774	0.00228235
3786	0.00256765
3798	0.00285294
3810	0.000855882
3822	0
3834	0.00313823
3846	0.00256765
3858	0.00427941
3870	0.00485
3882	0.000285294
3894	0.00199706
3906	0.00485
3918	0.00313823
3930	0.00399412
3942	0.0045647
3954	0.00599117
3966	0.00171176
