Infrared Spectrum: Octanoic acid, pentadecafluoro-
Formula: C 8 H F 15 O 2
CAS: 335-67-1
Origin: Sadtler Research Labs Under US-EPA Contract
1/CM	ABSORBANCE
450	0
462	0.00783781
474	0.0130927
486	0.017546
498	0.0217321
510	0.0285902
522	0.0390109
534	0.0560225
546	0.0509458
558	0.0612774
570	0.0711637
582	0.0641275
594	0.059318
606	0.056735
618	0.0626134
630	0.0685808
642	0.0800703
654	0.0816735
666	0.0789125
678	0.0537959
690	0.0586054
702	0.0759733
714	0.0598524
726	0.067512
738	0.0793578
750	0.076953
762	0.0341123
774	0.0493426
786	0.0573585
798	0.0605649
810	0.0595852
822	0.0479175
834	0.0543303
846	0.0338451
858	0.0241369
870	0.0262745
882	0.0375859
894	0.0350029
906	0.0289465
918	0.024226
930	0.0251166
942	0.0244041
954	0.0224446
966	0.0236025
978	0.0350029
990	0.0460471
1002	0.0597633
1014	0.0651072
1026	0.0389218
1038	0.0350029
1050	0.0434642
1062	0.052638
1074	0.0640385
1086	0.060743
1098	0.06484
1110	0.097171
1122	0.189978
1134	0.231572
1146	0.263457
1158	0.22979
1170	0.202447
1182	0.237895
1194	0.297124
1206	0.418877
1218	0.505806
1230	0.516583
1242	0.828403
1254	0.584718
1266	0.245466
1278	0.15257
1290	0.113826
1302	0.0880863
1314	0.0792687
1326	0.0666214
1338	0.080961
1350	0.074192
1362	0.0545975
1374	0.0426626
1386	0.0463143
1398	0.0334888
1410	0.0238697
1422	0.0207524
1434	0.0211086
1446	0.0203961
1458	0.0230681
1470	0.0201289
1482	0.0139834
1494	0.00899567
1506	0.0104207
1518	0.0138052
1530	0.0171007
1542	0.0154084
1554	0.01621
1566	0.0155866
1578	0.0154975
1590	0.0151412
1602	0.0146068
1614	0.0139834
1626	0.0132708
1638	0.0139834
1650	0.0133599
1662	0.0141615
1674	0.0136271
1686	0.0154975
1698	0.0183476
1710	0.0191492
1722	0.01621
1734	0.0171897
1746	0.0186148
1758	0.0203961
1770	0.0292136
1782	0.0398125
1794	0.0570913
1806	0.131907
1818	0.23647
1830	0.0879972
1842	0.0562006
1854	0.029748
1866	0.0211977
1878	0.0171897
1890	0.0153194
1902	0.0132708
1914	0.0130036
1926	0.0124692
1938	0.0116676
1950	0.0114895
1962	0.0114004
1974	0.0115786
1986	0.0114004
1998	0.0110442
2010	0.0108661
2022	0.0106879
2034	0.0105098
2046	0.0103317
2058	0.0103317
2070	0.0102426
2082	0.0103317
2094	0.0100645
2106	0.00961913
2118	0.0101535
2130	0.0100645
2142	0.00979726
2154	0.00970819
2166	0.00961913
2178	0.00970819
2190	0.00961913
2202	0.00961913
2214	0.00979726
2226	0.00997539
2238	0.00970819
2250	0.00979726
2262	0.00979726
2274	0.0105098
2286	0.0125583
2298	0.0159428
2310	0.0187929
2322	0.0184367
2334	0.0163881
2346	0.0196836
2358	0.0179913
2370	0.0177241
2382	0.0168335
2394	0.0108661
2406	0.010777
2418	0.0101535
2430	0.0101535
2442	0.00979726
2454	0.00997539
2466	0.00970819
2478	0.00997539
2490	0.00979726
2502	0.00979726
2514	0.0091738
2526	0.00881753
2538	0.0083722
2550	0.00810501
2562	0.00819407
2574	0.00774874
2586	0.00748154
2598	0.00739248
2610	0.00694715
2622	0.00650182
2634	0.00623462
2646	0.00632369
2658	0.00623462
2670	0.00596742
2682	0.00587836
2694	0.00596742
2706	0.00596742
2718	0.00605649
2730	0.00605649
2742	0.00659088
2754	0.00632369
2766	0.00623462
2778	0.00641275
2790	0.00650182
2802	0.00730341
2814	0.00712528
2826	0.00712528
2838	0.00757061
2850	0.00828314
2862	0.00757061
2874	0.00783781
2886	0.00757061
2898	0.00774874
2910	0.0091738
2922	0.00970819
2934	0.0091738
2946	0.00855034
2958	0.00757061
2970	0.00810501
2982	0.00748154
2994	0.00685808
3006	0.00721435
3018	0.00703621
3030	0.00703621
3042	0.00694715
3054	0.00757061
3066	0.00703621
3078	0.00667995
3090	0.00676902
3102	0.00676902
3114	0.00650182
3126	0.00641275
3138	0.00659088
3150	0.00667995
3162	0.00614555
3174	0.00605649
3186	0.00587836
3198	0.00596742
3210	0.00605649
3222	0.00650182
3234	0.00605649
3246	0.00596742
3258	0.00587836
3270	0.00614555
3282	0.00605649
3294	0.00641275
3306	0.00659088
3318	0.00623462
3330	0.00587836
3342	0.00632369
3354	0.00641275
3366	0.00703621
3378	0.00694715
3390	0.00632369
3402	0.00685808
3414	0.00650182
3426	0.00650182
3438	0.00712528
3450	0.00650182
3462	0.00685808
3474	0.00712528
3486	0.00748154
3498	0.00712528
3510	0.00757061
3522	0.00801594
3534	0.00801594
3546	0.0128255
3558	0.0181695
3570	0.126741
3582	0.0586945
3594	0.0187929
3606	0.0219102
3618	0.0153194
3630	0.0125583
3642	0.00872847
3654	0.00988633
3666	0.00685808
3678	0.0108661
3690	0.00908473
3702	0.00881753
3714	0.0105098
3726	0.0110442
3738	0.0109551
3750	0.0106879
3762	0.00828314
3774	0.00703621
3786	0.00721435
3798	0.00739248
3810	0.00730341
3822	0.00846127
3834	0.0091738
3846	0.00801594
3858	0.0089066
3870	0.00961913
3882	0.0109551
3894	0.0089066
3906	0.0128255
3918	0.00979726
3930	0.0104207
3942	0.00810501
3954	0.0091738
3966	0.00961913
