Infrared Spectrum: 2,5-Dimethoxybenzyl alcohol
Formula: C 9 H 12 O 3
CAS: 33524-31-1
Origin: Sadtler Research Labs Under US-EPA Contract
1/CM	ABSORBANCE
450	0.029612
462	0.016884
474	0.00922127
486	0.013767
498	0.00974078
510	0.0151956
522	0.0183127
534	0.0106499
546	0.0116889
558	0.014806
570	0.0216895
582	0.0237675
594	0.0200011
606	0.00831213
618	0.00558471
630	0.00571459
642	0.014806
654	0.00311705
666	0.00181828
678	0.00519508
690	0.0400021
702	0.131565
714	0.1265
726	0.049613
738	0.0522106
750	0.0349369
762	0.0254559
774	0.0240272
786	0.0359759
798	0.0835109
810	0.11637
822	0.0605227
834	0.0238974
846	0.0271443
858	0.0555874
870	0.075978
882	0.0737701
894	0.0310406
906	0.0251961
918	0.0416905
930	0.0429893
942	0.0370149
954	0.047535
966	0.0685751
978	0.0811731
990	0.106369
1002	0.174685
1014	0.314172
1026	0.492753
1038	0.599123
1050	0.676399
1062	0.395475
1074	0.123513
1086	0.0729909
1098	0.0588343
1110	0.0557172
1122	0.0714324
1134	0.0871475
1146	0.151566
1158	0.226635
1170	0.238065
1182	0.32703
1194	0.277547
1206	0.452491
1218	1.10123
1230	1.14629
1242	0.478856
1254	0.290924
1266	0.304042
1278	0.394307
1290	0.283911
1302	0.202348
1314	0.131436
1326	0.0797445
1338	0.0663671
1350	0.0662373
1362	0.083381
1374	0.111824
1386	0.140787
1398	0.140657
1410	0.157021
1422	0.272742
1434	0.257806
1446	0.220401
1458	0.254299
1470	0.374565
1482	0.387033
1494	1.01174
1506	1.02382
1518	0.251702
1530	0.0779262
1542	0.0410411
1554	0.0292223
1566	0.0303912
1578	0.0507819
1590	0.0762378
1602	0.058055
1614	0.0493533
1626	0.0305211
1638	0.0172736
1650	0.0144163
1662	0.00935114
1674	0.0119487
1686	0.0127279
1698	0.0219492
1710	0.0190919
1722	0.00974078
1734	0.0109097
1746	0.0067536
1758	0.00662373
1770	0.00688348
1782	0.00389631
1794	0.00532496
1806	0.00441582
1818	0.00493533
1830	0.00779262
1842	0.0079225
1854	0.00610422
1866	0.00519508
1878	0.0016884
1890	0.000779262
1902	0.000649385
1914	0.000649385
1926	0.00181828
1938	0.00389631
1950	0.00740299
1962	0.0118188
1974	0.0129877
1986	0.0129877
1998	0.0136371
2010	0.0127279
2022	0.0127279
2034	0.0125981
2046	0.0132475
2058	0.0125981
2070	0.013767
2082	0.0118188
2094	0.00831213
2106	0.00389631
2118	0.00194816
2130	0.00220791
2142	0.0033768
2154	0.00363656
2166	0.00233779
2178	0.00194816
2190	0.00207803
2202	0.00220791
2214	0.00207803
2226	0.00207803
2238	0.00220791
2250	0.00272742
2262	0.00298717
2274	0.00233779
2286	0.0016884
2298	0.00233779
2310	0.00285729
2322	0.00207803
2334	0.00116889
2346	0.00259754
2358	0.000779262
2370	0.000259754
2382	0.000649385
2394	0.000259754
2406	0.000779262
2418	0.00103902
2430	0.00103902
2442	0.000389631
2454	0.00116889
2466	0.00324692
2478	0.00480545
2490	0.00532496
2502	0.0050652
2514	0.00428594
2526	0.00363656
2538	0.00272742
2550	0.00181828
2562	0.00142865
2574	0.00181828
2586	0.00220791
2598	0.00311705
2610	0.0033768
2622	0.0033768
2634	0.0033768
2646	0.00376643
2658	0.00376643
2670	0.00324692
2682	0.00311705
2694	0.00324692
2706	0.00415606
2718	0.00584447
2730	0.00649385
2742	0.00805237
2754	0.01052
2766	0.0122084
2778	0.0153255
2790	0.0206504
2802	0.0303912
2814	0.0467557
2826	0.081303
2838	0.202218
2850	0.214817
2862	0.13767
2874	0.144813
2886	0.160398
2898	0.163905
2910	0.204686
2922	0.241961
2934	0.262741
2946	0.365084
2958	0.346772
2970	0.217284
2982	0.148709
2994	0.17923
3006	0.28469
3018	0.129098
3030	0.0663671
3042	0.0698738
3054	0.0615617
3066	0.0555874
3078	0.0510417
3090	0.0403917
3102	0.0285729
3114	0.0212998
3126	0.0164944
3138	0.01052
3150	0.00688348
3162	0.00597434
3174	0.00441582
3186	0.00415606
3198	0.00363656
3210	0.00298717
3222	0.00259754
3234	0.00233779
3246	0.00207803
3258	0.00194816
3270	0.00103902
3282	0.000259754
3294	0.00142865
3306	0.000779262
3318	0.000259754
3330	0.000519508
3342	0.000779262
3354	0.000649385
3366	0.00181828
3378	0.00103902
3390	0.00129877
3402	0.00103902
3414	0.00129877
3426	0.00207803
3438	0.00129877
3450	0.00116889
3462	0.00142865
3474	0.00220791
3486	0.00285729
3498	0.00233779
3510	0.00233779
3522	0.00285729
3534	0.00233779
3546	0.00493533
3558	0.00545483
3570	0.0062341
3582	0.0062341
3594	0.0107798
3606	0.0145462
3618	0.0259754
3630	0.0505222
3642	0.0490935
3654	0.0405216
3666	0.0349369
3678	0.0292223
3690	0.0187023
3702	0.00922127
3714	0.00441582
3726	0.00324692
3738	0.0033768
3750	0
3762	0.00142865
3774	0.00116889
3786	0.00181828
3798	0.00116889
3810	0.000649385
3822	0.000519508
3834	0.00103902
3846	0.00181828
3858	0.00129877
3870	0.0033768
3882	0.00233779
3894	0.00272742
3906	0.00233779
3918	0.00246766
3930	0.00103902
3942	0.00155852
3954	0.00181828
3966	0.00220791
