Infrared Spectrum: Dodecanamide, N,N-diethyl-
Formula: C 16 H 33 N O
CAS: 3352-87-2
Origin: Sadtler Research Labs Under US-EPA Contract
1/CM	ABSORBANCE
450	0.0104115
462	0.0141299
474	0.0390432
486	0.0227566
498	0.0318295
510	0.0145761
522	0.0395638
534	0.0255082
546	0.0169559
558	0.000148736
570	0.0192613
582	0.0253595
594	0.029301
606	0.0217898
618	0.0237234
630	0.0111552
642	0.0110808
654	0.0200794
666	0.0210461
678	0.0237234
690	0.0139812
702	0.0133862
714	0.0255826
726	0.0271443
738	0.0102628
750	0.0338374
762	0.0274418
774	0.0219386
786	0.0310115
798	0.0324244
810	0.0331681
822	0.0218642
834	0.0202281
846	0.0169559
858	0.0159148
870	0.0284086
882	0.0175508
894	0.0203768
906	0.0159148
918	0.0199306
930	0.0148736
942	0.0237234
954	0.020005
966	0.0203025
978	0.0137581
990	0.01294
1002	0.0194844
1014	0.02707
1026	0.0259544
1038	0.0287804
1050	0.0358454
1062	0.0567428
1074	0.0600893
1086	0.065072
1098	0.0835896
1110	0.0728063
1122	0.0641052
1134	0.0892416
1146	0.0754835
1158	0.0444721
1170	0.0322757
1182	0.0253595
1194	0.0330938
1206	0.0458107
1218	0.0785326
1230	0.0890929
1242	0.102851
1254	0.141225
1266	0.135722
1278	0.0914726
1290	0.0673774
1302	0.0660388
1314	0.076599
1326	0.0612792
1338	0.0633615
1350	0.0849283
1362	0.100471
1374	0.103148
1386	0.13297
1398	0.105454
1410	0.158181
1422	0.201909
1434	0.131334
1446	0.126574
1458	0.162494
1470	0.139143
1482	0.091547
1494	0.050124
1506	0.0356223
1518	0.0299703
1530	0.0238721
1542	0.0188895
1554	0.0170303
1566	0.0153198
1578	0.0161379
1590	0.0171046
1602	0.0167328
1614	0.0208974
1626	0.030119
1638	0.0488598
1650	0.0945961
1662	0.271889
1674	0.519312
1686	0.205479
1698	0.0609074
1710	0.0365891
1722	0.0261775
1734	0.0226079
1746	0.0193357
1758	0.0174765
1770	0.0219386
1782	0.0214924
1794	0.0155429
1806	0.0102628
1818	0.00803174
1830	0.0074368
1842	0.00594944
1854	0.00490829
1866	0.00565197
1878	0.00490829
1890	0.00490829
1902	0.00446208
1914	0.00431334
1926	0.00356966
1938	0.00342093
1950	0.00334656
1962	0.00416461
1974	0.00297472
1986	0.00334656
1998	0.00282598
2010	0.00327219
2022	0.00364403
2034	0.00356966
2046	0.00342093
2058	0.00304909
2070	0.00245414
2082	0.00282598
2094	0.00342093
2106	0.00334656
2118	0.00275162
2130	0.00171046
2142	0.0020823
2154	0.00230541
2166	0.00267725
2178	0.00223104
2190	0.00200794
2202	0.00171046
2214	0.00141299
2226	0.00171046
2238	0.00223104
2250	0.00230541
2262	0.00171046
2274	0.000669312
2286	0.00171046
2298	0.00312346
2310	0.0055776
2322	0.00647002
2334	0.00609818
2346	0.00498266
2358	0.00981658
2370	0.000148736
2382	0.00141299
2394	0.00356966
2406	0.00267725
2418	0.00148736
2430	0.00141299
2442	0.00171046
2454	0.00156173
2466	0.00171046
2478	0.0020823
2490	0.0018592
2502	0.00141299
2514	0.00171046
2526	0.00304909
2538	0.00297472
2550	0.00304909
2562	0.00260288
2574	0.00252851
2586	0.00290035
2598	0.00327219
2610	0.0037184
2622	0.00513139
2634	0.00498266
2646	0.00520576
2658	0.00550323
2670	0.00773427
2682	0.0090729
2694	0.00892416
2706	0.00780864
2718	0.00825485
2730	0.00892416
2742	0.00989094
2754	0.0100397
2766	0.0117501
2778	0.0134606
2790	0.0166584
2802	0.0212692
2814	0.0290779
2826	0.0400844
2838	0.0582301
2850	0.118914
2862	0.272187
2874	0.231136
2886	0.202132
2898	0.206148
2910	0.29829
2922	0.486739
2934	0.74368
2946	0.508454
2958	0.316361
2970	0.326401
2982	0.254041
2994	0.159445
3006	0.0811355
3018	0.0434309
3030	0.0287804
3042	0.0223848
3054	0.0176252
3066	0.0139812
3078	0.0107834
3090	0.00959347
3102	0.00937037
3114	0.00870106
3126	0.00758554
3138	0.00713933
3150	0.00617254
3162	0.00572634
3174	0.00505702
3186	0.00513139
3198	0.00498266
3210	0.0034953
3222	0.0020823
3234	0.00223104
3246	0.00282598
3258	0.00260288
3270	0.00282598
3282	0.00245414
3294	0.00252851
3306	0.00260288
3318	0.00461082
3330	0.00572634
3342	0.00453645
3354	0.00215667
3366	0.00141299
3378	0.00230541
3390	0.00312346
3402	0.00230541
3414	0.00230541
3426	0.00230541
3438	0.00141299
3450	0.00133862
3462	0.0018592
3474	0.00319782
3486	0.00275162
3498	0.00200794
3510	0.000669312
3522	0.00200794
3534	0.00193357
3546	0.00304909
3558	0.0034953
3570	0.00624691
3582	0.00661875
3594	0.000966784
3606	0.00297472
3618	0.00542886
3630	0.00490829
3642	0.00297472
3654	0.00223104
3666	0.0039415
3678	0.0020823
3690	0.00223104
3702	0.00386714
3714	0.00550323
3726	0.00386714
3738	0.0018592
3750	0.000223104
3762	0.00453645
3774	0.00386714
3786	0.00230541
3798	0.00364403
3810	0.00252851
3822	0.000223104
3834	0.00215667
3846	0.00483392
3858	0.00386714
3870	0.00327219
3882	0.00148736
3894	0.00260288
3906	0.00215667
3918	0.00260288
3930	0.00304909
3942	0.00513139
3954	0.00290035
3966	0.000446208
