Infrared Spectrum: Phenol, 2-methyl-6-(2-propenyl)-
Formula: C 10 H 12 O
CAS: 3354-58-3
Origin: Sadtler Research Labs Under US-EPA Contract
1/CM	ABSORBANCE
450	0.00559127
462	0.00752671
474	0.0206447
486	0.0149817
498	0.0177057
510	0.0159136
522	0.0370601
534	0.0346229
546	0.0210748
558	0.0136915
570	0.0108958
582	0.0102507
594	0.00788513
606	0.0172039
618	0.0418629
630	0.0331892
642	0.00745503
654	0.0046594
666	7.1683e-05
678	0.00688157
690	0.0147667
702	0.0272395
714	0.0217916
726	0.0556977
738	0.230102
750	0.259134
762	0.17462
774	0.188096
786	0.052687
798	0.011756
810	0.0191394
822	0.0720414
834	0.111539
846	0.040931
858	0.0181358
870	0.0326158
882	0.0592102
894	0.062866
906	0.140427
918	0.251249
930	0.162577
942	0.075984
954	0.0539056
966	0.0385655
978	0.0506799
990	0.129029
1002	0.16229
1014	0.0803566
1026	0.033691
1038	0.024874
1050	0.0259492
1062	0.0451603
1074	0.103797
1086	0.130391
1098	0.102435
1110	0.0683139
1122	0.0283865
1134	0.0210031
1146	0.0273112
1158	0.0534755
1170	0.1167
1182	0.333971
1194	0.679053
1206	0.617477
1218	0.302144
1230	0.136198
1242	0.132327
1254	0.266804
1266	0.282646
1278	0.124728
1290	0.092256
1302	0.099281
1314	0.145158
1326	0.154979
1338	0.0678838
1350	0.0214332
1362	0.0164871
1374	0.0220784
1386	0.0339061
1398	0.027813
1410	0.0446585
1422	0.083224
1434	0.203006
1446	0.270173
1458	0.322143
1470	0.471674
1482	0.342716
1494	0.142434
1506	0.0612173
1518	0.0312538
1530	0.0245873
1542	0.0269528
1554	0.0234403
1566	0.0161287
1578	0.0225801
1590	0.0668086
1602	0.0865931
1614	0.0445868
1626	0.0619341
1638	0.127954
1650	0.076199
1662	0.0240138
1674	0.0169889
1686	0.0120427
1698	0.0112542
1710	0.00602137
1722	0.00437266
1734	0.00788513
1746	0.00494613
1758	0.00480276
1770	0.00824354
1782	0.00953384
1794	0.00910374
1806	0.00860196
1818	0.0113976
1830	0.0237271
1842	0.0324007
1854	0.0245873
1866	0.0118994
1878	0.00537623
1890	0.00752671
1902	0.0159853
1914	0.016057
1926	0.00544791
1938	0.00129029
1950	0.00136198
1962	0.000860196
1974	0.00143366
1986	0.00200712
1998	0.00164871
2010	0.00114693
2022	0.000645147
2034	0.00121861
2046	0.00121861
2058	0.00129029
2070	0.00071683
2082	0.00243722
2094	0.00344078
2106	0.00172039
2118	0.000501781
2130	0.000645147
2142	0.00071683
2154	0.000358415
2166	0.00071683
2178	0.00172039
2190	0.000788513
2202	0.000931879
2214	0.000860196
2226	0.000501781
2238	0.000573464
2250	0.00107525
2262	0.00207881
2274	0.00229386
2286	0.00265227
2298	0.00430098
2310	0.00616474
2322	0.00652315
2334	0.00616474
2346	0.00559127
2358	0.0042293
2370	0.00164871
2382	0.00444435
2394	0.00559127
2406	0.00566296
2418	0.0067382
2430	0.0071683
2442	0.00695325
2454	0.00666652
2466	0.00774176
2478	0.00831523
2490	0.00838691
2502	0.0067382
2514	0.00666652
2526	0.00616474
2538	0.00430098
2550	0.00387088
2562	0.0033691
2574	0.00272395
2586	0.00279564
2598	0.00243722
2610	0.00279564
2622	0.00329742
2634	0.00430098
2646	0.00401425
2658	0.00566296
2670	0.00530454
2682	0.0037992
2694	0.00344078
2706	0.00372752
2718	0.00473108
2730	0.0063081
2742	0.0108241
2754	0.0108958
2766	0.00523286
2778	0.0037992
2790	0.00480276
2802	0.00702493
2814	0.0116843
2826	0.0211465
2838	0.0463789
2850	0.0766291
2862	0.104084
2874	0.113689
2886	0.0983491
2898	0.119567
2910	0.169602
2922	0.216411
2934	0.242719
2946	0.162362
2958	0.109532
2970	0.108456
2982	0.164871
2994	0.141216
3006	0.0929012
3018	0.13161
3030	0.175122
3042	0.196483
3054	0.173114
3066	0.203293
3078	0.184512
3090	0.198705
3102	0.0923277
3114	0.0260209
3126	0.0104657
3138	0.00637979
3150	0.00401425
3162	0.00415761
3174	0.00401425
3186	0.00544791
3198	0.00430098
3210	0.00250891
3222	0.00100356
3234	0.000931879
3246	0.00071683
3258	0.000860196
3270	0.002939
3282	0.00193544
3294	0.000931879
3306	0.00265227
3318	0.00186376
3330	0.00272395
3342	0.00215049
3354	0.0037992
3366	0.0037992
3378	0.00150534
3390	0.00358415
3402	0.00394257
3414	0.00508949
3426	0.00537623
3438	0.00372752
3450	0.00473108
3462	0.00537623
3474	0.00831523
3486	0.00974889
3498	0.0109675
3510	0.0100356
3522	0.0222934
3534	0.0385655
3546	0.0459488
3558	0.0499631
3570	0.0777761
3582	0.203436
3594	0.294115
3606	0.253256
3618	0.136771
3630	0.0723281
3642	0.109603
3654	0.197845
3666	0.112327
3678	0.0313972
3690	0.0071683
3702	0.00179207
3714	0.00200712
3726	0.00136198
3738	0.00301069
3750	7.1683e-05
3762	7.1683e-05
3774	7.1683e-05
3786	7.1683e-05
3798	7.1683e-05
3810	0.000215049
3822	0.00136198
3834	7.1683e-05
3846	0.000645147
3858	0.00688157
3870	0.00838691
3882	0.00774176
3894	0.00451603
3906	0.00193544
3918	0.00286732
3930	0.00544791
3942	0.00351247
3954	7.1683e-05
3966	0.00114693
