Infrared Spectrum: 3-(2-Hydroxyethyl)-2-oxazolidinone
Formula: C 5 H 9 N O 3
CAS: 3356-88-5
Origin: Sadtler Research Labs Under US-EPA Contract
1/CM	ABSORBANCE
450	0
462	0.0229129
474	0.0217544
486	0.017249
498	0.0131942
510	0.0134517
522	0.012615
534	0.0123575
546	0.0110703
558	0.013516
570	0.00946121
582	0.0125506
594	0.0108772
606	0.011199
618	0.0130655
630	0.0152538
642	0.0148676
654	0.0122931
666	0.0134517
678	0.0148676
690	0.0189224
702	0.0152538
714	0.0091394
726	0.00997611
738	0.00984739
750	0.0186006
762	0.0385528
774	0.0327603
786	0.0187937
798	0.0141596
810	0.0130011
822	0.0120357
834	0.0115852
846	0.0154469
858	0.0214325
870	0.0211107
882	0.0176996
894	0.0160905
906	0.0178926
918	0.022398
930	0.0251012
942	0.0233634
954	0.0281262
966	0.0362358
978	0.0313443
990	0.0236209
1002	0.029864
1014	0.0471773
1026	0.0698971
1038	0.110831
1050	0.190254
1062	0.219989
1074	0.172361
1086	0.137413
1098	0.101885
1110	0.0624955
1122	0.0467912
1134	0.0441523
1146	0.0474992
1158	0.0588269
1170	0.0778137
1182	0.0890126
1194	0.089785
1206	0.0931318
1218	0.0980233
1230	0.103365
1242	0.112505
1254	0.143849
1266	0.145265
1278	0.0868887
1290	0.0498162
1302	0.0427364
1314	0.0427364
1326	0.0430582
1338	0.0406124
1350	0.0474348
1362	0.0657136
1374	0.0650056
1386	0.060629
1398	0.095127
1410	0.151058
1422	0.141468
1434	0.0849578
1446	0.0572178
1458	0.035914
1470	0.0302501
1482	0.0555444
1494	0.0659067
1506	0.035914
1518	0.0218831
1530	0.0191155
1542	0.0140309
1554	0.012808
1566	0.0123575
1578	0.0125506
1590	0.0118426
1602	0.0123575
1614	0.0119713
1626	0.0113921
1638	0.0113277
1650	0.0113921
1662	0.0120357
1674	0.011907
1686	0.0120357
1698	0.0140953
1710	0.019373
1722	0.0276757
1734	0.0392608
1746	0.0588912
1758	0.0906861
1770	0.186521
1782	0.420026
1794	0.64362
1806	0.524615
1818	0.182595
1830	0.0749817
1842	0.0498806
1854	0.0303145
1866	0.0216256
1878	0.0183432
1890	0.0151894
1902	0.0139022
1914	0.0132586
1926	0.0121644
1938	0.0123575
1950	0.0120357
1962	0.011907
1974	0.0117139
1986	0.0116495
1998	0.0110703
2010	0.0108772
2022	0.0107485
2034	0.0106841
2046	0.0105554
2058	0.010491
2070	0.0109415
2082	0.0108772
2094	0.0107485
2106	0.010491
2118	0.0103623
2130	0.0102336
2142	0.0102979
2154	0.0101692
2166	0.0104266
2178	0.0106841
2190	0.0106841
2202	0.0100405
2214	0.00978302
2226	0.00997611
2238	0.00991175
2250	0.0100405
2262	0.0102979
2274	0.0104266
2286	0.0106197
2298	0.0111346
2310	0.0110703
2322	0.0104266
2334	0.0107485
2346	0.010491
2358	0.0103623
2370	0.00952558
2382	0.0106197
2394	0.00946121
2406	0.00971866
2418	0.00920377
2430	0.0091394
2442	0.00926813
2454	0.00958994
2466	0.00939685
2478	0.00971866
2490	0.00952558
2502	0.00958994
2514	0.00952558
2526	0.00991175
2538	0.0103623
2550	0.010491
2562	0.0108772
2574	0.0108772
2586	0.0105554
2598	0.0104266
2610	0.0101048
2622	0.00991175
2634	0.00978302
2646	0.00984739
2658	0.0100405
2670	0.010491
2682	0.0109415
2694	0.0117782
2706	0.0124219
2718	0.0126793
2730	0.0131942
2742	0.0133873
2754	0.013516
2766	0.0140953
2778	0.0151894
2790	0.0162192
2802	0.0177639
2814	0.0196948
2826	0.0223336
2838	0.0267746
2850	0.0348842
2862	0.0493657
2874	0.0682881
2886	0.0849578
2898	0.0888839
2910	0.0976372
2922	0.110381
2934	0.103752
2946	0.0882403
2958	0.0746599
2970	0.0694466
2982	0.0727291
2994	0.064362
3006	0.0463406
3018	0.0276757
3030	0.0184719
3042	0.0144815
3054	0.0129368
3066	0.0125506
3078	0.0119713
3090	0.0108772
3102	0.010491
3114	0.0100405
3126	0.00991175
3138	0.00946121
3150	0.00958994
3162	0.00978302
3174	0.00952558
3186	0.00952558
3198	0.00984739
3210	0.00952558
3222	0.0096543
3234	0.00933249
3246	0.00946121
3258	0.00920377
3270	0.0096543
3282	0.00978302
3294	0.00991175
3306	0.00971866
3318	0.010491
3330	0.0101048
3342	0.0100405
3354	0.0102336
3366	0.00971866
3378	0.0102979
3390	0.010491
3402	0.0107485
3414	0.0102979
3426	0.010491
3438	0.0111346
3450	0.0111346
3462	0.0115852
3474	0.013516
3486	0.0171203
3498	0.0218831
3510	0.0250368
3522	0.0245863
3534	0.0224623
3546	0.0189868
3558	0.0173134
3570	0.0183432
3582	0.0164767
3594	0.014932
3606	0.0134517
3618	0.0135804
3630	0.0140953
3642	0.0148676
3654	0.0176352
3666	0.0245863
3678	0.0254874
3690	0.0171203
3702	0.011199
3714	0.0101692
3726	0.0096543
3738	0.0101048
3750	0.00907504
3762	0.00907504
3774	0.00907504
3786	0.00926813
3798	0.00907504
3810	0.00907504
3822	0.00907504
3834	0.00901068
3846	0.00907504
3858	0.00978302
3870	0.00984739
3882	0.00907504
3894	0.00933249
3906	0.00907504
3918	0.00907504
3930	0.0096543
3942	0.00907504
3954	0.0110059
3966	0.00907504
