Infrared Spectrum: Furan, tetrahydro-2,2,4,4-tetramethyl-
Formula: C 8 H 16 O
CAS: 3358-28-9
Origin: Sadtler Research Labs Under US-EPA Contract
1/CM	ABSORBANCE
450	0.0480072
462	0.040006
474	0.0240036
486	0.0155813
498	0.00968567
510	0
522	0.00575525
534	0.00772046
546	0.00379004
558	0.00561488
570	0.00884344
582	0.00561488
594	0.00687823
606	0.00491302
618	0.0129142
630	0.0336893
642	0.0245651
654	0.00687823
666	0.00364967
678	0.0025267
690	0.00379004
702	0.00280744
714	0.00294781
726	0.00435153
738	0.00435153
750	0.00968567
762	0.0401464
774	0.0852058
786	0.0606407
798	0.0174061
810	0.00898381
822	0.012072
834	0.0151602
846	0.0245651
858	0.0547451
870	0.0953126
882	0.0644307
894	0.035093
906	0.0495513
918	0.0508147
930	0.0402868
942	0.047165
954	0.0459016
966	0.0283551
978	0.0225999
990	0.0235825
1002	0.0234421
1014	0.024144
1026	0.0335489
1038	0.082258
1050	0.375635
1062	0.815421
1074	0.518815
1086	0.207329
1098	0.110332
1110	0.0517973
1122	0.0656941
1134	0.107806
1146	0.121422
1158	0.0794506
1170	0.0421116
1182	0.0485687
1194	0.077345
1206	0.123247
1218	0.178553
1230	0.235404
1242	0.168727
1254	0.0962952
1266	0.100927
1278	0.125071
1290	0.1961
1302	0.155532
1314	0.0470246
1326	0.0186695
1338	0.0196521
1350	0.0475861
1362	0.178694
1374	0.326225
1386	0.243545
1398	0.0877325
1410	0.0183887
1422	0.0202136
1434	0.0331278
1446	0.0960144
1458	0.182764
1470	0.163112
1482	0.0972778
1494	0.0387427
1506	0.0136161
1518	0.00729934
1530	0.00435153
1542	0.00322856
1554	0.00463228
1566	0.00280744
1578	0.00379004
1590	0.00308818
1602	0.00379004
1614	0.00463228
1626	0.00533414
1638	0.00575525
1650	0.00631674
1662	0.00561488
1674	0.00477265
1686	0.00547451
1698	0.00533414
1710	0.00547451
1722	0.00505339
1734	0.00463228
1746	0.00379004
1758	0.00196521
1770	0.00182484
1782	0.00168446
1794	0.00126335
1806	0.00154409
1818	0.00224595
1830	0.00379004
1842	0.00393042
1854	0.0025267
1866	0.00168446
1878	0.00168446
1890	0.00168446
1902	0.00238632
1914	0.00407079
1926	0.00659748
1938	0.006036
1950	0.00364967
1962	0.00294781
1974	0.0025267
1986	0.00238632
1998	0.00280744
2010	0.00322856
2022	0.00308818
2034	0.00238632
2046	0.00196521
2058	0.00210558
2070	0.00196521
2082	0.00224595
2094	0.0025267
2106	0.00505339
2118	0.00631674
2130	0.00407079
2142	0.00294781
2154	0.00308818
2166	0.00196521
2178	0.000842232
2190	0.000842232
2202	0.000561488
2214	0.000842232
2226	0.000842232
2238	0.00154409
2250	0.00182484
2262	0.00168446
2274	0.000842232
2286	0.00112298
2298	0.00070186
2310	0.000561488
2322	0.000561488
2334	0.000561488
2346	0.000140372
2358	0
2370	0.000140372
2382	0.000842232
2394	0.00140372
2406	0.00154409
2418	0.000982604
2430	0.00070186
2442	0.000140372
2454	0
2466	0.000280744
2478	0.000421116
2490	0.000280744
2502	0.000561488
2514	0.000842232
2526	0.00070186
2538	0.00126335
2550	0.00112298
2562	0.00210558
2574	0.00322856
2586	0.00421116
2598	0.00435153
2610	0.00547451
2622	0.00631674
2634	0.00758009
2646	0.00898381
2658	0.0105279
2670	0.0153005
2682	0.0214769
2694	0.0190906
2706	0.0130546
2718	0.0175465
2730	0.0227403
2742	0.0220384
2754	0.0174061
2766	0.0168446
2778	0.0172658
2790	0.0203539
2802	0.0342508
2814	0.0647115
2826	0.145285
2838	0.333243
2850	0.426591
2862	0.337595
2874	0.427713
2886	0.439645
2898	0.320469
2910	0.332682
2922	0.4527
2934	0.705089
2946	0.915366
2958	1.1467
2970	1.38716
2982	1.18095
2994	0.432767
3006	0.073976
3018	0.0318644
3030	0.0209154
3042	0.0150198
3054	0.0112298
3066	0.010949
3078	0.0112298
3090	0.0108086
3102	0.0113701
3114	0.0115105
3126	0.0117912
3138	0.012072
3150	0.0126335
3162	0.0143179
3174	0.0189502
3186	0.0214769
3198	0.0193713
3210	0.0165639
3222	0.0134757
3234	0.0103875
3246	0.00814158
3258	0.00575525
3270	0.00491302
3282	0.00477265
3294	0.0044919
3306	0.00547451
3318	0.00463228
3330	0.00589562
3342	0.00631674
3354	0.00575525
3366	0.00379004
3378	0.00463228
3390	0.00463228
3402	0.00505339
3414	0.00463228
3426	0.00477265
3438	0.0035093
3450	0.00182484
3462	0.00140372
3474	0.00126335
3486	0.00112298
3498	0.000982604
3510	0.00140372
3522	0.00182484
3534	0.00140372
3546	0.000982604
3558	0.00112298
3570	0.000982604
3582	0.00210558
3594	0.00140372
3606	0.00112298
3618	0.00196521
3630	0.00140372
3642	0.00126335
3654	0.000982604
3666	0.0035093
3678	0.000280744
3690	0.00182484
3702	0.00210558
3714	0.00238632
3726	0.00294781
3738	0.00238632
3750	0.00421116
3762	0.00322856
3774	0.00210558
3786	0.00421116
3798	0.00224595
3810	0.00491302
3822	0.00322856
3834	0.00364967
3846	0.00294781
3858	0.00336893
3870	0.00364967
3882	0.00336893
3894	0.00435153
3906	0.00519376
3918	0.00533414
3930	0.00407079
3942	0.00308818
3954	0.00308818
3966	0.00266707
