Infrared Spectrum: Benzene, 3,5-dichloro-1-methoxy-
Formula: C 7 H 6 Cl 2 O
CAS: 33719-74-3
Origin: Sadtler Research Labs Under US-EPA Contract
1/CM	ABSORBANCE
450	0
462	0.0346924
474	0.0302636
486	0.027311
498	0.0225131
510	0.0247276
522	0.032478
534	0.0233436
546	0.0250044
558	0.027311
570	0.043181
582	0.0423506
594	0.0265729
606	0.0257425
618	0.0292486
630	0.0313708
642	0.0332161
654	0.0360764
666	0.0854392
678	0.0692003
690	0.0298022
702	0.0258348
714	0.0238972
726	0.0235281
738	0.0262038
750	0.0271265
762	0.0301713
774	0.0372759
786	0.0706765
798	0.219595
810	0.281138
822	0.139508
834	0.210184
846	0.178906
858	0.124745
870	0.0814718
882	0.144582
894	0.240171
906	0.0674472
918	0.0346001
930	0.0322935
942	0.0307249
954	0.028326
966	0.0285105
978	0.0336775
990	0.0515773
1002	0.047333
1014	0.0480711
1026	0.0871923
1038	0.22753
1050	0.421107
1062	0.318967
1074	0.126221
1086	0.158884
1098	0.239064
1110	0.238326
1122	0.078796
1134	0.0374604
1146	0.0334929
1158	0.0344156
1170	0.0318321
1182	0.0344156
1194	0.0360764
1206	0.044565
1218	0.082948
1230	0.0996484
1242	0.120408
1254	0.288242
1266	0.292671
1278	0.0854392
1290	0.100848
1302	0.151133
1314	0.0736291
1326	0.0250966
1338	0.0207601
1350	0.0339543
1362	0.0565597
1374	0.0882073
1386	0.0882073
1398	0.128805
1410	0.267297
1422	0.432363
1434	0.354582
1446	0.219319
1458	0.194222
1470	0.191731
1482	0.095035
1494	0.0678162
1506	0.0582205
1518	0.0561906
1530	0.062188
1542	0.0738136
1554	0.152517
1566	0.516511
1578	0.850609
1590	0.757881
1602	0.438914
1614	0.1575
1626	0.0951273
1638	0.0619112
1650	0.054253
1662	0.0425351
1674	0.0416124
1686	0.0409665
1698	0.0425351
1710	0.0385676
1722	0.0330316
1734	0.02971
1746	0.0281414
1758	0.0250966
1770	0.0258348
1782	0.0254657
1794	0.0262961
1806	0.0247276
1818	0.0239894
1830	0.0260193
1842	0.0242662
1854	0.0236204
1866	0.0250966
1878	0.025927
1890	0.0254657
1902	0.0243585
1914	0.0239894
1926	0.0250044
1938	0.0253734
1950	0.0243585
1962	0.023159
1974	0.0240817
1986	0.0251889
1998	0.0249121
2010	0.023159
2022	0.0220518
2034	0.0226977
2046	0.023159
2058	0.0237126
2070	0.0238972
2082	0.0249121
2094	0.0266652
2106	0.0275878
2118	0.0261116
2130	0.0261116
2142	0.0294332
2154	0.0291564
2166	0.0238972
2178	0.0226054
2190	0.0227899
2202	0.0219595
2214	0.0202987
2226	0.0201142
2238	0.0201142
2250	0.0201142
2262	0.0202065
2274	0.0200219
2286	0.020391
2298	0.0215905
2310	0.0233436
2322	0.0253734
2334	0.027311
2346	0.0310017
2358	0.0302636
2370	0.0266652
2382	0.0227899
2394	0.0200219
2406	0.0198374
2418	0.0202987
2430	0.0193761
2442	0.0189147
2454	0.0196529
2466	0.0200219
2478	0.0208523
2490	0.0214982
2502	0.0218673
2514	0.0234358
2526	0.0225131
2538	0.0200219
2550	0.0201142
2562	0.0210369
2574	0.0197451
2586	0.0190993
2598	0.0195606
2610	0.0199297
2622	0.020391
2634	0.0221441
2646	0.0228822
2658	0.0221441
2670	0.0221441
2682	0.0226054
2694	0.0214059
2706	0.0214059
2718	0.0218673
2730	0.0213137
2742	0.0210369
2754	0.0206678
2766	0.0208523
2778	0.0208523
2790	0.0224209
2802	0.0232513
2814	0.0262961
2826	0.0334929
2838	0.0524077
2850	0.0656018
2862	0.0558215
2874	0.0462258
2886	0.0488092
2898	0.0495474
2910	0.0522231
2922	0.0583127
2934	0.061173
2946	0.110905
2958	0.114227
2970	0.0919902
2982	0.0585895
2994	0.0478866
3006	0.0683698
3018	0.0939278
3030	0.0469639
3042	0.0303558
3054	0.0262038
3066	0.0247276
3078	0.0250044
3090	0.027311
3102	0.0262038
3114	0.0237126
3126	0.0228822
3138	0.0237126
3150	0.0237126
3162	0.0230668
3174	0.0227899
3186	0.0216827
3198	0.0213137
3210	0.0213137
3222	0.0220518
3234	0.0209446
3246	0.0210369
3258	0.0206678
3270	0.0209446
3282	0.0207601
3294	0.0206678
3306	0.0205755
3318	0.020391
3330	0.0207601
3342	0.0214982
3354	0.0208523
3366	0.0207601
3378	0.0205755
3390	0.0209446
3402	0.0208523
3414	0.0202987
3426	0.0214059
3438	0.0214059
3450	0.0207601
3462	0.0213137
3474	0.0205755
3486	0.0204833
3498	0.0214059
3510	0.0208523
3522	0.0208523
3534	0.0209446
3546	0.0207601
3558	0.0204833
3570	0.0208523
3582	0.0220518
3594	0.0190993
3606	0.0216827
3618	0.0209446
3630	0.0227899
3642	0.0226054
3654	0.0208523
3666	0.0238972
3678	0.0182689
3690	0.0206678
3702	0.0212214
3714	0.0213137
3726	0.0206678
3738	0.0189147
3750	0.0227899
3762	0.0204833
3774	0.0187302
3786	0.0187302
3798	0.020391
3810	0.0208523
3822	0.0188225
3834	0.0196529
3846	0.0237126
3858	0.0186379
3870	0.0202987
3882	0.0213137
3894	0.0204833
3906	0.0191915
3918	0.0194683
3930	0.0190993
3942	0.0187302
3954	0.019007
3966	0.020391
