Infrared Spectrum: Hexane, 2-bromo-
Formula: C 6 H 13 Br
CAS: 3377-86-4
Origin: Sadtler Research Labs Under US-EPA Contract
1/CM	ABSORBANCE
450	0.00851606
462	0.00608998
474	0.000396096
486	0.00821899
498	0.0158438
510	0.00985289
522	0.0218843
534	0.0312916
546	0.0298557
558	0.0212406
570	0.00945679
582	0.00911021
594	0.0134178
606	0.0131207
618	0.034906
630	0.0304994
642	0.00559486
654	0.00158438
666	0.00722875
678	0.0020795
690	0.0041095
702	0.00965484
714	0.00797143
726	0.0138138
738	0.0242114
750	0.0172302
762	0.00767436
774	0.00851606
786	0.0107441
798	0.012576
810	0.0128236
822	0.00792192
834	0.00975386
846	0.00717924
858	0.00792192
870	0.0129721
882	0.0166855
894	0.0153982
906	0.018666
918	0.0138634
930	0.00876362
942	0.0095063
954	0.00930826
966	0.0184185
978	0.0264889
990	0.0249045
1002	0.0265384
1014	0.0233202
1026	0.0152992
1038	0.0200028
1050	0.0232211
1062	0.0186165
1074	0.018369
1086	0.0166855
1098	0.0127246
1110	0.0197553
1122	0.0300043
1134	0.043125
1146	0.0613454
1158	0.039164
1170	0.0238648
1182	0.0526313
1194	0.0803085
1206	0.049611
1218	0.0385203
1230	0.0624841
1242	0.0766941
1254	0.0563942
1266	0.0380747
1278	0.0264889
1290	0.0322818
1302	0.0309945
1314	0.0241619
1326	0.0210921
1338	0.0199533
1350	0.0233202
1362	0.0224784
1374	0.0425803
1386	0.0731787
1398	0.0347574
1410	0.0140119
1422	0.018666
1434	0.0342128
1446	0.0632763
1458	0.0895177
1470	0.0790212
1482	0.0360447
1494	0.0138138
1506	0.00861509
1518	0.00643656
1530	0.0065851
1542	0.00594144
1554	0.00420852
1566	0.00405998
1578	0.00311926
1590	0.00302023
1602	0.00386194
1614	0.00262414
1626	0.00336682
1638	0.00435706
1650	0.00282218
1662	0.00351535
1674	0.00376291
1686	0.00381242
1698	0.00465413
1710	0.00405998
1722	0.00311926
1734	0.0049512
1746	0.00505022
1758	0.0045551
1770	0.00346584
1782	0.00217853
1794	0.00193097
1806	0.00193097
1818	0.00138634
1830	0.000792192
1842	0.00217853
1854	0.000792192
1866	0.000792192
1878	0.00128731
1890	0.000693168
1902	0.00103975
1914	0.00158438
1926	0.00118829
1938	0.00074268
1950	0.00153487
1962	0.00049512
1974	0.00099024
1986	0.00133682
1998	0.000445608
2010	0.0012378
2022	0.00138634
2034	0.000841704
2046	0.00118829
2058	0.000940728
2070	0.00024756
2082	0.00118829
2094	0.000643656
2106	0.000445608
2118	0.00113878
2130	0.000594144
2142	0.000148536
2154	0.00099024
2166	0.000643656
2178	0.000445608
2190	0.00143585
2202	0.000940728
2214	0.000940728
2226	0.00074268
2238	0.000346584
2250	0.000891216
2262	0.00178243
2274	0.000841704
2286	0.00133682
2298	0.00183194
2310	0.000841704
2322	0.00173292
2334	0.00237658
2346	0.00133682
2358	0.00430754
2370	0.00297072
2382	0.000841704
2394	0.00183194
2406	0.00188146
2418	0.00133682
2430	0.00242609
2442	0.00148536
2454	0.00133682
2466	0.00193097
2478	0.00143585
2490	0.000841704
2502	0.00227755
2514	0.00133682
2526	0.00178243
2538	0.00277267
2550	0.00153487
2562	0.00193097
2574	0.00292121
2586	0.00242609
2598	0.00292121
2610	0.00386194
2622	0.00237658
2634	0.00346584
2646	0.00396096
2658	0.00311926
2670	0.00490169
2682	0.00549583
2694	0.00465413
2706	0.00594144
2718	0.00604046
2730	0.00648607
2742	0.0101004
2754	0.00975386
2766	0.0065851
2778	0.00797143
2790	0.0100014
2802	0.012279
2814	0.016438
2826	0.0230726
2838	0.0428774
2850	0.0645636
2862	0.109719
2874	0.18666
2886	0.212307
2898	0.162597
2910	0.153537
2922	0.240628
2934	0.37441
2946	0.387233
2958	0.327225
2970	0.486158
2982	0.345495
2994	0.172945
3006	0.0765456
3018	0.0296082
3030	0.0209931
3042	0.0152497
3054	0.0120809
3066	0.00955582
3078	0.0078229
3090	0.00861509
3102	0.00712973
3114	0.00613949
3126	0.00698119
3138	0.00539681
3150	0.00420852
3162	0.00569388
3174	0.00514925
3186	0.00514925
3198	0.0057929
3210	0.00420852
3222	0.00465413
3234	0.00386194
3246	0.00242609
3258	0.00311926
3270	0.0037134
3282	0.0016339
3294	0.00212902
3306	0.00277267
3318	0.00178243
3330	0.00227755
3342	0.00222804
3354	0.00099024
3366	0.0020795
3378	0.00227755
3390	0.00118829
3402	0.0028717
3414	0.00193097
3426	0.00128731
3438	0.00282218
3450	0.00232706
3462	0.0012378
3474	0.00292121
3486	0.00227755
3498	0.00183194
3510	0.00282218
3522	0.00173292
3534	0.00178243
3546	0.00336682
3558	0.00133682
3570	0.00267365
3582	0.00346584
3594	0.00188146
3606	0.00237658
3618	0.00376291
3630	0.00252511
3642	0.00277267
3654	0.0028717
3666	0.00143585
3678	0.0028717
3690	0.00297072
3702	0.00143585
3714	0.00227755
3726	0.00193097
3738	0.00138634
3750	0.0028717
3762	0.00188146
3774	0.000445608
3786	0.00168341
3798	0.0016339
3810	0.000445608
3822	0.00297072
3834	0.00138634
3846	0.000445608
3858	0.00297072
3870	0.00143585
3882	9.9024e-05
3894	0.0033173
3906	0.00168341
3918	0.00198048
3930	0.00401047
3942	0.00138634
3954	0
3966	9.9024e-05
