Infrared Spectrum: Benzenemethanamine, N-(1,1-dimethylethyl)-
Formula: C 11 H 17 N
CAS: 3378-72-1
Origin: Sadtler Research Labs Under US-EPA Contract
1/CM	ABSORBANCE
450	0.0374497
462	0.0286247
474	0.0161792
486	0.0140295
498	0.0178763
510	0.0289641
522	0.0135769
534	0.00599647
546	0.00927756
558	0.0191208
570	0.0217231
582	0.0247779
594	0.0299824
606	0.0235333
618	0.0244385
630	0.0307744
642	0.0432199
654	0.0622276
666	0.0906259
678	0.146065
690	0.263958
702	0.35481
714	0.256491
726	0.197884
738	0.217118
750	0.169146
762	0.089834
774	0.0362051
786	0.0164054
798	0.0138032
810	0.0132375
822	0.0122192
834	0.00803301
846	0.00395994
858	0.00463878
870	0.00362051
882	0.0049782
894	0.0151609
906	0.0312269
918	0.0205917
930	0.0156135
942	0.0100695
954	0.00214968
966	0.00113141
978	0.00905128
990	0.0140295
1002	0.0182157
1014	0.0351869
1026	0.118006
1038	0.0543077
1050	0.0300955
1062	0.0483112
1074	0.0647167
1086	0.0933413
1098	0.134185
1110	0.0718445
1122	0.0349606
1134	0.0259093
1146	0.018442
1158	0.0306612
1170	0.0580413
1182	0.0861003
1194	0.128528
1206	0.250607
1218	0.443286
1230	0.477002
1242	0.242461
1254	0.105447
1266	0.0550997
1278	0.0380154
1290	0.0312269
1302	0.0290772
1314	0.0273801
1326	0.028059
1338	0.0381285
1350	0.0924362
1362	0.223793
1374	0.239293
1386	0.180234
1398	0.162697
1410	0.0308875
1422	0.0346211
1434	0.0824798
1446	0.197884
1458	0.214742
1470	0.185438
1482	0.243479
1494	0.158284
1506	0.0712788
1518	0.0155003
1530	0.0107484
1542	0.00905128
1554	0.00780673
1566	0.00905128
1578	0.0150478
1590	0.0313401
1602	0.0523843
1614	0.0401651
1626	0.0118798
1638	0.0118798
1650	0.0175369
1662	0.00780673
1674	0.00588333
1686	0.00463878
1698	0.00475192
1710	0.00644904
1722	0.0100695
1734	0.0116535
1746	0.00905128
1758	0.00905128
1770	0.00973013
1782	0.00927756
1794	0.0183288
1806	0.0186683
1818	0.00848558
1830	0.00588333
1842	0.00543077
1854	0.00814615
1866	0.0122192
1878	0.0130112
1890	0.00746731
1902	0.00429936
1914	0.00475192
1926	0.00848558
1938	0.0157266
1950	0.0191208
1962	0.011201
1974	0.00271538
1986	0.00214968
1998	0.00101827
2010	0.000791987
2022	0.000678846
2034	0.000226282
2046	0.000113141
2058	0
2070	0.000113141
2082	0.000226282
2094	0.000226282
2106	0.00113141
2118	0.00181026
2130	0.0019234
2142	0.00226282
2154	0.00203654
2166	0.0024891
2178	0.00237596
2190	0.00214968
2202	0.0019234
2214	0.00113141
2226	0.00135769
2238	0.00147083
2250	0.0019234
2262	0.00260224
2274	0.00260224
2286	0.00237596
2298	0.00147083
2310	0.00237596
2322	0.00362051
2334	0.00475192
2346	0.00509135
2358	0.00328109
2370	0.00463878
2382	0.00395994
2394	0.00452564
2406	0.00429936
2418	0.0044125
2430	0.00395994
2442	0.00350737
2454	0.00384679
2466	0.00362051
2478	0.00328109
2490	0.00339423
2502	0.00407308
2514	0.00418622
2526	0.00463878
2538	0.0049782
2550	0.00520449
2562	0.00577019
2574	0.00656218
2586	0.00758045
2598	0.00848558
2610	0.00905128
2622	0.008825
2634	0.00916442
2646	0.00905128
2658	0.0101827
2670	0.0117667
2682	0.0142558
2694	0.015274
2706	0.0153872
2718	0.0164054
2730	0.0167449
2742	0.0170843
2754	0.0181026
2766	0.0201391
2778	0.0250042
2790	0.0359788
2802	0.0552128
2814	0.0780673
2826	0.110652
2838	0.159303
2850	0.181591
2862	0.182723
2874	0.230016
2886	0.255586
2898	0.268936
2910	0.295864
2922	0.296769
2934	0.299371
2946	0.348927
2958	0.622049
2970	1.12089
2982	0.789045
2994	0.193132
3006	0.0879106
3018	0.104769
3030	0.215081
3042	0.205011
3054	0.125813
3066	0.205917
3078	0.231939
3090	0.122984
3102	0.0821404
3114	0.0486506
3126	0.0222888
3138	0.0135769
3150	0.0125587
3162	0.0133506
3174	0.0149346
3186	0.0134638
3198	0.0128981
3210	0.0118798
3222	0.0121061
3234	0.0114272
3246	0.00927756
3258	0.00656218
3270	0.00543077
3282	0.00418622
3294	0.00407308
3306	0.00475192
3318	0.00656218
3330	0.00622275
3342	0.00588333
3354	0.00452564
3366	0.00475192
3378	0.00418622
3390	0.00531763
3402	0.00486506
3414	0.00509135
3426	0.0049782
3438	0.00407308
3450	0.00350737
3462	0.00350737
3474	0.00350737
3486	0.00237596
3498	0.00181026
3510	0.00237596
3522	0.00214968
3534	0.00181026
3546	0.00135769
3558	0.00203654
3570	0.00158397
3582	0.0024891
3594	0.0019234
3606	0.00237596
3618	0.0019234
3630	0.00328109
3642	0.00395994
3654	0.00384679
3666	0.00305481
3678	0.00237596
3690	0.00214968
3702	0.00271538
3714	0.00271538
3726	0.00226282
3738	0.00305481
3750	0.000565705
3762	0.0024891
3774	0.00158397
3786	0.00282853
3798	0.000678846
3810	0.00260224
3822	0.00339423
3834	0.0019234
3846	0.0024891
3858	0.00373365
3870	0.00384679
3882	0.00384679
3894	0.00373365
3906	0.00305481
3918	0.00260224
3930	0.00373365
3942	0.00316795
3954	0.00237596
3966	0.00214968
