Infrared Spectrum: Benzene, 1,3-diphenoxy-
Formula: C 18 H 14 O 2
CAS: 3379-38-2
Origin: Sadtler Research Labs Under US-EPA Contract
1/CM	ABSORBANCE
450	0.0300999
462	0.0214172
474	0.037046
486	0.0756839
498	0.026048
510	0.00940622
522	0.00593315
534	0.000578844
546	0.000289422
558	0.00347306
570	0.00419662
582	0.00274951
594	0.0013024
606	0.00188124
618	0.00434133
630	0.00303893
642	0.00492017
654	0.0218514
666	0.0347306
678	0.0999953
690	0.375525
702	0.115479
714	0.0442816
726	0.0759733
738	0.102166
750	0.214751
762	0.259033
774	0.157156
786	0.10506
798	0.0597656
810	0.0338624
822	0.0231538
834	0.0247456
846	0.0905891
858	0.0830641
870	0.0895761
882	0.0570161
894	0.0410979
906	0.0253244
918	0.0107086
930	0.0136028
942	0.029521
954	0.112585
966	0.410111
978	0.166128
990	0.0392167
1002	0.0241667
1014	0.027061
1026	0.0774204
1038	0.00477546
1050	0.00463075
1062	0.0331388
1074	0.0748156
1086	0.024022
1098	0.0267715
1110	0.08263
1122	0.389707
1134	0.214462
1146	0.0656988
1158	0.171483
1170	0.217211
1182	0.116203
1194	0.209976
1206	0.610825
1218	1.44711
1230	0.773046
1242	0.366119
1254	0.456853
1266	0.730791
1278	0.443395
1290	0.247745
1302	0.18002
1314	0.120255
1326	0.0944963
1338	0.0730791
1350	0.0376249
1362	0.0283634
1374	0.0261927
1386	0.0289422
1398	0.0300999
1410	0.0451498
1422	0.0561479
1434	0.111572
1446	0.18769
1458	0.261637
1470	0.511843
1482	1.26651
1494	0.749892
1506	0.171338
1518	0.088129
1530	0.0794463
1542	0.0918915
1554	0.12286
1566	0.249048
1578	0.639623
1590	1.09098
1602	0.40548
1614	0.181902
1626	0.0659882
1638	0.03256
1650	0.0241667
1662	0.0136028
1674	0.0169312
1686	0.0256138
1698	0.0387825
1710	0.0228643
1722	0.0163523
1734	0.0173653
1746	0.00955093
1758	0.00680142
1770	0.0133134
1782	0.0101298
1794	0.00492017
1806	0.000144711
1818	0
1830	0.00564373
1842	0.0114322
1854	0.013024
1866	0.00911679
1878	0.00376249
1890	0.00361778
1902	0.00549902
1914	0.0166418
1926	0.0246009
1938	0.0209831
1950	0.0180889
1962	0.0121557
1974	0.0107086
1986	0.00984035
1998	0.0118663
2010	0.0114322
2022	0.0107086
2034	0.00969564
2046	0.0104192
2058	0.0115769
2070	0.0107086
2082	0.00824853
2094	0.006512
2106	0.0039072
2118	0.00202595
2130	0.00159182
2142	0.00159182
2154	0.00115769
2166	0.00188124
2178	0.00274951
2190	0.0026048
2202	0.00376249
2214	0.00492017
2226	0.00593315
2238	0.00463075
2250	0.00405191
2262	0.0039072
2274	0.00347306
2286	0.00347306
2298	0.00448604
2310	0.00738026
2322	0.00795911
2334	0.00723555
2346	0.00810382
2358	0.00824853
2370	0.0131687
2382	0.0201148
2394	0.0176547
2406	0.0164971
2418	0.0186677
2430	0.0170759
2442	0.0127346
2454	0.00940622
2466	0.006512
2478	0.00549902
2490	0.00448604
2502	0.00332835
2514	0.00376249
2526	0.00405191
2538	0.00376249
2550	0.00492017
2562	0.006512
2574	0.00593315
2586	0.00318364
2598	0.00231538
2610	0.0026048
2622	0.00159182
2634	0.000723555
2646	0
2658	0
2670	0.000144711
2682	0.000868266
2694	0.00159182
2706	0.0026048
2718	0.00289422
2730	0.00318364
2742	0.00347306
2754	0.00274951
2766	0.00246009
2778	0.00217067
2790	0.00173653
2802	0.00173653
2814	0.00173653
2826	0.0026048
2838	0.00361778
2850	0.00347306
2862	0.00593315
2874	0.00839324
2886	0.00723555
2898	0.00738026
2910	0.00694613
2922	0.00419662
2934	0.00940622
2946	0.0108533
2958	0.0117216
2970	0.0131687
2982	0.0104192
2994	0.0105639
3006	0.0180889
3018	0.0389273
3030	0.0701848
3042	0.108823
3054	0.10535
3066	0.108967
3078	0.151657
3090	0.116637
3102	0.0622257
3114	0.0241667
3126	0.00969564
3138	0.00564373
3150	0.00448604
3162	0.00332835
3174	0.00361778
3186	0.00361778
3198	0.00289422
3210	0.00246009
3222	0.0013024
3234	0.00144711
3246	0.00144711
3258	0.0013024
3270	0.0013024
3282	0.00115769
3294	0.00101298
3306	0.00101298
3318	0.00115769
3330	0.00115769
3342	0.00159182
3354	0.00188124
3366	0.00217067
3378	0.00159182
3390	0.00202595
3402	0.00231538
3414	0.00202595
3426	0.00188124
3438	0.00159182
3450	0.00115769
3462	0.00217067
3474	0.00101298
3486	0.00115769
3498	0.00115769
3510	0.00101298
3522	0.000868266
3534	0.00101298
3546	0.00173653
3558	0.000434133
3570	0.00202595
3582	0.00159182
3594	0.0026048
3606	0.000578844
3618	0.00173653
3630	0.00419662
3642	0.00246009
3654	0.00246009
3666	0.00101298
3678	0.00303893
3690	0.0013024
3702	0.00159182
3714	0.00188124
3726	0.00159182
3738	0.00289422
3750	0.00159182
3762	0.0013024
3774	0.00246009
3786	0.00202595
3798	0.00188124
3810	0.00144711
3822	0.0026048
3834	0.00217067
3846	0.00202595
3858	0.00231538
3870	0.00289422
3882	0.00303893
3894	0.00405191
3906	0.00376249
3918	0.00303893
3930	0.00318364
3942	0.0013024
3954	0.00202595
3966	0.00376249
