Infrared Spectrum: Acetic acid, geranyl ester
Formula: C 12 H 20 O 2
CAS: 33843-18-4
Origin: Sadtler Research Labs Under US-EPA Contract
1/CM	ABSORBANCE
450	0.0146382
462	0.0135994
474	0.00934956
486	0.00934956
498	0.00934956
510	0.0113328
522	0.00887736
534	0.00925512
546	0.00774408
558	0.00953844
570	0.00651636
582	0.0122772
594	0.014166
606	0.0187936
618	0.0123716
630	0.0075552
642	0.0101051
654	0.00746076
666	0.00207768
678	0.00103884
690	0.00160548
702	0.00075552
714	9.444e-05
726	9.444e-05
738	0.00632748
750	0.00689412
762	0.00689412
774	0.0103884
786	0.0115217
798	0.0135994
810	0.0194546
822	0.0282376
834	0.0294653
846	0.0229489
858	0.018038
870	0.015016
882	0.0172825
894	0.0228545
906	0.0224767
918	0.0231378
930	0.02361
942	0.0363594
954	0.0741354
966	0.0786685
978	0.0610082
990	0.0690356
1002	0.103506
1014	0.161115
1026	0.190958
1038	0.120978
1050	0.0768742
1062	0.0572306
1074	0.0499588
1086	0.0475033
1098	0.0484477
1110	0.045709
1122	0.0260654
1134	0.0164326
1146	0.0168103
1158	0.0207768
1170	0.0249322
1182	0.0360761
1194	0.0639359
1206	0.136088
1218	0.3567
1230	0.9444
1242	0.577595
1254	0.201535
1266	0.119655
1278	0.115406
1290	0.0577028
1302	0.032204
1314	0.027482
1326	0.0257821
1338	0.0276709
1350	0.0385315
1362	0.108228
1374	0.168481
1386	0.157998
1398	0.0771575
1410	0.0387204
1422	0.0365483
1434	0.0533586
1446	0.0782908
1458	0.0761186
1470	0.051942
1482	0.0307874
1494	0.021249
1506	0.0200213
1518	0.0169992
1530	0.0145438
1542	0.0142604
1554	0.0121828
1566	0.0099162
1578	0.00859404
1590	0.00821628
1602	0.0080274
1614	0.00812184
1626	0.00963288
1638	0.0120883
1650	0.0158659
1662	0.0267265
1674	0.036926
1686	0.0182269
1698	0.0193602
1710	0.0265376
1722	0.0435368
1734	0.082635
1746	0.199363
1758	0.496282
1770	0.315618
1782	0.111628
1794	0.04807
1806	0.0271043
1818	0.0159604
1830	0.0119939
1842	0.00859404
1854	0.00576084
1866	0.00500532
1878	0.0037776
1890	0.00349428
1902	0.00321096
1914	0.00292764
1926	0.00245544
1938	0.002361
1950	0.00198324
1962	0.0018888
1974	0.00179436
1986	0.0018888
1998	0.00160548
2010	0.0018888
2022	0.0018888
2034	0.00179436
2046	0.00245544
2058	0.00292764
2070	0.002361
2082	0.00198324
2094	0.0014166
2106	0.0014166
2118	0.0014166
2130	0.0009444
2142	0.00056664
2154	0.00103884
2166	9.444e-05
2178	9.444e-05
2190	0.0009444
2202	0.00103884
2214	0.00103884
2226	0.00103884
2238	0.00103884
2250	0.00056664
2262	0.00056664
2274	0
2286	0.00018888
2298	0.00075552
2310	0.0009444
2322	0.0009444
2334	0.00132216
2346	0.0009444
2358	0.00066108
2370	0.00075552
2382	0.00028332
2394	0.00066108
2406	0.00066108
2418	0.00075552
2430	0.00084996
2442	0.00122772
2454	0.0018888
2466	0.00179436
2478	0.00132216
2490	0.00084996
2502	0.00084996
2514	0.00132216
2526	0.0014166
2538	0.0014166
2550	0.0014166
2562	0.0014166
2574	0.0009444
2586	0.00103884
2598	0.00122772
2610	0.00113328
2622	0.00103884
2634	0.00122772
2646	0.00113328
2658	0.00207768
2670	0.00113328
2682	0.00122772
2694	0.00169992
2706	0.00226656
2718	0.00264432
2730	0.00538308
2742	0.00925512
2754	0.00632748
2766	0.00538308
2778	0.00585528
2790	0.00642192
2802	0.00878292
2814	0.0128438
2826	0.0184158
2838	0.0321096
2850	0.0618582
2862	0.116067
2874	0.132027
2886	0.123905
2898	0.142321
2910	0.172542
2922	0.234022
2934	0.252533
2946	0.216834
2958	0.171881
2970	0.17462
2982	0.166403
2994	0.129194
3006	0.0863182
3018	0.0634637
3030	0.0546808
3042	0.0434424
3054	0.0356039
3066	0.0282376
3078	0.0213434
3090	0.0167159
3102	0.0114272
3114	0.0084996
3126	0.00698856
3138	0.00453312
3150	0.00415536
3162	0.00264432
3174	0.00217212
3186	0.00169992
3198	0.00169992
3210	0.00132216
3222	0.00122772
3234	0.0014166
3246	0.00056664
3258	0.00084996
3270	0.0014166
3282	0.0004722
3294	0.00056664
3306	0.00056664
3318	0.00037776
3330	9.444e-05
3342	0.00037776
3354	0.00028332
3366	9.444e-05
3378	0.00056664
3390	0.00066108
3402	0.00018888
3414	0.0004722
3426	0.00075552
3438	0.00075552
3450	0.00084996
3462	0.0004722
3474	0.00198324
3486	0.00321096
3498	0.00547752
3510	0.00462756
3522	0.0033054
3534	0.0014166
3546	0.00132216
3558	0.00122772
3570	0.00207768
3582	0.00311652
3594	0.00292764
3606	0.00160548
3618	0.00226656
3630	0.00321096
3642	0.00273876
3654	0.00217212
3666	0.00321096
3678	0.00207768
3690	0.00264432
3702	0.0028332
3714	0.00311652
3726	0.00245544
3738	0.002361
3750	0.002361
3762	0.00226656
3774	0.00217212
3786	0.00207768
3798	0.00245544
3810	0.00339984
3822	0.00302208
3834	0.00292764
3846	0.00302208
3858	0.00217212
3870	0.00254988
3882	0.00245544
3894	0.00311652
3906	0.0033054
3918	0.00368316
3930	0.00387204
3942	0.00443868
3954	0.00358872
3966	0.00368316
