Infrared Spectrum: Benzenemethanol, 4-chloro-.alpha.-methyl-
Formula: C 8 H 9 Cl O
CAS: 3391-10-4
Origin: Sadtler Research Labs Under US-EPA Contract
1/CM	ABSORBANCE
450	0.0734966
462	0.0443734
474	0.0486042
486	0.0302054
498	0.0585415
510	0.0960277
522	0.177002
534	0.20701
546	0.144337
558	0.0637561
570	0.0460461
582	0.0117083
594	0.023515
606	0.0187923
618	0.0350265
630	0.0344361
642	0.0463412
654	0.0330587
666	0.0245972
678	0.00462428
690	0.0101341
702	0.0183987
714	0.0411266
726	0.0366991
738	0.024794
750	0.0285328
762	0.068282
774	0.14414
786	0.101537
798	0.0811709
810	0.161063
822	0.374862
834	0.364433
846	0.125741
858	0.0583447
870	0.0488009
882	0.0926824
894	0.188513
906	0.173755
918	0.0863855
930	0.0492929
942	0.0372894
954	0.0464396
966	0.0461444
978	0.0680852
990	0.127315
1002	0.222654
1014	0.517821
1026	0.179363
1038	0.119543
1050	0.190776
1062	0.266044
1074	0.436946
1086	0.729259
1098	0.967754
1110	0.366893
1122	0.124069
1134	0.075366
1146	0.0673965
1158	0.0752676
1170	0.10813
1182	0.116001
1194	0.109802
1206	0.103407
1218	0.0910098
1230	0.114525
1242	0.151814
1254	0.215374
1266	0.205043
1278	0.141582
1290	0.145419
1302	0.14227
1314	0.0995697
1326	0.124167
1338	0.173755
1350	0.201697
1362	0.208781
1374	0.217538
1386	0.212717
1398	0.176411
1410	0.15939
1422	0.118559
1434	0.0920921
1446	0.094847
1458	0.115804
1470	0.136761
1482	0.230722
1494	0.587776
1506	0.210159
1518	0.0435863
1530	0.0300086
1542	0.03237
1554	0.0291231
1566	0.0350265
1578	0.0522446
1590	0.0835323
1602	0.122199
1614	0.0597221
1626	0.0315829
1638	0.0411266
1650	0.0452589
1662	0.0355184
1674	0.0191859
1686	0.018202
1698	0.0133809
1710	0.0137745
1722	0.00295167
1734	0.00747756
1746	0.0142664
1758	0.0248924
1770	0.0340426
1782	0.0338458
1794	0.0221375
1806	0.0196778
1818	0.0184971
1830	0.0143648
1842	0.0162342
1854	0.0160374
1866	0.0203665
1878	0.0290248
1890	0.0391588
1902	0.0415202
1914	0.0286312
1926	0.0169229
1938	0.0155455
1950	0.0104292
1962	0.0138728
1974	0.0142664
1986	0.0107244
1998	0.00924857
2010	0.0119051
2022	0.00796951
2034	0.00993729
2046	0.00570656
2058	0.00708401
2070	0.00757595
2082	0.00826468
2094	0.00590334
2106	0.00698562
2118	0.00452589
2130	0.00688723
2142	0.00295167
2154	0.00472267
2166	0.00373878
2178	0.00531301
2190	0.00364039
2202	0.00432912
2214	0.00285328
2226	0.00521462
2238	0.00334523
2250	0.00610012
2262	0.00432912
2274	0.00836306
2286	0.00905179
2298	0.00934695
2310	0.00580495
2322	0.011118
2334	0.00108228
2346	0.0104292
2358	0.00334523
2370	0.0139712
2382	0.0089534
2394	0.00688723
2406	0.00403395
2418	0.00580495
2430	0.00432912
2442	0.00855984
2454	0.00570656
2466	0.00403395
2478	0.00619851
2490	0.0062969
2502	0.00403395
2514	0.00826468
2526	0.00678884
2538	0.00836306
2550	0.00816629
2562	0.00600173
2574	0.00698562
2586	0.0116099
2598	0.0125938
2610	0.0125938
2622	0.00816629
2634	0.00875662
2646	0.0089534
2658	0.00816629
2670	0.0089534
2682	0.00934695
2694	0.0100357
2706	0.00964212
2718	0.00826468
2730	0.00737917
2742	0.0113147
2754	0.0130857
2766	0.0122986
2778	0.00924857
2790	0.014168
2802	0.0152503
2814	0.0191859
2826	0.0236134
2838	0.0293199
2850	0.0379782
2862	0.0715288
2874	0.128299
2886	0.185266
2898	0.168245
2910	0.129873
2922	0.106162
2934	0.126036
2946	0.104883
2958	0.0889437
2970	0.188808
2982	0.393261
2994	0.30904
3006	0.0758579
3018	0.0510639
3030	0.0777273
3042	0.0692659
3054	0.0575576
3066	0.0450622
3078	0.0488009
3090	0.064248
3102	0.0603125
3114	0.0297135
3126	0.0171197
3138	0.00610012
3150	0.0104292
3162	0.00610012
3174	0.00915018
3186	0.00846145
3198	0.00915018
3210	0.00708401
3222	0.0122002
3234	0.00521462
3246	0.00777273
3258	0.00600173
3270	0.0089534
3282	0.00482106
3294	0.00364039
3306	0.0026565
3318	0.00541139
3330	0.00757595
3342	0.00885501
3354	0.00472267
3366	0.00924857
3378	0.00816629
3390	0.00787112
3402	0.00639528
3414	0.00865823
3426	0.0089534
3438	0.0114131
3450	0.00590334
3462	0.00964212
3474	0.0112163
3486	0.0119051
3498	0.0127906
3510	0.00787112
3522	0.00521462
3534	0.0108228
3546	0.00934695
3558	0.00865823
3570	0.0133809
3582	0.00846145
3594	0.015939
3606	0.0155455
3618	0.0222359
3630	0.0532284
3642	0.10567
3654	0.149158
3666	0.0817613
3678	0.0269586
3690	0.0233182
3702	0.0149551
3714	0.00993729
3726	0.0122986
3738	0.010626
3750	0.0105276
3762	0.0113147
3774	0.00472267
3786	0.00639528
3798	0.00659206
3810	0.0108228
3822	0.00678884
3834	0.00826468
3846	0.0145616
3858	0.0184971
3870	0.0121018
3882	0.0120035
3894	0.00482106
3906	0.0152503
3918	0.014168
3930	0.0122002
3942	0.0100357
3954	0
3966	0.00108228
