Infrared Spectrum: 1-Octen-3-ol
Formula: C 8 H 16 O
CAS: 3391-86-4
Origin: Sadtler Research Labs Under US-EPA Contract
1/CM	ABSORBANCE
450	0.0339293
462	0.0145253
474	0.0153014
486	0.0111989
498	0.0113098
510	0.0260568
522	0.0178517
534	0.0250589
546	0.0161885
558	0.0158558
570	0.0114206
582	0.0127512
594	0.0172973
606	0.0195149
618	0.00875952
630	0.00210672
642	0.016632
654	0.0197366
666	0.0257242
678	0.0367013
690	0.0361469
702	0.0222869
714	0.0235066
726	0.0284962
738	0.0284962
750	0.0176299
762	0.0156341
774	0.0148579
786	0.00864864
798	0.00809424
810	0.0118642
822	0.0151906
834	0.0181843
846	0.0220651
858	0.0262786
870	0.0339293
882	0.0466805
894	0.0583229
906	0.0913651
918	0.250367
930	0.321219
942	0.14991
954	0.113874
966	0.120305
978	0.163659
990	0.254026
1002	0.254026
1014	0.252696
1026	0.263007
1038	0.218544
1050	0.17386
1062	0.148357
1074	0.129619
1086	0.121857
1098	0.109771
1110	0.102342
1122	0.107775
1134	0.113763
1146	0.0960221
1158	0.0676368
1170	0.0587664
1182	0.0616493
1194	0.0706306
1206	0.081275
1218	0.0853776
1230	0.0902563
1242	0.0993485
1254	0.106223
1266	0.0982397
1278	0.0875952
1290	0.085045
1302	0.0817186
1314	0.0807206
1326	0.0841579
1338	0.0962438
1350	0.101788
1362	0.100679
1374	0.103673
1386	0.103562
1398	0.0687456
1410	0.0813859
1422	0.120527
1434	0.116535
1446	0.0954677
1458	0.119307
1470	0.11842
1482	0.060984
1494	0.0243936
1506	0.014747
1518	0.0099792
1530	0.00731808
1542	0.00543312
1554	0.00432432
1566	0.00376992
1578	0.00465696
1590	0.00565488
1602	0.00731808
1614	0.00798336
1626	0.0100901
1638	0.0261677
1650	0.0328205
1662	0.0114206
1674	0.00476784
1686	0.0033264
1698	0.00232848
1710	0.00232848
1722	0.00255024
1734	0.00454608
1746	0.010201
1758	0.00576576
1770	0.00543312
1782	0.00654192
1794	0.00465696
1806	0.00288288
1818	0.00266112
1830	0.00432432
1842	0.0161885
1854	0.0246154
1866	0.0116424
1878	0.00343728
1890	0.00144144
1902	0.00144144
1914	0.00133056
1926	0.00088704
1938	0.00077616
1950	0.00099792
1962	0.0016632
1974	0.00321552
1986	0.00255024
1998	0.0011088
2010	0.00088704
2022	0.00077616
2034	0.00066528
2046	0.0016632
2058	0.0011088
2070	0.00088704
2082	0.0022176
2094	0.00144144
2106	0.0005544
2118	0.00033264
2130	0.00044352
2142	0.0005544
2154	0.00088704
2166	0.00033264
2178	0.00077616
2190	0.00088704
2202	0.00033264
2214	0.00033264
2226	0.00066528
2238	0.0005544
2250	0.00099792
2262	0.00077616
2274	0.00121968
2286	0.00210672
2298	0.00288288
2310	0.0038808
2322	0.00432432
2334	0.00066528
2346	0.00033264
2358	0.00299376
2370	0
2382	0.00022176
2394	0.00155232
2406	0.00188496
2418	0.00199584
2430	0.00155232
2442	0.00099792
2454	0.0011088
2466	0.00099792
2478	0.0011088
2490	0.00133056
2502	0.0011088
2514	0.00077616
2526	0.00188496
2538	0.00232848
2550	0.0016632
2562	0.0033264
2574	0.00543312
2586	0.00576576
2598	0.00543312
2610	0.00532224
2622	0.00643104
2634	0.00875952
2646	0.00931392
2658	0.011088
2670	0.0153014
2682	0.0164102
2694	0.0174082
2706	0.0148579
2718	0.0130838
2730	0.0141926
2742	0.0176299
2754	0.0170755
2766	0.015745
2778	0.018517
2790	0.0246154
2802	0.0319334
2814	0.0414691
2826	0.0575467
2838	0.100346
2850	0.220319
2862	0.431434
2874	0.525793
2886	0.461039
2898	0.345613
2910	0.441302
2922	0.726818
2934	1.05824
2946	0.993928
2958	0.696437
2970	0.752875
2982	0.393402
2994	0.182952
3006	0.121635
3018	0.103673
3030	0.0708523
3042	0.0444629
3054	0.0362578
3066	0.0436867
3078	0.0735134
3090	0.128288
3102	0.0777269
3114	0.0235066
3126	0.0117533
3138	0.0094248
3150	0.00798336
3162	0.00798336
3174	0.00620928
3186	0.00676368
3198	0.00698544
3210	0.00299376
3222	0.00354816
3234	0.00133056
3246	0.00232848
3258	0.00255024
3270	0.0033264
3282	0.00487872
3294	0.00177408
3306	0.00199584
3318	0.0005544
3330	0.00288288
3342	0.00232848
3354	0.00243936
3366	0.00421344
3378	0.00288288
3390	0.00365904
3402	0.00299376
3414	0.00476784
3426	0.00288288
3438	0.0060984
3450	0.00587664
3462	0.00343728
3474	0.0044352
3486	0.002772
3498	0.00432432
3510	0.00210672
3522	0.00133056
3534	0.00310464
3546	0.002772
3558	0.00365904
3570	0.00199584
3582	0.00698544
3594	0.00465696
3606	0.00809424
3618	0.014747
3630	0.0316008
3642	0.0874843
3654	0.116091
3666	0.0455717
3678	0.017519
3690	0.00753984
3702	0.0060984
3714	0.00354816
3726	0.0044352
3738	0.00255024
3750	0.00365904
3762	0.005544
3774	0.0049896
3786	0.0044352
3798	0.0044352
3810	0.00487872
3822	0.00410256
3834	0.0066528
3846	0.00343728
3858	0.00543312
3870	0.00820512
3882	0.00587664
3894	0.00587664
3906	0.00343728
3918	0.00454608
3930	0.0072072
3942	0.00565488
3954	0.00421344
3966	0.00432432
