Infrared Spectrum: 2-Butanone, 4-hydroxy-3-methyl-
Formula: C 5 H 10 O 2
CAS: 3393-64-4
Origin: Sadtler Research Labs Under US-EPA Contract
1/CM	ABSORBANCE
450	0.0730768
462	0.0775907
474	0.0815557
486	0.0654519
498	0.062219
510	0.061914
522	0.0528861
534	0.0339764
546	0.0250096
558	0.0212887
570	0.0251316
582	0.0284865
594	0.0325125
606	0.0283645
618	0.0155547
630	0.00835686
642	0.00536791
654	0.00670989
666	0.00701489
678	0.00463592
690	0.00158597
702	0.00390394
714	0.0060999
726	0.00646589
738	0.00353794
750	0.00189097
762	0.00103698
774	0.000426993
786	0.000975984
798	0.000731988
810	0.000853986
822	0.00164697
834	0.00231796
846	0.00506292
858	0.0119558
870	0.0164087
882	0.0175677
894	0.0212277
906	0.0293405
918	0.0439193
930	0.061121
942	0.0780177
954	0.0905835
966	0.0897295
978	0.0855816
990	0.0858866
1002	0.0872286
1014	0.122303
1026	0.233016
1038	0.318354
1050	0.321404
1062	0.299688
1074	0.213497
1086	0.114007
1098	0.0972934
1110	0.108151
1122	0.105223
1134	0.0850326
1146	0.0888755
1158	0.165307
1170	0.220755
1182	0.175433
1194	0.107724
1206	0.111933
1218	0.127671
1230	0.114129
1242	0.0777737
1254	0.058803
1266	0.0533741
1278	0.0536181
1290	0.0537401
1302	0.0558751
1314	0.061609
1326	0.0792377
1338	0.111689
1350	0.198674
1362	0.294137
1374	0.270043
1386	0.194587
1398	0.173115
1410	0.136943
1422	0.0974154
1434	0.0816167
1446	0.0880826
1458	0.118826
1470	0.118277
1482	0.0740528
1494	0.0302555
1506	0.0182387
1518	0.0145788
1530	0.0124438
1542	0.0126878
1554	0.0104918
1566	0.00866186
1578	0.00811287
1590	0.00652689
1602	0.0060389
1614	0.00738088
1626	0.0101868
1638	0.0114678
1650	0.0139688
1662	0.0197637
1674	0.0403813
1686	0.0809457
1698	0.161342
1710	0.363737
1722	0.569853
1734	0.52575
1746	0.247656
1758	0.0794817
1770	0.0305605
1782	0.0128098
1794	0.00670989
1806	0.00323295
1818	0.00115898
1830	0.00115898
1842	0.000914985
1854	0.000365994
1866	0.000914985
1878	0.00060999
1890	0.00103698
1902	0.00121998
1914	0.00115898
1926	0.00115898
1938	0.00140298
1950	0.00115898
1962	0.00146398
1974	0.00103698
1986	0.00109798
1998	0.00140298
2010	0.00109798
2022	0.00158597
2034	0.00176897
2046	0.00256196
2058	0.00311095
2070	0.00341594
2082	0.00323295
2094	0.00298895
2106	0.00231796
2118	0.00158597
2130	0.00128098
2142	0.00121998
2154	0.000853986
2166	0.000670989
2178	0.000426993
2190	0.000243996
2202	0.000243996
2214	6.0999e-05
2226	0.000365994
2238	0.000487992
2250	0.000426993
2262	0.000853986
2274	0.00134198
2286	0.00158597
2298	0.00219596
2310	0.00256196
2322	0.00195197
2334	0.00121998
2346	0.00182997
2358	0.000975984
2370	0.00195197
2382	0.00219596
2394	0.00219596
2406	0.00219596
2418	0.00189097
2430	0.00195197
2442	0.00195197
2454	0.00182997
2466	0.00207397
2478	0.00201297
2490	0.00176897
2502	0.00219596
2514	0.00213496
2526	0.00219596
2538	0.00182997
2550	0.00164697
2562	0.00189097
2574	0.00195197
2586	0.00189097
2598	0.00189097
2610	0.00158597
2622	0.00164697
2634	0.00189097
2646	0.00201297
2658	0.00268396
2670	0.00365994
2682	0.00439193
2694	0.00579491
2706	0.00701489
2718	0.00847886
2730	0.00988184
2742	0.0109798
2754	0.0117118
2766	0.0122608
2778	0.0137248
2790	0.0157377
2802	0.0176287
2814	0.0196417
2826	0.0248876
2838	0.0330615
2850	0.0449563
2862	0.0697829
2874	0.136028
2886	0.214045
2898	0.215936
2910	0.182692
2922	0.199772
2934	0.251133
2946	0.276874
2958	0.252353
2970	0.262113
2982	0.282486
2994	0.192513
3006	0.0882656
3018	0.0519101
3030	0.0328785
3042	0.0222036
3054	0.0184827
3066	0.0169577
3078	0.0156157
3090	0.0142738
3102	0.0126878
3114	0.0100038
3126	0.00799087
3138	0.00664889
3150	0.0063439
3162	0.0061609
3174	0.00524591
3186	0.00481892
3198	0.00311095
3210	0.00219596
3222	0.00164697
3234	0.00146398
3246	0.00176897
3258	0.00134198
3270	0.00109798
3282	0.000670989
3294	0.00115898
3306	0
3318	0.000304995
3330	0
3342	6.0999e-05
3354	0.000365994
3366	0.00060999
3378	0.000975984
3390	0.00152498
3402	0.00323295
3414	0.00646589
3426	0.00994284
3438	0.0105528
3450	0.00878386
3462	0.00548991
3474	0.00311095
3486	0.00292795
3498	0.00250096
3510	0.00256196
3522	0.00402593
3534	0.00707588
3546	0.0121388
3558	0.0185437
3570	0.0242166
3582	0.0384904
3594	0.0542281
3606	0.059047
3618	0.062036
3630	0.058681
3642	0.0440413
3654	0.0419673
3666	0.0556921
3678	0.0543501
3690	0.0272666
3702	0.00805187
3714	0.00225696
3726	0.000975984
3738	0.00158597
3750	0.00243996
3762	0.00262296
3774	0.00164697
3786	6.0999e-05
3798	0
3810	0
3822	0
3834	6.0999e-05
3846	0.000731988
3858	6.0999e-05
3870	0.000731988
3882	0.000426993
3894	0.000304995
3906	0
3918	0
3930	6.0999e-05
3942	0
3954	0
3966	6.0999e-05
