Infrared Spectrum: Cyclopentanecarboxylic acid
Formula: C 6 H 10 O 2
CAS: 3400-45-1
Origin: Sadtler Research Labs Under US-EPA Contract
1/CM	ABSORBANCE
450	0.021597
462	0.00455717
474	0.00713297
486	0.00534973
498	0.0125818
510	0.0242719
522	0.0427978
534	0.0583516
546	0.0851993
558	0.130771
570	0.172578
582	0.189519
594	0.172182
606	0.155439
618	0.144344
630	0.129384
642	0.106499
654	0.0678623
666	0.0415099
678	0.0300179
690	0.0225877
702	0.0240738
714	0.0364574
726	0.051714
738	0.0644939
750	0.0611256
762	0.045968
774	0.0342779
786	0.024371
798	0.015851
810	0.0102041
822	0.00871807
834	0.010006
846	0.00941156
858	0.00673669
870	0.00693483
882	0.0124827
894	0.0220924
906	0.0249654
918	0.02873
930	0.0374481
942	0.0390332
954	0.0333863
966	0.0245691
978	0.0199129
990	0.0174361
1002	0.0200119
1014	0.0268477
1026	0.0367546
1038	0.0525066
1050	0.0722213
1062	0.124233
1074	0.198237
1086	0.250149
1098	0.310779
1110	0.504063
1122	0.731724
1134	0.626909
1146	0.368537
1158	0.308996
1170	0.283139
1182	0.236775
1194	0.189717
1206	0.125421
1218	0.0792552
1230	0.0652865
1242	0.0610265
1254	0.06598
1266	0.070339
1278	0.0678623
1290	0.071726
1302	0.077571
1314	0.0779673
1326	0.0633051
1338	0.0589461
1350	0.0687539
1362	0.0894593
1374	0.110759
1386	0.128592
1398	0.102239
1410	0.0633051
1422	0.0450764
1434	0.0443829
1446	0.0579554
1458	0.0671688
1470	0.0530019
1482	0.0319002
1494	0.0198138
1506	0.0140678
1518	0.00881714
1530	0.00594414
1542	0.00188231
1554	0.00317021
1566	0.00534973
1578	0.00267486
1590	0.000396276
1602	0.00247672
1614	0.00346741
1626	0.00356648
1638	0.0044581
1650	0.000396276
1662	0.00247672
1674	0.00891621
1686	0.0146622
1698	0.021597
1710	0.0386369
1722	0.0870817
1734	0.165148
1746	0.33624
1758	0.638401
1770	0.975334
1782	0.825245
1794	0.357342
1806	0.133644
1818	0.0508224
1830	0.0226868
1842	0.011492
1854	0.00634042
1866	0.0044581
1878	0.00465624
1890	0.00505252
1902	0.00376462
1914	0.00317021
1926	0.00257579
1938	0.00277393
1950	0.0012879
1962	0.00188231
1974	0.00138697
1986	0.00108976
1998	0.00148603
2010	0.00267486
2022	0.00168417
2034	0.00188231
2046	0.00217952
2058	0.00297207
2070	0.00267486
2082	0.00237766
2094	0.0015851
2106	0.00168417
2118	0.00099069
2130	0.00148603
2142	0.000594414
2154	0.0015851
2166	0.00307114
2178	0.002873
2190	0.00435904
2202	0.00495345
2214	0.00525066
2226	0.00614228
2238	0.00505252
2250	0.00475531
2262	0.0041609
2274	0.00376462
2286	0.00366555
2298	0.00237766
2310	0.00148603
2322	0.00168417
2334	0.00267486
2346	0.00693483
2358	0.0015851
2370	0.000297207
2382	0.00465624
2394	0.00475531
2406	0.0044581
2418	0.00406183
2430	0.00475531
2442	0.00554786
2454	0.00663762
2466	0.00386369
2478	0.00435904
2490	0.00465624
2502	0.005746
2514	0.00505252
2526	0.00356648
2538	0.00376462
2550	0.00475531
2562	0.0054488
2574	0.00505252
2586	0.00505252
2598	0.00594414
2610	0.00614228
2622	0.00653855
2634	0.00584507
2646	0.00584507
2658	0.00634042
2670	0.00723204
2682	0.00653855
2694	0.00643949
2706	0.00614228
2718	0.00733111
2730	0.00713297
2742	0.00752924
2754	0.00802459
2766	0.00842086
2778	0.00951062
2790	0.0108976
2802	0.0112939
2814	0.0131762
2826	0.0195166
2838	0.0295226
2850	0.0443829
2862	0.0821282
2874	0.171786
2886	0.22023
2898	0.175649
2910	0.14365
2922	0.18516
2934	0.264514
2946	0.381713
2958	0.498317
2970	0.586786
2982	0.464832
2994	0.229444
3006	0.101149
3018	0.0525066
3030	0.0314049
3042	0.0211017
3054	0.0166436
3066	0.014365
3078	0.0113929
3090	0.0106995
3102	0.0108976
3114	0.0103032
3126	0.010006
3138	0.00901528
3150	0.00842086
3162	0.00931249
3174	0.00881714
3186	0.00812366
3198	0.00752924
3210	0.00812366
3222	0.0083218
3234	0.00782645
3246	0.00723204
3258	0.00673669
3270	0.00743017
3282	0.00802459
3294	0.0070339
3306	0.00673669
3318	0.00634042
3330	0.00733111
3342	0.00752924
3354	0.00713297
3366	0.00723204
3378	0.00792552
3390	0.00891621
3402	0.00881714
3414	0.00782645
3426	0.00842086
3438	0.00901528
3450	0.0102041
3462	0.00911435
3474	0.00842086
3486	0.00634042
3498	0.00614228
3510	0.00505252
3522	0.00604321
3534	0.00693483
3546	0.00871807
3558	0.0340797
3570	0.267486
3582	0.30642
3594	0.0586488
3606	0.00683576
3618	0.00376462
3630	0.00386369
3642	0.00386369
3654	0.00723204
3666	0.00604321
3678	0.00277393
3690	0.00277393
3702	0.00297207
3714	0.0041609
3726	0.00198138
3738	0.000792552
3750	0.00485438
3762	0.00366555
3774	0.00624135
3786	0.00643949
3798	0.00634042
3810	0.0041609
3822	0.00752924
3834	0.005746
3846	0.00980783
3858	0.00564693
3870	0.00425997
3882	0.00564693
3894	0.00673669
3906	0.00614228
3918	0.00564693
3930	0.00336835
3942	0.00495345
3954	0.0099069
3966	0.00752924
