Infrared Spectrum: 2-Hexene, 2,5-dimethyl-
Formula: C 8 H 16
CAS: 3404-78-2
Origin: Sadtler Research Labs Under US-EPA Contract
1/CM	ABSORBANCE
450	0
462	0.0617413
474	0.040949
486	0.0521169
498	0.0556579
510	0.0398594
522	0.0460336
534	0.049393
546	0.0492114
558	0.0536604
570	0.055204
582	0.0443084
594	0.0448532
606	0.0437637
618	0.0482127
630	0.0461244
642	0.0426741
654	0.0470323
666	0.0388607
678	0.0512997
690	0.0486667
702	0.046306
714	0.041857
726	0.0442177
738	0.0497562
750	0.053842
762	0.0576555
774	0.0586542
786	0.0625584
798	0.059199
810	0.0545684
822	0.0571107
834	0.0646468
846	0.0763594
858	0.0762686
870	0.0717288
882	0.0733632
894	0.0782662
906	0.0674614
918	0.0656455
930	0.0666443
942	0.0669167
954	0.0651915
966	0.0643744
978	0.0683694
990	0.067643
1002	0.0631032
1014	0.0601977
1026	0.059199
1038	0.0590174
1050	0.0586542
1062	0.060107
1074	0.0670982
1086	0.0789017
1098	0.0831691
1110	0.0856206
1122	0.096153
1134	0.082352
1146	0.0723644
1158	0.0790833
1170	0.0859838
1182	0.0714565
1194	0.0673706
1206	0.0721828
1218	0.0638296
1230	0.0643744
1242	0.0693681
1254	0.0656455
1266	0.064556
1278	0.0655547
1290	0.0629216
1302	0.0603793
1314	0.0639204
1326	0.0717288
1338	0.0806268
1350	0.0844403
1362	0.11404
1374	0.160709
1386	0.19049
1398	0.126388
1410	0.0773582
1422	0.0757239
1434	0.0962438
1446	0.127114
1458	0.162343
1470	0.166974
1482	0.113313
1494	0.0729092
1506	0.0575647
1518	0.0553856
1530	0.0513905
1542	0.0529341
1554	0.050301
1566	0.0490298
1578	0.050755
1590	0.0484851
1602	0.048939
1614	0.0500286
1626	0.0508458
1638	0.055204
1650	0.0589266
1662	0.0567475
1674	0.0578371
1686	0.0551132
1698	0.0597438
1710	0.0642836
1722	0.0563843
1734	0.0527525
1746	0.0545684
1758	0.050301
1770	0.0478495
1782	0.0462152
1794	0.0454888
1806	0.0439453
1818	0.0416754
1830	0.0412214
1842	0.040495
1854	0.0399502
1866	0.0393147
1878	0.0402226
1890	0.040041
1902	0.0393147
1914	0.0394963
1926	0.0402226
1938	0.0394963
1950	0.0395871
1962	0.0404042
1974	0.0401318
1986	0.0398594
1998	0.0387699
2010	0.0388607
2022	0.0385883
2034	0.0380435
2046	0.0385883
2058	0.0387699
2070	0.0391331
2082	0.0384975
2094	0.0384067
2106	0.0389515
2118	0.0388607
2130	0.0393147
2142	0.0393147
2154	0.0390423
2166	0.0397686
2178	0.0394055
2190	0.0388607
2202	0.0385883
2214	0.0387699
2226	0.0385883
2238	0.0385883
2250	0.0381343
2262	0.0383159
2274	0.0384067
2286	0.0379527
2298	0.0374987
2310	0.036954
2322	0.037408
2334	0.0385883
2346	0.0392239
2358	0.0380435
2370	0.0396779
2382	0.0401318
2394	0.0402226
2406	0.0394055
2418	0.0398594
2430	0.0397686
2442	0.040041
2454	0.040041
2466	0.0395871
2478	0.0401318
2490	0.0394055
2502	0.0394963
2514	0.0395871
2526	0.0395871
2538	0.0394963
2550	0.0397686
2562	0.0408582
2574	0.0413122
2586	0.0417662
2598	0.0419478
2610	0.0422201
2622	0.041857
2634	0.0429465
2646	0.0440361
2658	0.0438545
2670	0.0429465
2682	0.0431281
2694	0.0438545
2706	0.0467599
2718	0.0513905
2730	0.0581094
2742	0.0625584
2754	0.0568383
2766	0.0541144
2778	0.05475
2790	0.0576555
2802	0.0650099
2814	0.0736356
2826	0.0870734
2838	0.117672
2850	0.168245
2862	0.248963
2874	0.382342
2886	0.430645
2898	0.424834
2910	0.45289
2922	0.526344
2934	0.57946
2946	0.546592
2958	0.723917
2970	0.890436
2982	0.523167
2994	0.255682
3006	0.165067
3018	0.123573
3030	0.104325
3042	0.0924303
3054	0.0819888
3066	0.0752699
3078	0.0722736
3090	0.0644652
3102	0.0571107
3114	0.0529341
3126	0.0506642
3138	0.0486667
3150	0.0478495
3162	0.0483035
3174	0.0476679
3186	0.0469415
3198	0.0454888
3210	0.0439453
3222	0.041857
3234	0.040495
3246	0.0394963
3258	0.0397686
3270	0.0396779
3282	0.040041
3294	0.0404042
3306	0.0390423
3318	0.040041
3330	0.0395871
3342	0.0402226
3354	0.040495
3366	0.040041
3378	0.0394963
3390	0.0396779
3402	0.0385883
3414	0.0392239
3426	0.0386791
3438	0.0382251
3450	0.0398594
3462	0.0387699
3474	0.0383159
3486	0.0375895
3498	0.0389515
3510	0.0384975
3522	0.0384975
3534	0.0386791
3546	0.0381343
3558	0.0382251
3570	0.0384975
3582	0.0393147
3594	0.0395871
3606	0.0393147
3618	0.0398594
3630	0.0399502
3642	0.0420385
3654	0.0404042
3666	0.0392239
3678	0.0370448
3690	0.0383159
3702	0.0387699
3714	0.037408
3726	0.0375895
3738	0.0371356
3750	0.0398594
3762	0.0378619
3774	0.0374987
3786	0.0367724
3798	0.0368632
3810	0.0385883
3822	0.0384975
3834	0.0370448
3846	0.0398594
3858	0.0378619
3870	0.0389515
3882	0.0403134
3894	0.0383159
3906	0.0382251
3918	0.0397686
3930	0.0393147
3942	0.0384975
3954	0.040495
3966	0.0403134
