Infrared Spectrum: 1,2-Ethanediamine, N-(2-aminoethyl)-N,N'-dimethyl-
Formula: C 6 H 17 N 3
CAS: 34066-96-1
Origin: Sadtler Research Labs Under US-EPA Contract
1/CM	ABSORBANCE
450	0.0108334
462	0.00759458
474	0.00547256
486	0.00692447
498	0.00759458
510	0.00804132
522	0.0201033
534	0.0198799
546	0.0173112
558	0.0307134
570	0.024124
582	0.0177579
594	0.0144074
606	0.0183163
618	0.0255759
630	0.0349574
642	0.0486947
654	0.0651124
666	0.0820885
678	0.110345
690	0.131453
702	0.175457
714	0.204048
726	0.232081
738	0.271841
750	0.31216
762	0.348457
774	0.318749
786	0.26246
798	0.249058
810	0.224599
822	0.175457
834	0.12263
846	0.0855507
858	0.073377
870	0.0704732
882	0.0711433
894	0.0580762
906	0.0406533
918	0.0375262
930	0.04043
942	0.0409884
954	0.0463493
966	0.0532737
978	0.0519335
990	0.0681279
1002	0.11995
1014	0.177356
1026	0.235209
1038	0.30758
1050	0.35259
1062	0.25386
1074	0.166634
1086	0.166411
1098	0.176016
1110	0.20215
1122	0.255312
1134	0.264135
1146	0.199134
1158	0.146307
1170	0.0987295
1182	0.0728186
1194	0.0664526
1206	0.0663409
1218	0.0714784
1230	0.0752757
1242	0.074829
1254	0.0923635
1266	0.110233
1278	0.116041
1290	0.121625
1302	0.118163
1314	0.108111
1326	0.093592
1338	0.115482
1350	0.179701
1362	0.162502
1374	0.0993996
1386	0.0632137
1398	0.0486947
1410	0.0402066
1422	0.0636604
1434	0.10934
1446	0.240458
1458	0.348681
1470	0.336507
1482	0.226385
1494	0.0892363
1506	0.0447857
1518	0.0274745
1530	0.0199916
1542	0.0204384
1554	0.0185397
1566	0.0188748
1578	0.0275862
1590	0.0331704
1602	0.0523803
1614	0.0781795
1626	0.0877844
1638	0.0617618
1650	0.0292615
1662	0.0189864
1674	0.010275
1686	0.0125087
1698	0.0106101
1710	0.0161943
1722	0.0127321
1734	0.00982828
1746	0.000111685
1758	0.000558425
1770	0.00234539
1782	0.00111685
1794	0.00335055
1806	0.00268044
1818	0.00457909
1830	0.00346224
1842	0.00379729
1854	0.00435571
1866	0.0036856
1878	0.00469077
1890	0.00469077
1902	0.00379729
1914	0.00279212
1926	0.00323887
1938	0.00268044
1950	0.00245707
1962	0.00268044
1974	0.00256875
1986	0.00290381
1998	0.00290381
2010	0.00379729
2022	0.00357392
2034	0.00402066
2046	0.00379729
2058	0.00413234
2070	0.00435571
2082	0.00457909
2094	0.00469077
2106	0.00480245
2118	0.0044674
2130	0.0036856
2142	0.00323887
2154	0.00268044
2166	0.00234539
2178	0.00156359
2190	0.00178696
2202	0.00189865
2214	0.00156359
2226	0.00201033
2238	0.00212202
2250	0.00212202
2262	0.00178696
2274	0.00089348
2286	0.000558425
2298	0.00044674
2310	0.00067011
2322	0.00346224
2334	0.00558425
2346	0.0067011
2358	0.00513751
2370	0.00692447
2382	0.00647773
2394	0.00658941
2406	0.00714784
2418	0.00804132
2430	0.00848806
2442	0.0089348
2454	0.0101633
2466	0.0108334
2478	0.0126204
2490	0.0137373
2502	0.0150775
2514	0.0157476
2526	0.0167528
2538	0.0178696
2550	0.0193215
2562	0.0212202
2574	0.0234538
2586	0.0253525
2598	0.0282563
2610	0.0317185
2622	0.0364093
2634	0.0423286
2646	0.0500349
2658	0.0612034
2670	0.0754991
2682	0.0941505
2694	0.11068
2706	0.124976
2718	0.136367
2730	0.150551
2742	0.181041
2754	0.247047
2766	0.401619
2778	0.654139
2790	0.987407
2802	1.10948
2814	0.888454
2826	0.709535
2838	0.660058
2850	0.716459
2862	0.656708
2874	0.568365
2886	0.594834
2898	0.62834
2910	0.622532
2922	0.651794
2934	0.777663
2946	0.960826
2958	0.904537
2970	0.677034
2982	0.525255
2994	0.238336
3006	0.103979
3018	0.0706966
3030	0.0569593
3042	0.0482479
3054	0.0415468
3066	0.0376378
3078	0.0336172
3090	0.0282563
3102	0.024124
3114	0.0207734
3126	0.0185397
3138	0.0173112
3150	0.016306
3162	0.0150775
3174	0.0147424
3186	0.014184
3198	0.0132905
3210	0.0119503
3222	0.0104984
3234	0.00971659
3246	0.00904648
3258	0.00915817
3270	0.00915817
3282	0.00915817
3294	0.00915817
3306	0.00904648
3318	0.0126204
3330	0.0199916
3342	0.0371911
3354	0.0443389
3366	0.0252408
3378	0.0126204
3390	0.0135139
3402	0.015971
3414	0.0164177
3426	0.010275
3438	0.00692447
3450	0.00569594
3462	0.00547256
3474	0.00469077
3486	0.0036856
3498	0.00301549
3510	0.0036856
3522	0.00279212
3534	0.00234539
3546	0.00413234
3558	0.00022337
3570	0.00424403
3582	0.00357392
3594	0.00234539
3606	0.00234539
3618	0.00178696
3630	0.00837638
3642	0.00268044
3654	0.00167527
3666	0.00167527
3678	0.00536088
3690	0.00268044
3702	0.00335055
3714	0.00390898
3726	0.00335055
3738	0.00647773
3750	0.000558425
3762	0.00111685
3774	0.00212202
3786	0.00234539
3798	0.00156359
3810	0.00145191
3822	0.00457909
3834	0.00178696
3846	0.0036856
3858	0.0036856
3870	0.00379729
3882	0.00357392
3894	0.00625436
3906	0.00614268
3918	0.00647773
3930	0.00402066
3942	0.00524919
3954	0.00536088
3966	0.00469077
