Infrared Spectrum: 2,5-Dichlorobenzyl alcohol
Formula: C 7 H 6 Cl 2 O
CAS: 34145-05-6
Origin: Sadtler Research Labs Under US-EPA Contract
1/CM	ABSORBANCE
450	0.0366777
462	0.0230592
474	0.0109599
486	0.0195868
498	0.0178506
510	0.0998329
522	0.121807
534	0.0754172
546	0.0593029
558	0.0704256
570	0.104553
582	0.0524123
594	0.0408013
606	0.0592486
618	0.0683096
630	0.0406385
642	0.0228422
654	0.0181218
666	0.0160601
678	0.0173622
690	0.0157888
702	0.0256636
714	0.0296243
726	0.0404757
738	0.0482345
750	0.0242529
762	0.021323
774	0.0136185
786	0.0260434
798	0.085292
810	0.279803
822	0.182629
834	0.0639147
846	0.0425917
858	0.0626668
870	0.168522
882	0.183226
894	0.0809514
906	0.0400959
918	0.0376544
930	0.0450876
942	0.0590859
954	0.0830132
966	0.0856718
978	0.0728672
990	0.077696
1002	0.117738
1014	0.241878
1026	0.431723
1038	0.441598
1050	0.423747
1062	0.444636
1074	0.23515
1086	0.233793
1098	0.54257
1110	0.242637
1122	0.112366
1134	0.141828
1146	0.0973913
1158	0.0887645
1170	0.107375
1182	0.171127
1194	0.193806
1206	0.13841
1218	0.101786
1230	0.0900124
1242	0.0859973
1254	0.125551
1266	0.137433
1278	0.0734097
1290	0.0400417
1302	0.0419407
1314	0.0406385
1326	0.0360266
1338	0.0557762
1350	0.08361
1362	0.114482
1374	0.163151
1386	0.201673
1398	0.225275
1410	0.149641
1422	0.0808429
1434	0.0743321
1446	0.157779
1458	0.410454
1470	0.457495
1482	0.217028
1494	0.0737353
1506	0.0690692
1518	0.0271285
1530	0.0216485
1542	0.0206719
1554	0.0223539
1566	0.0324999
1578	0.0182846
1590	0.0238731
1602	0.0123706
1614	0.00450333
1626	0.00054257
1638	0.00547996
1650	0.0139983
1662	0.0187187
1674	0.00884389
1686	0.0130217
1698	0.0101461
1710	0.0138898
1722	0.0109057
1734	0.000705341
1746	0.0102546
1758	0.0120451
1770	0.00651084
1782	0.00298413
1794	0.00482887
1806	0.00661935
1818	0.00634807
1830	0.00585976
1842	0.00591401
1854	0.00683638
1866	0.0117195
1878	0.0186102
1890	0.0187729
1902	0.00564273
1914	0.00385225
1926	0.00222454
1938	0.00309265
1950	0.00314691
1962	0.00320116
1974	0.00450333
1986	0.00488313
1998	0.00330968
2010	0.00455759
2022	0.00602253
2034	0.00634807
2046	0.00607678
2058	0.0050459
2070	0.00558847
2082	0.00531719
2094	0.00461184
2106	0.0042863
2118	0.00406927
2130	0.00363522
2142	0.00341819
2154	0.0035267
2166	0.00374373
2178	0.00287562
2190	0.00314691
2202	0.00303839
2214	0.00271285
2226	0.00244157
2238	0.00222454
2250	0.00265859
2262	0.00374373
2274	0.0050459
2286	0.00341819
2298	0.00282136
2310	0.00265859
2322	0.00303839
2334	0.00379799
2346	0.00385225
2358	0.00412353
2370	0.00385225
2382	0.0035267
2394	0.00358096
2406	0.00363522
2418	0.00363522
2430	0.00330968
2442	0.00341819
2454	0.0035267
2466	0.00374373
2478	0.00303839
2490	0.00325542
2502	0.00276711
2514	0.00330968
2526	0.00368948
2538	0.0039065
2550	0.00325542
2562	0.00298413
2574	0.00260434
2586	0.00292988
2598	0.00368948
2610	0.00412353
2622	0.00368948
2634	0.0042863
2646	0.00510016
2658	0.0058055
2670	0.00558847
2682	0.00596827
2694	0.00645658
2706	0.00629381
2718	0.00737895
2730	0.00775875
2742	0.00765024
2754	0.00868112
2766	0.00781301
2778	0.00960349
2790	0.0109057
2802	0.0124791
2814	0.0144866
2826	0.0176878
2838	0.0211602
2850	0.0262604
2862	0.0358639
2874	0.0534974
2886	0.0794322
2898	0.079378
2910	0.0654882
2922	0.0680925
2934	0.0806259
2946	0.0781301
2958	0.0630466
2970	0.0568613
2982	0.0455759
2994	0.0285392
3006	0.0174708
3018	0.0147579
3030	0.0138898
3042	0.0126961
3054	0.0103088
3066	0.0136728
3078	0.0242529
3090	0.0231135
3102	0.0147036
3114	0.00906092
3126	0.00775875
3138	0.00629381
3150	0.0065651
3162	0.00645658
3174	0.00661935
3186	0.00678212
3198	0.00661935
3210	0.0065651
3222	0.00667361
3234	0.00526293
3246	0.00558847
3258	0.00585976
3270	0.00547996
3282	0.00520867
3294	0.0042863
3306	0.00482887
3318	0.00450333
3330	0.00526293
3342	0.00396076
3354	0.00526293
3366	0.00368948
3378	0.00330968
3390	0.00434056
3402	0.00374373
3414	0.00493739
3426	0.00499164
3438	0.00434056
3450	0.00455759
3462	0.00406927
3474	0.00222454
3486	0.00222454
3498	0.00298413
3510	0.00271285
3522	0.00292988
3534	0.00520867
3546	0.00607678
3558	0.00406927
3570	0.00623955
3582	0.00591401
3594	0.00786727
3606	0.0114482
3618	0.0164399
3630	0.0342362
3642	0.0638605
3654	0.0846409
3666	0.0877336
3678	0.0735182
3690	0.0430801
3702	0.0188814
3714	0.0103631
3726	0.00672787
3738	0.00341819
3750	0.00320116
3762	0.00341819
3774	0.00255008
3786	0.00336393
3798	0.00320116
3810	0.0050459
3822	0.00689064
3834	0.000868112
3846	0.0011394
3858	0.00699915
3870	0.00401502
3882	0.0050459
3894	0.0058055
3906	0.00406927
3918	0.00732469
3930	0.00520867
3942	0.00759598
3954	0.0054257
3966	0.00401502
