Infrared Spectrum: 1,2-Propanediamine, N(1),N(1)-dipropyl-,
Formula: C 9 H 22 N 2
CAS: 34155-34-5
Origin: Sadtler Research Labs Under US-EPA Contract
1/CM	ABSORBANCE
450	0.00143166
462	0.00397682
474	0.0082718
486	0.00365868
498	0.0041359
510	0.00747643
522	0.00429497
534	0.00111351
546	0.000318146
558	0.00206795
570	0.00381775
582	0.00397682
594	0.00238609
606	0.00349961
618	0.00270424
630	0.00461312
642	0.00429497
654	0.00699921
666	0.00938531
678	0.0128849
690	0.0181343
702	0.0222702
714	0.0318146
726	0.0445404
738	0.0711056
750	0.0987843
762	0.112942
774	0.148892
786	0.191206
798	0.22652
810	0.227793
822	0.18023
834	0.137121
846	0.144438
858	0.118032
870	0.069674
882	0.0598114
894	0.0598114
906	0.0469265
918	0.0485173
930	0.0462902
942	0.028315
954	0.0232247
966	0.0171799
978	0.0149529
990	0.0286331
1002	0.0668107
1014	0.111192
1026	0.117873
1038	0.107533
1050	0.101489
1062	0.227633
1074	0.441269
1086	0.314169
1098	0.185956
1110	0.126622
1122	0.0951257
1134	0.08924
1146	0.0755597
1158	0.0526532
1170	0.0726964
1182	0.118828
1194	0.145711
1206	0.0726964
1218	0.0504261
1230	0.0513806
1242	0.0400864
1254	0.052335
1266	0.0777867
1278	0.101011
1290	0.109283
1302	0.109283
1314	0.0978299
1326	0.0944894
1338	0.120418
1350	0.137598
1362	0.130122
1374	0.199637
1386	0.240996
1398	0.111669
1410	0.0450177
1422	0.0386547
1434	0.0493126
1446	0.105147
1458	0.229065
1470	0.26088
1482	0.115328
1494	0.0507443
1506	0.0410408
1518	0.0340416
1530	0.0307011
1542	0.0334053
1554	0.0335644
1566	0.0338825
1578	0.0397682
1590	0.0453358
1602	0.0637883
1614	0.0909898
1626	0.0860585
1638	0.0518578
1650	0.0244972
1662	0.0136803
1674	0.010817
1686	0.0139984
1698	0.0151119
1710	0.0198841
1722	0.0167027
1734	0.00699921
1746	0.000477219
1758	0.00190888
1770	0.00349961
1782	0.00190888
1794	0.00238609
1806	0.0017498
1818	0.00159073
1830	0.000477219
1842	0.000477219
1854	0.000954438
1866	0.000318146
1878	0.00127258
1890	0.0017498
1902	0.00190888
1914	0.00222702
1926	0.00270424
1938	0.00286331
1950	0.00302239
1962	0.00238609
1974	0.00222702
1986	0.00222702
1998	0.00270424
2010	0.00302239
2022	0.00334053
2034	0.00349961
2046	0.00270424
2058	0.00143166
2070	0.00127258
2082	0.00143166
2094	0.00111351
2106	0.00127258
2118	0.00111351
2130	0.00190888
2142	0.00159073
2154	0.00159073
2166	0.0017498
2178	0.00206795
2190	0.00286331
2202	0.00302239
2214	0.00270424
2226	0.00270424
2238	0.00222702
2250	0.00190888
2262	0.00206795
2274	0.00238609
2286	0.00238609
2298	0.00286331
2310	0.00318146
2322	0.00286331
2334	0.00206795
2346	0.00334053
2358	0.00270424
2370	0.00238609
2382	0.00334053
2394	0.00254517
2406	0.00254517
2418	0.00111351
2430	0
2442	0
2454	0.00111351
2466	0.00206795
2478	0.00270424
2490	0.00365868
2502	0.00429497
2514	0.00540848
2526	0.00684014
2538	0.00874902
2550	0.010976
2562	0.0122486
2574	0.0138394
2586	0.0163845
2598	0.0202023
2610	0.02402
2622	0.0273606
2634	0.0313374
2646	0.0373822
2658	0.0442223
2670	0.0524941
2682	0.0558346
2694	0.0591752
2706	0.0744462
2718	0.100057
2730	0.129008
2742	0.155573
2754	0.167822
2766	0.192319
2778	0.234633
2790	0.329599
2802	0.551665
2814	0.611318
2826	0.430452
2838	0.310829
2850	0.275674
2862	0.323395
2874	0.519851
2886	0.693876
2898	0.495671
2910	0.522237
2922	0.600342
2934	0.812386
2946	0.993093
2958	1.05529
2970	1.59073
2982	0.760687
2994	0.237178
3006	0.111828
3018	0.0814454
3030	0.0664925
3042	0.0518578
3054	0.0399273
3066	0.0332463
3078	0.0286331
3090	0.0265652
3102	0.0246563
3114	0.0219521
3126	0.0206795
3138	0.0198841
3150	0.019566
3162	0.0197251
3174	0.0190888
3186	0.0181343
3198	0.0157482
3210	0.0124077
3222	0.0100216
3234	0.00874902
3246	0.00731736
3258	0.0076355
3270	0.00699921
3282	0.00652199
3294	0.00699921
3306	0.00858994
3318	0.0165436
3330	0.0338825
3342	0.0194069
3354	0.0076355
3366	0.00699921
3378	0.0111351
3390	0.0114533
3402	0.0181343
3414	0.00954438
3426	0.00509034
3438	0.00445404
3450	0.00381775
3462	0.00334053
3474	0.00238609
3486	0.0017498
3498	0.00127258
3510	0.0017498
3522	0.00111351
3534	0.000954438
3546	0.00143166
3558	0
3570	0.00222702
3582	0.0017498
3594	0.0017498
3606	0.000318146
3618	0.000477219
3630	0.00540848
3642	0.00206795
3654	0.00302239
3666	0.00222702
3678	0.00477219
3690	0.00286331
3702	0.00238609
3714	0.00222702
3726	0.00143166
3738	0.00365868
3750	0.00143166
3762	0.00190888
3774	0.00222702
3786	0.00222702
3798	0.00270424
3810	0.00302239
3822	0.00334053
3834	0.00286331
3846	0.00190888
3858	0.00318146
3870	0.00334053
3882	0.00286331
3894	0.00318146
3906	0.00365868
3918	0.00334053
3930	0.00206795
3942	0.00190888
3954	0.00254517
3966	0.00397682
