Infrared Spectrum: Methanone, (3,5-dichloro-4-hydroxyphenyl)phenyl-
Formula: C 13 H 8 Cl 2 O 2
CAS: 34183-06-7
Origin: Sadtler Research Labs Under US-EPA Contract
1/CM	ABSORBANCE
450	0
462	0.0182074
474	0.00839771
486	0.0176129
498	0.0165725
510	0.0173899
522	0.0154577
534	0.0179845
546	0.0205112
558	0.0209571
570	0.0135255
582	0.00876929
594	0.031287
606	0.0789236
618	0.0396104
630	0.0381984
642	0.0639118
654	0.22005
666	0.0490486
678	0.0466704
690	0.106643
702	0.132282
714	0.196417
726	0.150118
738	0.132208
750	0.0188763
762	0.0194708
774	0.0260849
786	0.0766941
798	0.15532
810	0.147146
822	0.0740187
834	0.0659926
846	0.048454
858	0.0177615
870	0.0168697
882	0.0333679
894	0.0603446
906	0.0429546
918	0.0268281
930	0.0281658
942	0.023038
954	0.0289089
966	0.0517239
978	0.135329
990	0.038793
1002	0.0490486
1014	0.0302466
1026	0.0431776
1038	0.0249702
1050	0.0390902
1062	0.0414683
1074	0.0723838
1086	0.0502376
1098	0.0469677
1110	0.0561086
1122	0.057372
1134	0.0975026
1146	0.155915
1158	0.20095
1170	0.201173
1182	0.23521
1194	0.0649522
1206	0.0749848
1218	0.142835
1230	0.248215
1242	0.319113
1254	0.353521
1266	0.44597
1278	0.427466
1290	0.719082
1302	0.26895
1314	0.162529
1326	0.0774373
1338	0.0559599
1350	0.0221462
1362	0.0186533
1374	0.0287603
1386	0.0916316
1398	0.147294
1410	0.0786263
1422	0.027274
1434	0.0350772
1446	0.108947
1458	0.0669587
1470	0.10107
1482	0.221982
1494	0.0689652
1506	0.0208828
1518	0.0185047
1530	0.0271253
1542	0.0382727
1554	0.0691139
1566	0.117865
1578	0.129458
1590	0.119723
1602	0.0558113
1614	0.0105529
1626	0.0204369
1638	0.048677
1650	0.0875442
1662	0.122027
1674	0.148112
1686	0.251411
1698	0.0685194
1710	0.0353744
1722	0.0248215
1734	0.0196937
1746	0.0145659
1758	0.0197681
1770	0.0384957
1782	0.0363405
1794	0.0247472
1806	0.025639
1818	0.0228893
1830	0.0196937
1842	0.0184304
1854	0.0163495
1866	0.0159779
1878	0.0197681
1890	0.0197681
1902	0.0212544
1914	0.0190249
1926	0.0186533
1938	0.0146403
1950	0.0199167
1962	0.0233352
1974	0.019991
1986	0.0182817
1998	0.0156807
2010	0.0146403
2022	0.020214
2034	0.0167211
2046	0.015532
2058	0.0173156
2070	0.0170927
2082	0.0150861
2094	0.0139714
2106	0.0138971
2118	0.0162009
2130	0.0180588
2142	0.0179845
2154	0.0150118
2166	0.0162752
2178	0.0164982
2190	0.0166468
2202	0.0156064
2214	0.0176129
2226	0.0163495
2238	0.017167
2250	0.0177615
2262	0.0154577
2274	0.0167211
2286	0.0153091
2298	0.0150118
2310	0.0078775
2322	0.0158293
2334	0.0140457
2346	0.00683707
2358	0.00958676
2370	0.0130053
2382	0.0116676
2394	0.0165725
2406	0.0168697
2418	0.0174643
2430	0.0166468
2442	0.0180588
2454	0.0135255
2466	0.0130796
2478	0.0220719
2490	0.0173156
2502	0.0137485
2514	0.0182817
2526	0.0185047
2538	0.0134512
2550	0.0168697
2562	0.0179102
2574	0.0184304
2586	0.0144173
2598	0.0124108
2610	0.0150861
2622	0.0161266
2634	0.0153091
2646	0.0146403
2658	0.0144916
2670	0.0150118
2682	0.012708
2694	0.0123365
2706	0.0118162
2718	0.0119649
2730	0.0124851
2742	0.0130796
2754	0.0116676
2766	0.0112217
2778	0.0110731
2790	0.0106272
2802	0.0119649
2814	0.0108501
2826	0.0114447
2838	0.0121135
2850	0.011519
2862	0.0135998
2874	0.0138971
2886	0.0116676
2898	0.00899224
2910	0.00943813
2922	0.0092895
2934	0.0103299
2946	0.00817476
2958	0.0111474
2970	0.0116676
2982	0.00943813
2994	0.0120392
3006	0.012708
3018	0.0161266
3030	0.0260849
3042	0.0313614
3054	0.0295035
3066	0.0463732
3078	0.0637631
3090	0.0465961
3102	0.0271997
3114	0.0168697
3126	0.0107015
3138	0.0113703
3150	0.0111474
3162	0.0107015
3174	0.00765455
3186	0.00951245
3198	0.0103299
3210	0.0100327
3222	0.0100327
3234	0.0111474
3246	0.0125594
3258	0.0113703
3270	0.0113703
3282	0.0133026
3294	0.0131539
3306	0.0112217
3318	0.0125594
3330	0.0114447
3342	0.0138228
3354	0.0120392
3366	0.0118906
3378	0.0138228
3390	0.0136741
3402	0.0104786
3414	0.00951245
3426	0.0104786
3438	0.00839771
3450	0.00980971
3462	0.00862066
3474	0.0113703
3486	0.0125594
3498	0.0178358
3510	0.0220719
3522	0.0248215
3534	0.0192478
3546	0.0294291
3558	0.246655
3570	0.132282
3582	0.0228893
3594	0.0147889
3606	0.0104786
3618	0.0130053
3630	0.0130053
3642	0.0122621
3654	0.0107758
3666	0.0078775
3678	0.0147146
3690	0.00995834
3702	0.0078775
3714	0.00810044
3726	0.00772886
3738	0.011519
3750	0.00862066
3762	0.00802613
3774	0.00772886
3786	0.0132282
3798	0.00995834
3810	0.00921518
3822	0.0113703
3834	0.0097354
3846	0.0106272
3858	0.0144173
3870	0.0156807
3882	0.0156064
3894	0.00661412
3906	0.0118162
3918	0.0074316
3930	0.00862066
3942	0.00750592
3954	0.0074316
3966	0.0131539
