Infrared Spectrum: 2,2'-Difluorobenzophenone
Formula: C 13 H 8 F 2 O
CAS: 342-23-4
Origin: Sadtler Research Labs Under US-EPA Contract
1/CM	ABSORBANCE
450	0
462	0.00283214
474	0.00728266
486	0.0146327
498	0.02232
510	0.0402569
522	0.0489556
534	0.013419
546	0.00256242
558	0.00566429
570	0
582	0.00748495
594	0.010924
606	0.00984507
618	0.0108566
630	0.0225897
642	0.0484162
654	0.0330417
666	0.0296701
678	0.0583961
690	0.0448423
702	0.0419427
714	0.0294678
726	0.0294004
738	0.113421
750	0.254758
762	0.0728266
774	0.0600819
786	0.195216
798	0.188944
810	0.293059
822	0.151587
834	0.0554965
846	0.024815
858	0.0201622
870	0.0264333
882	0.0683086
894	0.0945397
906	0.0949443
918	0.0544176
930	0.01733
942	0.011868
954	0.00849643
966	0.0131492
978	0.0300072
990	0.0277146
1002	0.0368853
1014	0.0126098
1026	0.00944048
1038	0.00903589
1050	0.00856386
1062	0.0141607
1074	0.0327045
1086	0.0204319
1098	0.0246801
1110	0.0420101
1122	0.0235338
1134	0.0224549
1146	0.032772
1158	0.0677017
1170	0.0685783
1182	0.173031
1194	0.0690504
1206	0.034188
1218	0.051518
1230	0.125086
1242	0.26548
1254	0.176874
1266	0.269323
1278	0.467843
1290	0.67432
1302	0.539321
1314	0.170131
1326	0.0443703
1338	0.0286586
1350	0.0209039
1362	0.0149025
1374	0.0134864
1386	0.0126772
1398	0.019825
1410	0.0478767
1422	0.0792326
1434	0.20297
1446	0.392319
1458	0.0799744
1470	0.0832785
1482	0.177751
1494	0.0946745
1506	0.0453817
1518	0.0351995
1530	0.0268379
1542	0.0206342
1554	0.0303444
1566	0.0561709
1578	0.192923
1590	0.380654
1602	0.15914
1614	0.085234
1626	0.0317605
1638	0.0237361
1650	0.0269728
1662	0.0379642
1674	0.119085
1686	0.36892
1698	0.203038
1710	0.0588007
1722	0.034188
1734	0.0186787
1746	0.0139584
1758	0.0140259
1770	0.016386
1782	0.0137561
1794	0.00997994
1806	0.0124749
1818	0.00876616
1830	0.00512483
1842	0.0048551
1854	0.00566429
1866	0.0111263
1878	0.0120029
1890	0.00424822
1902	0.00343903
1914	0.00370876
1926	0.00546199
1938	0.011868
1950	0.00856386
1962	0.00458538
1974	0.00512483
1986	0.00404592
1998	0.00377619
2010	0.00276471
2022	0.00269728
2034	0.00370876
2046	0.00397849
2058	0.00492254
2070	0.00465281
2082	0.00512483
2094	0.00546199
2106	0.0031693
2118	0.00262985
2130	0.00269728
2142	0.00269728
2154	0.00330417
2166	0.00323674
2178	0.00310187
2190	0.00310187
2202	0.00262985
2214	0.00242755
2226	0.00276471
2238	0.00222526
2250	0.00222526
2262	0.00262985
2274	0.00269728
2286	0.00404592
2298	0.00458538
2310	0.00397849
2322	0.00552942
2334	0.00586658
2346	0.00660834
2358	0.00923818
2370	0.00856386
2382	0.00566429
2394	0.0033716
2406	0.00262985
2418	0.00262985
2430	0.00262985
2442	0.00249498
2454	0.00370876
2466	0.00262985
2478	0.00303444
2490	0.00310187
2502	0.00310187
2514	0.00465281
2526	0.00296701
2538	0.00262985
2550	0.00262985
2562	0.00262985
2574	0.00323674
2586	0.00377619
2598	0.00330417
2610	0.00370876
2622	0.00215782
2634	0.00101148
2646	0.00121378
2658	0.000741752
2670	0.00107891
2682	0.00215782
2694	0.00175323
2706	0.00229269
2718	0.00276471
2730	0.0016858
2742	0.00222526
2754	0.000944048
2766	0.00101148
2778	0.00128121
2790	0.00067432
2802	0.000876616
2814	0.00067432
2826	0.000269728
2838	0.00141607
2850	0.00161837
2862	0.00229269
2874	0.00296701
2886	0.00215782
2898	0.0031693
2910	0.00303444
2922	0.00249498
2934	0.00323674
2946	0.00236012
2958	0.00296701
2970	0.00289958
2982	0.00114634
2994	0.00202296
3006	0.00195553
3018	0.0031693
3030	0.00573172
3042	0.0142282
3054	0.0180043
3066	0.0219828
3078	0.0506414
3090	0.0445726
3102	0.0151048
3114	0.00788954
3126	0.00424822
3138	0.00323674
3150	0.00182066
3162	0.00222526
3174	0.000539456
3186	0.00114634
3198	0.00121378
3210	0.000741752
3222	0.00155094
3234	0.00161837
3246	0.00161837
3258	0.00262985
3270	0.0016858
3282	0.0018881
3294	0.00202296
3306	0.0018881
3318	0.00330417
3330	0.00384362
3342	0.00411335
3354	0.00748495
3366	0.0052597
3378	0.00303444
3390	0.00262985
3402	0.00114634
3414	0.00209039
3426	0.00236012
3438	0.0018881
3450	0.00350646
3462	0.00222526
3474	0.00256242
3486	0.00296701
3498	0.00161837
3510	0.00195553
3522	0.00222526
3534	0.00229269
3546	0.00323674
3558	0.00262985
3570	0.0016858
3582	0.00161837
3594	0.000944048
3606	0.00121378
3618	0.00182066
3630	0.000472024
3642	0.00249498
3654	0.00276471
3666	0.00276471
3678	0.00229269
3690	0.00114634
3702	0.000944048
3714	0.0018881
3726	0.000202296
3738	0.00101148
3750	0.000202296
3762	0.0016858
3774	0.0031693
3786	0.0016858
3798	0.00067432
3810	0.000809184
3822	0.000202296
3834	0.000202296
3846	0.000539456
3858	0.00141607
3870	0.00209039
3882	0.00236012
3894	0.00242755
3906	0.00229269
3918	0.000809184
3930	0.00033716
3942	0.00033716
3954	0.000202296
3966	0.000202296
