Infrared Spectrum: Azetidine, 1-benzoyl-,
Formula: C 10 H 11 N O
CAS: 3420-62-0
Origin: Sadtler Research Labs Under US-EPA Contract
1/CM	ABSORBANCE
450	0.00311967
462	0.00638113
474	0.016591
486	0.00864998
498	0.00524671
510	0.00326147
522	0.00269426
534	0.000567212
546	0.000283606
558	0.000425409
570	0.00198524
582	0.00382868
594	0.0109188
606	0.0127623
618	0.00879179
630	0.00666474
642	0.00666474
654	0.0150311
666	0.0306294
678	0.107345
690	0.176119
702	0.229721
714	0.259499
726	0.136982
738	0.0452352
750	0.0216959
762	0.0204196
774	0.0253827
786	0.0466532
798	0.0408393
810	0.0190016
822	0.0199942
834	0.0177254
846	0.0178672
858	0.0167328
870	0.0175836
882	0.018718
894	0.0218377
906	0.0228303
918	0.0231139
930	0.0215541
942	0.0119115
954	0.009359
966	0.018718
978	0.0426827
990	0.0812531
1002	0.0448097
1014	0.0177254
1026	0.0372942
1038	0.0236811
1050	0.0161655
1062	0.0285024
1074	0.0333237
1086	0.0252409
1098	0.036727
1110	0.0645204
1122	0.0829548
1134	0.0813949
1146	0.0401302
1158	0.0331819
1170	0.0520417
1182	0.0721777
1194	0.0516163
1206	0.0391376
1218	0.0422573
1230	0.0609753
1242	0.0801187
1254	0.0635277
1266	0.0724613
1278	0.0853654
1290	0.102524
1302	0.124503
1314	0.107203
1326	0.113159
1338	0.166619
1350	0.267724
1362	0.517156
1374	1.14066
1386	1.28573
1398	0.546509
1410	0.235393
1422	0.152722
1434	0.128048
1446	0.150169
1458	0.117696
1470	0.0721777
1482	0.0818203
1494	0.085649
1506	0.0510491
1518	0.0317639
1530	0.0275098
1542	0.0215541
1554	0.0259499
1566	0.0421155
1578	0.0650876
1590	0.0570048
1602	0.056863
1614	0.06764
1626	0.0833802
1638	0.104083
1650	0.155132
1662	0.449941
1674	1.0994
1686	0.879604
1698	0.231422
1710	0.103516
1722	0.0711851
1734	0.0429663
1746	0.0248155
1758	0.0243901
1770	0.0236811
1782	0.0168746
1794	0.0117696
1806	0.0174418
1818	0.0140385
1830	0.00709015
1842	0.00652294
1854	0.00694835
1866	0.00510491
1878	0.00751556
1890	0.009359
1902	0.0109188
1914	0.00623933
1926	0.00368688
1938	0.00623933
1950	0.00978441
1962	0.0112024
1974	0.00623933
1986	0.00198524
1998	0.000567212
2010	0.000283606
2022	0.000425409
2034	0.00127623
2046	0.00155983
2058	0.00226885
2070	0.00226885
2082	0.000992621
2094	0.000567212
2106	0.000850818
2118	0.000709015
2130	0.000709015
2142	0.00155983
2154	0.00255245
2166	0.00354507
2178	0.00368688
2190	0.00297786
2202	0.00255245
2214	0.00297786
2226	0.00311967
2238	0.00297786
2250	0.00311967
2262	0.00283606
2274	0.00326147
2286	0.00382868
2298	0.0049631
2310	0.00638113
2322	0.0048213
2334	0.00255245
2346	0.00439589
2358	0.00311967
2370	0.00326147
2382	0.00425409
2394	0.00155983
2406	0.000992621
2418	0.000141803
2430	0
2442	0.000567212
2454	0.000567212
2466	0.000709015
2478	0.00113442
2490	0.000709015
2502	0.000850818
2514	0.000992621
2526	0.000709015
2538	0.000992621
2550	0.00155983
2562	0.00170164
2574	0.00155983
2586	0.00113442
2598	0.00155983
2610	0.00141803
2622	0.000709015
2634	0.000567212
2646	0.000425409
2658	0.000709015
2670	0.00127623
2682	0.00170164
2694	0.00184344
2706	0.00170164
2718	0.00354507
2730	0.00581392
2742	0.00652294
2754	0.00581392
2766	0.00595573
2778	0.00666474
2790	0.00864998
2802	0.0095008
2814	0.010068
2826	0.0095008
2838	0.010068
2850	0.0154565
2862	0.0275098
2874	0.0560122
2886	0.148184
2898	0.257514
2910	0.149886
2922	0.0571466
2934	0.0727449
2946	0.156409
2958	0.232132
2970	0.239222
2982	0.201077
2994	0.122376
3006	0.151446
3018	0.104367
3030	0.0602663
3042	0.0677818
3054	0.0643786
3066	0.113442
3078	0.125212
3090	0.0796933
3102	0.0520417
3114	0.0279352
3126	0.0120533
3138	0.00723195
3150	0.00652294
3162	0.00666474
3174	0.00368688
3186	0.00241065
3198	0.00198524
3210	0.00184344
3222	0.00127623
3234	0.00155983
3246	0.00170164
3258	0.00184344
3270	0.00184344
3282	0.00212705
3294	0.00326147
3306	0.00368688
3318	0.0048213
3330	0.00680654
3342	0.00751556
3354	0.00439589
3366	0.00212705
3378	0.000992621
3390	0.000567212
3402	0.000283606
3414	0.000567212
3426	0.00113442
3438	0.00127623
3450	0.000850818
3462	0.000141803
3474	0.000992621
3486	0.000283606
3498	0.000141803
3510	0
3522	0.000283606
3534	0.00113442
3546	0.000567212
3558	0.000992621
3570	0.00113442
3582	0.00226885
3594	0.000850818
3606	0.000850818
3618	0.000709015
3630	0.00184344
3642	0.00170164
3654	0.00170164
3666	0.00198524
3678	0.00226885
3690	0.00155983
3702	0.00226885
3714	0.00283606
3726	0.00255245
3738	0.00255245
3750	0.00198524
3762	0.000850818
3774	0.00155983
3786	0.00141803
3798	0.000567212
3810	0.00127623
3822	0.000850818
3834	0.000992621
3846	0.000425409
3858	0.00212705
3870	0.00113442
3882	0.000992621
3894	0.00127623
3906	0.00155983
3918	0.00127623
3930	0.00155983
3942	0.000992621
3954	0.00184344
3966	0.00326147
