Infrared Spectrum: (-)-Dimethyl succinate
Formula: C 24 H 42 O 4
CAS: 34212-59-4
Origin: Sadtler Research Labs Under US-EPA Contract
1/CM	ABSORBANCE
450	0.0113697
462	0.0108105
474	0.0102513
486	0.00913301
498	0.00661677
510	0.00731573
522	0.00368116
534	0.00274922
546	0.00531206
558	0.00657018
570	0.0077351
582	0.00657018
594	0.0111367
606	0.0077817
618	0.00391415
630	0.003122
642	0.00428692
654	0.0105309
666	0.00475289
678	0.00186388
690	0.00200367
702	0.00232985
714	0.000652358
726	0.00167749
738	0.00116493
750	0.00223666
762	0.00279582
774	0.00279582
786	0.00447331
798	0.0112299
810	0.013187
822	0.0125346
834	0.0178467
846	0.0327577
858	0.0132335
870	0.0148178
882	0.0143519
894	0.0270263
906	0.0316394
918	0.0319189
930	0.0235781
942	0.0279582
954	0.0551708
966	0.0988788
978	0.146175
990	0.135318
1002	0.10503
1014	0.100976
1026	0.0654222
1038	0.0860647
1050	0.0534468
1062	0.0454321
1074	0.0482279
1086	0.0774908
1098	0.0852259
1110	0.065329
1122	0.0828961
1134	0.148924
1146	0.28522
1158	0.335825
1170	0.3478
1182	0.265184
1194	0.194542
1206	0.18047
1218	0.192865
1230	0.183033
1242	0.202184
1254	0.190908
1266	0.164674
1278	0.127536
1290	0.105496
1302	0.0941725
1314	0.0827563
1326	0.0767919
1338	0.0915631
1350	0.099438
1362	0.114722
1374	0.132056
1386	0.0970616
1398	0.0475755
1410	0.0406792
1422	0.0521886
1434	0.0492996
1446	0.0699887
1458	0.107919
1470	0.0707808
1482	0.024277
1494	0.0104843
1506	0.00731573
1518	0.00512567
1530	0.00330839
1542	0.00200367
1554	0.00344818
1566	0.00344818
1578	0.00442672
1590	0.00405394
1602	0.00503248
1614	0.00573143
1626	0.00582462
1638	0.00810788
1650	0.00862045
1662	0.0121152
1674	0.0143985
1686	0.0238577
1698	0.0387687
1710	0.0614148
1722	0.134852
1734	0.334333
1746	0.454554
1758	0.194682
1770	0.0584326
1782	0.0348546
1794	0.0224132
1806	0.0137461
1818	0.00862045
1830	0.00442672
1842	0.00284242
1854	0.00260943
1866	0.000885343
1878	0.0014911
1890	0.00125812
1902	0.000885343
1914	0.000512567
1926	0.00046597
1938	0.000419373
1950	9.3194e-05
1962	0.000419373
1974	0.000279582
1986	0.00046597
1998	0.00046597
2010	0.00093194
2022	0.000698955
2034	0.000652358
2046	0.00093194
2058	0.000885343
2070	0.000698955
2082	0.00121152
2094	0.00107173
2106	0.00102513
2118	0.000978537
2130	0.00046597
2142	0.000186388
2154	0.000326179
2166	0.000326179
2178	0.000512567
2190	0.000698955
2202	0.000698955
2214	0.000792149
2226	0.00046597
2238	0.000232985
2250	0.000232985
2262	0.000605761
2274	0.000745552
2286	0.0015843
2298	0.00368116
2310	0.00521886
2322	0.00587122
2334	0.00484609
2346	0.00517227
2358	0.006244
2370	0.00563824
2382	0.00507907
2394	0.00172409
2406	0.00186388
2418	0.00167749
2430	0.00181728
2442	0.0016309
2454	0.00121152
2466	0.0015377
2478	0.00130472
2490	0.00135131
2502	0.00116493
2514	0.0015843
2526	0.00167749
2538	0.00205027
2550	0.00209686
2562	0.00228325
2574	0.00279582
2586	0.00391415
2598	0.00493928
2610	0.006244
2622	0.00652358
2634	0.00633719
2646	0.00633719
2658	0.00740892
2670	0.00712934
2682	0.00736233
2694	0.00759531
2706	0.00866704
2718	0.0104843
2730	0.0128142
2742	0.0119754
2754	0.0104377
2766	0.0111367
2778	0.0121152
2790	0.0144451
2802	0.0185456
2814	0.0231121
2826	0.0301017
2838	0.0454787
2850	0.0996244
2862	0.163742
2874	0.229583
2886	0.193844
2898	0.160853
2910	0.202977
2922	0.302601
2934	0.398171
2946	0.356793
2958	0.417509
2970	0.355302
2982	0.109969
2994	0.0467834
3006	0.0267933
3018	0.0189184
3030	0.0134199
3042	0.00955239
3054	0.00801468
3066	0.00731573
3078	0.00684976
3090	0.00563824
3102	0.00531206
3114	0.0046597
3126	0.00489268
3138	0.00493928
3150	0.00512567
3162	0.00493928
3174	0.00507907
3186	0.00456651
3198	0.00372776
3210	0.00293561
3222	0.00191048
3234	0.00167749
3246	0.0015377
3258	0.00116493
3270	0.000745552
3282	0.000745552
3294	0.000698955
3306	0.00093194
3318	0.00111833
3330	0.00107173
3342	0.00177069
3354	0.00223666
3366	0.00191048
3378	0.00172409
3390	0.0015377
3402	0.00130472
3414	0.00177069
3426	0.00219006
3438	0.00256284
3450	0.00326179
3462	0.00335498
3474	0.00270263
3486	0.00205027
3498	0.000745552
3510	0.00116493
3522	0.000698955
3534	0.000745552
3546	0.000512567
3558	0.00111833
3570	0.00228325
3582	0.00232985
3594	0.000838746
3606	0.000559164
3618	0.00130472
3630	0.000745552
3642	0.000978537
3654	0.000559164
3666	0.00135131
3678	0.000139791
3690	0.00107173
3702	0.00093194
3714	0.00144451
3726	0.00172409
3738	0.00144451
3750	0.00195707
3762	0.00102513
3774	0.00121152
3786	0.00186388
3798	0.0014911
3810	0.00209686
3822	0.0015377
3834	0.00200367
3846	0.00195707
3858	0.00181728
3870	0.00172409
3882	0.00279582
3894	0.00274922
3906	0.00242304
3918	0.00200367
3930	0.00181728
3942	0.00284242
3954	0.00279582
3966	0.00279582
