Infrared Spectrum: 5-Bromo-2-nitrobenzotrifluoride
Formula: C 7 H 3 Br F 3 N O 2
CAS: 344-38-7
Origin: Sadtler Research Labs Under US-EPA Contract
1/CM	ABSORBANCE
450	0
462	0.0175978
474	0.0337688
486	0.117002
498	0.0697572
510	0.0369396
522	0.0252077
534	0.0134758
546	0.020293
558	0.0353542
570	0.0421714
582	0.0332932
594	0.0402689
606	0.0318663
618	0.0229882
630	0.016171
642	0.0239394
654	0.0729279
666	0.0267931
678	0.0255248
690	0.0325005
702	0.0401104
714	0.146173
726	0.0703913
738	0.0255248
750	0.03472
762	0.0497812
774	0.0236223
786	0.028537
798	0.0328176
810	0.0312322
822	0.0577082
834	0.190881
846	0.165039
858	0.542679
870	0.0883062
882	0.0445495
894	0.123185
906	0.0510496
918	0.0180734
930	0.0156954
942	0.016171
954	0.0180734
966	0.0145856
978	0.0171222
990	0.0153783
1002	0.0183905
1014	0.0204515
1026	0.0359884
1038	0.0978186
1050	0.354176
1062	0.188503
1074	0.0833915
1086	0.166624
1098	0.116685
1110	0.0803793
1122	0.198491
1134	0.24415
1146	0.403165
1158	0.421397
1170	0.903831
1182	1.43969
1194	0.955197
1206	0.287748
1218	0.164881
1230	0.106063
1242	0.0913185
1254	0.149978
1266	0.396982
1278	0.571692
1290	0.598168
1302	1.58539
1314	0.470227
1326	0.303919
1338	0.317237
1350	0.42108
1362	0.70423
1374	0.331664
1386	0.281882
1398	0.262065
1410	0.104477
1422	0.0553301
1434	0.0472446
1446	0.0361469
1458	0.0394762
1470	0.0810134
1482	0.1281
1494	0.0640498
1506	0.0604034
1518	0.0922697
1530	0.15949
1542	0.339591
1554	0.917782
1566	0.837879
1578	0.441531
1590	0.263333
1602	0.140783
1614	0.0841842
1626	0.0551716
1638	0.0377323
1650	0.0256833
1662	0.0266346
1674	0.0220369
1686	0.0160124
1698	0.0137929
1710	0.0168051
1722	0.0133173
1734	0.0118904
1746	0.0166466
1758	0.0155368
1770	0.0188661
1782	0.0261589
1794	0.0280614
1806	0.0164881
1818	0.0136344
1830	0.0126831
1842	0.01411
1854	0.0164881
1866	0.0126831
1878	0.0137929
1890	0.0142685
1902	0.0187076
1914	0.0218784
1926	0.0152197
1938	0.0134758
1950	0.0142685
1962	0.0137929
1974	0.0137929
1986	0.0136344
1998	0.0128417
2010	0.012366
2022	0.0126831
2034	0.0118904
2046	0.0110977
2058	0.012366
2070	0.0117319
2082	0.012049
2094	0.0130002
2106	0.0126831
2118	0.0118904
2130	0.0112563
2142	0.0101465
2154	0.0107807
2166	0.0112563
2178	0.0106221
2190	0.0106221
2202	0.0115733
2214	0.0114148
2226	0.0122075
2238	0.0126831
2250	0.0112563
2262	0.012049
2274	0.0117319
2286	0.0137929
2298	0.0147441
2310	0.0149027
2322	0.0160124
2334	0.0131587
2346	0.0174393
2358	0.0168051
2370	0.0152197
2382	0.0149027
2394	0.0122075
2406	0.0133173
2418	0.012366
2430	0.0107807
2442	0.0115733
2454	0.0106221
2466	0.010305
2478	0.0106221
2490	0.0109392
2502	0.010305
2514	0.010305
2526	0.0104636
2538	0.012049
2550	0.0118904
2562	0.0112563
2574	0.0109392
2586	0.00951234
2598	0.0093538
2610	0.0093538
2622	0.00951234
2634	0.00967088
2646	0.00982942
2658	0.0104636
2670	0.0117319
2682	0.0131587
2694	0.0137929
2706	0.0150612
2718	0.0139514
2730	0.012366
2742	0.0115733
2754	0.00982942
2766	0.00903672
2778	0.00856111
2790	0.00856111
2802	0.00887818
2814	0.00871964
2826	0.00919526
2838	0.0112563
2850	0.0109392
2862	0.0133173
2874	0.0172808
2886	0.0190247
2898	0.0221955
2910	0.0242565
2922	0.0191832
2934	0.0166466
2946	0.0142685
2958	0.0117319
2970	0.0115733
2982	0.0109392
2994	0.0106221
3006	0.0109392
3018	0.0114148
3030	0.012366
3042	0.0133173
3054	0.0126831
3066	0.0131587
3078	0.0122075
3090	0.0149027
3102	0.0191832
3114	0.0215613
3126	0.0133173
3138	0.0118904
3150	0.0107807
3162	0.0110977
3174	0.0110977
3186	0.0114148
3198	0.00998796
3210	0.0104636
3222	0.00998796
3234	0.0106221
3246	0.0104636
3258	0.0106221
3270	0.00951234
3282	0.0112563
3294	0.0109392
3306	0.0109392
3318	0.0107807
3330	0.0104636
3342	0.00998796
3354	0.0114148
3366	0.0114148
3378	0.00998796
3390	0.0115733
3402	0.0109392
3414	0.0112563
3426	0.012049
3438	0.0110977
3450	0.0101465
3462	0.012049
3474	0.0106221
3486	0.012049
3498	0.0114148
3510	0.0109392
3522	0.0112563
3534	0.012049
3546	0.0110977
3558	0.0117319
3570	0.0114148
3582	0.0104636
3594	0.0109392
3606	0.0107807
3618	0.0109392
3630	0.00998796
3642	0.0107807
3654	0.0112563
3666	0.0125246
3678	0.00998796
3690	0.00951234
3702	0.012049
3714	0.0122075
3726	0.0128417
3738	0.0109392
3750	0.00840257
3762	0.0152197
3774	0.0115733
3786	0.012049
3798	0.0104636
3810	0.0152197
3822	0.00998796
3834	0.0126831
3846	0.0136344
3858	0.0118904
3870	0.00982942
3882	0.0122075
3894	0.00951234
3906	0.00982942
3918	0.00998796
3930	0.0191832
3942	0.010305
3954	0.010305
3966	0.0125246
