Infrared Spectrum: Acetamide, N-[2-(trifluoromethyl)phenyl]-
Formula: C 9 H 8 F 3 N O
CAS: 344-62-7
Origin: Sadtler Research Labs Under US-EPA Contract
1/CM	ABSORBANCE
450	0
462	0.00434356
474	0.0125256
486	0.0131317
498	0.0304049
510	0.0637392
522	0.0589916
534	0.0710121
546	0.062224
558	0.0166671
570	0.00858611
582	0.00919218
594	0.015354
606	0.0130307
618	0.0108084
630	0.00828307
642	0.0594967
654	0.0516176
666	0.0280816
678	0.0405062
690	0.015253
702	0.0145459
714	0.00919218
726	0.00727294
738	0.0272735
750	0.137378
762	0.304756
774	0.062123
786	0.0121216
798	0.00969725
810	0.0107074
822	0.00979826
834	0.0110104
846	0.00727294
858	0.00666686
870	0.00676787
882	0.00828307
894	0.00949522
906	0.00818205
918	0.00949522
930	0.015354
942	0.0289907
954	0.0359606
966	0.0246472
978	0.0420214
990	0.0674767
1002	0.0508095
1014	0.0431326
1026	0.132226
1038	0.306877
1050	0.157277
1062	0.236067
1074	0.146974
1086	0.093336
1098	0.14657
1110	0.355566
1122	0.878813
1134	0.608401
1146	0.366273
1158	0.267684
1170	0.461124
1182	0.468498
1194	0.163136
1206	0.178894
1218	0.305564
1230	0.320009
1242	0.291726
1254	0.295059
1266	0.328292
1278	0.790427
1290	0.771739
1302	0.409204
1314	0.839923
1326	0.833761
1338	0.14859
1350	0.085255
1362	0.136671
1374	0.188187
1386	0.0975786
1398	0.0614159
1410	0.0645473
1422	0.0820226
1434	0.157782
1446	0.430012
1458	0.484963
1470	0.175965
1482	0.153439
1494	0.183036
1506	0.283746
1518	0.487893
1530	0.490216
1542	0.206269
1554	0.0886894
1566	0.0721233
1578	0.13566
1590	0.357485
1602	0.311928
1614	0.192026
1626	0.0884874
1638	0.0392941
1650	0.023334
1662	0.0256573
1674	0.0265664
1686	0.0325262
1698	0.0584865
1710	0.118589
1722	0.210006
1734	0.624462
1746	0.362132
1758	0.157075
1770	0.0925279
1782	0.0406072
1794	0.0247482
1806	0.023233
1818	0.0279806
1830	0.0182834
1842	0.0134347
1854	0.0122226
1866	0.00868712
1878	0.0101013
1890	0.0126266
1902	0.0128287
1914	0.00868712
1926	0.0132327
1938	0.0116165
1950	0.00899016
1962	0.0112124
1974	0.00666686
1986	0.00535369
1998	0.00515166
2010	0.00515166
2022	0.00454559
2034	0.00505065
2046	0.00555572
2058	0.00565673
2070	0.00585875
2082	0.00676787
2094	0.0069699
2106	0.00656584
2118	0.00737395
2130	0.00717192
2142	0.00686888
2154	0.00737395
2166	0.00747496
2178	0.00666686
2190	0.00606078
2202	0.00626281
2214	0.00676787
2226	0.00737395
2238	0.00828307
2250	0.00707091
2262	0.00575774
2274	0.00646483
2286	0.00747496
2298	0.00808104
2310	0.00808104
2322	0.0069699
2334	0.00767699
2346	0.00909117
2358	0.00747496
2370	0.00636382
2382	0.00707091
2394	0.00565673
2406	0.0054547
2418	0.00606078
2430	0.00646483
2442	0.00727294
2454	0.00717192
2466	0.00757598
2478	0.0069699
2490	0.00565673
2502	0.00555572
2514	0.00595977
2526	0.00515166
2538	0.00515166
2550	0.00505065
2562	0.00515166
2574	0.00585875
2586	0.00636382
2598	0.00686888
2610	0.00616179
2622	0.00585875
2634	0.00595977
2646	0.00565673
2658	0.00555572
2670	0.00616179
2682	0.00616179
2694	0.00595977
2706	0.0054547
2718	0.00575774
2730	0.00626281
2742	0.00656584
2754	0.0069699
2766	0.00686888
2778	0.00626281
2790	0.00555572
2802	0.00606078
2814	0.00595977
2826	0.00616179
2838	0.00676787
2850	0.00798003
2862	0.00888914
2874	0.00828307
2886	0.00868712
2898	0.0102023
2910	0.0117175
2922	0.0148489
2934	0.0212127
2946	0.0227279
2958	0.0165661
2970	0.015253
2982	0.0148489
2994	0.0136368
3006	0.0137378
3018	0.0179803
3030	0.0228289
3042	0.0261624
3054	0.0319201
3066	0.0364657
3078	0.0445467
3090	0.0396981
3102	0.0329302
3114	0.0195965
3126	0.0128287
3138	0.0111114
3150	0.0100003
3162	0.007778
3174	0.00676787
3186	0.00666686
3198	0.00666686
3210	0.00626281
3222	0.00565673
3234	0.00525268
3246	0.00525268
3258	0.00525268
3270	0.00505065
3282	0.00505065
3294	0.00484862
3306	0.0046466
3318	0.00525268
3330	0.00585875
3342	0.00555572
3354	0.00585875
3366	0.00616179
3378	0.00595977
3390	0.00595977
3402	0.00676787
3414	0.0106064
3426	0.0173742
3438	0.0182834
3450	0.0265664
3462	0.0413143
3474	0.0628301
3486	0.117781
3498	0.110003
3510	0.046769
3522	0.0194955
3534	0.0129297
3546	0.0100003
3558	0.00727294
3570	0.0069699
3582	0.00585875
3594	0.00636382
3606	0.00616179
3618	0.00585875
3630	0.00656584
3642	0.00606078
3654	0.00606078
3666	0.0054547
3678	0.00555572
3690	0.00535369
3702	0.00646483
3714	0.00636382
3726	0.00595977
3738	0.00616179
3750	0.00505065
3762	0.00515166
3774	0.00636382
3786	0.00535369
3798	0.00575774
3810	0.00636382
3822	0.0054547
3834	0.00505065
3846	0.00535369
3858	0.0054547
3870	0.00515166
3882	0.00555572
3894	0.00575774
3906	0.0069699
3918	0.00666686
3930	0.00666686
3942	0.00606078
3954	0.00707091
3966	0.00626281
