Infrared Spectrum: p-Fluorobenzophenone
Formula: C 13 H 9 F O
CAS: 345-83-5
Origin: Sadtler Research Labs Under US-EPA Contract
1/CM	ABSORBANCE
450	0
462	0.0018536
474	0.0070025
486	0.00810094
498	0.0163392
510	0.00377586
522	0.0107784
534	0.0102291
546	0.0297263
558	0.0315799
570	0.00473699
582	0.0310307
594	0.200052
606	0.0914445
618	0.0216254
630	0.0219686
642	0.0179182
654	0.0215567
666	0.0343947
678	0.0618555
690	0.156801
702	0.17671
714	0.0579423
726	0.0727025
738	0.132567
750	0.0433194
762	0.0291084
774	0.0317172
786	0.0490175
798	0.0407106
810	0.0505279
822	0.0554022
834	0.0661805
846	0.146229
858	0.0810094
870	0.0249207
882	0.0240282
894	0.0278041
906	0.0440059
918	0.1579
930	0.191676
942	0.105518
954	0.035699
966	0.02801
978	0.014005
990	0.0133185
1002	0.0271862
1014	0.0360423
1026	0.0344633
1038	0.0219686
1050	0.0143483
1062	0.0182614
1074	0.023273
1086	0.0295204
1098	0.034326
1110	0.0243715
1122	0.029795
1134	0.0342573
1146	0.0869821
1158	0.302618
1170	0.0470266
1182	0.0778514
1194	0.0696131
1206	0.0707116
1218	0.0773022
1230	0.21138
1242	0.622056
1254	0.207054
1266	0.506377
1278	0.508368
1290	0.230327
1302	0.21749
1314	0.142659
1326	0.0654254
1338	0.0362483
1350	0.0300009
1362	0.0269802
1374	0.0213508
1386	0.0194285
1398	0.0278041
1410	0.0626793
1422	0.0285592
1434	0.0262937
1446	0.059384
1458	0.0286279
1470	0.0251953
1482	0.0290398
1494	0.0660432
1506	0.229023
1518	0.0678282
1530	0.0293144
1542	0.0165451
1554	0.0236163
1566	0.0319232
1578	0.0527247
1590	0.177054
1602	0.465667
1614	0.133185
1626	0.0481937
1638	0.0285592
1650	0.0308247
1662	0.0655627
1674	0.30049
1686	0.419601
1698	0.114649
1710	0.0449671
1722	0.0268429
1734	0.018742
1746	0.0256072
1758	0.0371407
1770	0.0212135
1782	0.0159959
1794	0.00967993
1806	0.0134558
1818	0.0133185
1830	0.00748307
1842	0.00892476
1854	0.00789498
1866	0.00830689
1878	0.00919937
1890	0.0118081
1902	0.0159959
1914	0.0170257
1926	0.0102978
1938	0.00810094
1950	0.0101605
1962	0.0128379
1974	0.0113276
1986	0.0067279
1998	0.00562946
2010	0.00432508
2022	0.0051489
2034	0.00624733
2046	0.00748307
2058	0.0084442
2070	0.00617868
2082	0.00569812
2094	0.00466834
2106	0.00411912
2118	0.0035699
2130	0.00308934
2142	0.00308934
2154	0.0035699
2166	0.00308934
2178	0.00363856
2190	0.00363856
2202	0.00391316
2214	0.00398182
2226	0.00411912
2238	0.00411912
2250	0.0050116
2262	0.00480564
2274	0.00487429
2286	0.00604138
2298	0.0087188
2310	0.0114649
2322	0.0141423
2334	0.0127006
2346	0.0139364
2358	0.0168884
2370	0.012632
2382	0.00865015
2394	0.00549216
2406	0.00713981
2418	0.00762037
2430	0.00466834
2442	0.00308934
2454	0.00453103
2466	0.00446238
2478	0.00453103
2490	0.00281473
2502	0.00240282
2514	0.00288338
2526	0.00212821
2538	0.00274608
2550	0.00302069
2562	0.00446238
2574	0.00494294
2586	0.00562946
2598	0.00350125
2610	0.00288338
2622	0.00240282
2634	0.00199091
2646	0.00192226
2658	0.0018536
2670	0.0018536
2682	0.00144169
2694	0.00151034
2706	0.001579
2718	0.00178495
2730	0.00178495
2742	0.00295204
2754	0.00308934
2766	0.00178495
2778	0.0018536
2790	0.00130439
2802	0.00130439
2814	0.00151034
2826	0.00116708
2838	0.00274608
2850	0.00274608
2862	0.00411912
2874	0.00370721
2886	0.00398182
2898	0.0035699
2910	0.00322664
2922	0.00363856
2934	0.0034326
2946	0.00508025
2958	0.0051489
2970	0.0051489
2982	0.00466834
2994	0.0050116
3006	0.00741442
3018	0.0120828
3030	0.0244401
3042	0.037484
3054	0.0350812
3066	0.0619928
3078	0.0865015
3090	0.0597959
3102	0.0305501
3114	0.0166824
3126	0.00720846
3138	0.00487429
3150	0.00459968
3162	0.00562946
3174	0.00370721
3186	0.00363856
3198	0.00281473
3210	0.00281473
3222	0.00226552
3234	0.00192226
3246	0.00274608
3258	0.0032953
3270	0.00233417
3282	0.00370721
3294	0.00391316
3306	0.00453103
3318	0.00274608
3330	0.00617868
3342	0.00892476
3354	0.00851285
3366	0.00494294
3378	0.00473699
3390	0.00535486
3402	0.00535486
3414	0.00384451
3426	0.00432508
3438	0.00480564
3450	0.00459968
3462	0.00487429
3474	0.00391316
3486	0.00604138
3498	0.00466834
3510	0.00487429
3522	0.00487429
3534	0.00597272
3546	0.0051489
3558	0.00480564
3570	0.00569812
3582	0.011053
3594	0.0105038
3606	0.00652194
3618	0.00617868
3630	0.00205956
3642	0.00693385
3654	0.00494294
3666	0.0070025
3678	0.00377586
3690	0.00473699
3702	0.00816959
3714	0.00631598
3726	0.00851285
3738	0.00425642
3750	0.00418777
3762	0.00830689
3774	0.00851285
3786	0.00762037
3798	0.0067279
3810	0.00713981
3822	0.00645329
3834	0.00631598
3846	0.00659059
3858	0.00597272
3870	0.00542351
3882	0.00713981
3894	0.00878746
3906	0.0106411
3918	0.0117395
3930	0.0107097
3942	0.0107784
3954	0.0032953
3966	0.00405047
