Infrared Spectrum: Benzene, 1-(chloromethyl)-2-fluoro-
Formula: C 7 H 6 Cl F
CAS: 345-35-7
Origin: Sadtler Research Labs Under US-EPA Contract
1/CM	ABSORBANCE
450	0.115347
462	0.0452727
474	0.0453712
486	0.0211601
498	0.0125976
510	0.0373008
522	0.0510795
534	0.0512763
546	0.0395644
558	0.0116134
570	0.0129913
582	0.0402534
594	0.0473395
606	0.00944822
618	0.00137787
630	0.0041336
642	0.00629882
654	0.0107277
666	0.0470443
678	0.208156
690	0.325668
702	0.158159
714	0.0790305
726	0.0681059
738	0.301851
750	0.875732
762	0.631948
774	0.248902
786	0.116725
798	0.0626929
810	0.0219474
822	0.0163376
834	0.0617087
846	0.189063
858	0.172922
870	0.0665312
882	0.0195854
894	0.0168296
906	0.0276557
918	0.0233253
930	0.0140739
942	0.0252937
954	0.0148613
966	0.00462569
978	0.00236206
990	0.000885771
1002	0.00186996
1014	0.00521621
1026	0.043698
1038	0.0525557
1050	0.00994032
1062	0.00679091
1074	0.0146644
1086	0.0792273
1098	0.149794
1110	0.0731253
1122	0.0188964
1134	0.0113182
1146	0.0252937
1158	0.0341514
1170	0.0414344
1182	0.0853293
1194	0.121351
1206	0.105407
1218	0.130897
1230	0.348108
1242	0.600454
1254	0.387869
1266	0.299784
1278	0.28571
1290	0.195165
1302	0.0830656
1314	0.0367103
1326	0.0180107
1338	0.0100387
1350	0.00994032
1362	0.00885771
1374	0.0106293
1386	0.012204
1398	0.0125976
1410	0.0114166
1422	0.0196838
1434	0.0485206
1446	0.134932
1458	0.282463
1470	0.250181
1482	0.294174
1494	0.586872
1506	0.406766
1518	0.114658
1530	0.0304115
1542	0.0156486
1554	0.017617
1566	0.0344466
1578	0.0994032
1590	0.213176
1602	0.191425
1614	0.136507
1626	0.0888724
1638	0.015747
1650	0.00708617
1662	0.00590514
1674	0.00767668
1686	0.0163376
1698	0.0205696
1710	0.0171249
1722	0.0143692
1734	0.010334
1746	0.010334
1758	0.020668
1770	0.0242111
1782	0.0195854
1794	0.0248016
1806	0.0152549
1818	0.0106293
1830	0.0109245
1842	0.00501937
1854	0.00314941
1866	0.00472411
1878	0.00669249
1890	0.00728301
1902	0.0165344
1914	0.0244079
1926	0.0136802
1938	0.0161407
1950	0.0170265
1962	0.00433044
1974	0.00226364
1986	0.00196838
1998	0.00433044
2010	0.00521621
2022	0.00314941
2034	0.00295257
2046	0.00393676
2058	0.00324783
2070	0.00669249
2082	0.00856245
2094	0.00541305
2106	0.0020668
2118	0.00127945
2130	0.00127945
2142	0.000885771
2154	0.000492095
2166	0.000885771
2178	0.000787352
2190	0.00226364
2202	0.00196838
2214	0.0020668
2226	0.0020668
2238	0.00226364
2250	0.0041336
2262	0.00442885
2274	0.00275573
2286	0.00423202
2298	0.0082672
2310	0.0129913
2322	0.0126961
2334	0.0093498
2346	0.00541305
2358	0.0111213
2370	0.000196838
2382	0.00167312
2394	0.00334625
2406	0.00354308
2418	0.00383834
2430	0.00521621
2442	0.00482253
2454	0.00403518
2466	0.00610198
2478	0.00679091
2490	0.00551146
2502	0.00324783
2514	0.00314941
2526	0.00265731
2538	0.00275573
2550	0.00295257
2562	0.00334625
2574	0.00236206
2586	0.00354308
2598	0.00344466
2610	0.00186996
2622	0.000688933
2634	0.000885771
2646	0.00265731
2658	0.000590514
2670	0.00285415
2682	0.00472411
2694	0.00462569
2706	0.00541305
2718	0.00639723
2730	0.00590514
2742	0.00393676
2754	0.00393676
2766	0.00423202
2778	0.0036415
2790	0.00295257
2802	0.00373992
2814	0.0041336
2826	0.00373992
2838	0.00452727
2850	0.00679091
2862	0.0093498
2874	0.0124008
2886	0.0152549
2898	0.0118103
2910	0.00875929
2922	0.00747984
2934	0.00885771
2946	0.0143692
2958	0.0251953
2970	0.0523589
2982	0.0801131
2994	0.0437965
3006	0.0200775
3018	0.0215538
3030	0.0327735
3042	0.0636771
3054	0.0952696
3066	0.0990095
3078	0.110525
3090	0.114264
3102	0.0683028
3114	0.0251953
3126	0.0128929
3138	0.00708617
3150	0.00610198
3162	0.0062004
3174	0.00659407
3186	0.00807036
3198	0.00560988
3210	0.0057083
3222	0.00629882
3234	0.00521621
3246	0.00610198
3258	0.00610198
3270	0.00551146
3282	0.0057083
3294	0.00669249
3306	0.00541305
3318	0.00590514
3330	0.0057083
3342	0.00580672
3354	0.00649565
3366	0.00531463
3378	0.00452727
3390	0.00590514
3402	0.0062004
3414	0.00659407
3426	0.00551146
3438	0.00669249
3450	0.00541305
3462	0.00511779
3474	0.00285415
3486	0.00354308
3498	0.00403518
3510	0.00324783
3522	0.00285415
3534	0.00442885
3546	0.00393676
3558	0.00295257
3570	0.00423202
3582	0.0077751
3594	0.00747984
3606	0.00442885
3618	0.00393676
3630	0.0036415
3642	0.00314941
3654	0.00344466
3666	0.00127945
3678	0.00196838
3690	0.00265731
3702	0.00108261
3714	0.00196838
3726	0.00255889
3738	0.00265731
3750	0.000787352
3762	0.000196838
3774	0.0015747
3786	0
3798	0.00147628
3810	0.00127945
3822	0.0020668
3834	0.00462569
3846	0.00108261
3858	0.00127945
3870	0.00462569
3882	0.00403518
3894	0.00610198
3906	0.00216522
3918	0.00147628
3930	0.00728301
3942	0.00442885
3954	0.00462569
3966	0.00442885
