Infrared Spectrum: Benzoic acid, 5-fluoro-2-hydroxy-
Formula: C 7 H 5 F O 3
CAS: 345-16-4
Origin: Sadtler Research Labs Under US-EPA Contract
1/CM	ABSORBANCE
450	0.0010582
462	0.0070295
474	0.00453516
486	0.0100529
498	0.0130764
510	0.0227514
522	0.0283448
534	0.0284203
546	0.0585792
558	0.0914591
570	0.140741
582	0.126607
594	0.0504914
606	0.022827
618	0.0192744
630	0.0189721
642	0.04127
654	0.121542
666	0.147393
678	0.0847319
690	0.0727893
702	0.0544975
714	0.0572186
726	0.0915346
738	0.0288739
750	0.0121693
762	0.0124717
774	0.0473924
786	0.144294
798	0.114135
810	0.0321996
822	0.0749057
834	0.124868
846	0.0389268
858	0.0119426
870	0.018443
882	0.0398338
894	0.0260016
906	0.00997735
918	0.0213153
930	0.0486018
942	0.037793
954	0.00907032
966	0.00839005
978	0.00536661
990	0.00529102
1002	0.00725626
1014	0.00922149
1026	0.0107332
1038	0.0216932
1050	0.0863948
1062	0.104309
1074	0.0410432
1086	0.0348451
1098	0.0424037
1110	0.05805
1122	0.0857901
1134	0.172638
1146	0.451022
1158	0.75586
1170	0.403554
1182	0.102268
1194	0.0999247
1206	0.0659866
1218	0.0760395
1230	0.182843
1242	0.268935
1254	0.180273
1266	0.149056
1278	0.117007
1290	0.0566895
1302	0.0275889
1314	0.0322752
1326	0.0416479
1338	0.059335
1350	0.0965989
1362	0.104762
1374	0.0841272
1386	0.0827667
1398	0.206954
1410	0.286017
1422	0.102268
1434	0.0357522
1446	0.0402118
1458	0.0541952
1470	0.110204
1482	0.302268
1494	0.455708
1506	0.208088
1518	0.0551778
1530	0.0244899
1542	0.010582
1554	0.00854122
1566	0.0124717
1578	0.029403
1590	0.0479215
1602	0.0464098
1614	0.0383977
1626	0.0617538
1638	0.0617538
1650	0.0311414
1662	0.0233561
1674	0.0229781
1686	0.0300832
1698	0.0810282
1710	0.408391
1722	0.678384
1734	0.178685
1746	0.0464854
1758	0.0499623
1770	0.0658354
1782	0.0360545
1794	0.0211641
1806	0.0121693
1818	0.00544219
1830	0.00453516
1842	0.00468633
1854	0.00347696
1866	0.00408164
1878	0.00619805
1890	0.00914591
1902	0.00627364
1914	0.00347696
1926	0.00355254
1938	0.00234317
1950	0.00128496
1962	0.00151172
1974	0.00249434
1986	0.00264551
1998	0.00196524
2010	0.000907032
2022	0.000907032
2034	0.00113379
2046	0.00219199
2058	0.00219199
2070	0.00294785
2082	0.00302344
2094	0.00340137
2106	0.00279668
2118	0.00136055
2130	0.000982618
2142	0.000907032
2154	0.000529102
2166	0.00037793
2178	0.000453516
2190	0.000907032
2202	0.00204082
2214	0.00196524
2226	0.000907032
2238	0.000982618
2250	0.000982618
2262	0.000907032
2274	0.00226758
2286	0.00340137
2298	0.00559336
2310	0.00710508
2322	0.00718067
2334	0.00619805
2346	0.00612247
2358	0.00959942
2370	0.00672715
2382	0.00566895
2394	0.00219199
2406	0.00317461
2418	0.00370371
2430	0.00340137
2442	0.00264551
2454	0.00219199
2466	0.00226758
2478	0.00173848
2490	0.00226758
2502	0.00279668
2514	0.00279668
2526	0.00287227
2538	0.00340137
2550	0.00340137
2562	0.00340137
2574	0.00294785
2586	0.00309903
2598	0.00287227
2610	0.00279668
2622	0.00294785
2634	0.00309903
2646	0.0037793
2658	0.00309903
2670	0.00204082
2682	0.00256992
2694	0.00256992
2706	0.00264551
2718	0.00302344
2730	0.00355254
2742	0.00415723
2754	0.00362813
2766	0.00423282
2778	0.00423282
2790	0.00423282
2802	0.0048375
2814	0.00506426
2826	0.00423282
2838	0.0043084
2850	0.0048375
2862	0.00642481
2874	0.00634922
2886	0.00589571
2898	0.00536661
2910	0.0065004
2922	0.00778536
2934	0.00990177
2946	0.00899473
2958	0.00748301
2970	0.00816329
2982	0.00695391
2994	0.0065004
3006	0.00748301
3018	0.00748301
3030	0.00816329
3042	0.00997735
3054	0.0130764
3066	0.0160242
3078	0.0147393
3090	0.0182918
3102	0.015344
3114	0.00914591
3126	0.00778536
3138	0.00770977
3150	0.00914591
3162	0.00982618
3174	0.00975059
3186	0.00899473
3198	0.0103553
3210	0.0123961
3222	0.0158731
3234	0.0222979
3246	0.0321241
3258	0.0467877
3270	0.0741499
3282	0.0941802
3294	0.0966745
3306	0.0877553
3318	0.0752081
3330	0.0627364
3342	0.0525323
3354	0.046183
3366	0.040892
3378	0.0364325
3390	0.0300832
3402	0.025926
3414	0.0239608
3426	0.0217688
3438	0.0186697
3450	0.0160242
3462	0.0148904
3474	0.0147393
3486	0.0152684
3498	0.0132276
3510	0.0132276
3522	0.0147393
3534	0.0229026
3546	0.0293274
3558	0.0244143
3570	0.0873018
3582	0.255707
3594	0.109902
3606	0.0125473
3618	0.00665157
3630	0.00574454
3642	0.00597129
3654	0.00498868
3666	0.00445957
3678	0.00188965
3690	0.00037793
3702	0.000982618
3714	7.5586e-05
3726	0.000453516
3738	0
3750	0
3762	0
3774	0
3786	0
3798	0
3810	0
3822	0
3834	0
3846	0
3858	0
3870	0
3882	0
3894	0
3906	0
3918	0
3930	0
3942	0
3954	0
3966	0
