Infrared Spectrum: 4,4'-Difluorobenzophenone
Formula: C 13 H 8 F 2 O
CAS: 345-92-6
Origin: Sadtler Research Labs Under US-EPA Contract
1/CM	ABSORBANCE
450	0.00554234
462	0.000564498
474	0.021143
486	0.0217588
498	0.0175508
510	0.00651739
522	0.0142151
534	0.0210404
546	0.0183718
558	0.0360766
570	0.140663
582	0.0864195
594	0.0131374
606	0.0192443
618	0.0159086
630	0.0195522
642	0.0164218
654	0.0148822
666	0.0238116
678	0.0305342
690	0.020168
702	0.00995569
714	0.0130348
726	0.0091346
738	0.0135993
750	0.0178587
762	0.0830838
774	0.0462888
786	0.020014
798	0.0215022
810	0.044698
822	0.0458783
834	0.0649686
846	0.106947
858	0.0996596
870	0.0295592
882	0.0159599
894	0.0180126
906	0.0147796
918	0.0651225
930	0.145589
942	0.0385911
954	0.0319198
966	0.0286354
978	0.0159086
990	0.0131374
1002	0.0202193
1014	0.0355121
1026	0.0207838
1038	0.00954515
1050	0.021143
1062	0.00857011
1074	0.0192443
1086	0.0198087
1098	0.0262235
1110	0.0152414
1122	0.0144204
1134	0.0164731
1146	0.0664568
1158	0.256179
1170	0.0200653
1182	0.0170376
1194	0.0126755
1206	0.0283789
1218	0.0581946
1230	0.165141
1242	0.51318
1254	0.208094
1266	0.288766
1278	0.247558
1290	0.150156
1302	0.11254
1314	0.0619408
1326	0.0267367
1338	0.0223233
1350	0.0177047
1362	0.0187824
1374	0.0137019
1386	0.0138045
1398	0.0242221
1410	0.0531654
1422	0.0150362
1434	0.0116492
1446	0.0123676
1458	0.00395149
1470	0.0135993
1482	0.0209377
1494	0.0664568
1506	0.173917
1518	0.0821088
1530	0.0193982
1542	0.00759506
1554	0.0168836
1566	0.0205785
1578	0.0382319
1590	0.128962
1602	0.399716
1614	0.151132
1626	0.0262235
1638	0.0151901
1650	0.0218102
1662	0.0376674
1674	0.162268
1686	0.200551
1698	0.0507535
1710	0.0202706
1722	0.0175508
1734	0.0111873
1746	0.00928856
1758	0.0139072
1770	0.0149849
1782	0.0128295
1794	0.00395149
1806	0.00718452
1818	0.0056963
1830	0.00466994
1842	0.00461862
1854	0.00559366
1866	0.00549103
1878	0.00615816
1890	0.00764638
1902	0.0103149
1914	0.0129321
1926	0.00677398
1938	0.00564498
1950	0.00461862
1962	0.00585025
1974	0.00528575
1986	0.00574762
1998	0.00461862
2010	0.00431071
2022	0.00518312
2034	0.00574762
2046	0.00774902
2058	0.00579893
2070	0.00651739
2082	0.00502916
2094	0.0051318
2106	0.00364358
2118	0.00333567
2130	0.00292513
2142	0.00348962
2154	0.00266854
2166	0.00302776
2178	0.00292513
2190	0.00225799
2202	0.00277117
2214	0.00215536
2226	0.00287381
2238	0.00215536
2250	0.00359226
2262	0.00338699
2274	0.00333567
2286	0.00215536
2298	0.00348962
2310	0.00466994
2322	0.00374621
2334	0.00533707
2346	0.00348962
2358	0.0076977
2370	0.00384885
2382	0.0045673
2394	0.00425939
2406	0.00574762
2418	0.0051318
2430	0.00384885
2442	0.00333567
2454	0.0031304
2466	0.00364358
2478	0.0040028
2490	0.00266854
2502	0.00148822
2514	0.00241195
2526	0.00138559
2538	0.00236063
2550	0.00159086
2562	0.00379753
2574	0.00379753
2586	0.00420808
2598	0.00261722
2610	0.00138559
2622	0.00169349
2634	0.00107768
2646	0.00164218
2658	0.00118031
2670	0.00205272
2682	0.00107768
2694	0.00159086
2706	0.001129
2718	0.00123163
2730	0.00189877
2742	0.00215536
2754	0.00225799
2766	0.0014369
2778	0.00164218
2790	0.00133427
2802	0.0020014
2814	0.00133427
2826	0.0020014
2838	0.00164218
2850	0.00189877
2862	0.0020014
2874	0.00205272
2886	0.00246326
2898	0.00164218
2910	0.00230931
2922	0.00128295
2934	0.00287381
2946	0.0020014
2958	0.0040028
2970	0.00189877
2982	0.00328435
2994	0.00292513
3006	0.00338699
3018	0.00364358
3030	0.00395149
3042	0.00697925
3054	0.0146769
3066	0.0127782
3078	0.0149849
3090	0.0144717
3102	0.00692793
3114	0.00831352
3126	0.00492653
3138	0.00451598
3150	0.00348962
3162	0.00354094
3174	0.00420808
3186	0.00410544
3198	0.00384885
3210	0.00236063
3222	0.00348962
3234	0.00210404
3246	0.00379753
3258	0.00246326
3270	0.00487521
3282	0.00379753
3294	0.00466994
3306	0.0045673
3318	0.00436203
3330	0.00574762
3342	0.00728716
3354	0.00728716
3366	0.00477257
3378	0.00615816
3390	0.00466994
3402	0.00620948
3414	0.00497785
3426	0.00641475
3438	0.0051318
3450	0.00554234
3462	0.00574762
3474	0.00523444
3486	0.00590157
3498	0.00410544
3510	0.00559366
3522	0.00390017
3534	0.00564498
3546	0.00292513
3558	0.00605552
3570	0.00261722
3582	0.00708188
3594	0.00590157
3606	0.00415676
3618	0.00390017
3630	0.000410544
3642	0.00636343
3654	0.00420808
3666	0.00744111
3678	0.00266854
3690	0.00554234
3702	0.00610684
3714	0.00620948
3726	0.00646607
3738	0.00436203
3750	0.00461862
3762	0.00600421
3774	0.00872406
3786	0.00759506
3798	0.00780034
3810	0.00620948
3822	0.00605552
3834	0.00497785
3846	0.00697925
3858	0.00564498
3870	0.00631211
3882	0.00682529
3894	0.00646607
3906	0.00846747
3918	0.00708188
3930	0.0091346
3942	0.00754375
3954	0.00169349
3966	0.0025659
