Infrared Spectrum: Benzeneacetonitrile, 5-fluoro-2-nitro-
Formula: C 8 H 5 F N 2 O 2
CAS: 3456-75-5
Origin: Sadtler Research Labs Under US-EPA Contract
1/CM	ABSORBANCE
450	0.0013088
462	0.00719839
474	0.0135242
486	0.0102523
498	0.00937972
510	0.0125063
522	0.00894345
534	0.0176688
546	0.0205045
558	0.022904
570	0.0336652
582	0.0603501
594	0.0865261
606	0.0834722
618	0.0610772
630	0.0634767
642	0.0754013
654	0.0334471
666	0.0237765
678	0.0331562
690	0.0506069
702	0.0389731
714	0.0420997
726	0.0323564
738	0.0499525
750	0.0852173
762	0.0583142
774	0.0354103
786	0.027412
798	0.0276302
810	0.0315566
822	0.0759103
834	0.18534
846	0.158801
858	0.0758376
870	0.190503
882	0.0985234
894	0.035483
906	0.0319928
918	0.0348286
930	0.0476984
942	0.0564237
954	0.0492981
966	0.0957604
978	0.110957
990	0.0309749
1002	0.0185413
1014	0.0183959
1026	0.0189049
1038	0.0189049
1050	0.0198501
1062	0.031702
1074	0.0550422
1086	0.0255216
1098	0.0160691
1110	0.0157783
1122	0.0170871
1134	0.0303205
1146	0.0389731
1158	0.0487891
1170	0.0298842
1182	0.0312657
1194	0.0341742
1206	0.0394094
1218	0.0902344
1230	0.175452
1242	0.13626
1254	0.167017
1266	0.196102
1278	0.340069
1290	0.143386
1302	0.0746015
1314	0.0748196
1326	0.101214
1338	0.237765
1350	0.686901
1362	0.33847
1374	0.0754013
1386	0.0460988
1398	0.0527155
1410	0.0862352
1422	0.158219
1434	0.167453
1446	0.0560602
1458	0.0459534
1470	0.0776553
1482	0.264523
1494	0.265831
1506	0.126808
1518	0.179378
1530	0.320656
1542	0.689664
1554	0.545332
1566	0.316947
1578	0.293025
1590	0.446809
1602	0.355775
1614	0.189049
1626	0.286845
1638	0.115901
1650	0.0321383
1662	0.0205772
1674	0.0154147
1686	0.0164327
1698	0.0181777
1710	0.0124336
1722	0.0143968
1734	0.0213043
1746	0.0147603
1758	0.0098887
1770	0.0123609
1782	0.012579
1794	0.0112702
1806	0.0101795
1818	0.00610772
1830	0.0053079
1842	0.00450808
1854	0.00370826
1866	0.00559875
1878	0.00647128
1890	0.00952514
1902	0.0124336
1914	0.00967056
1926	0.00588959
1938	0.00501706
1950	0.00508977
1962	0.00501706
1974	0.00567146
1986	0.00516248
1998	0.00516248
2010	0.00574417
2022	0.00625315
2034	0.00581688
2046	0.00603501
2058	0.00501706
2070	0.00501706
2082	0.00501706
2094	0.00501706
2106	0.00538061
2118	0.00538061
2130	0.0053079
2142	0.00567146
2154	0.00538061
2166	0.00588959
2178	0.0059623
2190	0.00632586
2202	0.00734381
2214	0.00807092
2226	0.0079255
2238	0.00763466
2250	0.00908887
2262	0.00981599
2274	0.00879803
2286	0.00676212
2298	0.00276302
2310	0.000145422
2322	0.00174506
2334	0.00508977
2346	0.00567146
2358	0.00559875
2370	0.00698026
2382	0.00741652
2394	0.00821634
2406	0.00807092
2418	0.00930701
2430	0.00967056
2442	0.00836177
2454	0.00734381
2466	0.00748923
2478	0.00814363
2490	0.00865261
2502	0.00872532
2514	0.0079255
2526	0.00741652
2538	0.00748923
2550	0.00814363
2562	0.00836177
2574	0.00814363
2586	0.0079255
2598	0.0085799
2610	0.00850719
2622	0.0079255
2634	0.00683483
2646	0.00610772
2658	0.00588959
2670	0.00618044
2682	0.00705297
2694	0.00843448
2706	0.00698026
2718	0.00552604
2730	0.0053079
2742	0.00487164
2754	0.00458079
2766	0.00443537
2778	0.00370826
2790	0.00370826
2802	0.00407182
2814	0.00443537
2826	0.0053079
2838	0.00625315
2850	0.00785279
2862	0.0110521
2874	0.0146876
2886	0.0175961
2898	0.0127244
2910	0.0107612
2922	0.00967056
2934	0.010325
2946	0.0121427
2958	0.0119973
2970	0.00821634
2982	0.00508977
2994	0.00428995
3006	0.00414453
3018	0.00399911
3030	0.00567146
3042	0.0066167
3054	0.00821634
3066	0.00850719
3078	0.0092343
3090	0.0117792
3102	0.00814363
3114	0.00508977
3126	0.00552604
3138	0.00319928
3150	0.00203591
3162	0.00239946
3174	0.00283573
3186	0.00290844
3198	0.00349013
3210	0.00407182
3222	0.00399911
3234	0.00319928
3246	0.00269031
3258	0.0026176
3270	0.003272
3282	0.00269031
3294	0.00276302
3306	0.00225404
3318	0.003272
3330	0.00356284
3342	0.00428995
3354	0.00407182
3366	0.00378097
3378	0.00363555
3390	0.00378097
3402	0.00319928
3414	0.0026176
3426	0.00239946
3438	0.00290844
3450	0.00218133
3462	0.00232675
3474	0.00152693
3486	0.00167235
3498	0.00174506
3510	0.00290844
3522	0.00225404
3534	0.0019632
3546	0.00167235
3558	0.000654399
3570	0.00210862
3582	0.00378097
3594	0.00254489
3606	0.00123609
3618	0.00181777
3630	0.00159964
3642	0.00145422
3654	0.00203591
3666	0.00116338
3678	0.00232675
3690	0.00305386
3702	0.00218133
3714	0.00189049
3726	0.00319928
3738	0.00312657
3750	0.000508977
3762	0.000654399
3774	0.0013088
3786	0.000363555
3798	0.00225404
3810	0.000436266
3822	0.00239946
3834	0.00210862
3846	0.000290844
3858	0.00109066
3870	0.00072711
3882	0.000872532
3894	0.0019632
3906	0.000872532
3918	0.003272
3930	0.00072711
3942	0.000145422
3954	0.00109066
3966	0.000436266
