Infrared Spectrum: Butyronitrile, 2,2-diethyl-,
Formula: C 8 H 15 N
CAS: 34579-77-6
Origin: Sadtler Research Labs Under US-EPA Contract
1/CM	ABSORBANCE
450	0.0348041
462	0.0156296
474	0.0133738
486	0.0178854
498	0.0215914
510	0.00950667
522	0.0185299
534	0.0162741
546	0.00982893
558	0.0261031
570	0.0204635
582	0.0133738
594	0.0241695
606	0.0149851
618	0.0167575
630	0.00870102
642	0.0151462
654	0.0146628
666	0.0106346
678	0.0133738
690	0.0151462
702	0.0120848
714	0.00982893
726	0.0133738
738	0.014824
750	0.0212692
762	0.0472111
774	0.0641297
786	0.049628
798	0.0333539
810	0.0204635
822	0.0151462
834	0.0146628
846	0.0157907
858	0.013696
870	0.0133738
882	0.0138572
894	0.0207858
906	0.0610683
918	0.159035
930	0.0978059
942	0.0368988
954	0.0209469
966	0.0167575
978	0.0162741
990	0.0153073
1002	0.0193356
1014	0.0307758
1026	0.04705
1038	0.0493058
1050	0.0402825
1062	0.0283589
1074	0.0325483
1086	0.0286811
1098	0.0203024
1110	0.0164353
1122	0.0153073
1134	0.0153073
1146	0.0196579
1158	0.0291645
1170	0.0323871
1182	0.0317426
1194	0.0236861
1206	0.0145017
1218	0.0109568
1230	0.00982893
1242	0.0096678
1254	0.0117625
1266	0.0223971
1278	0.035932
1290	0.0360931
1302	0.0404436
1314	0.040927
1326	0.0343207
1338	0.0497892
1350	0.0480167
1362	0.0356097
1374	0.0572011
1386	0.150012
1398	0.150173
1410	0.0444719
1422	0.0294868
1434	0.0420549
1446	0.121653
1458	0.295996
1470	0.324999
1482	0.166286
1494	0.0562344
1506	0.0298091
1518	0.0199801
1530	0.0162741
1542	0.0175632
1554	0.0196579
1566	0.0201412
1578	0.0167575
1590	0.0133738
1602	0.0120848
1614	0.0132127
1626	0.0120848
1638	0.0114402
1650	0.0107957
1662	0.011118
1674	0.0103123
1686	0.0106346
1698	0.0107957
1710	0.0175632
1722	0.0267476
1734	0.0177243
1746	0.00563955
1758	0.00563955
1770	0.00563955
1782	0.00563955
1794	0.0048339
1806	0.00435051
1818	0.00402825
1830	0.0032226
1842	0.00338373
1854	0.00273921
1866	0.00241695
1878	0.00225582
1890	0.00241695
1902	0.00145017
1914	0.00209469
1926	0.00209469
1938	0.00225582
1950	0.00241695
1962	0.00209469
1974	0.0016113
1986	0.0016113
1998	0.00128904
2010	0.00145017
2022	0.00112791
2034	0.00177243
2046	0.00209469
2058	0.00225582
2070	0.00225582
2082	0.00193356
2094	0.00241695
2106	0.00225582
2118	0.00128904
2130	0.00064452
2142	0.00016113
2154	0.00016113
2166	0.00048339
2178	0.00112791
2190	0.00080565
2202	0.00096678
2214	0.00386712
2226	0.0164353
2238	0.0267476
2250	0.0127293
2262	0.00418938
2274	0.00273921
2286	0.00241695
2298	0.0032226
2310	0.00370599
2322	0.00209469
2334	0.00096678
2346	0.00209469
2358	0.00386712
2370	0.00612294
2382	0.00628407
2394	0.00563955
2406	0.00547842
2418	0.00628407
2430	0.00515616
2442	0.00306147
2454	0.00306147
2466	0.00402825
2478	0.00418938
2490	0.00370599
2502	0.0032226
2514	0.00257808
2526	0.00193356
2538	0.00273921
2550	0.00290034
2562	0.00257808
2574	0.00225582
2586	0.00306147
2598	0.00451164
2610	0.0064452
2622	0.00741198
2634	0.00773424
2646	0.00870102
2658	0.00982893
2670	0.0106346
2682	0.00950667
2694	0.00789537
2706	0.00725085
2718	0.00773424
2730	0.00982893
2742	0.014824
2754	0.0238472
2766	0.0278755
2778	0.0249751
2790	0.0269087
2802	0.0294868
2814	0.030937
2826	0.0344818
2838	0.0454387
2850	0.0713806
2862	0.147756
2874	0.274727
2886	0.421194
2898	0.498697
2910	0.368021
2922	0.389451
2934	0.64162
2946	0.975159
2958	0.922469
2970	1.01431
2982	1.6113
2994	0.846577
3006	0.203668
3018	0.0908773
3030	0.0609071
3042	0.0493058
3054	0.0435051
3066	0.0435051
3078	0.0423772
3090	0.0377044
3102	0.0302924
3114	0.0240084
3126	0.023525
3138	0.0238472
3150	0.0219137
3162	0.0217525
3174	0.0209469
3186	0.0185299
3198	0.0154685
3210	0.0107957
3222	0.00870102
3234	0.00692859
3246	0.00676746
3258	0.0064452
3270	0.00596181
3282	0.00499503
3294	0.00499503
3306	0.00386712
3318	0.00306147
3330	0.00370599
3342	0.00386712
3354	0.00386712
3366	0.00306147
3378	0.00467277
3390	0.00386712
3402	0.00418938
3414	0.00451164
3426	0.00467277
3438	0.00354486
3450	0.00241695
3462	0.00193356
3474	0.00306147
3486	0.00128904
3498	0.00225582
3510	0.00273921
3522	0.00241695
3534	0.00290034
3546	0.00257808
3558	0.00145017
3570	0.00241695
3582	0.00273921
3594	0.00386712
3606	0.00193356
3618	0.00128904
3630	0.00338373
3642	0.00225582
3654	0.00435051
3666	0.00273921
3678	0.00241695
3690	0.00354486
3702	0.00402825
3714	0.00290034
3726	0.00225582
3738	0.00128904
3750	0.00338373
3762	0.0032226
3774	0.00177243
3786	0.00145017
3798	0.00177243
3810	0.00354486
3822	0.00225582
3834	0.00225582
3846	0.00354486
3858	0.00193356
3870	0.00225582
3882	0.00064452
3894	0.00386712
3906	0.00145017
3918	0.00386712
3930	0.00273921
3942	0.00354486
3954	0.00402825
3966	0.00435051
