Infrared Spectrum: Phenol, p-propyl-,
Formula: C 9 H 12 O
CAS: 34591-34-9
Origin: Sadtler Research Labs Under US-EPA Contract
1/CM	ABSORBANCE
450	0.0036257
462	0.0175242
474	0.0164164
486	0.0350485
498	0.0412927
510	0.0211499
522	0.0190349
534	0.0437099
546	0.062342
558	0.0328328
570	0.0146035
582	0.00835926
594	0.00533784
606	0.00392785
618	0.0123878
630	0.00745284
642	0.0184307
654	0.0396813
666	0.0337392
678	0.0177257
690	0.0123878
702	0.0328328
714	0.0569034
726	0.216132
738	0.850832
750	0.766635
762	0.123677
774	0.0437099
786	0.043307
798	0.0734205
810	0.0840962
822	0.107865
834	0.094369
846	0.0851033
858	0.037667
870	0.0265885
882	0.0456234
894	0.122267
906	0.412222
918	0.461069
930	0.0918512
942	0.0179271
954	0.0114814
966	0.01128
978	0.0108771
990	0.0120857
1002	0.0138985
1014	0.0205457
1026	0.014805
1038	0.0154092
1050	0.0187328
1062	0.0299121
1074	0.0247756
1086	0.033437
1098	0.0516663
1110	0.063047
1122	0.0495513
1134	0.0360556
1146	0.0473356
1158	0.11149
1170	0.553121
1182	0.405475
1194	0.137978
1206	0.0883262
1218	0.0691905
1230	0.0605291
1242	0.0951747
1254	0.324903
1266	0.230836
1278	0.0474363
1290	0.0303149
1302	0.0312213
1314	0.042602
1326	0.0780533
1338	0.0835926
1350	0.0521699
1362	0.0354513
1374	0.0286028
1386	0.0381706
1398	0.0310199
1410	0.0310199
1422	0.0442134
1434	0.0799669
1446	0.0664712
1458	0.0522706
1470	0.0578098
1482	0.0429042
1494	0.053882
1506	0.194781
1518	0.431962
1530	0.0884269
1542	0.0154092
1554	0.00997069
1566	0.0114814
1578	0.0216535
1590	0.0495513
1602	0.0833912
1614	0.101218
1626	0.0712048
1638	0.0237685
1650	0.00684855
1662	0.00946712
1674	0.00292071
1686	0.00231642
1698	0.00050357
1710	0.0057407
1722	0.00523713
1734	0.00181285
1746	0.00725141
1758	0.00684855
1770	0.00352499
1782	0.00342428
1794	0.00483427
1806	0.00614355
1818	0.00543856
1830	0.00352499
1842	0.00604284
1854	0.00896355
1866	0.00946712
1878	0.0128914
1890	0.00735212
1902	0.00634498
1914	0.00322285
1926	0.00352499
1938	0.00322285
1950	0.0036257
1962	0.00251785
1974	0.00332356
1986	0.00251785
1998	0.00342428
2010	0.00553927
2022	0.00372642
2034	0.00402856
2046	0.00553927
2058	0.00463284
2070	0.0043307
2082	0.00493499
2094	0.00473356
2106	0.00402856
2118	0.00443142
2130	0.0036257
2142	0.00292071
2154	0.00302142
2166	0.00241714
2178	0.00241714
2190	0.00191357
2202	0.00302142
2214	0.00221571
2226	0.00271928
2238	0.00281999
2250	0.00241714
2262	0.00382713
2274	0.00342428
2286	0.00302142
2298	0.00332356
2310	0.00412927
2322	0.00483427
2334	0.00694927
2346	0.00825855
2358	0.00594213
2370	0.000906426
2382	0.00372642
2394	0.00463284
2406	0.00332356
2418	0.0057407
2430	0.00825855
2442	0.00392785
2454	0.00422999
2466	0.00221571
2478	0.00322285
2490	0.00261856
2502	0.00322285
2514	0.00563998
2526	0.00120857
2538	0.00181285
2550	0.00251785
2562	0.00141
2574	0.00161142
2586	0.00211499
2598	0.00271928
2610	0.00392785
2622	0.00281999
2634	0.00251785
2646	0.00372642
2658	0.00463284
2670	0.00372642
2682	0.00674784
2694	0.00463284
2706	0.00463284
2718	0.00523713
2730	0.00674784
2742	0.0093664
2754	0.00725141
2766	0.0064457
2778	0.00856069
2790	0.00906426
2802	0.00976926
2814	0.010575
2826	0.0139992
2838	0.0219557
2850	0.0395806
2862	0.0778519
2874	0.112598
2886	0.131734
2898	0.0814776
2910	0.0909447
2922	0.157416
2934	0.244231
2946	0.231944
2958	0.178868
2970	0.252792
2982	0.171818
2994	0.0568027
3006	0.055997
3018	0.0930597
3030	0.0864126
3042	0.0828876
3054	0.0515656
3066	0.0380699
3078	0.0335378
3090	0.0205457
3102	0.0167185
3114	0.0149057
3126	0.0134957
3138	0.010575
3150	0.00805712
3162	0.00886283
3174	0.00896355
3186	0.00604284
3198	0.00584141
3210	0.00624427
3222	0.00372642
3234	0.00634498
3246	0.00392785
3258	0.00553927
3270	0.00674784
3282	0.00271928
3294	0.0036257
3306	0.00473356
3318	0.00483427
3330	0.00533784
3342	0.00604284
3354	0.00614355
3366	0.00594213
3378	0.0057407
3390	0.00594213
3402	0.0057407
3414	0.00704998
3426	0.00584141
3438	0.00443142
3450	0.00704998
3462	0.00453213
3474	0.00392785
3486	0.0036257
3498	0.00604284
3510	0.00312213
3522	0.00342428
3534	0.00523713
3546	0.00251785
3558	0.00493499
3570	0.00543856
3582	0.00594213
3594	0.00584141
3606	0.00604284
3618	0.00946712
3630	0.0164164
3642	0.0667734
3654	0.248361
3666	0.103433
3678	0.0177257
3690	0.00463284
3702	0.00876212
3714	0.00725141
3726	0.00533784
3738	0.00876212
3750	0.00523713
3762	0.00312213
3774	0.00735212
3786	0.00422999
3798	0.0064457
3810	0.00513641
3822	0.0113807
3834	0.00775498
3846	0.00674784
3858	0.0122871
3870	0.00956783
3882	0.00845998
3894	0.00533784
3906	0.0120857
3918	0.00966854
3930	0.00654641
3942	0
3954	0.00624427
3966	0.00292071
