Infrared Spectrum: 4-Chloro-7-(trifluoromethyl)quinoline
Formula: C 10 H 5 Cl F 3 N
CAS: 346-55-4
Origin: Sadtler Research Labs Under US-EPA Contract
1/CM	ABSORBANCE
450	0.0382008
462	0.0102335
474	0.0204034
486	0.00718251
498	0.00877156
510	0.0176702
522	0.0101699
534	0.0135387
546	0.0201492
558	0.012331
570	0.0177338
582	0.030764
594	0.0312725
606	0.0160812
618	0.0126488
630	0.00648332
642	0.00934361
654	0.013348
666	0.0141743
678	0.0652782
690	0.0312725
702	0.0123946
714	0.0125853
726	0.0104242
738	0.0557439
750	0.015382
762	0.00616551
774	0.00457646
786	0.0129666
798	0.00972499
810	0.0349591
822	0.109835
834	0.10564
846	0.051231
858	0.0146828
870	0.007691
882	0.0205941
894	0.0601297
906	0.0757023
918	0.0429679
930	0.0112505
942	0.0113776
954	0.0122039
966	0.0221196
978	0.0758295
990	0.0168439
1002	0.0103606
1014	0.0103606
1026	0.00896224
1038	0.012776
1050	0.0477351
1062	0.188525
1074	0.0858723
1086	0.026696
1098	0.017416
1110	0.0216746
1122	0.0427772
1134	0.111996
1146	0.406924
1158	0.545235
1170	0.263973
1182	0.15738
1194	0.263909
1206	0.185347
1218	0.0371838
1230	0.020022
1242	0.0315268
1254	0.0539641
1266	0.0631171
1278	0.181215
1290	0.285076
1302	0.037883
1314	0.0800881
1326	0.554833
1338	0.220942
1350	0.0683927
1362	0.0602568
1374	0.0768465
1386	0.0347684
1398	0.0177338
1410	0.0186872
1422	0.0224374
1434	0.0334972
1446	0.0530743
1458	0.0706809
1470	0.0269503
1482	0.0190686
1494	0.0617823
1506	0.0951523
1518	0.0300648
1530	0.0204034
1542	0.0199585
1554	0.0563159
1566	0.0704267
1578	0.0447476
1590	0.0680749
1602	0.020467
1614	0.00832662
1626	0.0116954
1638	0.00921649
1650	0.00775456
1662	0.0118861
1674	0.0160176
1686	0.00508496
1698	0.00362303
1710	0.00559346
1722	0.000762744
1734	0.010297
1746	0.0104877
1758	0.00673757
1770	0.00610195
1782	0.0103606
1794	0.0104877
1806	0.007691
1818	0.00788169
1830	0.00476715
1842	0.00533921
1854	0.00305098
1866	0.0031781
1878	0.00413153
1890	0.00476715
1902	0.00629264
1914	0.0106149
1926	0.00858087
1938	0.00400441
1950	0.00324166
1962	0.0018433
1974	0.00222467
1986	0.00158905
1998	0.00216111
2010	0.00247892
2022	0.00286029
2034	0.00286029
2046	0.00247892
2058	0.00298741
2070	0.00292385
2082	0.0026696
2094	0.00298741
2106	0.00228823
2118	0.00228823
2130	0.00177974
2142	0.0013348
2154	0.00177974
2166	0.00203398
2178	0.00222467
2190	0.00254248
2202	0.00203398
2214	0.00305098
2226	0.00349591
2238	0.00254248
2250	0.00235179
2262	0.00241536
2274	0.00292385
2286	0.00330522
2298	0.00375016
2310	0.00406797
2322	0.00400441
2334	0.00362303
2346	0.00387728
2358	0.00425865
2370	0.00336879
2382	0.00247892
2394	0.0018433
2406	0.00171617
2418	0.00139836
2430	0.00146193
2442	0.00152549
2454	0.00127124
2466	0.00127124
2478	0.00165261
2490	0.00209755
2502	0.00146193
2514	0.00165261
2526	0.00165261
2538	0.00152549
2550	0.00108055
2562	0.00095343
2574	0.00095343
2586	0.00101699
2598	0.000762744
2610	0.0013348
2622	0.000889868
2634	0.00063562
2646	0.00095343
2658	0.00108055
2670	0.00095343
2682	0.000381372
2694	0.00031781
2706	0.000508496
2718	0.00095343
2730	0.000508496
2742	0.00146193
2754	0.00063562
2766	0.000381372
2778	0.000889868
2790	0.00063562
2802	0.00114412
2814	0.00095343
2826	0.0013348
2838	0.000762744
2850	0.00108055
2862	0.00120768
2874	0.00158905
2886	0.00152549
2898	0.00216111
2910	0.00279673
2922	0.00177974
2934	0.00279673
2946	0.00235179
2958	0.00349591
2970	0.00279673
2982	0.0036866
2994	0.00629264
3006	0.0063562
3018	0.0063562
3030	0.00877156
3042	0.0131573
3054	0.0189415
3066	0.0122039
3078	0.0102335
3090	0.00781813
3102	0.00419509
3114	0.00222467
3126	0.00260604
3138	0.00241536
3150	0.00241536
3162	0.00247892
3174	0.00228823
3186	0.00228823
3198	0.00222467
3210	0.00165261
3222	0.00216111
3234	0.00216111
3246	0.00197042
3258	0.00260604
3270	0.00247892
3282	0.00305098
3294	0.00305098
3306	0.00336879
3318	0.00203398
3330	0.00120768
3342	0.00247892
3354	0.0031781
3366	0.00343235
3378	0.00305098
3390	0.00349591
3402	0.00292385
3414	0.00394084
3426	0.00292385
3438	0.00305098
3450	0.00286029
3462	0.0036866
3474	0.00457646
3486	0.00438578
3498	0.00400441
3510	0.00362303
3522	0.00394084
3534	0.00527565
3546	0.00406797
3558	0.00387728
3570	0.00483071
3582	0.00343235
3594	0.00375016
3606	0.00489427
3618	0.00394084
3630	0.00260604
3642	0.00572058
3654	0.00216111
3666	0.00654689
3678	0.000826306
3690	0.00177974
3702	0.00552989
3714	0.00375016
3726	0.00552989
3738	0.00406797
3750	0.00394084
3762	0.00521208
3774	0.00349591
3786	0.00533921
3798	0.00375016
3810	0.00432222
3822	0.000762744
3834	0.00146193
3846	0.00648332
3858	0.0018433
3870	0.00286029
3882	0.00762744
3894	0
3906	0.0031781
3918	0.00546633
3930	0.00622908
3942	0.00432222
3954	0.00394084
3966	0.00565702
