Infrared Spectrum: Hydantoin, 3-benzyl-5,5-dimethyl-
Formula: C 12 H 14 N 2 O 2
CAS: 34657-68-6
Origin: Sadtler Research Labs Under US-EPA Contract
1/CM	ABSORBANCE
450	0
462	0.00525108
474	0.0248114
486	0.0135215
498	0.0101083
510	0.0162783
522	0.0140466
534	0.0168035
546	0.0215294
558	0.0424025
570	0.043584
582	0.0252052
594	0.0328193
606	0.0589434
618	0.059731
630	0.0673451
642	0.0299312
654	0.0200854
666	0.0220545
678	0.0370201
690	0.0754843
702	0.132327
714	0.10279
726	0.0546112
738	0.0391205
750	0.0456844
762	0.0569742
774	0.0514606
786	0.0237611
798	0.0181162
810	0.0187726
822	0.0228422
834	0.0119462
846	0.010896
858	0.00984578
870	0.0102396
882	0.0144405
894	0.0228422
906	0.0409584
918	0.0340007
930	0.0181162
942	0.0129964
954	0.0139154
966	0.0216607
978	0.0238924
990	0.0127339
1002	0.0164096
1014	0.0236299
1026	0.0262554
1038	0.0165409
1050	0.0141779
1062	0.0301937
1074	0.0529046
1086	0.0278307
1098	0.0353135
1110	0.0485725
1122	0.0806041
1134	0.0500165
1146	0.0313752
1158	0.040302
1170	0.0420086
1182	0.0354448
1194	0.0308501
1206	0.034132
1218	0.0283558
1230	0.0261241
1242	0.0282246
1254	0.0410897
1266	0.0651134
1278	0.0657698
1290	0.0672138
1302	0.0723336
1314	0.0887433
1326	0.0959635
1338	0.159895
1350	0.267149
1362	0.196259
1374	0.136397
1386	0.132196
1398	0.127076
1410	0.377684
1422	0.276076
1434	0.216344
1446	0.246932
1458	0.0809979
1470	0.0848049
1482	0.038858
1494	0.0433214
1506	0.0336069
1518	0.017066
1530	0.00984578
1542	0.00538236
1554	0.00485725
1566	0.00774534
1578	0.0097145
1590	0.0110273
1602	0.0169347
1614	0.0135215
1626	0.00695768
1638	0.0114211
1650	0.00827045
1662	0.0152281
1674	0.0231048
1686	0.0324254
1698	0.0775847
1710	0.179718
1722	0.262423
1734	0.715853
1746	1.31277
1758	0.424812
1770	0.160946
1782	0.138891
1794	0.262685
1806	0.261898
1818	0.0653759
1830	0.0311126
1842	0.0181162
1854	0.0140466
1866	0.0103709
1878	0.00918939
1890	0.00945194
1902	0.00932067
1914	0.00722024
1926	0.00774534
1938	0.00735151
1950	0.00840173
1962	0.00879556
1974	0.00538236
1986	0.00485725
1998	0.0051198
2010	0.00446342
2022	0.00420086
2034	0.0045947
2046	0.00301937
2058	0.00315065
2070	0.00301937
2082	0.00183788
2094	0.00183788
2106	0.00236299
2118	0.00157532
2130	0.00236299
2142	0.00196916
2154	0.00105022
2166	0.0017066
2178	0.000918939
2190	0.000787662
2202	0.00118149
2214	0.00118149
2226	0.00118149
2238	0.00183788
2250	0.00157532
2262	0.00196916
2274	0.00236299
2286	0.00223171
2298	0.00328193
2310	0.00472597
2322	0.00420086
2334	0.00551363
2346	0.00577619
2358	0.00301937
2370	0.00564491
2382	0.00472597
2394	0.0017066
2406	0.00196916
2418	0.0017066
2430	0.00196916
2442	0.00223171
2454	0.0017066
2466	0.0017066
2478	0.00183788
2490	0.00131277
2502	0.00157532
2514	0.00262554
2526	0.00262554
2538	0.00288809
2550	0.00262554
2562	0.00183788
2574	0.00210043
2586	0.00183788
2598	0.00131277
2610	0.00196916
2622	0.00157532
2634	0.00183788
2646	0.00210043
2658	0.0017066
2670	0.00157532
2682	0.00183788
2694	0.00144405
2706	0.0017066
2718	0.00262554
2730	0.00236299
2742	0.00262554
2754	0.00315065
2766	0.00301937
2778	0.0034132
2790	0.00406959
2802	0.0034132
2814	0.00367576
2826	0.00367576
2838	0.00485725
2850	0.00617002
2862	0.00853301
2874	0.0179849
2886	0.0190352
2898	0.0149656
2910	0.0200854
2922	0.0278307
2934	0.045947
2946	0.0674764
2958	0.0391205
2970	0.0406959
2982	0.109879
2994	0.0610438
3006	0.0210043
3018	0.0152281
3030	0.0263867
3042	0.0442403
3054	0.0288809
3066	0.041221
3078	0.0517231
3090	0.025599
3102	0.0192977
3114	0.0140466
3126	0.00813917
3138	0.00551363
3150	0.00564491
3162	0.00643257
3174	0.00656385
3186	0.00643257
3198	0.0068264
3210	0.00617002
3222	0.00590747
3234	0.00603874
3246	0.00590747
3258	0.0068264
3270	0.00708896
3282	0.00761407
3294	0.00827045
3306	0.00905811
3318	0.00945194
3330	0.0097145
3342	0.00997705
3354	0.00984578
3366	0.00997705
3378	0.00866428
3390	0.00761407
3402	0.0068264
3414	0.00577619
3426	0.00538236
3438	0.0068264
3450	0.0110273
3462	0.0330818
3474	0.0634068
3486	0.0383329
3498	0.0102396
3510	0.00669513
3522	0.00879556
3534	0.00918939
3546	0.00433214
3558	0.00183788
3570	0.00196916
3582	0.00196916
3594	0.000656385
3606	0.00105022
3618	0.00105022
3630	0.00210043
3642	0.00223171
3654	0.0017066
3666	0.0017066
3678	0.00275682
3690	0.00131277
3702	0.00223171
3714	0.00183788
3726	0.00144405
3738	0.0017066
3750	0.00223171
3762	0.00144405
3774	0.00183788
3786	0.00105022
3798	0.000656385
3810	0.00196916
3822	0.00105022
3834	0.00131277
3846	0.00236299
3858	0.0017066
3870	0.0017066
3882	0.00236299
3894	0.00183788
3906	0.00262554
3918	0.0034132
3930	0.00157532
3942	0.00301937
3954	0.00288809
3966	0.00262554
