Infrared Spectrum: Benzonitrile, 5-chloro-2-nitro-
Formula: C 7 H 3 Cl N 2 O 2
CAS: 34662-31-2
Origin: Sadtler Research Labs Under US-EPA Contract
1/CM	ABSORBANCE
450	0.0262693
462	0.0434483
474	0.0711813
486	0.0194131
498	0.00870507
510	0.00261922
522	0.00400587
534	0.00223404
546	0.0194901
558	0.0524615
570	0.0124028
582	0.00747249
594	0.0189509
606	0.0209538
618	0.0130191
630	0.0103228
642	0.0102458
654	0.00508438
666	0.0152531
678	0.038441
690	0.0350514
702	0.0134043
714	0.00939839
726	0.0087821
738	0.015022
750	0.0563133
762	0.0550807
774	0.019336
786	0.0151761
798	0.0144828
810	0.0261152
822	0.130114
834	0.168093
846	0.133889
858	0.0510749
870	0.162931
882	0.613592
894	0.192282
906	0.0412143
918	0.0172561
930	0.0161005
942	0.0155613
954	0.0172561
966	0.0199523
978	0.0120947
990	0.0119406
1002	0.0125569
1014	0.0148679
1026	0.0164087
1038	0.0161005
1050	0.0199523
1062	0.0325862
1074	0.0872818
1086	0.0315848
1098	0.0660969
1110	0.187352
1122	0.0626303
1134	0.0394424
1146	0.0358988
1158	0.0455283
1170	0.0346662
1182	0.0694865
1194	0.147832
1206	0.161082
1218	0.062014
1230	0.0395195
1242	0.0323551
1254	0.0435253
1266	0.0481475
1278	0.0629384
1290	0.114167
1302	0.0929825
1314	0.081273
1326	0.22795
1338	0.684003
1350	0.627227
1362	0.245283
1374	0.164857
1386	0.132194
1398	0.0456053
1410	0.0432172
1422	0.0393654
1434	0.0381328
1446	0.0461446
1458	0.113243
1470	0.230261
1482	0.126339
1494	0.0887455
1506	0.104615
1518	0.217627
1530	0.339035
1542	0.510595
1554	0.756031
1566	0.655576
1578	0.61598
1590	0.370774
1602	0.340037
1614	0.233727
1626	0.0717976
1638	0.0426009
1650	0.0297359
1662	0.029967
1674	0.0291196
1686	0.0232649
1698	0.0174872
1710	0.0140976
1722	0.012942
1734	0.0120176
1746	0.0114013
1758	0.0133272
1770	0.0176412
1782	0.0203375
1794	0.0159465
1806	0.0120176
1818	0.00731842
1830	0.00608584
1842	0.0066251
1854	0.00785767
1866	0.00677917
1878	0.00639399
1890	0.00623992
1902	0.00801174
1914	0.0120176
1926	0.0141746
1938	0.00816582
1950	0.00446809
1962	0.00323551
1974	0.00169479
1986	0.00100147
1998	0.000308144
2010	0.000308144
2022	0.00038518
2034	0.000616288
2046	0.000616288
2058	0.000154072
2070	0.000231108
2082	0.00077036
2094	0.000616288
2106	0.000462216
2118	0.000462216
2130	0.000231108
2142	0.000231108
2154	7.7036e-05
2166	0
2178	0.000308144
2190	0.000231108
2202	0.000231108
2214	0.00100147
2226	0.00261922
2238	0.00331255
2250	0.00146368
2262	0.00146368
2274	0.00146368
2286	0.00077036
2298	0.00169479
2310	0.00138665
2322	0.000462216
2334	0.000462216
2346	0.00161776
2358	0.00146368
2370	0.00446809
2382	0.00485327
2394	0.00346662
2406	0.00354366
2418	0.00331255
2430	0.00261922
2442	0.0027733
2454	0.00308144
2466	0.00200294
2478	0.00161776
2490	0.00231108
2502	0.00285033
2514	0.00223404
2526	0.00231108
2538	0.00362069
2550	0.00362069
2562	0.00323551
2574	0.00446809
2586	0.00570066
2598	0.00454512
2610	0.00362069
2622	0.00392884
2634	0.00400587
2646	0.00446809
2658	0.00585474
2670	0.00839692
2682	0.00862803
2694	0.00747249
2706	0.00739546
2718	0.00724138
2730	0.00531548
2742	0.00362069
2754	0.00331255
2766	0.0030044
2778	0.00285033
2790	0.00285033
2802	0.00346662
2814	0.00408291
2826	0.00570066
2838	0.00747249
2850	0.0104769
2862	0.0134813
2874	0.0167168
2886	0.0201064
2898	0.0173331
2910	0.0137894
2922	0.0124028
2934	0.010785
2946	0.00955246
2958	0.0077036
2970	0.00724138
2982	0.00639399
2994	0.00462216
3006	0.0046992
3018	0.00562363
3030	0.0066251
3042	0.00623992
3054	0.00762656
3066	0.00893618
3078	0.00870507
3090	0.0116324
3102	0.0182575
3114	0.0186427
3126	0.00531548
3138	0.00215701
3150	0.00215701
3162	0.00200294
3174	0.00207997
3186	0.00223404
3198	0.00154072
3210	0.00077036
3222	0.00077036
3234	0.00077036
3246	0.000616288
3258	0.000154072
3270	0.00077036
3282	0.000231108
3294	0.0010785
3306	0.00115554
3318	0.000693324
3330	0.000539252
3342	0.00138665
3354	0.000924432
3366	0.00238812
3378	0.00254219
3390	0.0019259
3402	0.0019259
3414	0.00292737
3426	0.00362069
3438	0.00308144
3450	0.00369773
3462	0.0027733
3474	0.00285033
3486	0.00323551
3498	0.0027733
3510	0.00246515
3522	0.00254219
3534	0.00261922
3546	0.00246515
3558	0.00285033
3570	0.00269626
3582	0.00238812
3594	0.00231108
3606	0.00215701
3618	0.0019259
3630	0.00331255
3642	0.00261922
3654	0.00285033
3666	0.00238812
3678	0.00285033
3690	0.00269626
3702	0.00246515
3714	0.00392884
3726	0.00231108
3738	0.00354366
3750	0.00246515
3762	0.00377476
3774	0.00392884
3786	0.00377476
3798	0.00415994
3810	0.00308144
3822	0.00223404
3834	0.00323551
3846	0.00323551
3858	0.00261922
3870	0.00161776
3882	0.00231108
3894	0.00400587
3906	0.00369773
3918	0.00285033
3930	0.00362069
3942	0.00315848
3954	0.00408291
3966	0.00523845
