Infrared Spectrum: Naphthalene, 2,7-dimethoxy-
Formula: C 12 H 12 O 2
CAS: 3469-26-9
Origin: Sadtler Research Labs Under US-EPA Contract
1/CM	ABSORBANCE
450	0.232567
462	0.0977846
474	0.0775504
486	0.0213348
498	0.012022
510	0.00711161
522	0.0282771
534	0.018287
546	0.0409764
558	0.0101594
570	0.018287
582	0.00465641
594	0.0130379
606	0.0280231
618	0.0329335
630	0.0682376
642	0.0231127
654	0.0203189
666	0.00524904
678	0.0281078
690	0.0160011
702	0.0187103
714	0.0131226
726	0.0119373
738	0.0173557
750	0.0258219
762	0.0727247
774	0.117088
786	0.113024
798	0.0253139
810	0.0435163
822	0.137237
834	0.21411
846	0.0943981
858	0.101594
870	0.114209
882	0.0641738
894	0.0266685
906	0.01253
918	0.0179483
930	0.018795
942	0.0336955
954	0.0687455
966	0.0316636
978	0.0224354
990	0.0286158
1002	0.0361507
1014	0.0583321
1026	0.15908
1038	0.319091
1050	0.235445
1062	0.0646818
1074	0.0335262
1086	0.0252293
1098	0.0279385
1110	0.0379286
1122	0.0648511
1134	0.154423
1146	0.245012
1158	0.524481
1170	0.239763
1182	0.169324
1194	0.161535
1206	0.548694
1218	0.559362
1230	0.445068
1242	0.388683
1254	0.587639
1266	0.571976
1278	0.190913
1290	0.0665443
1302	0.0411457
1314	0.0375899
1326	0.043093
1338	0.0529137
1350	0.0745872
1362	0.136221
1374	0.194977
1386	0.300719
1398	0.191082
1410	0.10515
1422	0.14892
1434	0.163736
1446	0.119119
1458	0.195654
1470	0.393255
1482	0.186426
1494	0.0976999
1506	0.330351
1518	0.465556
1530	0.0784817
1542	0.043093
1554	0.0515592
1566	0.0473261
1578	0.0689995
1590	0.0889798
1602	0.15781
1614	0.254833
1626	0.460985
1638	0.755778
1650	0.162551
1662	0.054607
1674	0.0335262
1686	0.018795
1698	0.0143925
1710	0.0176944
1722	0.0132073
1734	0.0140539
1746	0.0128686
1758	0.0104981
1770	0.0115987
1782	0.00651897
1794	0.00948214
1806	0.0049104
1818	0.0066883
1830	0.00922816
1842	0.0084662
1854	0.00575702
1866	0.0105828
1878	0.0118527
1890	0.0179483
1902	0.018287
1914	0.0104134
1926	0.00897417
1938	0.00702695
1950	0.00584168
1962	0.00558769
1974	0.00948214
1986	0.0115987
1998	0.0151545
2010	0.0126146
2022	0.00804289
2034	0.00838154
2046	0.0091435
2058	0.0142232
2070	0.0153238
2082	0.0130379
2094	0.00431776
2106	0.00448709
2118	0.00118527
2130	0.00220121
2142	0.00406378
2154	0.00482573
2166	0.00550303
2178	0.00448709
2190	0.00431776
2202	0.00364047
2214	0.00651897
2226	0.00389445
2238	0.00618033
2250	0.0042331
2262	0.00465641
2274	0.00651897
2286	0.0138846
2298	0.0253986
2310	0.0397065
2322	0.0380132
2334	0.0211655
2346	0.0324255
2358	0.0348807
2370	0.0231974
2382	0.0210808
2394	0.0110061
2406	0.00431776
2418	0.006011
2430	0.00685762
2442	0.00499506
2454	0.00507972
2466	0.00389445
2478	0.00465641
2490	0.00270918
2502	0.00253986
2514	0
2526	0.00262452
2538	0.00126993
2550	0.00237054
2562	0.00389445
2574	0.00313249
2586	0.00516438
2598	0.00592634
2610	0.00719627
2622	0.00558769
2634	0.0084662
2646	0.00448709
2658	0.00448709
2670	0.00296317
2682	0.0042331
2694	0.00474107
2706	0.00575702
2718	0.0049104
2730	0.00389445
2742	0.00626499
2754	0.00321716
2766	0.00702695
2778	0.00795823
2790	0.0132073
2802	0.0176097
2814	0.0273458
2826	0.0448709
2838	0.0994778
2850	0.116749
2862	0.0667983
2874	0.059602
2886	0.0578241
2898	0.0682376
2910	0.0926202
2922	0.1115
2934	0.118103
2946	0.214195
2958	0.199125
2970	0.108621
2982	0.0733173
2994	0.0947368
3006	0.226556
3018	0.128856
3030	0.078143
3042	0.0634965
3054	0.0722167
3066	0.0921969
3078	0.0918583
3090	0.053591
3102	0.0270072
3114	0.0182023
3126	0.0132073
3138	0.0108367
3150	0.00702695
3162	0.00999012
3174	0.00618033
3186	0.00973613
3198	0.00821221
3210	0.00618033
3222	0.0066883
3234	0.00541837
3246	0.00347114
3258	0.00448709
3270	0.00812755
3282	0.00304783
3294	0.00821221
3306	0.00270918
3318	0.00389445
3330	0.00279385
3342	0.00567235
3354	0.00558769
3366	0.00575702
3378	0.00499506
3390	0.00110061
3402	0.00609566
3414	0.0024552
3426	0.00634965
3438	0.00575702
3450	0.00711161
3462	0.0017779
3474	0.00719627
3486	0.00203189
3498	0.00524904
3510	0.0066883
3522	0.00634965
3534	0.00745026
3546	0.00677296
3558	0.0035558
3570	0.00321716
3582	0.012276
3594	0.00304783
3606	0.0121913
3618	0.0116834
3630	0.00795823
3642	0.00855086
3654	0.0035558
3666	0.0159165
3678	0.00143925
3690	0.0109214
3702	0.00855086
3714	0.0105828
3726	0.00643431
3738	0.00736559
3750	0.0126993
3762	0.0168477
3774	0.006011
3786	0.00965147
3798	0.0137152
3810	0.0128686
3822	0.00812755
3834	0.0149005
3846	0.0197262
3858	0.00338648
3870	0.0193029
3882	0.00812755
3894	0.0139692
3906	0.00457175
3918	0.0123607
3930	0.0184563
3942	0.0161704
3954	0.0137152
3966	0.0066883
