Infrared Spectrum: 2-Pyrrolidinone, 1-butyl-
Formula: C 8 H 15 N O
CAS: 3470-98-2
Origin: Sadtler Research Labs Under US-EPA Contract
1/CM	ABSORBANCE
450	0.00946793
462	0.0158652
474	0.00498985
486	0.00281479
498	0.00997971
510	0.0142019
522	0.00447807
534	0.00268684
546	0.00447807
558	0.00959588
570	0.0107474
582	0.0051178
594	0.0025589
606	0.00665314
618	0.00742081
630	0.0111312
642	0.0127945
654	0.013946
666	0.0110033
678	0.0037104
690	0.000895615
702	0.00025589
714	0.00153534
726	0.00806053
738	0.00985177
750	0.0110033
762	0.00806053
774	0.00562958
786	0.00409424
798	0.00486191
810	0.00473396
822	0.00460602
834	0.0113871
846	0.0189359
858	0.0134342
870	0.00793259
882	0.00742081
894	0.00818848
906	0.00870026
918	0.0120268
930	0.0165049
942	0.0143298
954	0.00870026
966	0.00473396
978	0.00383835
990	0.00639725
1002	0.0120268
1014	0.01868
1026	0.0150975
1038	0.0171446
1050	0.0175285
1062	0.0175285
1074	0.0125386
1086	0.0107474
1098	0.016249
1110	0.0284038
1122	0.0394071
1134	0.0397909
1146	0.0339054
1158	0.0369761
1170	0.0409424
1182	0.0422218
1194	0.0607739
1206	0.072161
1218	0.0795818
1230	0.0858511
1242	0.111824
1254	0.182961
1266	0.251412
1278	0.299263
1290	0.248213
1302	0.100565
1314	0.0781744
1326	0.101204
1338	0.0887938
1350	0.0570635
1362	0.0662755
1374	0.0739522
1386	0.0684506
1398	0.0811171
1410	0.20356
1422	0.325364
1434	0.200234
1446	0.109649
1458	0.119629
1470	0.120524
1482	0.0507942
1494	0.0587268
1506	0.0432454
1518	0.0118989
1530	0.00793259
1542	0.00524574
1554	0.00447807
1566	0.00319863
1578	0.00486191
1590	0.00396629
1602	0.00345452
1614	0.00460602
1626	0.00678109
1638	0.00895615
1650	0.0165049
1662	0.0249493
1674	0.0474676
1686	0.07907
1698	0.12449
1710	0.386266
1722	1.13909
1734	1.14025
1746	0.299263
1758	0.0928881
1770	0.0591106
1782	0.0292994
1794	0.0236698
1806	0.0298112
1818	0.0312186
1830	0.0249493
1842	0.00985177
1854	0.00396629
1866	0.00268684
1878	0.00243095
1890	0.00140739
1902	0.00127945
1914	0.000383835
1926	0.00025589
1938	0.000639725
1950	0.000383835
1962	0.000383835
1974	0.000639725
1986	0.00076767
1998	0.00102356
2010	0.0011515
2022	0.00140739
2034	0.00179123
2046	0.00166329
2058	0.00127945
2070	0.0011515
2082	0.000639725
2094	0.00051178
2106	0.00051178
2118	0.00076767
2130	0.00102356
2142	0.00127945
2154	0.0011515
2166	0.000895615
2178	0.00102356
2190	0.00051178
2202	0.000895615
2214	0.000639725
2226	0.000895615
2238	0.00102356
2250	0.000639725
2262	0.0011515
2274	0.00153534
2286	0.00179123
2298	0.00281479
2310	0.00294273
2322	0.00268684
2334	0.0025589
2346	0.00268684
2358	0.0025589
2370	0.0025589
2382	0.00230301
2394	0.000639725
2406	0.000639725
2418	0.00025589
2430	0.00025589
2442	0.0011515
2454	0.00153534
2466	0.00140739
2478	0.00140739
2490	0.00076767
2502	0.00102356
2514	0.000895615
2526	0.0011515
2538	0.00127945
2550	0.0011515
2562	0.00140739
2574	0.00191917
2586	0.00191917
2598	0.00191917
2610	0.00230301
2622	0.0025589
2634	0.00307068
2646	0.00396629
2658	0.00409424
2670	0.00473396
2682	0.00537369
2694	0.0065252
2706	0.0076767
2718	0.00857232
2730	0.00972382
2742	0.0112592
2754	0.0117709
2766	0.0120268
2778	0.013946
2790	0.0176564
2802	0.0244375
2814	0.0350569
2826	0.0520736
2838	0.0759993
2850	0.124746
2862	0.211109
2874	0.262031
2886	0.251796
2898	0.213156
2910	0.237594
2922	0.303486
2934	0.356199
2946	0.340718
2958	0.328179
2970	0.419532
2982	0.322933
2994	0.165689
3006	0.0759993
3018	0.0386394
3030	0.0254611
3042	0.0197035
3054	0.0153534
3066	0.0124107
3078	0.011515
3090	0.0101077
3102	0.00831643
3114	0.00678109
3126	0.00614136
3138	0.00601341
3150	0.00550163
3162	0.00486191
3174	0.00422218
3186	0.00460602
3198	0.00332657
3210	0.00345452
3222	0.00307068
3234	0.00268684
3246	0.0025589
3258	0.00281479
3270	0.00217506
3282	0.00268684
3294	0.00268684
3306	0.00281479
3318	0.00281479
3330	0.0025589
3342	0.00230301
3354	0.00230301
3366	0.00268684
3378	0.00281479
3390	0.00307068
3402	0.00345452
3414	0.00498985
3426	0.00831643
3438	0.0113871
3450	0.00678109
3462	0.00396629
3474	0.0025589
3486	0.00294273
3498	0.00230301
3510	0.0011515
3522	0.00166329
3534	0.00230301
3546	0.00294273
3558	0.00204712
3570	0.0025589
3582	0.000895615
3594	0.00217506
3606	0.00153534
3618	0.00102356
3630	0.00358246
3642	0.00204712
3654	0.00230301
3666	0.00127945
3678	0.00358246
3690	0.0025589
3702	0.00166329
3714	0.00140739
3726	0.00179123
3738	0.00307068
3750	0.00076767
3762	0.000639725
3774	0.00268684
3786	0.00140739
3798	0.00281479
3810	0.0011515
3822	0.00153534
3834	0.0025589
3846	0.00204712
3858	0.00294273
3870	0.00268684
3882	0.000383835
3894	0.00281479
3906	0.00319863
3918	0.0037104
3930	0.00127945
3942	0.00191917
3954	0.00204712
3966	0.00332657
