Infrared Spectrum: 2,3,4-Trichloro benzene sulfonyl chloride
Formula: C 6 H 2 Cl 4 O 2 S
CAS: 34732-09-7
Origin: Sadtler Research Labs Under US-EPA Contract
1/CM	ABSORBANCE
450	0.0178195
462	0.0247848
474	0.0789398
486	0.162233
498	0.0550257
510	0.0813196
522	0.0450421
534	0.11098
546	0.132514
558	0.140234
570	0.0401084
582	0.0403986
594	0.222425
606	0.199033
618	0.223876
630	0.343795
642	0.0307053
654	0.00771985
666	0.00499178
678	0.00249589
690	0.000348264
702	0.000464352
714	0.0103318
726	0.0136984
738	0.0019735
750	0.00423721
762	0.014511
774	0.0254813
786	0.00928704
798	0.0100997
810	0.0441715
822	0.106743
834	0.155558
846	0.190558
858	0.0351166
870	0.0123053
882	0.00551418
894	0.00354068
906	0.0023798
918	0.0014511
930	0.00104479
942	0.000986748
954	0.00226372
966	0.0019735
978	0.00278611
990	0.00359873
1002	0.00563027
1014	0.0131179
1026	0.0215343
1038	0.0154397
1050	0.00801007
1062	0.00980944
1074	0.0211861
1086	0.0188063
1098	0.0143949
1110	0.0234498
1122	0.0449261
1134	0.0773146
1146	0.0259457
1158	0.0571153
1170	0.362137
1182	0.234091
1194	0.270311
1206	0.17419
1218	0.0232756
1230	0.019793
1242	0.0526459
1254	0.0719746
1266	0.0174712
1278	0.00986748
1290	0.00539809
1302	0.00661702
1314	0.0107962
1326	0.0128858
1338	0.0318662
1350	0.0788818
1362	0.127116
1374	0.0409791
1386	0.0599014
1398	0.222425
1410	0.546368
1422	0.148302
1434	0.0586244
1446	0.0178776
1458	0.0124795
1470	0.00545614
1482	0.00371482
1494	0.00539809
1506	0.00888073
1518	0.0110284
1530	0.0138145
1542	0.0392958
1554	0.143078
1566	0.0370901
1578	0.0110864
1590	0.00441134
1602	0.00330851
1614	0.00284416
1626	0.0063268
1638	0.009229
1650	0.00667506
1662	0.00267002
1674	0.00597853
1686	0.00690724
1698	0.00626875
1710	0.00243785
1722	0.0023798
1734	0.00563027
1746	0.00400504
1758	0.00423721
1770	0.00766181
1782	0.00261198
1794	0.00330851
1806	0.00127697
1818	0.000464352
1830	0.00267002
1842	0.00185741
1854	0.000174132
1866	0.00156719
1878	0.000406308
1890	0.00226372
1902	0.00510787
1914	0.00626875
1926	0.00116088
1938	0.000638484
1950	0.00058044
1962	0.00127697
1974	0.00110284
1986	5.8044e-05
1998	0.000522396
2010	0.000232176
2022	0.000754572
2034	0.000232176
2046	0.00029022
2058	0.000348264
2070	0.000232176
2082	0
2094	0.000174132
2106	0.000348264
2118	0.000522396
2130	0.000232176
2142	0.000232176
2154	0.00029022
2166	0.000348264
2178	0.00058044
2190	0.00087066
2202	0.00121892
2214	0.000696528
2226	0.000174132
2238	0.000232176
2250	0.000348264
2262	0.00058044
2274	0.000812616
2286	0.00110284
2298	0.0014511
2310	0.00203154
2322	0.00220567
2334	0.00162523
2346	0.00139306
2358	0.00220567
2370	0.00162523
2382	0.00191545
2394	0.00150914
2406	0.00139306
2418	0.000986748
2430	0.000812616
2442	0.00058044
2454	0.000812616
2466	0.00121892
2478	0.00168328
2490	0.00359873
2502	0.00504983
2514	0.00226372
2526	0.00174132
2538	0.00139306
2550	0.00150914
2562	0.00150914
2574	0.00249589
2586	0.00267002
2598	0.00354068
2610	0.0023798
2622	0.00185741
2634	0.00214763
2646	0.000928704
2658	0.00087066
2670	0.00133501
2682	0.00110284
2694	0.000696528
2706	0.00162523
2718	0.00087066
2730	0.00203154
2742	0.000928704
2754	0.0023798
2766	0.00104479
2778	0.00255394
2790	0.00104479
2802	0.00261198
2814	0.000812616
2826	0.00150914
2838	0.00121892
2850	0.000696528
2862	0.00162523
2874	0.0014511
2886	0.00127697
2898	0.00162523
2910	0.00214763
2922	0.00185741
2934	0.00174132
2946	0.00325046
2958	0.00278611
2970	0.00423721
2982	0.00406308
2994	0.00150914
3006	0.00110284
3018	0.00272807
3030	0.00179936
3042	0.00174132
3054	0.00139306
3066	0.00417917
3078	0.00957726
3090	0.00655897
3102	0.00475961
3114	0.00650093
3126	0.00406308
3138	0.00139306
3150	0.00110284
3162	0.00121892
3174	0.000522396
3186	0.000696528
3198	0.000754572
3210	0.000928704
3222	0.000464352
3234	0.00087066
3246	0.000696528
3258	0.00087066
3270	0.00029022
3282	0.000928704
3294	0.000986748
3306	0.000232176
3318	0.000696528
3330	0.000464352
3342	0.000696528
3354	0.00087066
3366	0.000696528
3378	0.000522396
3390	0.000928704
3402	0.00058044
3414	0.00058044
3426	0.00058044
3438	0.000754572
3450	0.00029022
3462	0.00087066
3474	0.000464352
3486	0.00058044
3498	0.000406308
3510	0.000174132
3522	5.8044e-05
3534	0.00133501
3546	0.000116088
3558	0.000812616
3570	0.00116088
3582	0.00162523
3594	0.000638484
3606	0.00104479
3618	0.00191545
3630	0.000986748
3642	0.00191545
3654	0.00243785
3666	0.00162523
3678	0.0014511
3690	0.00156719
3702	0.00191545
3714	0.00162523
3726	0.00203154
3738	0.00174132
3750	0.00087066
3762	0.00133501
3774	0.00150914
3786	0.00272807
3798	0.000696528
3810	0.00232176
3822	0.00127697
3834	0.00179936
3846	0.00174132
3858	0.00121892
3870	0.00232176
3882	0.00203154
3894	0.000638484
3906	0.00121892
3918	0.00104479
3930	0.00261198
3942	0.000812616
3954	0.00127697
3966	0.00185741
