Infrared Spectrum: Ammonium thiocyanate, tetrapentyl
Formula: C 21 H 44 N 2 S
CAS: 3475-60-3
Origin: Sadtler Research Labs Under US-EPA Contract
1/CM	ABSORBANCE
450	0
462	0.00372472
474	0.00986546
486	0.00956346
498	0.0130868
510	0.0134895
522	0.0132882
534	0.0169122
546	0.0178182
558	0.0163082
570	0.0133888
582	0.0102681
594	0.00765077
606	0.00523474
618	0.00312071
630	0.00352338
642	0.00271804
654	0.00332204
666	0.00453006
678	0.0047314
690	0.00744943
702	0.0141942
714	0.0232543
726	0.0259723
738	0.0258717
750	0.0192276
762	0.0162075
774	0.0163082
786	0.0115768
798	0.00966413
810	0.00946279
822	0.0111741
834	0.0108721
846	0.0124828
858	0.0126842
870	0.0103688
882	0.0108721
894	0.0121808
906	0.0120802
918	0.0124828
930	0.0140935
942	0.0145969
954	0.0134895
966	0.0171136
978	0.022449
990	0.0285897
1002	0.0274824
1014	0.0235563
1026	0.0213416
1038	0.0209389
1050	0.0340258
1062	0.0541594
1074	0.0744943
1086	0.12352
1098	0.0909032
1110	0.050938
1122	0.0359385
1134	0.027583
1146	0.0267777
1158	0.0465086
1170	0.0561727
1182	0.0347305
1194	0.0226503
1206	0.0246637
1218	0.0336231
1230	0.0382538
1242	0.0387572
1254	0.0430859
1266	0.0411732
1278	0.0468106
1290	0.0563741
1302	0.0615081
1314	0.0580854
1326	0.0578841
1338	0.0825478
1350	0.11909
1362	0.117077
1374	0.0984533
1386	0.0840578
1398	0.0418779
1410	0.0303011
1422	0.0340258
1434	0.0486226
1446	0.0805344
1458	0.139023
1470	0.150499
1482	0.0596961
1494	0.0280864
1506	0.0193283
1518	0.0143955
1530	0.0111741
1542	0.00926146
1554	0.00704676
1566	0.00644275
1578	0.00614075
1590	0.00593941
1602	0.00553674
1614	0.00634208
1626	0.00654342
1638	0.00775144
1650	0.0108721
1662	0.00895945
1674	0.00855678
1686	0.00604008
1698	0.00644275
1710	0.00805344
1722	0.00996613
1734	0.0155029
1746	0.0159055
1758	0.0111741
1770	0.00624142
1782	0.00432872
1794	0.00322138
1806	0.00312071
1818	0.00261737
1830	0.00261737
1842	0.00261737
1854	0.0028187
1866	0.00322138
1878	0.00402672
1890	0.00513407
1902	0.00674476
1914	0.00835544
1926	0.0108721
1938	0.0144962
1950	0.0187242
1962	0.0252677
1974	0.0351331
1986	0.0493273
1998	0.0704676
2010	0.10248
2022	0.149995
2034	0.221671
2046	0.315695
2058	0.392203
2070	0.399149
2082	0.313279
2094	0.204457
2106	0.141036
2118	0.11154
2130	0.0921112
2142	0.079125
2154	0.0756017
2166	0.0734876
2178	0.0624142
2190	0.0553674
2202	0.0483206
2214	0.0402672
2226	0.0318111
2238	0.0235563
2250	0.0185229
2262	0.0160062
2274	0.0138922
2286	0.0121808
2298	0.0105701
2310	0.00926146
2322	0.00684542
2334	0.00493273
2346	0.00634208
2358	0.00593941
2370	0.00402672
2382	0.0050334
2394	0.00312071
2406	0.00322138
2418	0.0025167
2430	0.00271804
2442	0.00261737
2454	0.00312071
2466	0.00312071
2478	0.00291937
2490	0.0028187
2502	0.00352338
2514	0.00372472
2526	0.0047314
2538	0.00563741
2550	0.00714743
2562	0.0078521
2574	0.00926146
2586	0.0106708
2598	0.0115768
2610	0.0120802
2622	0.0132882
2634	0.0146975
2646	0.0174156
2658	0.0214423
2670	0.0258717
2682	0.0299991
2694	0.0334218
2706	0.0389585
2718	0.0462066
2730	0.053958
2742	0.0616088
2754	0.0649309
2766	0.0728836
2778	0.0879838
2790	0.12654
2802	0.204255
2814	0.187947
2826	0.14768
2838	0.138418
2850	0.185934
2862	0.354653
2874	0.411229
2886	0.403981
2898	0.346499
2910	0.424114
2922	0.610652
2934	0.910542
2946	0.956648
2958	0.75954
2970	0.835444
2982	0.344889
2994	0.151002
3006	0.0886885
3018	0.0593941
3030	0.0431866
3042	0.0332204
3054	0.0262743
3066	0.021543
3078	0.0192276
3090	0.0177176
3102	0.0154022
3114	0.0138922
3126	0.0119795
3138	0.0108721
3150	0.0105701
3162	0.0097648
3174	0.00916079
3186	0.00855678
3198	0.00805344
3210	0.00714743
3222	0.00583874
3234	0.00493273
3246	0.00422806
3258	0.00453006
3270	0.00422806
3282	0.00382538
3294	0.00382538
3306	0.00352338
3318	0.00322138
3330	0.00402672
3342	0.00412739
3354	0.00453006
3366	0.00412739
3378	0.00382538
3390	0.00392605
3402	0.00332204
3414	0.00352338
3426	0.00291937
3438	0.00342271
3450	0.00372472
3462	0.00312071
3474	0.00302004
3486	0.00261737
3498	0.00291937
3510	0.0028187
3522	0.00322138
3534	0.00271804
3546	0.00302004
3558	0.00302004
3570	0.00291937
3582	0.00372472
3594	0.00291937
3606	0.00372472
3618	0.00402672
3630	0.00412739
3642	0.00432872
3654	0.00483206
3666	0.00463073
3678	0.00523474
3690	0.00412739
3702	0.00422806
3714	0.00422806
3726	0.0047314
3738	0.00463073
3750	0.00422806
3762	0.0047314
3774	0.00372472
3786	0.00362405
3798	0.00453006
3810	0.00422806
3822	0.00362405
3834	0.00402672
3846	0.00422806
3858	0.00593941
3870	0.00493273
3882	0.00352338
3894	0.00483206
3906	0.00412739
3918	0.00614075
3930	0.00402672
3942	0.00463073
3954	0.00573808
3966	0.00382538
