Infrared Spectrum: Benzene, 1-chloro-2-fluoro-
Formula: C 6 H 4 Cl F
CAS: 348-51-6
Origin: Sadtler Research Labs Under US-EPA Contract
1/CM	ABSORBANCE
450	0.0151476
462	0.00535766
474	0.0080852
486	0.0154885
498	0.0217716
510	0.0114946
522	0.00686755
534	0.00628307
546	0.028493
558	0.0292236
570	0.00501672
582	0.00331201
594	0.00282495
606	0.00306848
618	0.00316589
630	0.000779296
642	0.00292236
654	0.00467578
666	0.0109101
678	0.0959021
690	0.100334
702	0.017729
714	0.0133941
726	0.0162678
738	0.158782
750	0.48706
762	0.219031
774	0.0287852
786	0.00579601
798	0.00998473
810	0.0142222
822	0.0818261
834	0.0847971
846	0.0229405
858	0.00764684
870	0.00418872
882	0.00506542
894	0.00638049
906	0.0048706
918	0.00594213
930	0.0121278
942	0.00944896
954	0.00526025
966	0.00423742
978	0.00414001
990	0.00428613
1002	0.00672143
1014	0.0142222
1026	0.0503133
1038	0.0414001
1050	0.0164626
1062	0.0900574
1074	0.139299
1086	0.0534305
1098	0.00603954
1110	0.00832873
1122	0.056158
1134	0.0631717
1146	0.0146605
1158	0.0116894
1170	0.00423742
1182	0.00628307
1194	0.00589343
1206	0.0056986
1218	0.0136864
1230	0.0758839
1242	0.187128
1254	0.196139
1266	0.166136
1278	0.12722
1290	0.0328765
1302	0.00993602
1314	0.0032633
1326	0.00394519
1338	0.00336071
1350	0.00224048
1362	0.00501672
1374	0.0100334
1386	0.0143683
1398	0.0136377
1410	0.00857226
1422	0.00735461
1434	0.0196772
1446	0.0725232
1458	0.0743741
1470	0.101796
1482	0.454573
1494	0.483845
1506	0.129753
1518	0.0570834
1530	0.00954638
1542	0.0106179
1554	0.00988732
1566	0.0256681
1578	0.0751047
1590	0.103987
1602	0.0587881
1614	0.0183135
1626	0.0081339
1638	0.00599084
1650	0.00798778
1662	0.00535766
1674	0.00862096
1686	0.0104718
1698	0.00754943
1710	0.00301977
1722	0.00306848
1734	0.00540637
1746	0.00462707
1758	0.00550378
1770	0.0109101
1782	0.0121765
1794	0.00750072
1806	0.00472448
1818	0.00516284
1830	0.00370166
1842	0.00204565
1854	0.00175342
1866	0.00389648
1878	0.00258142
1890	0.00686755
1902	0.0105205
1914	0.00711108
1926	0.00521154
1938	0.0081339
1950	0.00452966
1962	0.00136377
1974	0.000779296
1986	0.00048706
1998	0.00048706
2010	0
2022	0.000633178
2034	0.000389648
2046	0.000876708
2058	0.00141247
2070	0.00170471
2082	0.00258142
2094	0.00297107
2106	0.00170471
2118	0.00024353
2130	0.000146118
2142	0.000389648
2154	0.000633178
2166	0.00141247
2178	0.00107153
2190	0.00073059
2202	0.00048706
2214	0.000146118
2226	0.000340942
2238	0.00024353
2250	0.000681884
2262	0.00141247
2274	0.00228918
2286	0.00253271
2298	0.00228918
2310	0.00433483
2322	0.00467578
2334	0.00370166
2346	0.00272754
2358	0.00282495
2370	0.00238659
2382	0.00116894
2394	0.00155859
2406	0.00233789
2418	0.00258142
2430	0.00185083
2442	0.00102283
2454	0.00073059
2466	0.00131506
2478	0.00224048
2490	0.00209436
2502	0.00204565
2514	0.00258142
2526	0.00292236
2538	0.00214306
2550	0.00253271
2562	0.00467578
2574	0.00418872
2586	0.00121765
2598	0.000925414
2610	0.00073059
2622	0.00073059
2634	0.000633178
2646	0.000535766
2658	0.000681884
2670	0.000925414
2682	0.000584472
2694	0.000828002
2706	0.00073059
2718	0.000925414
2730	0.00131506
2742	0.00180212
2754	0.00175342
2766	0.00155859
2778	0.00170471
2790	0.00116894
2802	0.00126636
2814	0.00107153
2826	0.00136377
2838	0.001656
2850	0.001656
2862	0.00131506
2874	0.00131506
2886	0.00097412
2898	0.00126636
2910	0.00116894
2922	0.00097412
2934	0.00102283
2946	0.000828002
2958	0.00102283
2970	0.000925414
2982	0.00097412
2994	0.00097412
3006	0.00170471
3018	0.00472448
3030	0.00828002
3042	0.0125174
3054	0.0133941
3066	0.0240121
3078	0.0445173
3090	0.0502159
3102	0.0256681
3114	0.00623437
3126	0.00170471
3138	0.00073059
3150	0.000779296
3162	0.000925414
3174	0.000681884
3186	0.00097412
3198	0.00097412
3210	0.000584472
3222	0.000389648
3234	0.000681884
3246	0.00073059
3258	0.000584472
3270	0.00097412
3282	0.000340942
3294	0.00102283
3306	0.000438354
3318	0.000876708
3330	0.000584472
3342	0.000876708
3354	0.00097412
3366	0.000876708
3378	0.000535766
3390	0.000828002
3402	0.000292236
3414	0
3426	0.00024353
3438	0.000633178
3450	0.000633178
3462	0.00048706
3474	0.00048706
3486	0.000389648
3498	0.000681884
3510	0.000779296
3522	0.000584472
3534	0.000438354
3546	0.000925414
3558	0.000535766
3570	0.000633178
3582	0.00116894
3594	0.000584472
3606	0.000779296
3618	0.000681884
3630	0.00112024
3642	0.00107153
3654	0.000340942
3666	0.00048706
3678	0.000681884
3690	0.000681884
3702	0.000876708
3714	0.000633178
3726	0.00097412
3738	0.000681884
3750	0.00107153
3762	0.00107153
3774	0.000584472
3786	0.000584472
3798	0.000633178
3810	0.000194824
3822	0.00102283
3834	0.000584472
3846	0.00102283
3858	0.00126636
3870	0.00121765
3882	0.000779296
3894	0.00150989
3906	0.00224048
3918	0.00175342
3930	0.000389648
3942	0
3954	0.000876708
3966	0
