Infrared Spectrum: Benzenamine, 2-fluoro-
Formula: C 6 H 6 F N
CAS: 348-54-9
Origin: Sadtler Research Labs Under US-EPA Contract
1/CM	ABSORBANCE
450	0
462	0.0345948
474	0.0319153
486	0.02914
498	0.0211971
510	0.0353604
522	0.0371787
534	0.0278003
546	0.0310062
558	0.0207186
570	0.0222019
582	0.0230154
594	0.0218191
606	0.0241637
618	0.0485189
630	0.0921093
642	0.105603
654	0.0794293
666	0.0560312
678	0.078281
690	0.0808648
702	0.0739746
714	0.0866545
726	0.17685
738	0.35882
750	0.25427
762	0.169433
774	0.0752665
786	0.0310062
798	0.0276567
810	0.0262213
822	0.0286137
834	0.0304798
846	0.0438775
858	0.0543086
870	0.0441168
882	0.0282309
894	0.0231111
906	0.0238288
918	0.0394754
930	0.0244508
942	0.0143069
954	0.0102397
966	0.011101
978	0.0103832
990	0.0126321
1002	0.014259
1014	0.0241637
1026	0.0333029
1038	0.0273218
1050	0.0243551
1062	0.0313411
1074	0.0330637
1086	0.0377529
1098	0.0329201
1110	0.0305755
1122	0.0380878
1134	0.0472748
1146	0.0504328
1158	0.031676
1170	0.0265083
1182	0.0441168
1194	0.107277
1206	0.265323
1218	0.274223
1230	0.0696681
1242	0.0257906
1254	0.0622515
1266	0.156275
1278	0.167471
1290	0.12479
1302	0.126465
1314	0.101823
1326	0.0735439
1338	0.0442603
1350	0.0173692
1362	0.0148332
1374	0.0166036
1386	0.0215799
1398	0.0220584
1410	0.0165079
1422	0.0149767
1434	0.016173
1446	0.0254557
1458	0.0489495
1470	0.0531602
1482	0.060529
1494	0.210823
1506	0.436622
1518	0.415664
1530	0.178955
1542	0.0423942
1554	0.032633
1566	0.0467006
1578	0.0693332
1590	0.0886163
1602	0.0897169
1614	0.102062
1626	0.229101
1638	0.270969
1650	0.158189
1662	0.0439254
1674	0.0264126
1686	0.0219627
1698	0.0186611
1710	0.0170342
1722	0.0156466
1734	0.0184697
1746	0.0236853
1758	0.0224412
1770	0.0169864
1782	0.0147375
1794	0.014259
1806	0.0141633
1818	0.0139241
1830	0.0154552
1842	0.0159337
1854	0.0149289
1866	0.0188525
1878	0.0198573
1890	0.0165079
1902	0.0186133
1914	0.0192353
1926	0.0162687
1938	0.0138762
1950	0.014881
1962	0.0151203
1974	0.0151681
1986	0.0145461
1998	0.0133977
2010	0.0128714
2022	0.0139719
2034	0.0147853
2046	0.0153117
2058	0.0153595
2070	0.0165558
2082	0.0155031
2094	0.0122972
2106	0.011723
2118	0.0114838
2130	0.0117709
2142	0.011723
2154	0.0120101
2166	0.0109574
2178	0.0111967
2190	0.0118666
2202	0.011101
2214	0.0108139
2226	0.0106703
2238	0.0102875
2250	0.0111488
2262	0.0120579
2274	0.0131106
2286	0.0121536
2298	0.0114838
2310	0.0116752
2322	0.0132063
2334	0.0147853
2346	0.0121058
2358	0.0129671
2370	0.013302
2382	0.0112924
2394	0.0114838
2406	0.011723
2418	0.0122972
2430	0.0122972
2442	0.0119623
2454	0.0122493
2466	0.0129192
2478	0.0139241
2490	0.0126321
2502	0.0118666
2514	0.0120101
2526	0.0121536
2538	0.0111488
2550	0.0121536
2562	0.0116273
2574	0.0109096
2586	0.010766
2598	0.0113881
2610	0.0129671
2622	0.0145939
2634	0.0138762
2646	0.0112924
2658	0.0100961
2670	0.0118666
2682	0.0118187
2694	0.0106703
2706	0.0111488
2718	0.010766
2730	0.0106703
2742	0.0114838
2754	0.0112445
2766	0.0120101
2778	0.0127278
2790	0.0116752
2802	0.0115795
2814	0.011723
2826	0.0114838
2838	0.0118666
2850	0.0109096
2862	0.0114838
2874	0.0119623
2886	0.0127278
2898	0.0134456
2910	0.0143069
2922	0.0136848
2934	0.0130628
2946	0.0124407
2958	0.0113881
2970	0.0114359
2982	0.01268
2994	0.0130628
3006	0.0131585
3018	0.0173213
3030	0.0311019
3042	0.0563183
3054	0.0735439
3066	0.0696681
3078	0.0628736
3090	0.0516769
3102	0.0324895
3114	0.0225369
3126	0.016795
3138	0.0123929
3150	0.0111488
3162	0.0126321
3174	0.0118187
3186	0.0122015
3198	0.0139719
3210	0.0142112
3222	0.0156945
3234	0.0153117
3246	0.013637
3258	0.011723
3270	0.0115795
3282	0.0128714
3294	0.0124407
3306	0.0134934
3318	0.011723
3330	0.013637
3342	0.0127278
3354	0.0141155
3366	0.0144504
3378	0.0173692
3390	0.0192353
3402	0.04182
3414	0.0684241
3426	0.074453
3438	0.0467485
3450	0.0206229
3462	0.0196181
3474	0.0214364
3486	0.0394276
3498	0.0565575
3510	0.0660795
3522	0.0525382
3534	0.0341642
3546	0.0179434
3558	0.0168428
3570	0.0164122
3582	0.0163165
3594	0.0171299
3606	0.0161251
3618	0.0178955
3630	0.0170342
3642	0.0161251
3654	0.0159816
3666	0.0152638
3678	0.0162208
3690	0.0156945
3702	0.0178477
3714	0.0154552
3726	0.0144982
3738	0.016173
3750	0.0139719
3762	0.0134934
3774	0.0130628
3786	0.0134934
3798	0.014881
3810	0.0135891
3822	0.0173692
3834	0.0129671
3846	0.0143547
3858	0.016173
3870	0.0167472
3882	0.0185176
3894	0.0168428
3906	0.0165558
3918	0.0154074
3930	0.0165558
3942	0.0154552
3954	0.0137327
3966	0.0147375
