Infrared Spectrum: Benzenamine, 2,3,5,6-tetrachloro-
Formula: C 6 H 3 Cl 4 N
CAS: 3481-20-7
Origin: Sadtler Research Labs Under US-EPA Contract
1/CM	ABSORBANCE
450	0
462	0.0225136
474	0.0303403
486	0.0483125
498	0.0840638
510	0.088122
522	0.0438678
534	0.0284078
546	0.0199048
558	0.0760439
570	0.160784
582	0.0475395
594	0.0523708
606	0.0745945
618	0.0443509
630	0.0369107
642	0.0423218
654	0.0713093
666	0.16146
678	0.299441
690	0.183008
702	0.196535
714	0.181752
726	0.139333
738	0.114984
750	0.101553
762	0.101456
774	0.108123
786	0.117399
798	0.122424
810	0.116337
822	0.187549
834	0.170253
846	0.0823245
858	0.0996204
870	0.088895
882	0.0551729
894	0.056429
906	0.061067
918	0.0637725
930	0.0632894
942	0.0807785
954	0.221465
966	0.342729
978	0.106191
990	0.0532404
1002	0.0280213
1014	0.0228035
1026	0.0248326
1038	0.0267651
1050	0.0354614
1062	0.0566222
1074	0.0838705
1086	0.245814
1098	0.500421
1110	0.359735
1122	0.238084
1134	0.185617
1146	0.0653185
1158	0.0488923
1170	0.0372006
1182	0.0361378
1194	0.0307268
1206	0.0206778
1218	0.0198081
1230	0.027828
1242	0.0891849
1254	0.133149
1266	0.0907309
1278	0.0716958
1290	0.0338188
1302	0.0465733
1314	0.0344951
1326	0.0223204
1338	0.0236731
1350	0.0209676
1362	0.021644
1374	0.0257022
1386	0.0489889
1398	0.171316
1410	0.516364
1422	0.69512
1434	0.843923
1446	0.335095
1458	0.111312
1470	0.0813583
1482	0.0629995
1494	0.0404859
1506	0.0329491
1518	0.037877
1530	0.0635793
1542	0.15431
1554	0.363986
1566	0.221465
1578	0.135178
1590	0.252674
1602	0.887018
1614	0.912237
1626	0.382152
1638	0.107544
1650	0.0698599
1662	0.0458003
1674	0.0373939
1686	0.0297605
1698	0.0299538
1710	0.0250259
1722	0.024736
1734	0.0259921
1746	0.0251225
1758	0.0244461
1770	0.0243495
1782	0.0195183
1794	0.018552
1806	0.0143971
1818	0.0127545
1830	0.0147836
1842	0.0127545
1854	0.0117883
1866	0.0137208
1878	0.0130444
1890	0.0137208
1902	0.013914
1914	0.0134309
1926	0.0144938
1938	0.0145904
1950	0.0135275
1962	0.0128511
1974	0.012368
1986	0.0121747
1998	0.0119815
2010	0.0129478
2022	0.0124646
2034	0.0113051
2046	0.0106288
2058	0.0117883
2070	0.0114018
2082	0.010822
2094	0.0107254
2106	0.0120781
2118	0.0129478
2130	0.0119815
2142	0.0112085
2154	0.0112085
2166	0.010822
2178	0.0110153
2190	0.0113051
2202	0.0118849
2214	0.0124646
2226	0.0110153
2238	0.0101456
2250	0.00985575
2262	0.00946925
2274	0.0103389
2286	0.00879288
2298	0.006184
2310	0.00512112
2322	0.0081165
2334	0.00937263
2346	0.00840638
2358	0.011595
2370	0.0109186
2382	0.008503
2394	0.012368
2406	0.0109186
2418	0.0105321
2430	0.0103389
2442	0.010049
2454	0.0088895
2466	0.00830975
2478	0.00801988
2490	0.00792325
2502	0.00879288
2514	0.010822
2526	0.0117883
2538	0.0126579
2550	0.0132376
2562	0.0112085
2574	0.0106288
2586	0.00985575
2598	0.00985575
2610	0.00995238
2622	0.0102422
2634	0.0104355
2646	0.0114018
2658	0.0129478
2670	0.0143971
2682	0.0163296
2694	0.0157499
2706	0.0134309
2718	0.0113051
2730	0.00985575
2742	0.0105321
2754	0.00995238
2766	0.00917938
2778	0.00995238
2790	0.0111119
2802	0.012368
2814	0.0128511
2826	0.0137208
2838	0.0144938
2850	0.0143005
2862	0.0144938
2874	0.0143005
2886	0.013914
2898	0.0130444
2910	0.0132376
2922	0.0149769
2934	0.0157499
2946	0.013914
2958	0.0141072
2970	0.0143005
2982	0.0143971
2994	0.0126579
3006	0.0128511
3018	0.0145904
3030	0.0155566
3042	0.0142039
3054	0.0132376
3066	0.013914
3078	0.0150735
3090	0.0175858
3102	0.019325
3114	0.0229001
3126	0.0226103
3138	0.0178756
3150	0.0178756
3162	0.0150735
3174	0.012368
3186	0.0121747
3198	0.0124646
3210	0.0114018
3222	0.010049
3234	0.011595
3246	0.0112085
3258	0.011595
3270	0.0128511
3282	0.0132376
3294	0.013141
3306	0.0137208
3318	0.0137208
3330	0.0125613
3342	0.0124646
3354	0.0133343
3366	0.0152668
3378	0.0213541
3390	0.0345918
3402	0.073435
3414	0.181655
3426	0.204748
3438	0.0879287
3450	0.0297605
3462	0.0259921
3474	0.0353648
3486	0.0475395
3498	0.0725654
3510	0.149286
3522	0.229871
3534	0.132859
3546	0.0576851
3558	0.0251225
3570	0.0173925
3582	0.0167161
3594	0.0127545
3606	0.0124646
3618	0.00937263
3630	0.009276
3642	0.0104355
3654	0.0065705
3666	0.0121747
3678	0.00676375
3690	0.00908275
3702	0.0118849
3714	0.00792325
3726	0.00898613
3738	0.0088895
3750	0.0130444
3762	0.0109186
3774	0.00975913
3786	0.00917938
3798	0.00937263
3810	0.0134309
3822	0.0135275
3834	0.0119815
3846	0.013914
3858	0.0157499
3870	0.0135275
3882	0.0118849
3894	0.0110153
3906	0.0129478
3918	0.0129478
3930	0.0096625
3942	0.006184
3954	0.0126579
3966	0.0149769
