Infrared Spectrum: Methanone, cyclopropylphenyl-
Formula: C 10 H 10 O
CAS: 3481-02-5
Origin: Sadtler Research Labs Under US-EPA Contract
1/CM	ABSORBANCE
450	0.00932072
462	0.00266306
474	0.00902483
486	0.00818646
498	0.00591792
510	0.00271238
522	0.00310691
534	0.00345212
546	0.00335349
558	0.000641108
570	0.00113427
582	0.00182469
594	0.00197264
606	0.00290964
618	0.00498092
630	0.010307
642	0.06056
654	0.0426583
666	0.0167674
678	0.0368391
690	0.123734
702	0.222514
714	0.130194
726	0.0323513
738	0.0167181
750	0.0138578
762	0.0154852
774	0.0302307
786	0.0376281
798	0.0188387
810	0.0184442
822	0.0223895
834	0.0159784
846	0.0154852
858	0.013266
870	0.017162
882	0.0155839
894	0.0129701
906	0.0167181
918	0.0238196
930	0.0184935
942	0.0175565
954	0.0198743
966	0.0233758
978	0.0598696
990	0.394183
1002	0.308176
1014	0.0394528
1026	0.0359514
1038	0.0877825
1050	0.0503516
1062	0.0274197
1074	0.0256936
1086	0.0172606
1098	0.0171127
1110	0.0129208
1122	0.00798919
1134	0.00685492
1146	0.0109975
1158	0.0203182
1170	0.0536558
1182	0.0699794
1194	0.0326965
1206	0.123635
1218	0.440343
1230	0.347086
1242	0.0983854
1254	0.0331897
1266	0.0128715
1278	0.0121317
1290	0.0145482
1302	0.0133153
1314	0.0101591
1326	0.0118358
1338	0.0157318
1350	0.0251018
1362	0.0649985
1374	0.201702
1386	0.375245
1398	0.154014
1410	0.040735
1422	0.0266306
1434	0.0256936
1446	0.0865496
1458	0.0874866
1470	0.02091
1482	0.0105536
1494	0.00976457
1506	0.00636176
1518	0.00483297
1530	0.00705219
1542	0.00734808
1554	0.00843304
1566	0.0108988
1578	0.0272717
1590	0.0353103
1602	0.0403898
1614	0.0186908
1626	0.0134633
1638	0.0154852
1650	0.0211072
1662	0.033091
1674	0.0820125
1686	0.287808
1698	0.354927
1710	0.110764
1722	0.0303787
1734	0.0215511
1746	0.0134633
1758	0.0095673
1770	0.0086303
1782	0.00537544
1794	0.00448776
1806	0.0108495
1818	0.00961662
1830	0.00473434
1842	0.00404391
1854	0.00527681
1866	0.00517818
1878	0.00468502
1890	0.00596724
1902	0.00922209
1914	0.00917278
1926	0.00453707
1938	0.00419186
1950	0.00744672
1962	0.00907414
1974	0.00744672
1986	0.00389596
1998	0.00177538
2010	0.00103564
2022	0.0012329
2034	0.00143016
2046	0.00108495
2058	0.00162743
2070	0.00231785
2082	0.00305759
2094	0.00433981
2106	0.00438912
2118	0.00379733
2130	0.00350144
2142	0.00182469
2154	0.000690424
2166	0.00073974
2178	0.000838372
2190	0.00108495
2202	0.000838372
2214	0.000789056
2226	0.0015288
2238	0.00172606
2250	0.00162743
2262	0.00098632
2274	0.00098632
2286	0.00128222
2298	0.00133153
2310	0.00113427
2322	9.8632e-05
2334	4.9316e-05
2346	4.9316e-05
2358	4.9316e-05
2370	0
2382	0.00320554
2394	0.00207127
2406	0.00073974
2418	0.000838372
2430	0.00138085
2442	0.0021699
2454	0.00177538
2466	0.00202196
2478	0.00286033
2490	0.00360007
2502	0.00138085
2514	0.000838372
2526	0.000838372
2538	0.000789056
2550	0.00073974
2562	0.00103564
2574	0.00073974
2586	0.00108495
2598	0.00162743
2610	0.00157811
2622	0.00118358
2634	0.000690424
2646	0.000591792
2658	0.000443844
2670	0.000345212
2682	0.000345212
2694	0.000345212
2706	0.000690424
2718	0.00098632
2730	0.00073974
2742	0.000838372
2754	0.000690424
2766	0.000838372
2778	0.00143016
2790	0.00226854
2802	0.00355075
2814	0.00503023
2826	0.00409323
2838	0.00286033
2850	0.00286033
2862	0.00355075
2874	0.00424118
2886	0.00473434
2898	0.00429049
2910	0.00364938
2922	0.00394528
2934	0.00527681
2946	0.00537544
2958	0.00498092
2970	0.00828509
2982	0.0121317
2994	0.0106523
3006	0.0245594
3018	0.0904949
3030	0.088325
3042	0.0628286
3054	0.054001
3066	0.0706698
3078	0.0979416
3090	0.0628779
3102	0.06273
3114	0.0327951
3126	0.0086303
3138	0.00527681
3150	0.00374802
3162	0.0039946
3174	0.00256443
3186	0.0015288
3198	0.00128222
3210	0.00113427
3222	0.00128222
3234	0.000887688
3246	0.00098632
3258	0.00113427
3270	0.00133153
3282	0.00128222
3294	0.00118358
3306	0.00138085
3318	0.00103564
3330	0.00143016
3342	0.00197264
3354	0.00414254
3366	0.00675629
3378	0.00414254
3390	0.00177538
3402	0.00128222
3414	0.00113427
3426	0.0012329
3438	0.000887688
3450	0.00108495
3462	0.00143016
3474	0.00103564
3486	0.000789056
3498	0.00133153
3510	0.000838372
3522	0.00073974
3534	0.00147948
3546	0.00098632
3558	0.00167674
3570	0.000937004
3582	0.0012329
3594	0.000443844
3606	0.00073974
3618	0.000937004
3630	4.9316e-05
3642	0.000838372
3654	0.00162743
3666	0.00241648
3678	0.000345212
3690	0.00182469
3702	0.0015288
3714	0.00236717
3726	0.000690424
3738	0.00128222
3750	0.00221922
3762	0.00197264
3774	0.00133153
3786	0.00202196
3798	0.00118358
3810	0.00310691
3822	0.00187401
3834	0.00251512
3846	0.00315622
3858	0.00172606
3870	0.00207127
3882	0.00182469
3894	0.00177538
3906	0.00355075
3918	0.00256443
3930	0.00236717
3942	0.00281101
3954	0.0024658
3966	0.00271238
