Infrared Spectrum: p-Trifluoromethylacetanilide
Formula: C 9 H 8 F 3 N O
CAS: 349-97-3
Origin: Sadtler Research Labs Under US-EPA Contract
1/CM	ABSORBANCE
450	0.0141944
462	0.00498428
474	0.00574276
486	0.00437028
498	0.00884891
510	0.014086
522	0.0114855
534	0.00758478
546	0.00465922
558	0.00639289
570	0.00487593
582	0.00523711
594	0.0062123
606	0.00783761
618	0.00534546
630	0.0050204
642	0.00372015
654	0.00469534
666	0.006429
678	0.0253187
690	0.00606782
702	0.0036118
714	0.00187814
726	0.00191425
738	0.0010113
750	0.00241991
762	0.00209484
774	0.00191425
786	0.00364792
798	0.00418969
810	0.00921009
822	0.0131108
834	0.0240546
846	0.033662
858	0.0156752
870	0.00458699
882	0.00285332
894	0.00299779
906	0.00339509
918	0.00343121
930	0.00346733
942	0.0050204
954	0.00545382
966	0.00754866
978	0.0133998
990	0.0213457
1002	0.0144472
1014	0.0322534
1026	0.0170838
1038	0.010727
1050	0.0158558
1062	0.046231
1074	0.133962
1086	0.0203706
1098	0.0188175
1110	0.0388991
1122	0.0729222
1134	0.119153
1146	0.189403
1158	0.13053
1170	0.150034
1182	0.113266
1194	0.0524433
1206	0.0431971
1218	0.0643623
1230	0.0476758
1242	0.0709719
1254	0.0383573
1266	0.022971
1278	0.0280637
1290	0.0545382
1302	0.12067
1314	0.215119
1326	0.36118
1338	0.164084
1350	0.0399465
1362	0.0322173
1374	0.0427637
1386	0.032759
1398	0.0536352
1410	0.0721638
1422	0.0287138
1434	0.0161809
1446	0.014989
1458	0.0162531
1470	0.0233322
1482	0.0422219
1494	0.0890309
1506	0.102178
1518	0.1029
1530	0.0836493
1542	0.0243074
1554	0.0151334
1566	0.0145556
1578	0.0135443
1590	0.0209484
1602	0.0421858
1614	0.0681185
1626	0.032145
1638	0.0127858
1650	0.0111966
1662	0.00859608
1674	0.00780149
1686	0.00935456
1698	0.0136526
1710	0.0234767
1722	0.0739697
1734	0.127497
1746	0.0754505
1758	0.0269079
1770	0.016831
1782	0.0138332
1794	0.0111243
1806	0.00827102
1818	0.00480369
1830	0.00379239
1842	0.0032145
1854	0.00292556
1866	0.00335897
1878	0.00408133
1890	0.00408133
1902	0.00270885
1914	0.00299779
1926	0.00213096
1938	0.00209484
1950	0.000866832
1962	0.000614006
1974	0.00054177
1986	0.000469534
1998	0.000397298
2010	0.000288944
2022	0.00054177
2034	0.000650124
2046	0.000433416
2058	0.000577888
2070	0.00090295
2082	0.00162531
2094	0.00155307
2106	0.00072236
2118	0.000939068
2130	0.00119189
2142	0.0014086
2154	0.00137248
2166	0.00158919
2178	0.000794596
2190	0.00090295
2202	0.000830714
2214	0.0010113
2226	0.000794596
2238	0.00108354
2250	0.0010113
2262	0.00108354
2274	0.00162531
2286	0.00184202
2298	0.0026005
2310	0.00325062
2322	0.0028172
2334	0.00205873
2346	0.00343121
2358	0.00209484
2370	0.00133637
2382	0.00205873
2394	0.000614006
2406	0.000325062
2418	0.000144472
2430	0.000577888
2442	0.00072236
2454	0.000794596
2466	0.000866832
2478	0.000686242
2490	0.000650124
2502	0.000650124
2514	0.000758478
2526	0.000939068
2538	0.00115578
2550	0.00119189
2562	0.000866832
2574	0.000830714
2586	0.00122801
2598	0.000830714
2610	0.00090295
2622	0.00054177
2634	0.00115578
2646	0.00130025
2658	0.000866832
2670	0.000794596
2682	0.00130025
2694	0.0010113
2706	0.00111966
2718	0.00137248
2730	0.00126413
2742	0.00122801
2754	0.0010113
2766	0.000939068
2778	0.000794596
2790	0.000830714
2802	0.00104742
2814	0.000686242
2826	0.00137248
2838	0.00148084
2850	0.00126413
2862	0.00176978
2874	0.00162531
2886	0.00158919
2898	0.00202261
2910	0.00241991
2922	0.00314227
2934	0.00469534
2946	0.00480369
2958	0.00364792
2970	0.00303391
2982	0.00285332
2994	0.00278109
3006	0.00335897
3018	0.0046231
3030	0.00563441
3042	0.00787372
3054	0.0068263
3066	0.00433416
3078	0.00451475
3090	0.00386463
3102	0.00332286
3114	0.00350345
3126	0.00375627
3138	0.00245602
3150	0.00176978
3162	0.00162531
3174	0.00148084
3186	0.0018059
3198	0.00151696
3210	0.00162531
3222	0.00130025
3234	0.0014086
3246	0.00195037
3258	0.00187814
3270	0.00155307
3282	0.00176978
3294	0.00155307
3306	0.00155307
3318	0.00205873
3330	0.00184202
3342	0.00227543
3354	0.00137248
3366	0.00158919
3378	0.00205873
3390	0.00249214
3402	0.00278109
3414	0.00364792
3426	0.00408133
3438	0.00509264
3450	0.0086322
3462	0.0126413
3474	0.00913785
3486	0.0040091
3498	0.00238379
3510	0.00241991
3522	0.00227543
3534	0.00223932
3546	0.0022032
3558	0.00310615
3570	0.00263661
3582	0.00307003
3594	0.00285332
3606	0.00238379
3618	0.00191425
3630	0.00169755
3642	0.00209484
3654	0.00115578
3666	0.00238379
3678	0.000433416
3690	0.00115578
3702	0.00205873
3714	0.00231155
3726	0.00173366
3738	0.00216708
3750	0.0018059
3762	0.00238379
3774	0.00198649
3786	0.00227543
3798	0.00227543
3810	0.00328674
3822	0.00270885
3834	0.0022032
3846	0.00278109
3858	0.00223932
3870	0.00325062
3882	0.00303391
3894	0.0026005
3906	0.00209484
3918	0.00202261
3930	0.00166143
3942	0.00122801
3954	0.00292556
3966	0.00176978
