Infrared Spectrum: 2-Propanol, 1,3-bis-diethylamino-,
Formula: C 11 H 26 N 2 O
CAS: 3492-47-5
Origin: Sadtler Research Labs Under US-EPA Contract
1/CM	ABSORBANCE
450	0
462	0.0232342
474	0.0269149
486	0.0315158
498	0.0341612
510	0.038072
522	0.038532
534	0.0387621
546	0.0307106
558	0.0265699
570	0.0230042
582	0.0233493
594	0.0255347
606	0.0263398
618	0.0211639
630	0.022084
642	0.0240394
654	0.0213939
666	0.0200137
678	0.0209338
690	0.0205888
702	0.0225441
714	0.0225441
726	0.0261098
738	0.033011
750	0.0511843
762	0.0654469
774	0.0761439
786	0.0679774
798	0.0669422
810	0.0679774
822	0.0452033
834	0.0342763
846	0.0411775
858	0.0525646
870	0.0483088
882	0.0458934
894	0.0466985
906	0.0501492
918	0.0487689
930	0.0508393
942	0.0550951
954	0.0631465
966	0.0718881
978	0.0867258
990	0.0920168
1002	0.087761
1014	0.0942022
1026	0.143431
1038	0.224636
1050	0.316193
1062	0.417181
1074	0.416491
1086	0.401768
1098	0.322864
1110	0.202092
1122	0.140786
1134	0.10835
1146	0.100413
1158	0.10996
1170	0.127903
1182	0.162525
1194	0.260178
1206	0.352079
1218	0.168736
1230	0.114101
1242	0.123303
1254	0.143546
1266	0.145962
1278	0.161029
1290	0.19105
1302	0.199561
1314	0.177707
1326	0.179663
1338	0.197836
1350	0.197376
1362	0.189785
1374	0.285712
1386	0.346558
1398	0.21992
1410	0.140096
1422	0.10697
1434	0.0971927
1446	0.126983
1458	0.169886
1470	0.172532
1482	0.113411
1494	0.0552101
1506	0.0407174
1518	0.0332411
1530	0.0302505
1542	0.0264548
1554	0.0261098
1566	0.0242694
1578	0.0243845
1590	0.0234643
1602	0.0235793
1614	0.0233493
1626	0.0236943
1638	0.0231192
1650	0.0239244
1662	0.0249596
1674	0.0280651
1686	0.0300205
1698	0.038302
1710	0.0431329
1722	0.0324359
1734	0.0307106
1746	0.0286402
1758	0.0242694
1770	0.0238093
1782	0.022084
1794	0.0212789
1806	0.0204737
1818	0.0201287
1830	0.0196686
1842	0.0193235
1854	0.0195536
1866	0.0184034
1878	0.0182883
1890	0.0184034
1902	0.0179433
1914	0.0182883
1926	0.0181733
1938	0.0186334
1950	0.0187484
1962	0.0193235
1974	0.0190935
1986	0.0187484
1998	0.0181733
2010	0.0179433
2022	0.0172531
2034	0.0172531
2046	0.0177132
2058	0.0178283
2070	0.0186334
2082	0.0182883
2094	0.0184034
2106	0.0185184
2118	0.0189785
2130	0.0187484
2142	0.0188634
2154	0.0188634
2166	0.0189785
2178	0.0195536
2190	0.0190935
2202	0.0185184
2214	0.0184034
2226	0.0186334
2238	0.0187484
2250	0.0193235
2262	0.0200137
2274	0.0201287
2286	0.0197836
2298	0.0196686
2310	0.0193235
2322	0.0180583
2334	0.0182883
2346	0.0202437
2358	0.0186334
2370	0.0188634
2382	0.0215089
2394	0.0207038
2406	0.0209338
2418	0.0211639
2430	0.0213939
2442	0.0210488
2454	0.0211639
2466	0.0207038
2478	0.0204737
2490	0.0209338
2502	0.0212789
2514	0.0224291
2526	0.0239244
2538	0.0253046
2550	0.0269149
2562	0.0291003
2574	0.0319758
2586	0.0337012
2598	0.0345063
2610	0.0361166
2622	0.0394522
2634	0.0429028
2646	0.0485389
2658	0.0541749
2670	0.0593508
2682	0.0668272
2694	0.0749937
2706	0.0854606
2718	0.098688
2730	0.11042
2742	0.117551
2754	0.134805
2766	0.16287
2778	0.196456
2790	0.268689
2802	0.421552
2814	0.564983
2826	0.557507
2838	0.452493
2850	0.346098
2862	0.294569
2874	0.347133
2886	0.44076
2898	0.390151
2910	0.402113
2922	0.460889
2934	0.6302
2946	0.705999
2958	0.555436
2970	0.914417
2982	1.02242
2994	0.366112
3006	0.156659
3018	0.0998382
3030	0.076949
3042	0.0633766
3054	0.0564753
3066	0.0508393
3078	0.0468135
3090	0.0427878
3102	0.0400273
3114	0.038302
3126	0.0369217
3138	0.0348514
3150	0.0339312
3162	0.0323209
3174	0.0312857
3186	0.0302505
3198	0.0287552
3210	0.0278351
3222	0.0264548
3234	0.0262248
3246	0.0262248
3258	0.0269149
3270	0.0277201
3282	0.0278351
3294	0.0294454
3306	0.0300205
3318	0.0323209
3330	0.0333561
3342	0.0349664
3354	0.0374968
3366	0.0399123
3378	0.0419827
3390	0.0453183
3402	0.0485389
3414	0.0516444
3426	0.0562453
3438	0.0596959
3450	0.0633766
3462	0.0692426
3474	0.0732684
3486	0.0753388
3498	0.0763739
3510	0.0748787
3522	0.0722332
3534	0.0665972
3546	0.0610762
3558	0.0541749
3570	0.0480788
3582	0.0401423
3594	0.0347363
3606	0.0305956
3618	0.0282952
3630	0.0280651
3642	0.0277201
3654	0.0262248
3666	0.021739
3678	0.0204737
3690	0.0194385
3702	0.0184034
3714	0.0186334
3726	0.0189785
3738	0.0195536
3750	0.0173682
3762	0.0184034
3774	0.0190935
3786	0.0190935
3798	0.0195536
3810	0.0184034
3822	0.0180583
3834	0.0178283
3846	0.0172531
3858	0.0196686
3870	0.0197836
3882	0.0185184
3894	0.0201287
3906	0.0201287
3918	0.0207038
3930	0.0211639
3942	0.0207038
3954	0.0223141
3966	0.0212789
