Infrared Spectrum: Benzene, 1-fluoro-4-nitro-
Formula: C 6 H 4 F N O 2
CAS: 350-46-9
Origin: Sadtler Research Labs Under US-EPA Contract
1/CM	ABSORBANCE
450	0.0247167
462	0.0343804
474	0.0256459
486	0.0347521
498	0.0339158
510	0.0109646
522	0.0167256
534	0.00408848
546	0.0246238
558	0.0065044
570	0.0237875
582	0.00966368
594	0.00678316
606	0.125721
618	0.224773
630	0.0239734
642	0.017469
654	0.0227654
666	0.037168
678	0.0554732
690	0.0279689
702	0.0170044
714	0.0169114
726	0.0231371
738	0.0762873
750	0.140867
762	0.0654157
774	0.0124513
786	0.0143097
798	0.0136592
810	0.0158893
822	0.0319645
834	0.0812121
846	0.211579
858	0.445551
870	0.313326
882	0.0194203
894	0.00984952
906	0.0155176
918	0.013938
930	0.0251813
942	0.0200707
954	0.0308494
966	0.0303848
978	0.0303848
990	0.0271326
1002	0.0352167
1014	0.0457166
1026	0.019699
1038	0.0238804
1050	0.0140309
1062	0.0155176
1074	0.0235088
1086	0.0222079
1098	0.0561237
1110	0.0945926
1122	0.0425574
1134	0.018584
1146	0.131203
1158	0.150345
1170	0.0269468
1182	0.018584
1194	0.0156106
1206	0.0252742
1218	0.0564954
1230	0.126557
1242	0.443786
1254	0.634644
1266	0.0448804
1278	0.0367963
1290	0.0427432
1302	0.0417211
1314	0.0656944
1326	0.0698758
1338	0.242707
1350	0.781178
1362	0.706285
1374	0.119216
1386	0.0395839
1398	0.0200707
1410	0.0209999
1422	0.0306636
1434	0.0249955
1446	0.0350308
1458	0.0672741
1470	0.0791678
1482	0.0706192
1494	0.477609
1506	0.479188
1518	0.135942
1530	0.296415
1542	0.772165
1554	0.738156
1566	0.214924
1578	0.119774
1590	0.290096
1602	0.495078
1614	0.271141
1626	0.200707
1638	0.0924554
1650	0.0334512
1662	0.0261105
1674	0.0168185
1686	0.0132876
1698	0.0108716
1710	0.0152389
1722	0.0119867
1734	0.0088274
1746	0.00724776
1758	0.0114292
1770	0.0202566
1782	0.00938492
1794	0.0074336
1806	0.00892032
1818	0.0105
1830	0.00501768
1842	0.0041814
1854	0.00631856
1866	0.00761944
1878	0.00799112
1890	0.0102212
1902	0.0218362
1914	0.0217433
1926	0.0113362
1938	0.00641148
1950	0.00678316
1962	0.00724776
1974	0.0060398
1986	0.00715484
1998	0.00436724
2010	0.00613272
2022	0.00734068
2034	0.00826988
2046	0.0097566
2058	0.0105929
2070	0.00576104
2082	0.00399556
2094	0.00622564
2106	0.00752652
2118	0.00901324
2130	0.00436724
2142	0.00520352
2154	0.00436724
2166	0.00362388
2178	0.00566812
2190	0.00446016
2202	0.00706192
2214	0.0055752
2226	0.00761944
2238	0.004646
2250	0.00585396
2262	0.00669024
2274	0.00446016
2286	0.00427432
2298	0.00343804
2310	0.00669024
2322	0.00297344
2334	0.00548228
2346	0.00910616
2358	0.0106858
2370	0.0144955
2382	0.00808404
2394	0.00873448
2406	0.0078982
2418	0.00576104
2430	0.00380972
2442	0.00455308
2454	0.00752652
2466	0.0119867
2478	0.0105
2490	0.00817696
2502	0.00752652
2514	0.00334512
2526	0.0037168
2538	0.00120796
2550	0.00297344
2562	0.00436724
2574	0.00446016
2586	0.00613272
2598	0.0060398
2610	0.0097566
2622	0.00678316
2634	0.00669024
2646	0.00678316
2658	0.0055752
2670	0.00734068
2682	0.0074336
2694	0.0103141
2706	0.010407
2718	0.0106858
2730	0.00669024
2742	0.00622564
2754	0.0074336
2766	0.00845572
2778	0.00957076
2790	0.00901324
2802	0.00873448
2814	0.0051106
2826	0.00845572
2838	0.00845572
2850	0.0106858
2862	0.0114292
2874	0.017469
2886	0.0240663
2898	0.019792
2910	0.015053
2922	0.00873448
2934	0.00966368
2946	0.00780528
2958	0.0105
2970	0.0101283
2982	0.00808404
2994	0.00994244
3006	0.00687608
3018	0.00669024
3030	0.0037168
3042	0.006969
3054	0.0041814
3066	0.00669024
3078	0.0106858
3090	0.0287123
3102	0.0344733
3114	0.0088274
3126	0.00864156
3138	0.00492476
3150	0.00659732
3162	0.0051106
3174	0.00687608
3186	0.00566812
3198	0.00501768
3210	0.006969
3222	0.00260176
3234	0.00622564
3246	0.00613272
3258	0.00826988
3270	0.00641148
3282	0.00585396
3294	0.0078982
3306	0.00520352
3318	0.00594688
3330	0.00492476
3342	0.00687608
3354	0.00483184
3366	0.00799112
3378	0.00817696
3390	0.00613272
3402	0.00622564
3414	0.00483184
3426	0.00715484
3438	0.00436724
3450	0.00919908
3462	0.00724776
3474	0.006969
3486	0.00706192
3498	0.00724776
3510	0.00585396
3522	0.002323
3534	0.00734068
3546	0.00408848
3558	0.00752652
3570	0.00715484
3582	0.00761944
3594	0.00734068
3606	0.00436724
3618	0.00669024
3630	0.00195132
3642	0.00594688
3654	0.00585396
3666	0.00715484
3678	0.006969
3690	0.0074336
3702	0.00687608
3714	0.00353096
3726	0.0055752
3738	0.00390264
3750	0.00520352
3762	0.00520352
3774	0.00761944
3786	0.0065044
3798	0.00492476
3810	0.0041814
3822	0.00195132
3834	0.00455308
3846	0.00427432
3858	0.00919908
3870	0.00808404
3882	0.00817696
3894	0.00947784
3906	0.00566812
3918	0.00678316
3930	0.00399556
3942	0.010407
3954	0
3966	0.00083628
