Infrared Spectrum: Ethanone, 1-(3-pyridinyl)-
Formula: C 7 H 7 N O
CAS: 350-03-8
Origin: Sadtler Research Labs Under US-EPA Contract
1/CM	ABSORBANCE
450	0.0181232
462	0.00484399
474	0.00701543
486	0.00167034
498	0.00375826
510	0.00292309
522	0.0034242
534	0.00434288
546	0.00459343
558	0.00350771
570	0.0155342
582	0.095627
594	0.139974
606	0.0415915
618	0.06364
630	0.0752488
642	0.0136968
654	0.0126111
666	0.0109407
678	0.0227166
690	0.081095
702	0.191922
714	0.115504
726	0.0483563
738	0.029398
750	0.0317365
762	0.0177056
774	0.0152001
786	0.0407563
798	0.095627
810	0.101306
822	0.0420926
834	0.0128616
846	0.00826818
858	0.00467695
870	0.00601322
882	0.00400882
894	0.00450992
906	0.00659784
918	0.00876928
930	0.0226331
942	0.0845192
954	0.12895
966	0.0760005
978	0.0304837
990	0.0205452
1002	0.0263914
1014	0.0895302
1026	0.0971303
1038	0.0341585
1050	0.0173715
1062	0.0186243
1074	0.0320705
1086	0.0623872
1098	0.0663125
1110	0.0704883
1122	0.0765851
1134	0.0384178
1146	0.01211
1158	0.00977149
1170	0.0155342
1182	0.0396706
1194	0.0536179
1206	0.0406728
1218	0.0404222
1230	0.0632224
1242	0.0830994
1254	0.264832
1266	0.79433
1278	0.619195
1290	0.0613015
1302	0.0304002
1314	0.0304002
1326	0.0327387
1338	0.0326551
1350	0.0970468
1362	0.260657
1374	0.231342
1386	0.0707389
1398	0.0555388
1410	0.172463
1422	0.21514
1434	0.0856884
1446	0.0457673
1458	0.022299
1470	0.026976
1482	0.0262243
1494	0.0153671
1506	0.00668136
1518	0.00709894
1530	0.012277
1542	0.0157012
1554	0.0435959
1566	0.100137
1578	0.251386
1590	0.280367
1602	0.0780884
1614	0.0249716
1626	0.0209628
1638	0.0173715
1650	0.0141144
1662	0.0355782
1674	0.0395035
1686	0.0950423
1698	0.444143
1710	0.752906
1722	0.458007
1734	0.0863566
1746	0.0562905
1758	0.0470201
1770	0.0228837
1782	0.0126111
1794	0.00584619
1806	0.00609674
1818	0.00551212
1830	0.00350771
1842	0.00701543
1854	0.0106902
1866	0.00743301
1878	0.0073495
1890	0.00843522
1902	0.0112748
1914	0.0149495
1926	0.0149495
1938	0.012444
1950	0.0123605
1962	0.00985501
1974	0.00693191
1986	0.0054286
1998	0.00350771
2010	0.00459343
2022	0.00567916
2034	0.0039253
2046	0.00334068
2058	0.00417585
2070	0.00225496
2082	8.3517e-05
2094	0.00250551
2106	0.00417585
2118	0.00425937
2130	0.00350771
2142	0.00283958
2154	0.0034242
2166	0.00300661
2178	0.00334068
2190	0.00309013
2202	0.0039253
2214	0.00434288
2226	0.0044264
2238	0.00400882
2250	0.00367475
2262	0.00367475
2274	0.00384178
2286	0.00459343
2298	0.00626377
2310	0.00592971
2322	0.00325716
2334	8.3517e-05
2346	8.3517e-05
2358	0.000167034
2370	0.00367475
2382	0.00801763
2394	0.00434288
2406	0.00350771
2418	0.00309013
2430	0.00317365
2442	0.00334068
2454	0.00309013
2466	0.00325716
2478	0.00183737
2490	0.00217144
2502	0.00350771
2514	0.00375826
2526	0.00417585
2538	0.0049275
2550	0.00233848
2562	0.00116924
2574	0.00133627
2586	0.00300661
2598	0.0044264
2610	0.0049275
2622	0.00584619
2634	0.0034242
2646	0.00559564
2658	0.0049275
2670	0.000501102
2682	0.0010022
2694	0.00317365
2706	0.00250551
2718	0.00283958
2730	0.00208793
2742	0.00275606
2754	0.00309013
2766	0.00233848
2778	0.00258903
2790	0.00350771
2802	0.0034242
2814	0.00350771
2826	0.00467695
2838	0.00526157
2850	0.00776708
2862	0.00901984
2874	0.00810115
2886	0.00910335
2898	0.00860225
2910	0.0104396
2922	0.0154506
2934	0.0217979
2946	0.0223826
2958	0.024721
2970	0.0378332
2982	0.0381673
2994	0.0282287
3006	0.0388354
3018	0.0602158
3030	0.058963
3042	0.0978819
3054	0.118928
3066	0.073495
3078	0.0561234
3090	0.073495
3102	0.049275
3114	0.0180397
3126	0.0116089
3138	0.012444
3150	0.0093539
3162	0.00718246
3174	0.00626377
3186	0.00484399
3198	0.00367475
3210	0.00476047
3222	0.00334068
3234	0.00375826
3246	0.0034242
3258	0.00175386
3270	0.00225496
3282	0.00534509
3294	0.00450992
3306	0.00217144
3318	0.00267254
3330	0.00317365
3342	0.00242199
3354	0.00283958
3366	0.00250551
3378	0.00609674
3390	0.0130287
3402	0.0192089
3414	0.0131957
3426	0.00626377
3438	0.00526157
3450	0.00484399
3462	0.00317365
3474	0.00400882
3486	0.00250551
3498	0.00501102
3510	0.00517805
3522	0.0054286
3534	0.00250551
3546	0.00434288
3558	0.00450992
3570	0.00576267
3582	0.0049275
3594	0.00618026
3606	0.00584619
3618	0.00375826
3630	0.00425937
3642	0.00467695
3654	0.00267254
3666	0.00501102
3678	0.00158682
3690	0.00225496
3702	0.00208793
3714	0.00551212
3726	0.00467695
3738	0.00367475
3750	0.00584619
3762	0.00317365
3774	0.00601322
3786	0.00517805
3798	0.0044264
3810	0.00743301
3822	0.00292309
3834	0.00484399
3846	0.00684839
3858	0.00384178
3870	0.00601322
3882	0.00417585
3894	0.00350771
3906	0.00993852
3918	0.00659784
3930	0.00726598
3942	0.0108572
3954	0.00551212
3966	0.00726598
