Infrared Spectrum: 5H-Benzocycloheptene, 5-phenyl-6,7,8,9-tetrahydro-,
Formula: C 17 H 18
CAS: 35068-34-9
Origin: Sadtler Research Labs Under US-EPA Contract
1/CM	ABSORBANCE
450	0.0529918
462	0.0539021
474	0.0458048
486	0.0323892
498	0.000718695
510	0.0249627
522	0.0252502
534	0.0241961
546	0.0241002
558	0.0178715
570	0.00186861
582	0.013224
594	0.0240044
606	0.0236211
618	0.0218004
630	0.0149009
642	0.02755
654	0.0193569
666	0.0181111
678	0.0369409
690	0.0675573
702	0.148434
714	0.0620473
726	0.0498295
738	0.113218
750	0.234486
762	0.0814521
774	0.0524168
786	0.0245315
798	0.0183028
810	0.0244835
822	0.0169133
834	0.0174403
846	0.0149009
858	0.0200755
870	0.0160029
882	0.0163383
894	0.0180153
906	0.0187819
918	0.0254418
930	0.0260168
942	0.0244835
954	0.0249148
966	0.0248668
978	0.0198839
990	0.0127449
1002	0.0175841
1014	0.0241002
1026	0.0340661
1038	0.0384741
1050	0.0262563
1062	0.0286999
1074	0.0247231
1086	0.0213213
1098	0.0222316
1110	0.0165779
1122	0.0189735
1134	0.0169133
1146	0.0175841
1158	0.0183507
1170	0.0212255
1182	0.0257772
1194	0.0282208
1206	0.0281249
1218	0.0252022
1230	0.0237169
1242	0.0271188
1254	0.0283645
1266	0.0342099
1278	0.0336828
1290	0.0318142
1302	0.0281249
1314	0.025346
1326	0.0233336
1338	0.0232857
1350	0.028652
1362	0.0257772
1374	0.0180153
1386	0.0140864
1398	0.0128407
1410	0.0126011
1422	0.018734
1434	0.0276458
1446	0.0956343
1458	0.0907472
1470	0.0430738
1482	0.0584059
1494	0.104834
1506	0.0381867
1518	0.017632
1530	0.0128407
1542	0.0153322
1554	0.0122657
1566	0.0112596
1578	0.0200276
1590	0.0354077
1602	0.0585018
1614	0.0263042
1626	0.0109242
1638	0.0134636
1650	0.015428
1662	0.00929512
1674	0.0218962
1686	0.0364618
1698	0.0397199
1710	0.0270708
1722	0.0171529
1734	0.0162425
1746	0.0148051
1758	0.0134636
1770	0.0123136
1782	0.0111158
1794	0.0183507
1806	0.015428
1818	0.00977425
1830	0.0107325
1842	0.00685156
1854	0.00594121
1866	0.00943886
1878	0.0103013
1890	0.00881599
1902	0.0101576
1914	0.0109721
1926	0.0084806
1938	0.0153801
1950	0.0125053
1962	0.00704321
1974	0.00455174
1986	0.0036893
1998	0.00321017
2010	0.00311435
2022	0.00316226
2034	0.00321017
2046	0.00344974
2058	0.00277895
2070	0.00239565
2082	0.00215608
2094	0.00249148
2106	0.00234774
2118	0.00253939
2130	0.00239565
2142	0.00172487
2154	0.00215608
2166	0.00158113
2178	0.00206026
2190	0.00229982
2202	0.00244356
2214	0.00196443
2226	0.002204
2238	0.00201235
2250	0.00182069
2262	0.00234774
2274	0.00244356
2286	0.00206026
2298	0.00182069
2310	0.001102
2322	0.00167695
2334	0.00167695
2346	0.00412052
2358	0.00268313
2370	0.00172487
2382	0.000910347
2394	0.000910347
2406	0.00129365
2418	0.00143739
2430	0.00201235
2442	0.00158113
2454	0.000910347
2466	0.000383304
2478	0.000718695
2490	0.00105409
2502	0.00177278
2514	0.00225191
2526	0.00215608
2538	0.00172487
2550	0.00191652
2562	0.00167695
2574	0.00215608
2586	0.00268313
2598	0.00325808
2610	0.00301852
2622	0.0025873
2634	0.00249148
2646	0.00359348
2658	0.00493504
2670	0.00598912
2682	0.00742651
2694	0.00632452
2706	0.00570165
2718	0.004408
2730	0.0036893
2742	0.00445591
2754	0.004408
2766	0.00474339
2778	0.00488713
2790	0.00613286
2802	0.00780982
2814	0.0112596
2826	0.0131282
2838	0.015955
2850	0.0398157
2862	0.134396
2874	0.115279
2886	0.0716778
2898	0.0608974
2910	0.0902681
2922	0.216471
2934	0.47913
2946	0.317136
2958	0.104211
2970	0.0372763
2982	0.0208422
2994	0.017632
3006	0.0265438
3018	0.0760858
3030	0.118249
3042	0.0822187
3054	0.0789127
3066	0.159598
3078	0.139906
3090	0.0654492
3102	0.0354556
3114	0.0183507
3126	0.00977425
3138	0.00852851
3150	0.00924721
3162	0.00852851
3174	0.00565373
3186	0.00426426
3198	0.00388095
3210	0.00392887
3222	0.00402469
3234	0.00531834
3246	0.00459965
3258	0.00402469
3270	0.00354556
3282	0.00455174
3294	0.0047913
3306	0.00474339
3318	0.00455174
3330	0.00522252
3342	0.00503086
3354	0.00416843
3366	0.00455174
3378	0.00565373
3390	0.00498295
3402	0.00455174
3414	0.00522252
3426	0.00397678
3438	0.00306643
3450	0.00373721
3462	0.00344974
3474	0.00469547
3486	0.00301852
3498	0.00373721
3510	0.00244356
3522	0.00282687
3534	0.00325808
3546	0.00206026
3558	0.00162904
3570	0.00349765
3582	0.00373721
3594	0.00239565
3606	0.00287478
3618	0.00412052
3630	0.00594121
3642	0.00603704
3654	0.00603704
3666	0.00541417
3678	0.00450382
3690	0.00215608
3702	0.00570165
3714	0.00378513
3726	0.002204
3738	0.00253939
3750	0.00608495
3762	0.00335391
3774	0.00206026
3786	0.00383304
3798	0.00364139
3810	0.00598912
3822	0.00594121
3834	0.00483921
3846	0.00129365
3858	0.00397678
3870	0.00814521
3882	0.00531834
3894	0.0058933
3906	0.00527043
3918	0.00450382
3930	0.00560582
3942	0.00670782
3954	0.00776191
3966	0.0116908
