Infrared Spectrum: m-Toluidine, N-benzylidene-.alpha.,.alpha.,.alpha.-trifluoro-,
Formula: C 14 H 10 F 3 N
CAS: 351-18-8
Origin: Sadtler Research Labs Under US-EPA Contract
1/CM	ABSORBANCE
450	0.00325107
462	0.00913397
474	0.0198161
486	0.0083599
498	0.00510883
510	0.0125399
522	0.021519
534	0.0569712
546	0.0230671
558	0.00557327
570	0
582	0.00495402
594	0.00572808
606	0.00232219
618	0.00681177
630	0.014088
642	0.0304982
654	0.0549586
666	0.0493853
678	0.0908752
690	0.176951
702	0.204818
714	0.052172
726	0.0255441
738	0.0456698
750	0.120599
762	0.0741554
774	0.0270923
786	0.0826701
798	0.152646
810	0.0329752
822	0.00928878
834	0.00928878
846	0.0156361
858	0.0244605
870	0.0193516
882	0.0778709
894	0.248475
906	0.229123
918	0.154503
930	0.0340589
942	0.0154813
954	0.014088
966	0.0207449
978	0.0292597
990	0.0196613
1002	0.0291048
1014	0.0181131
1026	0.0452054
1038	0.0207449
1050	0.0322011
1062	0.135152
1074	0.226801
1086	0.121838
1098	0.129269
1110	0.0552682
1122	0.087779
1134	0.341208
1146	1.08926
1158	0.494008
1170	0.588135
1182	0.854568
1194	0.177416
1206	0.0792643
1218	0.112394
1230	0.156206
1242	0.0891723
1254	0.0653311
1266	0.0882434
1278	0.14088
1290	0.111001
1302	0.225098
1314	0.4053
1326	1.4828
1338	0.512276
1350	0.085302
1362	0.0606867
1374	0.0417995
1386	0.0247701
1398	0.0280212
1410	0.035607
1422	0.0726073
1434	0.167043
1446	0.156671
1458	0.135616
1470	0.0357618
1482	0.0727621
1494	0.0837538
1506	0.0422639
1518	0.0187324
1530	0.0171842
1542	0.0260086
1554	0.0213642
1566	0.0379292
1578	0.158683
1590	0.189027
1602	0.123541
1614	0.160851
1626	0.163173
1638	0.580084
1650	0.184073
1662	0.0818961
1674	0.047992
1686	0.0312722
1698	0.0309626
1710	0.0210546
1722	0.0182679
1734	0.0224479
1746	0.0154813
1758	0.0167198
1770	0.0151717
1782	0.0111465
1794	0.0151717
1806	0.0195064
1818	0.0131591
1830	0.0130043
1842	0.00774065
1854	0.00433476
1866	0.0108369
1878	0.0126947
1890	0.012385
1902	0.00959841
1914	0.00510883
1926	0.00665696
1938	0.014862
1950	0.0157909
1962	0.00820509
1974	0.00634733
1986	0.0012385
1998	0.00108369
2010	0.000464439
2022	0.0012385
2034	0.00108369
2046	0.00201257
2058	0.00263182
2070	0.00541845
2082	0.00882434
2094	0.00526364
2106	0.00232219
2118	0.000774065
2130	0.000619252
2142	0.000619252
2154	0.000309626
2166	0.000464439
2178	0.000464439
2190	0.000309626
2202	0.000774065
2214	0.0012385
2226	0.00154813
2238	0.00185776
2250	0.00201257
2262	0.00201257
2274	0.00278663
2286	0.00278663
2298	0.00232219
2310	0.00263182
2322	0.0035607
2334	0.00201257
2346	0.00325107
2358	0.00139332
2370	0.00216738
2382	0.00294145
2394	0.00154813
2406	0.000928878
2418	0.000619252
2430	0.000154813
2442	0.000928878
2454	0.00170294
2466	0.00232219
2478	0.00278663
2490	0.00247701
2502	0.00309626
2514	0.00216738
2526	0.00185776
2538	0.00170294
2550	0.00170294
2562	0.00139332
2574	0.0012385
2586	0.00232219
2598	0.00278663
2610	0.00185776
2622	0.00108369
2634	0.00154813
2646	0.00232219
2658	0.00216738
2670	0.00139332
2682	0.0012385
2694	0.00170294
2706	0.00154813
2718	0.00278663
2730	0.0035607
2742	0.00325107
2754	0.00278663
2766	0.00387033
2778	0.00417995
2790	0.00510883
2802	0.00588289
2814	0.00774065
2826	0.0100628
2838	0.011611
2850	0.0219834
2862	0.0374647
2874	0.0551134
2886	0.0495402
2898	0.0243056
2910	0.0143976
2922	0.0113013
2934	0.0100628
2946	0.00975322
2958	0.00913397
2970	0.0102177
2982	0.0102177
2994	0.0113013
3006	0.0176487
3018	0.026473
3030	0.0518624
3042	0.0648666
3054	0.0459795
3066	0.0749295
3078	0.135307
3090	0.0727621
3102	0.043038
3114	0.0235316
3126	0.00789546
3138	0.0047992
3150	0.00387033
3162	0.00526364
3174	0.00278663
3186	0.00232219
3198	0.00340589
3210	0.00294145
3222	0.00278663
3234	0.00309626
3246	0.00464439
3258	0.00557327
3270	0.00495402
3282	0.00154813
3294	0.00201257
3306	0.00170294
3318	0.00170294
3330	0.0012385
3342	0.0012385
3354	0.000774065
3366	0.00216738
3378	0.00108369
3390	0.00139332
3402	0.00185776
3414	0.00201257
3426	0.00201257
3438	0.0012385
3450	0.000928878
3462	0.0012385
3474	0.000774065
3486	0.00185776
3498	0.00216738
3510	0.00263182
3522	0.00185776
3534	0.00139332
3546	0.00170294
3558	0.00170294
3570	0.00139332
3582	0.00139332
3594	0.000464439
3606	0.00139332
3618	0.00139332
3630	0.00154813
3642	0.00139332
3654	0.00278663
3666	0.00201257
3678	0.00201257
3690	0.00216738
3702	0.00263182
3714	0.00201257
3726	0.00216738
3738	0.00139332
3750	0.00170294
3762	0.00216738
3774	0.00185776
3786	0.00154813
3798	0.00247701
3810	0.00154813
3822	0.00201257
3834	0.000464439
3846	0.00201257
3858	0.000774065
3870	0.00247701
3882	0.00139332
3894	0.00139332
3906	0.00247701
3918	0.00201257
3930	0.00185776
3942	0.00185776
3954	0.000774065
3966	0.0012385
