Infrared Spectrum: Acetanilide, 4'-fluoro-
Formula: C 8 H 8 F N O
CAS: 351-83-7
Origin: Sadtler Research Labs Under US-EPA Contract
1/CM	ABSORBANCE
450	0.0200314
462	0.0140885
474	0.0125093
486	0.0261406
498	0.0600112
510	0.0382758
522	0.0231068
534	0.0152937
546	0.00951701
558	0.00311692
570	0.00556891
582	0.00652476
594	0.00457149
606	0.0032416
618	0.00419746
630	0.00610917
642	0.00390655
654	0.00311692
666	0.00403122
678	0.00207795
690	0.00132989
702	0.00112209
714	0.00145456
726	0.00116365
738	0.00257666
750	0.00124677
762	0.00403122
774	0.0139638
786	0.0231068
798	0.0123846
810	0.015834
822	0.0332056
834	0.0504526
846	0.0379849
858	0.0190756
870	0.00839492
882	0.0048624
894	0.00436369
906	0.00448837
918	0.00311692
930	0.00340784
942	0.00357407
954	0.0034494
966	0.0059845
978	0.0108469
990	0.0180366
1002	0.0130911
1014	0.0125093
1026	0.00814556
1038	0.00781309
1050	0.00789621
1062	0.00847804
1074	0.00802089
1086	0.00947545
1098	0.0120106
1110	0.0112625
1122	0.00781309
1134	0.00544423
1146	0.00698191
1158	0.0211535
1170	0.00943389
1182	0.0108053
1194	0.022525
1206	0.065871
1218	0.173343
1230	0.211037
1242	0.062671
1254	0.0219432
1266	0.0204055
1278	0.0328732
1290	0.0426811
1302	0.0582657
1314	0.0469617
1326	0.0205717
1338	0.0136729
1350	0.0218185
1362	0.0347849
1374	0.0416837
1386	0.0337875
1398	0.0623801
1410	0.0524059
1422	0.0258497
1434	0.020447
1446	0.0195743
1458	0.0199899
1470	0.0307537
1482	0.0565202
1494	0.108677
1506	0.329438
1518	0.351714
1530	0.0825777
1542	0.0480422
1554	0.0293407
1566	0.0178704
1578	0.0121352
1590	0.0132158
1602	0.0187847
1614	0.0169561
1626	0.00806245
1638	0.0064832
1650	0.00270134
1662	0.00689879
1674	0.00677412
1686	0.0100573
1698	0.0233562
1710	0.0696529
1722	0.154849
1734	0.13702
1746	0.0696113
1758	0.0296316
1770	0.0128002
1782	0.00660788
1794	0.00349096
1806	0.00357407
1818	0.00270134
1830	0.00149612
1842	0.00261822
1854	0.00361563
1866	0.00290913
1878	0.00353251
1890	0.00236886
1902	0.00236886
1914	0.000997416
1926	0.000706503
1938	0.00120521
1950	0.000664944
1962	0.000374031
1974	0.000332472
1986	0.000623385
1998	0.000748062
2010	0.00128833
2022	0.00128833
2034	0.00132989
2046	0.00083118
2058	0.00120521
2070	0.00120521
2082	0.00116365
2094	0.000664944
2106	0.000623385
2118	0.000498708
2130	0.000623385
2142	0.000581826
2154	0.000914298
2166	0.000706503
2178	0.000540267
2190	0.000332472
2202	0.000581826
2214	0.000374031
2226	0.000623385
2238	0.000457149
2250	0.000914298
2262	0.00108053
2274	0.000789621
2286	0.00120521
2298	0.00191171
2310	0.00282601
2322	0.00257666
2334	0.00228575
2346	0.00270134
2358	0.00282601
2370	0.0025351
2382	0.00236886
2394	0.00141301
2406	0.00083118
2418	0.00041559
2430	0.000498708
2442	0.000997416
2454	0.00112209
2466	0.00116365
2478	0.00112209
2490	0.00083118
2502	0.00083118
2514	0.000623385
2526	0.000623385
2538	0.000374031
2550	0.00041559
2562	0.000374031
2574	0.000166236
2586	0.000374031
2598	0.000249354
2610	0.000249354
2622	0.000166236
2634	0.000581826
2646	0.000374031
2658	0.000457149
2670	0.000581826
2682	0.000706503
2694	0.000997416
2706	0.000997416
2718	0.00103897
2730	0.000872739
2742	0.000872739
2754	0.00103897
2766	0.00083118
2778	0.000498708
2790	0.000124677
2802	0.000374031
2814	0.000997416
2826	0.000914298
2838	0.00132989
2850	0.00174548
2862	0.0018286
2874	0.00178704
2886	0.00228575
2898	0.00261822
2910	0.00286757
2922	0.00390655
2934	0.00615073
2946	0.00685723
2958	0.00440525
2970	0.00378187
2982	0.00349096
2994	0.00369875
3006	0.00436369
3018	0.0050702
3030	0.00706503
3042	0.0117612
3054	0.00955857
3066	0.00548579
3078	0.00540267
3090	0.00527799
3102	0.00473773
3114	0.00349096
3126	0.00299225
3138	0.00207795
3150	0.00083118
3162	0.000872739
3174	0.00083118
3186	0.000914298
3198	0.000623385
3210	0.000540267
3222	0.000664944
3234	0.000664944
3246	0.00108053
3258	0.00083118
3270	0.000332472
3282	0.000748062
3294	0.00112209
3306	0.000332472
3318	0.00103897
3330	0.000623385
3342	0.000374031
3354	0.000457149
3366	0.00108053
3378	0.00103897
3390	0.00145456
3402	0.00245198
3414	0.00398966
3426	0.00536111
3438	0.00610917
3450	0.008104
3462	0.0116365
3474	0.00984948
3486	0.00498708
3498	0.00224419
3510	0.00132989
3522	0.00120521
3534	0.00174548
3546	0.00149612
3558	0.00145456
3570	0.00083118
3582	0.00120521
3594	0.000872739
3606	0.00124677
3618	0.000540267
3630	0.00124677
3642	0.00332472
3654	0.00249354
3666	0.000789621
3678	0.000748062
3690	0.000581826
3702	0.00124677
3714	0.00120521
3726	0.00166236
3738	0.00108053
3750	0.000290913
3762	0.000457149
3774	0.00124677
3786	0.00112209
3798	0.000374031
3810	0.00187016
3822	0.000124677
3834	0.00211951
3846	0.00124677
3858	0.000997416
3870	0.000623385
3882	0.000290913
3894	0.000789621
3906	0.00124677
3918	0.000872739
3930	0.00195327
3942	0.00203639
3954	0.00141301
3966	0.00199483
