Infrared Spectrum: Propiophenone, 5-bromo-4-tert-butyl-2-hydroxy-,
Formula: C 13 H 17 Br O 2
CAS: 35154-28-0
Origin: Sadtler Research Labs Under US-EPA Contract
1/CM	ABSORBANCE
450	0.0112038
462	0.0208071
474	0.0356121
486	0.00460156
498	0.00180061
510	0.00240082
522	0.00460156
534	0.0160054
546	0.0228078
558	0.00850289
570	0.0100034
582	0.0250085
594	0.0252086
606	0.0135046
618	0.0248084
630	0.044015
642	0.0817278
654	0.050117
666	0.0282096
678	0.0273093
690	0.0350119
702	0.0490167
714	0.0532181
726	0.0507172
738	0.0711242
750	0.08813
762	0.0861293
774	0.0785267
786	0.0627213
798	0.0386131
810	0.0421143
822	0.0344117
834	0.0165056
846	0.0114039
858	0.0112038
870	0.0252086
882	0.0778265
894	0.0439149
906	0.0195066
918	0.050117
930	0.0556189
942	0.0209071
954	0.0371126
966	0.120241
978	0.097233
990	0.0287098
1002	0.0502171
1014	0.126943
1026	0.0665226
1038	0.0227077
1050	0.0153052
1062	0.0239081
1074	0.0521177
1086	0.0726247
1098	0.0557189
1110	0.0762259
1122	0.079327
1134	0.0351119
1146	0.0336114
1158	0.0462157
1170	0.0756257
1182	0.122842
1194	0.259788
1206	0.536582
1218	0.296601
1230	0.239581
1242	0.200568
1254	0.225777
1266	0.355421
1278	0.140948
1290	0.134746
1302	0.141148
1314	0.253986
1326	0.415041
1338	0.424944
1350	0.371426
1362	0.363424
1374	0.311906
1386	0.195266
1398	0.108237
1410	0.085329
1422	0.073425
1434	0.0653222
1446	0.114539
1458	0.171858
1470	0.229478
1482	0.132145
1494	0.0871296
1506	0.064822
1518	0.0629214
1530	0.082428
1542	0.172959
1554	0.184563
1566	0.110137
1578	0.0800272
1590	0.0837285
1602	0.152452
1614	0.287498
1626	0.179561
1638	0.199768
1650	0.5885
1662	0.835084
1674	0.17506
1686	0.0611208
1698	0.0396135
1710	0.0282096
1722	0.0253086
1734	0.0216073
1746	0.0212072
1758	0.0262089
1770	0.0131045
1782	0.00770262
1794	0.00600204
1806	0.00420143
1818	0.00320109
1830	0.00320109
1842	0.00320109
1854	0.00300102
1866	0.00260088
1878	0.00180061
1890	0.00270092
1902	0.00280095
1914	0.00230078
1926	0.00240082
1938	0.00260088
1950	0.00290099
1962	0.00230078
1974	0.00120041
1986	0.00120041
1998	0.000900306
2010	0.000300102
2022	0.000400136
2034	0.000700238
2046	0.000400136
2058	0.00050017
2070	0.000800272
2082	0.000600204
2094	0.000600204
2106	0.000300102
2118	0.000200068
2130	0.000700238
2142	0.000400136
2154	0.000300102
2166	0.000900306
2178	0.00130044
2190	0.00130044
2202	0.00100034
2214	0.000800272
2226	0.000400136
2238	0.000200068
2250	0.000600204
2262	0.000900306
2274	0.00190065
2286	0.00350119
2298	0.00550187
2310	0.00660224
2322	0.00600204
2334	0.0050017
2346	0.00730248
2358	0.00630214
2370	0.0056019
2382	0.00610207
2394	0.00490167
2406	0.00480163
2418	0.00460156
2430	0.00450153
2442	0.00450153
2454	0.00550187
2466	0.00570194
2478	0.00630214
2490	0.00610207
2502	0.00640218
2514	0.00650221
2526	0.00700238
2538	0.00740252
2550	0.00830282
2562	0.00900306
2574	0.00930316
2586	0.0100034
2598	0.0103035
2610	0.0100034
2622	0.0100034
2634	0.00990337
2646	0.0111038
2658	0.0116039
2670	0.0124042
2682	0.0128044
2694	0.0129044
2706	0.014805
2718	0.0162055
2730	0.0210071
2742	0.020607
2754	0.0218074
2766	0.0214073
2778	0.0208071
2790	0.0219074
2802	0.0238081
2814	0.0259088
2826	0.0289098
2838	0.0304103
2850	0.0347118
2862	0.0468159
2874	0.0876298
2886	0.144449
2898	0.132445
2910	0.133845
2922	0.185263
2934	0.192966
2946	0.210672
2958	0.26499
2970	0.341816
2982	0.350719
2994	0.199268
3006	0.126343
3018	0.0980333
3030	0.0643219
3042	0.0603205
3054	0.0625213
3066	0.0659224
3078	0.0679231
3090	0.0709241
3102	0.070524
3114	0.0710241
3126	0.0701238
3138	0.0693236
3150	0.0708241
3162	0.0691235
3174	0.0663225
3186	0.0640218
3198	0.0614209
3210	0.0583198
3222	0.0581198
3234	0.0565192
3246	0.0550187
3258	0.0535182
3270	0.052918
3282	0.0481164
3294	0.0467159
3306	0.0467159
3318	0.0434148
3330	0.0396135
3342	0.0356121
3354	0.0328112
3366	0.0303103
3378	0.0277094
3390	0.0263089
3402	0.0244083
3414	0.0223076
3426	0.0198067
3438	0.0187064
3450	0.0161055
3462	0.0145049
3474	0.0131045
3486	0.0116039
3498	0.00990337
3510	0.00870296
3522	0.00800272
3534	0.00610207
3546	0.0053018
3558	0.00570194
3570	0.00510173
3582	0.00430146
3594	0.00330112
3606	0.00340116
3618	0.00210071
3630	0.00230078
3642	0.00300102
3654	0.00210071
3666	0.00310105
3678	0.00200068
3690	0.00180061
3702	0.00110037
3714	0.00210071
3726	0.000800272
3738	0.00190065
3750	0.00100034
3762	0.00190065
3774	0.00050017
3786	0.00200068
3798	0.000800272
3810	0.00050017
3822	0.000800272
3834	0.000900306
3846	0.00150051
3858	0.00100034
3870	0.000700238
3882	0.00140048
3894	0.00220075
3906	0.00290099
3918	0.00160054
3930	0.00110037
3942	0.000100034
3954	0.00310105
3966	0.00110037
