Infrared Spectrum: Propiophenone, 3-tert-butyl-4-methoxy-,
Formula: C 14 H 20 O 2
CAS: 35154-05-3
Origin: Sadtler Research Labs Under US-EPA Contract
1/CM	ABSORBANCE
450	0.0112793
462	0.0122718
474	0.0113695
486	0.00938434
498	0.0193101
510	0.0194003
522	0.0295968
534	0.0414174
546	0.0453877
558	0.0271604
570	0.0288749
582	0.0299577
594	0.0263483
606	0.029687
618	0.0508017
630	0.0458389
642	0.0172347
654	0.0123621
666	0.008482
678	0.00694802
690	0.0275214
702	0.043944
714	0.0285139
726	0.0228292
738	0.0148886
750	0.0120011
762	0.0146179
774	0.0175956
786	0.0322135
798	0.0994379
810	0.114778
822	0.0714653
834	0.0341085
846	0.0213855
858	0.045117
870	0.0341085
882	0.022378
894	0.0305893
906	0.0232804
918	0.03086
930	0.0365448
942	0.0512529
954	0.0857223
966	0.0969113
978	0.078684
990	0.0498994
1002	0.0657806
1014	0.164677
1026	0.27377
1038	0.232353
1050	0.0693899
1062	0.0541404
1074	0.0766989
1086	0.224231
1098	0.256265
1110	0.0693899
1122	0.0442147
1134	0.0585619
1146	0.150149
1158	0.140404
1170	0.186514
1182	0.345326
1194	0.326467
1206	0.642105
1218	0.854967
1230	0.47427
1242	0.634435
1254	0.734595
1266	0.496919
1278	0.306796
1290	0.193642
1302	0.141397
1314	0.153037
1326	0.151503
1338	0.155924
1350	0.191567
1362	0.186333
1374	0.127952
1386	0.140585
1398	0.175415
1410	0.122267
1422	0.0795864
1434	0.0835567
1446	0.169099
1458	0.216562
1470	0.290553
1482	0.252475
1494	0.329805
1506	0.162241
1518	0.0635247
1530	0.042049
1542	0.0364545
1554	0.0473729
1566	0.0895121
1578	0.149879
1590	0.28938
1602	0.389991
1614	0.108642
1626	0.0452072
1638	0.0327549
1650	0.0371764
1662	0.0555841
1674	0.0882489
1686	0.28523
1698	0.820498
1710	0.23136
1722	0.0677657
1734	0.0471021
1746	0.0291456
1758	0.0258069
1770	0.0134449
1782	0.01155
1794	0.00794059
1806	0.00640661
1818	0.00550427
1830	0.00433123
1842	0.00640661
1854	0.00839176
1866	0.00721872
1878	0.00532381
1890	0.00559451
1902	0.00812106
1914	0.00559451
1926	0.00279725
1938	0.00378983
1950	0.00541404
1962	0.00541404
1974	0.00487264
1986	0.00406053
1998	0.00234608
2010	0.00243632
2022	0.00360936
2034	0.00631638
2046	0.0101964
2058	0.0114597
2070	0.00766989
2082	0.00297772
2094	0.00180468
2106	0.00216562
2118	0.00288749
2130	0.00243632
2142	0.000812106
2154	0.00045117
2166	0.00180468
2178	0.00216562
2190	0.00225585
2202	0.00207538
2214	0.00171445
2226	0.00135351
2238	0.00045117
2250	9.0234e-05
2262	0.000812106
2274	0.00171445
2286	0.00279725
2298	0.00378983
2310	0.00369959
2322	0.00351913
2334	0.00270702
2346	0.0047824
2358	0.00469217
2370	0.00460193
2382	0.0047824
2394	0.00324842
2406	0.00288749
2418	0.00252655
2430	0.00270702
2442	0.00252655
2454	0.00315819
2466	0.00378983
2478	0.00487264
2490	0.00532381
2502	0.00649685
2514	0.00631638
2526	0.00658708
2538	0.00830153
2550	0.0092941
2562	0.00748942
2574	0.00748942
2586	0.00830153
2598	0.00785036
2610	0.00613591
2622	0.00487264
2634	0.0045117
2646	0.00514334
2658	0.00406053
2670	0.00415076
2682	0.00460193
2694	0.00532381
2706	0.00631638
2718	0.00947457
2730	0.00974527
2742	0.0104671
2754	0.0120011
2766	0.0102867
2778	0.0129035
2790	0.016964
2802	0.0215659
2814	0.0286944
2826	0.0401541
2838	0.0825641
2850	0.128132
2862	0.119199
2874	0.176047
2886	0.225495
2898	0.220712
2910	0.273229
2922	0.359492
2934	0.324481
2946	0.468405
2958	0.594642
2970	0.666468
2982	0.411648
2994	0.265378
3006	0.284327
3018	0.102686
3030	0.0569377
3042	0.0476436
3054	0.0475533
3066	0.0501701
3078	0.0498092
3090	0.043583
3102	0.0268897
3114	0.0242729
3126	0.0218366
3138	0.0147984
3150	0.0129035
3162	0.0113695
3174	0.0107378
3186	0.00911363
3198	0.00812106
3210	0.00595544
3222	0.00514334
3234	0.004241
3246	0.00297772
3258	0.00270702
3270	0.00351913
3282	0.00333866
3294	0.00306796
3306	0.00315819
3318	0.00270702
3330	0.00243632
3342	0.00243632
3354	0.00378983
3366	0.00821129
3378	0.0107378
3390	0.00676755
3402	0.00351913
3414	0.00207538
3426	0.00171445
3438	0.00135351
3450	0.00216562
3462	0.00153398
3474	0.00234608
3486	0.00261679
3498	0.00045117
3510	0.00189491
3522	0.00144374
3534	0.000992574
3546	0.00045117
3558	0.000992574
3570	0.00090234
3582	0.00315819
3594	0.00270702
3606	0.00135351
3618	0.000721872
3630	0.00108281
3642	0.00162421
3654	0.000541404
3666	0.00126328
3678	0.00117304
3690	0.000992574
3702	0.00108281
3714	0.00144374
3726	0.00090234
3738	0.00108281
3750	9.0234e-05
3762	0.00252655
3774	9.0234e-05
3786	0.000360936
3798	0.000180468
3810	0.000992574
3822	0.00045117
3834	0.000631638
3846	0.00180468
3858	0.000812106
3870	0.00207538
3882	0.000812106
3894	0.00171445
3906	0.000992574
3918	0.00108281
3930	0.00162421
3942	0.00108281
3954	0.00198515
3966	0.00198515
