Infrared Spectrum: Benzene, 1-methoxy-4-(methylsulfonyl)-
Formula: C 8 H 10 O 3 S
CAS: 3517-90-6
Origin: Sadtler Research Labs Under US-EPA Contract
1/CM	ABSORBANCE
450	0.00256032
462	0.0118305
474	0.0239258
486	0.0364625
498	0.0326662
510	0.0500587
522	0.177633
534	0.235815
546	0.147174
558	0.0505885
570	0.022778
582	0.0158034
594	0.0067981
606	0.00697467
618	0.0104179
630	0.0160682
642	0.00794583
654	0.00220718
666	0.00300176
678	0.00132431
690	0.00927014
702	0.0167745
714	0.0248086
726	0.0230429
738	0.0766331
750	0.163684
762	0.124132
774	0.0309887
786	0.0271041
798	0.0926131
810	0.0576514
822	0.0603883
834	0.0862564
846	0.050147
858	0.0154502
870	0.0106827
882	0.0135079
894	0.0125368
906	0.00847555
918	0.0106827
930	0.0140376
942	0.0512947
954	0.185932
966	0.0614478
978	0.0130665
990	0.00979986
1002	0.0195997
1014	0.0329311
1026	0.0686873
1038	0.0853735
1050	0.0431723
1062	0.0242789
1074	0.0357562
1086	0.0923482
1098	0.125986
1110	0.0522659
1122	0.0333725
1134	0.0548262
1146	0.240582
1158	0.88287
1170	0.383784
1182	0.077516
1194	0.0360211
1206	0.0248086
1218	0.031695
1230	0.0539434
1242	0.150264
1254	0.373719
1266	0.237404
1278	0.114773
1290	0.134549
1302	0.182224
1314	0.13914
1326	0.143731
1338	0.290553
1350	0.395349
1362	0.142584
1374	0.0321365
1386	0.0214537
1398	0.0231312
1410	0.0332842
1422	0.0286933
1434	0.0225132
1446	0.0481164
1458	0.048293
1470	0.067363
1482	0.078752
1494	0.181695
1506	0.171542
1518	0.0247204
1530	0.00874041
1542	0.0159799
1554	0.0308122
1566	0.0595937
1578	0.116539
1590	0.200411
1602	0.248351
1614	0.0594172
1626	0.019688
1638	0.0146556
1650	0.0130665
1662	0.00944671
1674	0.0102413
1686	0.00988814
1698	0.00874041
1710	0.00847555
1722	0.00829898
1734	0.00944671
1746	0.00785754
1758	0.0067981
1770	0.00935842
1782	0.00494407
1794	0.00326662
1806	0.0040612
1818	0.00326662
1830	0.000706296
1842	0.0020306
1854	0.00132431
1866	0.00388463
1878	0.00644495
1890	0.00821069
1902	0.00794583
1914	0.00794583
1926	0.00370805
1938	0.00450264
1950	0.00309005
1962	0.00211889
1974	0.00132431
1986	0.00176574
1998	0.00176574
2010	0.000706296
2022	0.00353148
2034	0.00397292
2046	0.0067981
2058	0.0105062
2070	0.00794583
2082	0.00459092
2094	0.0027369
2106	0.00291347
2118	0.00158917
2130	0.00132431
2142	0.000264861
2154	0
2166	0.000176574
2178	8.8287e-05
2190	0.000971157
2202	0.00105944
2214	0.000529722
2226	0.000529722
2238	0.00167745
2250	0.0027369
2262	0.00326662
2274	0.00397292
2286	0.00309005
2298	0.00353148
2310	0.00264861
2322	0.00158917
2334	0.00229546
2346	0.00264861
2358	0.00211889
2370	0.00326662
2382	0.00300176
2394	0.00264861
2406	0.00264861
2418	0.00326662
2430	0.00264861
2442	0.00185403
2454	0.00220718
2466	0.00185403
2478	0.00194231
2490	0.00344319
2502	0.0040612
2514	0.00335491
2526	0.00282518
2538	0.00423778
2550	0.00697467
2562	0.00723953
2574	0.00494407
2586	0.00388463
2598	0.00414949
2610	0.00388463
2622	0.0027369
2634	0.00211889
2646	0.00167745
2658	0.00167745
2670	0.00185403
2682	0.0020306
2694	0.00238375
2706	0.00114773
2718	0.00194231
2730	0.00229546
2742	0.00291347
2754	0.00300176
2766	0.00300176
2778	0.0027369
2790	0.00353148
2802	0.00379634
2814	0.00573866
2826	0.00838726
2838	0.0173925
2850	0.038758
2862	0.0208357
2874	0.0119187
2886	0.0111242
2898	0.0144791
2910	0.0248969
2922	0.028605
2934	0.0301059
2946	0.0494407
2958	0.0558857
2970	0.0427309
2982	0.0256915
2994	0.0182754
3006	0.0293996
3018	0.052001
3030	0.0217186
3042	0.0109476
3054	0.00829898
3066	0.00988814
3078	0.0201294
3090	0.0164214
3102	0.0112124
3114	0.00618009
3126	0.00432606
3138	0.00414949
3150	0.00388463
3162	0.00388463
3174	0.00335491
3186	0.00211889
3198	0.0020306
3210	0.00220718
3222	0.00247204
3234	0.00185403
3246	0.00167745
3258	0.00238375
3270	0.00256032
3282	0.000794583
3294	0.00123602
3306	0.00185403
3318	0.00185403
3330	0.00300176
3342	0.00282518
3354	0.00247204
3366	0.00229546
3378	0.00158917
3390	0.00238375
3402	0.00229546
3414	0.00282518
3426	0.00211889
3438	0.00317833
3450	0.00220718
3462	0.00176574
3474	0.00185403
3486	0.00432606
3498	0.00185403
3510	0.00335491
3522	0.00309005
3534	0.00176574
3546	0.00397292
3558	0.00309005
3570	0.00211889
3582	0.0027369
3594	0.0020306
3606	0.00379634
3618	0.00247204
3630	0.00220718
3642	0.00344319
3654	0.00397292
3666	0.00317833
3678	0.00247204
3690	0.00459092
3702	0.00220718
3714	0.00309005
3726	0.00467921
3738	0.00397292
3750	0.00397292
3762	0.00247204
3774	0.00185403
3786	0.00432606
3798	0.00353148
3810	0.00335491
3822	0.00158917
3834	0.00459092
3846	0.00309005
3858	0.0047675
3870	0.00459092
3882	0.00414949
3894	0.0075044
3906	0.00176574
3918	0.00520893
3930	0.00123602
3942	0.00723953
3954	0.000971157
3966	0.00759268
