Infrared Spectrum: 1-Nonen-4-ol
Formula: C 9 H 18 O
CAS: 35192-73-5
Origin: Sadtler Research Labs Under US-EPA Contract
1/CM	ABSORBANCE
450	0.0151818
462	0.00859347
474	0.0089754
486	0.0095483
498	0.00868895
510	0.0106941
522	0.0102167
534	0.0084025
546	0.00658833
558	0.00420125
570	0.00181418
582	0.000668381
594	0.00210063
606	0.00706574
618	0.0116489
630	0.0182373
642	0.0244436
654	0.0165186
666	0.00639736
678	0.0056335
690	0.0044877
702	0.00697026
714	0.00802057
726	0.0135586
738	0.0120309
750	0.00248256
762	0.00639736
774	0.00582446
786	0.00286449
798	0.00267352
810	0.00668381
822	0.0128902
834	0.016996
846	0.0270217
858	0.0382887
870	0.03953
882	0.0345648
894	0.0403893
906	0.0889902
918	0.214837
930	0.138355
942	0.0753361
954	0.0573853
966	0.0534705
978	0.0679839
990	0.132912
1002	0.157738
1014	0.132626
1026	0.155637
1038	0.158884
1050	0.129952
1062	0.111715
1074	0.102453
1086	0.0906134
1098	0.0733309
1110	0.0708484
1122	0.0810651
1134	0.0770548
1146	0.0548072
1158	0.0372384
1170	0.036761
1182	0.0474551
1194	0.0583401
1206	0.0642601
1218	0.0653104
1230	0.0684613
1242	0.0719942
1254	0.0758135
1266	0.0751451
1278	0.0694161
1290	0.0632097
1302	0.0568124
1314	0.047646
1326	0.0440177
1338	0.053375
1350	0.0728535
1362	0.0845025
1374	0.0955785
1386	0.11458
1398	0.0913772
1410	0.0635917
1422	0.056335
1434	0.0742858
1446	0.0972972
1458	0.0963423
1470	0.0900405
1482	0.0422035
1494	0.0170915
1506	0.0119354
1518	0.00802057
1530	0.00677929
1542	0.00591995
1554	0.00525156
1566	0.00439222
1578	0.00477415
1590	0.00477415
1602	0.00582446
1614	0.00907088
1626	0.0183327
1638	0.06722
1650	0.0591995
1662	0.0120309
1674	0.00553801
1686	0.00401029
1698	0.00372384
1710	0.00210063
1722	0.000763864
1734	0.00190966
1746	0.00143224
1758	0.00200514
1770	0.00238707
1782	0.00276901
1794	0.00305546
1806	0.00324642
1818	0.00534705
1830	0.0137496
1842	0.0186192
1854	0.0121263
1866	0.0044877
1878	0.00267352
1890	0.00286449
1902	0.00229159
1914	0.00229159
1926	0.00200514
1938	0.00171869
1950	0.00181418
1962	0.00210063
1974	0.00257804
1986	0.00324642
1998	0.00267352
2010	0.00190966
2022	0.00181418
2034	0.00229159
2046	0.00190966
2058	0.00181418
2070	0.00133676
2082	0.00162321
2094	0.00143224
2106	0.0011458
2118	0.00105031
2130	0.0011458
2142	0.00095483
2154	0.000763864
2166	0.000668381
2178	0.00105031
2190	0.000572898
2202	0.000859347
2214	0.000668381
2226	0.000381932
2238	0.000286449
2250	0.000190966
2262	0.000763864
2274	0.0011458
2286	0.00210063
2298	0.00286449
2310	0.00381932
2322	0.00496512
2334	0.00324642
2346	0.00124128
2358	0.00343739
2370	9.5483e-05
2382	0.00133676
2394	0.00162321
2406	0.00181418
2418	0.00210063
2430	0.00238707
2442	0.00190966
2454	0.00143224
2466	0.00152773
2478	0.00219611
2490	0.00210063
2502	0.00190966
2514	0.00219611
2526	0.00267352
2538	0.00315094
2550	0.00353287
2562	0.00410577
2574	0.00486963
2586	0.0056335
2598	0.00572898
2610	0.00658833
2622	0.00735219
2634	0.00802057
2646	0.00926185
2658	0.0105031
2670	0.0126038
2682	0.013845
2694	0.0137496
2706	0.0132721
2718	0.0126038
2730	0.0137496
2742	0.0165186
2754	0.0169005
2766	0.0171869
2778	0.019574
2790	0.0233933
2802	0.0284539
2814	0.0366655
2826	0.0532795
2838	0.087176
2850	0.171392
2862	0.334095
2874	0.405803
2886	0.360639
2898	0.287881
2910	0.403511
2922	0.639736
2934	0.918928
2946	0.81552
2958	0.512075
2970	0.584547
2982	0.293706
2994	0.145612
3006	0.100448
3018	0.0772457
3030	0.0469776
3042	0.0333236
3054	0.0316049
3066	0.0424899
3078	0.0793464
3090	0.130621
3102	0.0366655
3114	0.0139405
3126	0.0100257
3138	0.00849799
3150	0.00735219
3162	0.00668381
3174	0.00553801
3186	0.00477415
3198	0.0039148
3210	0.00267352
3222	0.00181418
3234	0.00105031
3246	0.00124128
3258	0.000763864
3270	0.000477415
3282	0.00095483
3294	0.00143224
3306	0.000763864
3318	0.00152773
3330	0.00105031
3342	0.00124128
3354	0.0011458
3366	0.00190966
3378	0.00124128
3390	0.00143224
3402	0.00181418
3414	0.00181418
3426	0.00219611
3438	0.00219611
3450	0.00229159
3462	0.000286449
3474	0.00105031
3486	0.000286449
3498	0.00105031
3510	0.000381932
3522	0.000763864
3534	0.000477415
3546	0.00219611
3558	0.00143224
3570	0.00200514
3582	0.00401029
3594	0.00716122
3606	0.0186192
3618	0.0494602
3630	0.0417261
3642	0.0386706
3654	0.0495557
3666	0.0323687
3678	0.0100257
3690	0.00372384
3702	0.00210063
3714	0.00152773
3726	0.00095483
3738	0.00181418
3750	0
3762	9.5483e-05
3774	0.000763864
3786	9.5483e-05
3798	0.00162321
3810	0.00143224
3822	0.00095483
3834	0.00171869
3846	0.00133676
3858	0.000190966
3870	0.000763864
3882	0.00143224
3894	0.00133676
3906	0.00124128
3918	0.000668381
3930	0.000286449
3942	0.000572898
3954	9.5483e-05
3966	0.000477415
