Infrared Spectrum: Benzene, 1-fluoro-3-methyl-
Formula: C 7 H 7 F
CAS: 352-70-5
Origin: Sadtler Research Labs Under US-EPA Contract
1/CM	ABSORBANCE
450	0.0365668
462	0.0196316
474	0.00728497
486	0.00685923
498	0.00586582
510	0.0122993
522	0.0600774
534	0.0469739
546	0.00827838
558	0.0037371
570	0.000804185
582	0.00245986
594	0.00241256
606	4.7305e-05
618	0.00260178
630	0.0028383
642	0.00392632
654	0.00633887
666	0.0523193
678	0.10847
690	0.0834933
702	0.0354788
714	0.0177394
726	0.0515625
738	0.0571444
750	0.032877
762	0.149862
774	0.387381
786	0.201614
798	0.0578067
810	0.0075215
822	0.0075688
834	0.0137658
846	0.0449871
858	0.125879
870	0.0685449
882	0.0574756
894	0.0325931
906	0.0394524
918	0.1606
930	0.197924
942	0.0651863
954	0.0148065
966	0.0168406
978	0.0265381
990	0.0421488
1002	0.0472104
1014	0.0259231
1026	0.00723766
1038	0.0095083
1050	0.0173609
1062	0.0197735
1074	0.0268692
1086	0.0245986
1098	0.011164
1110	0.0141915
1122	0.0287141
1134	0.183685
1146	0.282695
1158	0.127582
1170	0.0118262
1182	0.00539277
1194	0.00298022
1206	0.0103598
1218	0.0151376
1230	0.0360464
1242	0.120013
1254	0.24433
1266	0.47305
1278	0.402187
1290	0.0708629
1302	0.012867
1314	0.00785263
1326	0.00799455
1338	0.0107855
1350	0.00780533
1362	0.011164
1374	0.0140023
1386	0.0197262
1398	0.0267273
1410	0.0367087
1422	0.0605031
1434	0.105396
1446	0.172096
1458	0.177678
1470	0.115046
1482	0.2589
1494	0.343576
1506	0.23099
1518	0.137705
1530	0.118594
1542	0.085764
1554	0.0687815
1566	0.0977794
1578	0.211832
1590	0.356017
1602	0.365668
1614	0.406161
1626	0.296744
1638	0.0927178
1650	0.0196316
1662	0.0165568
1674	0.0162729
1686	0.00889334
1698	0.00832568
1710	0.00846759
1722	0.01334
1734	0.0230375
1746	0.0196789
1758	0.0075215
1770	0.00496702
1782	0.00350057
1794	0.00340596
1806	0.00307483
1818	0.00510894
1830	0.00690653
1842	0.011164
1854	0.00969753
1866	0.00676461
1878	0.00477781
1890	0.0018449
1902	0.00274369
1914	0.0107382
1926	0.0133873
1938	0.00927178
1950	0.00108802
1962	0.000520355
1974	0.000898795
1986	0.0018449
1998	0.00316943
2010	0.00316943
2022	0.00146645
2034	0.00160837
2046	0.00392632
2058	0.00359518
2070	0.00298022
2082	0.00264908
2094	0.00137185
2106	0.00165568
2118	0.00175029
2130	0.00108802
2142	0.00127724
2154	0.00127724
2166	0.00137185
2178	0.00208142
2190	0.00364248
2202	0.00326405
2214	0.00104071
2226	0.000898795
2238	0.00056766
2250	0.00037844
2262	0.000331135
2274	0.00127724
2286	0.00302752
2298	0.00501433
2310	0.00837299
2322	0.00719036
2334	0.0028383
2346	0.00198681
2358	0.0018449
2370	0.00137185
2382	0.0047305
2394	0.00392632
2406	0.00638618
2418	0.00733228
2430	0.00449397
2442	0.00335866
2454	0.00203411
2466	0.00137185
2478	0.00108802
2490	0.00108802
2502	0.00160837
2514	0.00288561
2526	0.0037844
2538	0.0037371
2550	0.00245986
2562	0.00227064
2574	0.00241256
2586	0.00227064
2598	0.00236525
2610	0.00160837
2622	0.00146645
2634	0.00146645
2646	0.00141915
2658	0.00141915
2670	0.000898795
2682	0.000993405
2694	0.00141915
2706	0.00193951
2718	0.00260178
2730	0.00454128
2742	0.00808916
2754	0.00908256
2766	0.00402092
2778	0.00260178
2790	0.002791
2802	0.00326405
2814	0.00454128
2826	0.0065754
2838	0.0106436
2850	0.0175975
2862	0.0333973
2874	0.0607396
2886	0.061733
2898	0.0485822
2910	0.0588947
2922	0.102037
2934	0.141347
2946	0.123371
2958	0.0732754
2970	0.0508056
2982	0.044514
2994	0.0491499
3006	0.0569079
3018	0.0611181
3030	0.0871358
3042	0.126635
3054	0.129426
3066	0.110883
3078	0.0900214
3090	0.0744581
3102	0.0407769
3114	0.0210034
3126	0.0128197
3138	0.00491972
3150	0.00212873
3162	0.00113532
3174	0.000141915
3186	0.00037844
3198	0
3210	4.7305e-05
3222	0.000141915
3234	0.00056766
3246	0.00056766
3258	0.000993405
3270	0.0009461
3282	0.00179759
3294	0.00156107
3306	0.00118263
3318	0.00127724
3330	0.00156107
3342	0.00108802
3354	0.0009461
3366	0.00165568
3378	0.00118263
3390	0.00151376
3402	0.00113532
3414	0.00108802
3426	0.00132454
3438	0.000709575
3450	0.00132454
3462	0.00118263
3474	0.00127724
3486	0.000993405
3498	0.00165568
3510	0.00208142
3522	0.0009461
3534	0.00118263
3546	0.00198681
3558	0.00160837
3570	0.00260178
3582	0.0018449
3594	0.0018922
3606	0.00160837
3618	0.00113532
3630	0.00066227
3642	0.00146645
3654	0.00146645
3666	0.000614965
3678	0.000614965
3690	0.00028383
3702	0.000520355
3714	0.00066227
3726	0.00113532
3738	0.00141915
3750	0.00137185
3762	0.0028383
3774	0.00316943
3786	0.00250717
3798	0.00212873
3810	0.00203411
3822	0.00175029
3834	0.00118263
3846	0.00137185
3858	0.00217603
3870	0.00288561
3882	0.00198681
3894	0.00260178
3906	0.00260178
3918	0.00212873
3930	0.00255447
3942	0.00203411
3954	0.00364248
3966	0.00227064
