Infrared Spectrum: Benzene, 1-(chloromethyl)-4-fluoro-
Formula: C 7 H 6 Cl F
CAS: 352-11-4
Origin: Sadtler Research Labs Under US-EPA Contract
1/CM	ABSORBANCE
450	0.00648137
462	0.0207276
474	0.0390166
486	0.0121285
498	0.0134761
510	0.0358721
522	0.05968
534	0.0236795
546	0.00192516
558	0.00295191
570	0.00571131
582	0.00628886
594	0.0068664
606	0.00429952
618	0.00635303
630	0.00725144
642	0.0107809
654	0.0272731
666	0.056728
678	0.10582
690	0.0591666
702	0.0232944
714	0.0295191
726	0.0723218
738	0.120515
750	0.0584607
762	0.034332
774	0.0232303
786	0.0186741
798	0.0227169
810	0.0540328
822	0.108066
834	0.136558
846	0.1655
858	0.0804075
870	0.0133478
882	0.0121927
894	0.00994666
906	0.0068664
918	0.00648137
930	0.00583965
942	0.00288774
954	0.00166847
966	0.00186099
978	0.00147596
990	0.00154013
1002	0.00282357
1014	0.0169414
1026	0.00712309
1038	0.00224602
1050	0.00372198
1062	0.00385032
1074	0.00956163
1086	0.0203425
1098	0.0243854
1110	0.0144387
1122	0.00609634
1134	0.0052621
1146	0.0127061
1158	0.104279
1170	0.0385674
1182	0.00981832
1194	0.00943328
1206	0.017519
1218	0.0590382
1230	0.245843
1242	0.64172
1254	0.151831
1266	0.094782
1278	0.0766214
1290	0.0424177
1302	0.0243212
1314	0.0187382
1326	0.0148237
1338	0.00943328
1350	0.00808567
1362	0.00571131
1374	0.00314443
1386	0.00417118
1398	0.00648137
1410	0.0112943
1422	0.0109734
1434	0.010075
1446	0.0190591
1458	0.0189307
1470	0.0135403
1482	0.0103317
1494	0.0300325
1506	0.238848
1518	0.464413
1530	0.0933061
1542	0.00975414
1554	0.00667389
1566	0.0105884
1578	0.0241287
1590	0.0440862
1602	0.0933061
1614	0.150804
1626	0.0631452
1638	0.0204709
1650	0.0084707
1662	0.00628886
1674	0.00147596
1686	0.000577548
1698	0.00032086
1710	0.00513376
1722	0.00635303
1734	0.00308026
1746	0.00545462
1758	0.0148879
1770	0.00968997
1782	0.00340112
1794	0.000705892
1806	0.00198933
1818	0.00263105
1830	0.00096258
1842	0.00166847
1854	0.00391449
1866	0.00609634
1878	0.0120643
1890	0.0126419
1902	0.0084707
1914	0.00449204
1926	0.00308026
1938	0.00218185
1950	0.00250271
1962	0.00243854
1974	0.00237436
1986	0.00346529
1998	0.00455621
2010	0.00449204
2022	0.00269522
2034	0.00237436
2046	0.00179682
2058	0.00237436
2070	0.00269522
2082	0.00423535
2094	0.00474873
2106	0.00192516
2118	0.00134761
2130	0.00166847
2142	0.00166847
2154	0.00147596
2166	0.00102675
2178	0.0016043
2190	0.00109092
2202	0.00109092
2214	0.00121927
2226	0.00102675
2238	0.00147596
2250	0.00250271
2262	0.00301608
2274	0.00263105
2286	0.0020535
2298	0.00064172
2310	6.4172e-05
2322	0.000834236
2334	0.00096258
2346	0.00154013
2358	0.000705892
2370	0.00166847
2382	0.00173264
2394	0.00256688
2406	0.00359363
2418	0.00198933
2430	0.00147596
2442	0.00263105
2454	0.0036578
2466	0.00519793
2478	0.005968
2490	0.00378615
2502	0.00121927
2514	0.00128344
2526	0.00173264
2538	0.00186099
2550	0.00186099
2562	0.00237436
2574	0.00378615
2586	0.0032086
2598	0.00237436
2610	0.00256688
2622	0.00250271
2634	0.00243854
2646	0.00224602
2658	0.00237436
2670	0.00308026
2682	0.00147596
2694	0.0016043
2706	0.00250271
2718	0.00308026
2730	0.00308026
2742	0.00198933
2754	0.00243854
2766	0.00179682
2778	0.0016043
2790	0.00173264
2802	0.00243854
2814	0.0027594
2826	0.00263105
2838	0.00231019
2850	0.0027594
2862	0.00449204
2874	0.00718726
2886	0.00885574
2898	0.00616051
2910	0.00410701
2922	0.00359363
2934	0.00571131
2946	0.0112943
2958	0.022011
2970	0.0333053
2982	0.0257971
2994	0.0162997
3006	0.0188666
3018	0.0184174
3030	0.0129627
3042	0.0227811
3054	0.0368347
3066	0.0203425
3078	0.0168772
3090	0.014567
3102	0.00603217
3114	0.00558296
3126	0.00609634
3138	0.00513376
3150	0.00333694
3162	0.00218185
3174	0.00147596
3186	0.00218185
3198	0.0020535
3210	0.00218185
3222	0.00218185
3234	0.00192516
3246	0.00109092
3258	0.00141178
3270	0.00096258
3282	0.00134761
3294	0.00166847
3306	0.00166847
3318	0.00141178
3330	0.00141178
3342	0.00192516
3354	0.00096258
3366	0.000834236
3378	6.4172e-05
3390	0.00198933
3402	0.000385032
3414	0.00128344
3426	0.00224602
3438	0.00032086
3450	0.0016043
3462	0.00128344
3474	0.00192516
3486	0.00147596
3498	0.00198933
3510	0.00186099
3522	0.00237436
3534	0.00231019
3546	0.00141178
3558	0.0020535
3570	0.00186099
3582	0.00269522
3594	0.00295191
3606	0.00250271
3618	0.00224602
3630	0.00256688
3642	0.00340112
3654	0.00198933
3666	0.00295191
3678	0.00314443
3690	0.00256688
3702	0.0020535
3714	0.00282357
3726	0.0032086
3738	0.00288774
3750	0.00250271
3762	0.00301608
3774	0.00295191
3786	0.00301608
3798	0.00250271
3810	0.00269522
3822	0.00243854
3834	0.00269522
3846	0.00231019
3858	0.00198933
3870	0.00288774
3882	0.00263105
3894	0.00218185
3906	0.00256688
3918	0.00372198
3930	0.00295191
3942	0.0016043
3954	0.00134761
3966	0.00237436
