Infrared Spectrum: Benzene, 1-chloro-4-fluoro-
Formula: C 6 H 4 Cl F
CAS: 352-33-0
Origin: Sadtler Research Labs Under US-EPA Contract
1/CM	ABSORBANCE
450	0.00104122
462	0.00850326
474	0.0241215
486	0.0543168
498	0.0657701
510	0.0408677
522	0.0156182
534	0.00876357
546	0.00520608
558	0.00754882
570	0.00572669
582	0.00321042
594	0.0100651
606	0.00772235
618	0.029154
630	0.253015
642	0.206074
654	0.00043384
666	0.0109328
678	0.0162256
690	0.019089
702	0.00850326
714	0.00529285
726	0.0118004
738	0.0262907
750	0.0476356
762	0.0202169
774	0.00685467
786	0.0089371
798	0.0193493
810	0.098742
822	0.205206
834	0.201041
846	0.110195
858	0.0200434
870	0.0104989
882	0.00754882
894	0.00919741
906	0.00720174
918	0.00416486
930	0.00850326
942	0.00590022
954	0.00850326
966	0.00633406
978	0.00581346
990	0.00876357
1002	0.0247289
1014	0.048243
1026	0.0249892
1038	0.0089371
1050	0.00824296
1062	0.0163992
1074	0.0322777
1086	0.219957
1098	0.307332
1110	0.0146638
1122	0.0136226
1134	0.0116269
1146	0.0354881
1158	0.0524079
1170	0.00876357
1182	0.0084165
1194	0.0121475
1206	0.0268981
1218	0.0500651
1230	0.362083
1242	0.595055
1254	0.0511064
1266	0.0364426
1278	0.0324512
1290	0.0137093
1302	0.0104989
1314	0.00720174
1326	0.00772235
1338	0.0065076
1350	0.00789589
1362	0.00754882
1374	0.00702821
1386	0.00694144
1398	0.00989155
1410	0.0114534
1422	0.0260304
1434	0.0236877
1446	0.0133623
1458	0.0203905
1470	0.0441649
1482	0.291454
1494	0.843992
1506	0.253276
1518	0.0668981
1530	0.0417354
1542	0.0104989
1554	0.00989155
1566	0.0105857
1578	0.0192625
1590	0.0712365
1602	0.0973537
1614	0.0264642
1626	0.0199566
1638	0.0193493
1650	0.00928418
1662	0.00563992
1674	0.00503254
1686	0.00468547
1698	0.00485901
1710	0.00503254
1722	0.0086768
1734	0.0102386
1746	0.0131887
1758	0.00850326
1770	0.00416486
1782	0.00529285
1794	0.00511931
1806	0.00416486
1818	0.00425163
1830	0.00485901
1842	0.00520608
1854	0.00937094
1866	0.0203905
1878	0.0216052
1890	0.011974
1902	0.00590022
1914	0.00503254
1926	0.00390456
1938	0.0043384
1950	0.00381779
1962	0.00425163
1974	0.00373102
1986	0.00321042
1998	0.00286334
2010	0.00268981
2022	0.00364426
2034	0.00416486
2046	0.00633406
2058	0.00702821
2070	0.00468547
2082	0.00451194
2094	0.00251627
2106	0.00234274
2118	0.0024295
2130	0.00251627
2142	0.0024295
2154	0.00234274
2166	0.00295011
2178	0.00286334
2190	0.00277658
2202	0.00286334
2214	0.00277658
2226	0.00312365
2238	0.00425163
2250	0.00425163
2262	0.00347072
2274	0.00234274
2286	0.0021692
2298	0.00303688
2310	0.00355749
2322	0.00121475
2334	8.6768e-05
2346	0.000520608
2358	8.6768e-05
2370	0.000173536
2382	0.00277658
2394	0.00381779
2406	0.00295011
2418	0.00399133
2430	0.00338395
2442	0.00286334
2454	0.00381779
2466	0.00529285
2478	0.00503254
2490	0.00164859
2502	0.00260304
2514	0.00164859
2526	0.00164859
2538	0.00182213
2550	0.00295011
2562	0.00312365
2574	0.00147506
2586	0.00182213
2598	0.00147506
2610	0.00147506
2622	0.00147506
2634	0.00138829
2646	0.00147506
2658	0.00156182
2670	0.00086768
2682	0.00138829
2694	0.00130152
2706	0.00130152
2718	0.00121475
2730	0.00130152
2742	0.00104122
2754	0.00121475
2766	0.00121475
2778	0.00112798
2790	0.00121475
2802	0.00086768
2814	0.000954448
2826	0.00130152
2838	0.00173536
2850	0.0040781
2862	0.00321042
2874	0.00130152
2886	0.00138829
2898	0.00147506
2910	0.00147506
2922	0.000694144
2934	0.000520608
2946	0.000607376
2958	0.000347072
2970	0.000607376
2982	0.00156182
2994	0.00173536
3006	0.00121475
3018	0.00130152
3030	0.00164859
3042	0.00451194
3054	0.0105857
3066	0.0100651
3078	0.010846
3090	0.0129284
3102	0.0102386
3114	0.00824296
3126	0.00347072
3138	0.0019089
3150	0.000520608
3162	0.00104122
3174	0.000780912
3186	0.00138829
3198	0.00234274
3210	0.00121475
3222	0.00112798
3234	0.00173536
3246	0.00164859
3258	0.000694144
3270	0.00173536
3282	0.00156182
3294	0.00225597
3306	0.0019089
3318	0.00130152
3330	0.0019089
3342	0.00208243
3354	0.00112798
3366	0.00121475
3378	0.00208243
3390	0.00156182
3402	0.00156182
3414	0.0021692
3426	0.00156182
3438	0.00277658
3450	0.00182213
3462	0.00156182
3474	0.00130152
3486	0.000954448
3498	0.00234274
3510	0.0019089
3522	0.00112798
3534	0.00199566
3546	0.0019089
3558	0.00260304
3570	0.0024295
3582	0.00182213
3594	0.000607376
3606	0.00112798
3618	0.000780912
3630	0.00112798
3642	0.00251627
3654	0.00130152
3666	0.00277658
3678	0.0021692
3690	0.00295011
3702	0.00234274
3714	0.00225597
3726	0.00268981
3738	0.00268981
3750	0.00303688
3762	0.00295011
3774	0.00234274
3786	0.00147506
3798	0.00277658
3810	0.00251627
3822	0.00260304
3834	0.00208243
3846	0.00164859
3858	0.00208243
3870	0.00234274
3882	0.00182213
3894	0.00338395
3906	0.00312365
3918	0.00147506
3930	0.00199566
3942	0.00286334
3954	0
3966	8.6768e-05
