Infrared Spectrum: Hexane, 2,2,5-trimethyl-
Formula: C 9 H 20
CAS: 3522-94-9
Origin: Sadtler Research Labs Under US-EPA Contract
1/CM	ABSORBANCE
450	0
462	0.00221813
474	0.00156277
486	0.00105865
498	0.00136112
510	0.00131071
522	0.000453708
534	0.00146195
546	0.000806592
558	0.000957828
570	0.00115948
582	0.00216772
594	0.00176442
606	0.00120989
618	0.0012603
630	0.00120989
642	0.00186524
654	0.00136112
666	0.000403296
678	0.00050412
690	0.00146195
702	0.00136112
714	0.00171401
726	0.0012603
738	0.0012603
750	0.00272225
762	0.00282307
774	0.00221813
786	0.00131071
798	0.000957828
810	0.00120989
822	0.00221813
834	0.00317596
846	0.0012603
858	0.000857004
870	0.00151236
882	0.00120989
894	0.00181483
906	0.00458749
918	0.00660397
930	0.00529326
942	0.00307513
954	0.00272225
966	0.00115948
978	0.00105865
990	0.00115948
1002	0.00105865
1014	0.00171401
1026	0.00141154
1038	0.00105865
1050	0.00115948
1062	0.00115948
1074	0.00105865
1086	0.00105865
1098	0.00206689
1110	0.00403296
1122	0.00383131
1134	0.0025206
1146	0.00247019
1158	0.00564614
1170	0.00851963
1182	0.00615026
1194	0.00836839
1206	0.0106369
1218	0.00599903
1230	0.00720892
1242	0.0180475
1254	0.0169384
1266	0.00499079
1278	0.00403296
1290	0.00398255
1302	0.00408337
1314	0.00650315
1326	0.0121493
1338	0.0120989
1350	0.0119981
1362	0.0420436
1374	0.0650315
1386	0.0393718
1398	0.0279282
1410	0.00877169
1422	0.00499079
1434	0.00710809
1446	0.0119981
1458	0.029491
1470	0.0587804
1482	0.0539913
1494	0.0165855
1506	0.00473873
1518	0.00201648
1530	0.00151236
1542	0.00105865
1554	0.00105865
1566	0.00105865
1578	0.000453708
1590	0.00100824
1602	0.00100824
1614	0.00100824
1626	0.000857004
1638	0.00050412
1650	0.000554532
1662	0.00105865
1674	0.00100824
1686	0.00105865
1698	0.000554532
1710	0.000907416
1722	0.00105865
1734	0.00100824
1746	0.000554532
1758	0.000554532
1770	0.000604944
1782	0.000604944
1794	0.000604944
1806	0.000604944
1818	0.000554532
1830	5.0412e-05
1842	0.00025206
1854	0.000604944
1866	0.000655356
1878	0.000655356
1890	0.000604944
1902	0.000604944
1914	0.000604944
1926	0.000655356
1938	0.000302472
1950	0.000604944
1962	0.000705768
1974	0.000655356
1986	0.000655356
1998	0.000403296
2010	0.000151236
2022	0.000655356
2034	0.000705768
2046	0.00075618
2058	0.00025206
2070	0.000100824
2082	0.000655356
2094	0.000705768
2106	0.000705768
2118	0.000604944
2130	0.000201648
2142	0.00025206
2154	0.000302472
2166	0.00025206
2178	0.000302472
2190	0.000302472
2202	0.000201648
2214	0.00050412
2226	0.000302472
2238	0.00025206
2250	0.000302472
2262	0.000352884
2274	0.000857004
2286	0.00100824
2298	0.00141154
2310	0.00120989
2322	0.000655356
2334	0.000957828
2346	0.00105865
2358	0.000857004
2370	0.000857004
2382	0.00151236
2394	0.000857004
2406	0.000857004
2418	0.000403296
2430	0.000151236
2442	0.000100824
2454	0.000453708
2466	0.000453708
2478	0.000151236
2490	0.000302472
2502	0.000554532
2514	0.000604944
2526	0.000655356
2538	0.000604944
2550	0.000655356
2562	0.00120989
2574	0.00161318
2586	0.00171401
2598	0.00171401
2610	0.00181483
2622	0.00181483
2634	0.00282307
2646	0.00262142
2658	0.00186524
2670	0.00196607
2682	0.00241978
2694	0.0029239
2706	0.00317596
2718	0.00488996
2730	0.00604944
2742	0.0050412
2754	0.0050412
2766	0.00549491
2778	0.00509161
2790	0.00620068
2802	0.00836839
2814	0.0119981
2826	0.0151236
2838	0.0227358
2850	0.041842
2862	0.0800038
2874	0.142464
2886	0.155319
2898	0.13339
2910	0.15789
2922	0.206992
2934	0.244297
2946	0.275401
2958	0.450482
2970	0.452801
2982	0.131021
2994	0.0312554
3006	0.0144682
3018	0.00862045
3030	0.00700727
3042	0.0058982
3054	0.00473873
3066	0.00473873
3078	0.00453708
3090	0.00433543
3102	0.00393214
3114	0.00438584
3126	0.00403296
3138	0.00408337
3150	0.00352884
3162	0.00453708
3174	0.0054445
3186	0.00564614
3198	0.00458749
3210	0.00408337
3222	0.00368008
3234	0.00317596
3246	0.00277266
3258	0.0021173
3270	0.00181483
3282	0.00171401
3294	0.00181483
3306	0.00191566
3318	0.00181483
3330	0.00141154
3342	0.00226854
3354	0.00277266
3366	0.00287348
3378	0.00307513
3390	0.0021173
3402	0.00191566
3414	0.00241978
3426	0.00216772
3438	0.0012603
3450	0.0012603
3462	0.000957828
3474	0.00171401
3486	0.00176442
3498	0.000907416
3510	0.000907416
3522	0.00105865
3534	0.00151236
3546	0.00100824
3558	0.000655356
3570	0.000403296
3582	0.00075618
3594	0.00120989
3606	0.00120989
3618	0.00105865
3630	0.000201648
3642	0.000806592
3654	0.000857004
3666	0.0012603
3678	0.00050412
3690	0.000957828
3702	0.000907416
3714	0.00100824
3726	0.00151236
3738	0.0012603
3750	0.000957828
3762	0.0012603
3774	0.00181483
3786	0.0012603
3798	0.00120989
3810	0.000806592
3822	0.000857004
3834	0.0012603
3846	0.000957828
3858	0.00115948
3870	0.00131071
3882	0.00141154
3894	0.0016636
3906	0.00221813
3918	0.00171401
3930	0.00141154
3942	0.00186524
3954	0.00171401
3966	0.00181483
