Infrared Spectrum: Butyric acid hydrazide
Formula: C 4 H 10 N 2 O
CAS: 3538-65-6
Origin: Sadtler Research Labs Under US-EPA Contract
1/CM	ABSORBANCE
450	0.0860652
462	0.0934748
474	0.0913577
486	0.0829711
498	0.0647321
510	0.0516228
522	0.0422591
534	0.0350937
546	0.0297198
558	0.0276027
570	0.0242644
582	0.0208445
594	0.0166105
606	0.0175062
618	0.0174247
630	0.0157963
642	0.0157148
654	0.0110737
666	0.00879379
678	0.00350123
690	0.00390835
702	0.00187275
714	0.00227987
726	0.00309411
738	0.00398978
750	0.0061068
762	0.00928234
774	0.0098523
786	0.0140864
798	0.0246715
810	0.0372922
822	0.0403863
834	0.043399
846	0.0520299
858	0.0620451
870	0.0727116
882	0.0849252
894	0.0929862
906	0.0998258
918	0.0893221
930	0.0571596
942	0.0357451
954	0.0498315
966	0.101861
978	0.141108
990	0.12181
1002	0.0601723
1014	0.0249157
1026	0.0183204
1038	0.0232873
1050	0.0293941
1062	0.0280913
1074	0.0262185
1086	0.0249972
1098	0.0194603
1110	0.0157148
1122	0.0140864
1134	0.014982
1146	0.0214959
1158	0.0328953
1170	0.0530884
1182	0.0697804
1194	0.0950218
1206	0.145423
1218	0.162359
1230	0.139154
1242	0.135571
1254	0.129138
1266	0.129546
1278	0.12238
1290	0.101617
1302	0.0735259
1314	0.0558569
1326	0.0530884
1338	0.0588696
1350	0.0667677
1362	0.0732002
1374	0.0732002
1386	0.0875308
1398	0.107561
1410	0.168059
1422	0.299559
1434	0.467048
1446	0.586416
1458	0.56663
1470	0.425196
1482	0.261371
1494	0.154298
1506	0.0981159
1518	0.0600095
1530	0.0389207
1542	0.0283356
1554	0.0223916
1566	0.0207631
1578	0.0250786
1590	0.0319182
1602	0.0526813
1614	0.101129
1626	0.169362
1638	0.206328
1650	0.19786
1662	0.177586
1674	0.23214
1686	0.36364
1698	0.597571
1710	0.808296
1722	0.774912
1734	0.467862
1746	0.192568
1758	0.0861466
1770	0.0479587
1782	0.0297198
1794	0.020926
1806	0.0125393
1818	0.00724674
1830	0.0057811
1842	0.00635107
1854	0.0061068
1866	0.00415262
1878	0.00317554
1890	0.00309411
1902	0.00317554
1914	0.00260557
1926	0.00260557
1938	0.00211702
1950	0.00138421
1962	0.00138421
1974	0.000977088
1986	0.000732816
1998	0.0017099
2010	0.00130278
2022	0.00146563
2034	0.0017099
2046	0.00130278
2058	0.00162848
2070	0.00146563
2082	0.000977088
2094	0.00105851
2106	0.000651392
2118	0.000895664
2130	0.000977088
2142	0.000488544
2154	0.000162848
2166	0.00040712
2178	0.000162848
2190	0.000488544
2202	0.000732816
2214	0.000651392
2226	0.000895664
2238	0.00122136
2250	0.0017099
2262	0.0017099
2274	0.00244272
2286	0.0020356
2298	0.0017099
2310	0.000732816
2322	0.000244272
2334	0.000162848
2346	0.000162848
2358	0.000162848
2370	0.000162848
2382	0.000162848
2394	0.00105851
2406	0.000732816
2418	0.000977088
2430	0.00130278
2442	0.000895664
2454	0.000569968
2466	0.000895664
2478	0.00105851
2490	0.0017099
2502	0.00195418
2514	0.00195418
2526	0.00211702
2538	0.00154706
2550	0.00146563
2562	0.00162848
2574	0.0017099
2586	0.00195418
2598	0.00227987
2610	0.00260557
2622	0.00252414
2634	0.00276842
2646	0.00284984
2658	0.00382693
2670	0.00504829
2682	0.00545541
2694	0.00602538
2706	0.0057811
2718	0.0057811
2730	0.00667677
2742	0.00773528
2754	0.00968946
2766	0.0098523
2778	0.010748
2790	0.0130278
2802	0.0151449
2814	0.0179947
2826	0.022473
2838	0.0310225
2850	0.0419334
2862	0.0626151
2874	0.113912
2886	0.171316
2898	0.164558
2910	0.162767
2922	0.207224
2934	0.273829
2946	0.327487
2958	0.339294
2970	0.39971
2982	0.362744
2994	0.191591
3006	0.0825639
3018	0.0416891
3030	0.0254043
3042	0.0185647
3054	0.0151449
3066	0.0127021
3078	0.0112365
3090	0.0098523
3102	0.00944518
3114	0.00887522
3126	0.00887522
3138	0.00871237
3150	0.00830525
3162	0.00797955
3174	0.00928234
3186	0.0113179
3198	0.0135164
3210	0.012865
3222	0.0117251
3234	0.00936376
3246	0.00724674
3258	0.00553683
3270	0.00561826
3282	0.00675819
3294	0.00863094
3306	0.00944518
3318	0.00879379
3330	0.0105851
3342	0.012865
3354	0.0130278
3366	0.0127021
3378	0.0153077
3390	0.0241015
3402	0.0372108
3414	0.0587881
3426	0.0716531
3438	0.0696989
3450	0.0876122
3462	0.115134
3474	0.117739
3486	0.0870423
3498	0.0473888
3510	0.0227173
3522	0.0123764
3534	0.00724674
3546	0.00496686
3558	0.00512971
3570	0.00594395
3582	0.00455974
3594	0.00325696
3606	0.00268699
3618	0.000488544
3630	0.00211702
3642	0.00162848
3654	0.00162848
3666	0.00244272
3678	0.000244272
3690	0.00276842
3702	0.00268699
3714	0.00146563
3726	0.00341981
3738	0.00309411
3750	0.00195418
3762	0.00268699
3774	0.0040712
3786	0.00358266
3798	0.00268699
3810	0.00455974
3822	0.00268699
3834	0.00382693
3846	0.00268699
3858	0.00211702
3870	0.00252414
3882	0.00105851
3894	0.00227987
3906	0.00219845
3918	0.00415262
3930	0.00252414
3942	0.00488544
3954	0.00341981
3966	0.00447832
