Infrared Spectrum: Ethane, 1,1,1-trichloro-2,2,2-trifluoro-
Formula: C 2 Cl 3 F 3
CAS: 354-58-5
Origin: Sadtler Research Labs Under US-EPA Contract
1/CM	ABSORBANCE
450	0.0234835
462	0.0118942
474	0.00228735
486	0.00045747
498	0.00823446
510	0.00930189
522	0.0144865
534	0.0272957
546	0.00533715
558	0.00442221
570	0.00564213
582	0.00274482
594	0.00533715
606	0.00625209
618	0.00930189
630	0.0407148
642	0.0539815
654	0.0754825
666	0.0312605
678	0.00533715
690	0.00365976
702	0.00426972
714	0.00518466
726	0.00701454
738	0.00869193
750	0.00747201
762	0.00930189
774	0.0327853
786	0.0916465
798	0.430174
810	1.35213
822	1.01009
834	0.137851
846	0.0864618
858	0.112995
870	0.253438
882	0.477599
894	0.744304
906	1.08466
918	0.743084
930	0.282564
942	0.0582512
954	0.0253133
966	0.0352252
978	0.0369026
990	0.0228735
1002	0.0282107
1014	0.0632834
1026	0.31169
1038	0.869803
1050	0.755435
1062	0.226905
1074	0.0632834
1086	0.0978986
1098	0.314892
1110	0.932324
1122	0.771142
1134	0.0983561
1146	0.069078
1158	0.324346
1170	0.972276
1182	1.00079
1194	0.556131
1206	0.696574
1218	0.402726
1230	0.046357
1242	0.0242459
1254	0.0237884
1266	0.0154015
1278	0.0112843
1290	0.0076245
1302	0.00625209
1314	0.00655707
1326	0.00792948
1338	0.0143341
1350	0.015554
1362	0.0123517
1374	0.015859
1386	0.0132666
1398	0.0091494
1410	0.0102168
1422	0.00594711
1434	0.00228735
1446	0.00243984
1458	0.00289731
1470	0.00320229
1482	0.00381225
1494	0.0030498
1506	0.00274482
1518	0.00289731
1530	0.00243984
1542	0.0030498
1554	0.00213486
1566	0.00259233
1578	0.00259233
1590	0.00121992
1602	0.00091494
1614	0.00137241
1626	0.00213486
1638	0.00365976
1650	0.00320229
1662	0.00213486
1674	0.0015249
1686	0.00182988
1698	0.00243984
1710	0.00274482
1722	0.00213486
1734	0.00167739
1746	0.00167739
1758	0.00167739
1770	0.00198237
1782	0.00167739
1794	0.00137241
1806	0.00167739
1818	0.00243984
1830	0.00274482
1842	0.00289731
1854	0.00320229
1866	0.00274482
1878	0.00137241
1890	0.00060996
1902	0.00060996
1914	0.00091494
1926	0.00106743
1938	0.00121992
1950	0.00076245
1962	0.00060996
1974	0.00091494
1986	0.00060996
1998	0.00091494
2010	0.00121992
2022	0.0015249
2034	0.00121992
2046	0.00091494
2058	0.00091494
2070	0.00091494
2082	0.00121992
2094	0.0015249
2106	0.00198237
2118	0.00289731
2130	0.0030498
2142	0.00289731
2154	0.00365976
2166	0.00472719
2178	0.00411723
2190	0.00564213
2202	0.00670956
2214	0.00975936
2226	0.00930189
2238	0.0060996
2250	0.00503217
2262	0.0045747
2274	0.00335478
2286	0.00396474
2298	0.00564213
2310	0.00716703
2322	0.00823446
2334	0.0060996
2346	0.00564213
2358	0.00564213
2370	0.00670956
2382	0.00792948
2394	0.00487968
2406	0.00182988
2418	0.00106743
2430	0.00030498
2442	0.00060996
2454	0.00060996
2466	0.00045747
2478	0.00045747
2490	0.00060996
2502	0.00060996
2514	0.00060996
2526	0.00045747
2538	0.00045747
2550	0.00045747
2562	0.00030498
2574	0.00060996
2586	0.00015249
2598	0.00015249
2610	0.00030498
2622	0.00030498
2634	0.00045747
2646	0.00060996
2658	0.00015249
2670	0.00015249
2682	0.00015249
2694	0.00030498
2706	0.00030498
2718	0.00030498
2730	0.00045747
2742	0.00045747
2754	0.00030498
2766	0.00030498
2778	0.00015249
2790	0.00060996
2802	0.00030498
2814	0.00060996
2826	0.00076245
2838	0.00045747
2850	0.00060996
2862	0.00045747
2874	0.00060996
2886	0.00076245
2898	0.00030498
2910	0.00076245
2922	0.00060996
2934	0.00060996
2946	0.00045747
2958	0.00045747
2970	0.00106743
2982	0.00076245
2994	0.00045747
3006	0.00045747
3018	0.00060996
3030	0.00076245
3042	0.00076245
3054	0.00076245
3066	0.00060996
3078	0.00060996
3090	0.00106743
3102	0.00045747
3114	0.00091494
3126	0.00045747
3138	0.00076245
3150	0.00091494
3162	0.00060996
3174	0.00045747
3186	0.00091494
3198	0.00076245
3210	0.00106743
3222	0.00121992
3234	0.00091494
3246	0.00106743
3258	0.00076245
3270	0.00091494
3282	0.00106743
3294	0.00137241
3306	0.00091494
3318	0.00106743
3330	0.00060996
3342	0.0015249
3354	0.00106743
3366	0.00137241
3378	0.00091494
3390	0.00182988
3402	0.00121992
3414	0.00076245
3426	0.00121992
3438	0.0015249
3450	0.00121992
3462	0.00106743
3474	0.00198237
3486	0.00137241
3498	0.00213486
3510	0.00076245
3522	0.00091494
3534	0.00106743
3546	0.00106743
3558	0.00137241
3570	0.00076245
3582	0.00137241
3594	0.00106743
3606	0.00121992
3618	0.00198237
3630	0.00060996
3642	0.00137241
3654	0.00167739
3666	0.00213486
3678	0.00030498
3690	0.00167739
3702	0.00198237
3714	0.00106743
3726	0.00121992
3738	0.00121992
3750	0.00320229
3762	0.00243984
3774	0.00182988
3786	0.00167739
3798	0.00198237
3810	0.00137241
3822	0.00198237
3834	0.00213486
3846	0.00213486
3858	0.00137241
3870	0.00121992
3882	0.0015249
3894	0.00121992
3906	0.00106743
3918	0.00182988
3930	0.00137241
3942	0.00091494
3954	0.00274482
3966	0
