Infrared Spectrum: 1H,1H-Pentafluoropropyl iodide
Formula: C 3 H 2 F 5 I
CAS: 354-69-8
Origin: Sadtler Research Labs Under US-EPA Contract
1/CM	ABSORBANCE
450	0.0236914
462	0.00144208
474	0.00618036
486	0.00556232
498	0.0105066
510	0.0480008
522	0.0539751
534	0.0253395
546	0.0131848
558	0.0585074
570	0.0276056
582	0.0129788
594	0.017305
606	0.0148329
618	0.0304898
630	0.0751944
642	0.136998
654	0.0212192
666	0.0323439
678	0.0615976
690	0.0574773
702	0.0743703
714	0.152655
726	0.0181291
738	0.0203952
750	0.00535631
762	0.0127727
774	0.0152449
786	0.0197772
798	0.0109186
810	0.0117427
822	0.0125667
834	0.00968256
846	0.00453226
858	0.00432625
870	0.00638637
882	0.00329619
894	0.00535631
906	0.00370822
918	0.00453226
930	0.0067984
942	0.00844649
954	0.00844649
966	0.0117427
978	0.016481
990	0.0315198
1002	0.120723
1014	0.741437
1026	0.628337
1038	0.127727
1050	0.247832
1062	0.258339
1074	0.0892032
1086	0.0875551
1098	0.223729
1110	0.252365
1122	0.0972377
1134	0.0828168
1146	0.0972377
1158	0.248656
1170	0.206424
1182	0.248656
1194	0.78161
1206	1.7818
1218	1.97215
1230	1.32713
1242	0.742261
1254	0.47939
1266	0.142148
1278	0.0708681
1290	0.0718982
1302	0.0836409
1314	0.0986797
1326	0.155333
1338	0.444574
1350	0.309842
1362	0.068602
1374	0.0550052
1386	0.0535631
1398	0.0241034
1410	0.0251335
1422	0.0539751
1434	0.0628337
1446	0.0206012
1458	0.00741643
1470	0.00473828
1482	0.00638637
1494	0.00700441
1506	0.00556232
1518	0.00432625
1530	0.00453226
1542	0.00288417
1554	0.00453226
1566	0.00700441
1578	0.00885852
1590	0.00721042
1602	0.00700441
1614	0.00618036
1626	0.00597435
1638	0.00556232
1650	0.00206012
1662	0.00473828
1674	0.00103006
1686	0.000206012
1698	0.000618036
1710	0.00370822
1722	0.00309018
1734	0.00267816
1746	0.0035022
1758	0.00391423
1770	0.00556232
1782	0.00803447
1794	0.00721042
1806	0.00597435
1818	0.00473828
1830	0.00412024
1842	0.00494429
1854	0.00391423
1866	0.00329619
1878	0.00288417
1890	0.00226613
1902	0.00247214
1914	0.00309018
1926	0.00309018
1938	0.00267816
1950	0.00309018
1962	0.00412024
1974	0.0051503
1986	0.00700441
1998	0.0051503
2010	0.00494429
2022	0.00453226
2034	0.00391423
2046	0.00288417
2058	0.00247214
2070	0.00247214
2082	0.00247214
2094	0.00226613
2106	0.00309018
2118	0.00309018
2130	0.00288417
2142	0.00247214
2154	0.00226613
2166	0.00226613
2178	0.00185411
2190	0.00206012
2202	0.00309018
2214	0.00329619
2226	0.00453226
2238	0.00453226
2250	0.00412024
2262	0.00473828
2274	0.00432625
2286	0.00267816
2298	0.00206012
2310	0.00329619
2322	0.00329619
2334	0.00370822
2346	0.00535631
2358	0.00453226
2370	0.00659238
2382	0.00432625
2394	0.0051503
2406	0.0067984
2418	0.00556232
2430	0.0051503
2442	0.00618036
2454	0.00700441
2466	0.00638637
2478	0.00494429
2490	0.00309018
2502	0.00288417
2514	0.00247214
2526	0.00267816
2538	0.00329619
2550	0.0035022
2562	0.00370822
2574	0.0035022
2586	0.00288417
2598	0.00226613
2610	0.00144208
2622	0.00103006
2634	0.00144208
2646	0.00123607
2658	0.00103006
2670	0.000824048
2682	0.000824048
2694	0.000412024
2706	0
2718	0
2730	0
2742	0.000206012
2754	0.000206012
2766	0.000412024
2778	0.000206012
2790	0.000412024
2802	0.000618036
2814	0.000618036
2826	0.00103006
2838	0.0016481
2850	0.0016481
2862	0.000824048
2874	0.000824048
2886	0.00144208
2898	0.00103006
2910	0.00123607
2922	0.000824048
2934	0.00123607
2946	0.00185411
2958	0.00226613
2970	0.00267816
2982	0.00659238
2994	0.0206012
3006	0.00432625
3018	0.0016481
3030	0.00206012
3042	0.00597435
3054	0.00535631
3066	0.00206012
3078	0.000618036
3090	0.000618036
3102	0.00123607
3114	0.000824048
3126	0.000618036
3138	0.000618036
3150	0.000618036
3162	0.00103006
3174	0.000618036
3186	0.00103006
3198	0.000618036
3210	0.00144208
3222	0.00103006
3234	0.000206012
3246	0.00103006
3258	0.00103006
3270	0.00123607
3282	0.000824048
3294	0.000824048
3306	0.00144208
3318	0.00103006
3330	0.00103006
3342	0.00123607
3354	0.00123607
3366	0.000618036
3378	0.00185411
3390	0.00103006
3402	0.00103006
3414	0.000206012
3426	0.000412024
3438	0.0016481
3450	0.000824048
3462	0.0016481
3474	0.00103006
3486	0.00103006
3498	0.0016481
3510	0.00103006
3522	0.0016481
3534	0.00206012
3546	0.00144208
3558	0.00206012
3570	0.00267816
3582	0.00144208
3594	0.00103006
3606	0.00103006
3618	0.00185411
3630	0.00247214
3642	0.00247214
3654	0.00185411
3666	0.00185411
3678	0.00226613
3690	0.00226613
3702	0.00185411
3714	0.000824048
3726	0.00309018
3738	0.00226613
3750	0
3762	0.00288417
3774	0.00247214
3786	0.00329619
3798	0.00226613
3810	0.00267816
3822	0.00288417
3834	0
3846	0.00185411
3858	0.00453226
3870	0.00103006
3882	0.00226613
3894	0.000618036
3906	0.0035022
3918	0.000618036
3930	0.00391423
3942	0.00288417
3954	0.00329619
3966	0.00144208
