Infrared Spectrum: Hexanoic acid, 2-acetyl-5-oxo-, ethyl ester
Formula: C 10 H 16 O 4
CAS: 35490-05-2
Origin: Sadtler Research Labs Under US-EPA Contract
1/CM	ABSORBANCE
450	0.0463255
462	0.0109895
474	0.00420498
486	0.00950538
498	0.00816262
510	0.00621914
522	0.00448767
534	0.00604246
546	0.013251
558	0.00565376
570	0.00770325
582	0.0074559
594	0.0061838
606	0.00992942
618	0.0079506
630	0.00409898
642	0.00413431
654	0.00328625
666	0.00236751
678	0.00416965
690	0.00349826
702	0.00275621
714	0.0057951
726	0.00487637
738	0.00787993
750	0.0108835
762	0.00826862
774	0.00819795
786	0.00554775
798	0.0048057
810	0.00515906
822	0.00763258
834	0.00862198
846	0.0103888
858	0.0166079
870	0.0169259
882	0.0097174
894	0.00671384
906	0.00798594
918	0.00975274
930	0.0109542
942	0.017032
954	0.0204595
966	0.0202122
978	0.0189754
990	0.0137104
1002	0.018304
1014	0.0313784
1026	0.0559016
1038	0.0670677
1050	0.0555482
1062	0.048269
1074	0.0460428
1086	0.047951
1098	0.0653716
1110	0.0592231
1122	0.0539227
1134	0.0892234
1146	0.167811
1158	0.202511
1170	0.184242
1182	0.176503
1194	0.144772
1206	0.128022
1218	0.131909
1230	0.139507
1242	0.169365
1254	0.163994
1266	0.121874
1278	0.0945945
1290	0.0811668
1302	0.079082
1314	0.0790466
1326	0.0729688
1338	0.0626861
1350	0.0756544
1362	0.125019
1374	0.113959
1386	0.0623327
1398	0.0386222
1410	0.03576
1422	0.043852
1434	0.0457955
1446	0.0509898
1458	0.0448414
1470	0.0312724
1482	0.0194701
1494	0.0141344
1506	0.0107421
1518	0.00738522
1530	0.00643115
1542	0.0103888
1554	0.0070672
1566	0.00890467
1578	0.0104948
1590	0.0125089
1602	0.0183394
1614	0.0202829
1626	0.0193995
1638	0.0255126
1650	0.0257599
1662	0.0324031
1674	0.0372795
1686	0.0579864
1698	0.118128
1710	0.144277
1722	0.199012
1734	0.35336
1746	0.262511
1758	0.218659
1770	0.109294
1782	0.0352653
1794	0.0208129
1806	0.0150178
1818	0.00770325
1830	0.00607779
1842	0.00416965
1854	0.00367494
1866	0.00233218
1878	0.00342759
1890	0.00339226
1902	0.00282688
1914	0.00293289
1926	0.00233218
1938	0.00183747
1950	0.00159012
1962	0.00261486
1974	0.00197882
1986	0.00257953
1998	0.000812728
2010	0.00233218
2022	0.00134277
2034	0.00134277
2046	0.00183747
2058	0.00222617
2070	0.00183747
2082	0.00321558
2094	0.0022615
2106	0.0008834
2118	0.000812728
2130	0.00335692
2142	0.00190814
2154	0.0017668
2166	0.00208482
2178	0.00183747
2190	0.00116609
2202	0.00208482
2214	0.00109542
2226	0.0012721
2238	0.00102474
2250	0.00194348
2262	0.000388696
2274	0.00190814
2286	0.00106008
2298	0.00208482
2310	0.00254419
2322	0.00395763
2334	0.00229684
2346	0.00272087
2358	0.0035336
2370	0.00321558
2382	0.00378095
2394	0.00141344
2406	0.00183747
2418	0.0026502
2430	0.0026502
2442	0.00197882
2454	0.00197882
2466	0.00102474
2478	0.00148411
2490	0.00233218
2502	0.00204949
2514	0.00247352
2526	0.00254419
2538	0.0013781
2550	0.00250886
2562	0.00229684
2574	0.0017668
2586	0.00187281
2598	0.00148411
2610	0.00194348
2622	0.0022615
2634	0.0022615
2646	0.0021555
2658	0.00233218
2670	0.00328625
2682	0.00279154
2694	0.00289755
2706	0.0026502
2718	0.00275621
2730	0.00332158
2742	0.00381629
2754	0.00378095
2766	0.00374562
2778	0.00427566
2790	0.00413431
2802	0.00455834
2814	0.00554775
2826	0.00773858
2838	0.0101061
2850	0.0122616
2862	0.0143464
2874	0.0194701
2886	0.02629
2898	0.0299296
2910	0.0434986
2922	0.0493644
2934	0.0581631
2946	0.0689052
2958	0.0602479
2970	0.0606012
2982	0.0744176
2994	0.0760431
3006	0.0443467
3018	0.0304596
3030	0.0151238
3042	0.0122263
3054	0.0100708
3066	0.00837463
3078	0.00692586
3090	0.00533574
3102	0.00434633
3114	0.00374562
3126	0.00254419
3138	0.00268554
3150	0.00282688
3162	0.00222617
3174	0.0021555
3186	0.000848064
3198	0.00300356
3210	0.00070672
3222	0.00240285
3234	0.00212016
3246	0.00236751
3258	0.0021555
3270	0.00325091
3282	0.00261486
3294	0.00144878
3306	0.00296822
3318	0.00212016
3330	0.00257953
3342	0.0026502
3354	0.00272087
3366	0.00307423
3378	0.00371028
3390	0.00409898
3402	0.00307423
3414	0.00335692
3426	0.00473502
3438	0.00462902
3450	0.00515906
3462	0.00583044
3474	0.00547708
3486	0.00505305
3498	0.0048057
3510	0.00282688
3522	0.0030389
3534	0.00519439
3546	0.00625447
3558	0.00342759
3570	0.00240285
3582	0.00296822
3594	0.00162546
3606	0.00201415
3618	0.00388696
3630	0.00371028
3642	0.00173146
3654	0.00307423
3666	0.00385162
3678	0.00346293
3690	0.0039223
3702	0.00420498
3714	0.00533574
3726	0.0012721
3738	0.0035336
3750	0.00823329
3762	0.00399297
3774	0.0056891
3786	0.00420498
3798	0.00526506
3810	0.00526506
3822	0.00572443
3834	0.00685518
3846	0.00625447
3858	0.0083393
3870	0.00586578
3882	0.00869266
3894	0.00643115
3906	0.00780926
3918	0.00890467
3930	0.00586578
3942	0.00830396
3954	0.00385162
3966	0.00901068
