Infrared Spectrum: Benzene, (2-methoxyethyl)-
Formula: C 9 H 12 O
CAS: 3558-60-9
Origin: Sadtler Research Labs Under US-EPA Contract
1/CM	ABSORBANCE
450	0.00501672
462	0.0120401
474	0.00735786
486	0.0231605
498	0.0374582
510	0.0423077
522	0.0246655
534	0.00652174
546	0.00133779
558	0.0097826
570	0.0362876
582	0.0472408
594	0.0243311
606	0.0041806
618	0.00108696
630	0.00083612
642	0
654	0.00242475
666	0.0139632
678	0.061204
690	0.205602
702	0.280769
714	0.144398
726	0.106605
738	0.179097
750	0.18796
762	0.0707358
774	0.0255017
786	0.00919732
798	0.00660535
810	0.00994983
822	0.0229097
834	0.0231605
846	0.00936454
858	0.00535117
870	0.00434782
882	0.0069398
894	0.0141304
906	0.0194816
918	0.0159699
930	0.0272575
942	0.0368729
954	0.0360368
966	0.0518394
978	0.0551003
990	0.054097
1002	0.062709
1014	0.0576923
1026	0.0951505
1038	0.112709
1050	0.105936
1062	0.100585
1074	0.109532
1086	0.139465
1098	0.228344
1110	0.450418
1122	0.744732
1134	0.765802
1146	0.289966
1158	0.165803
1170	0.158946
1182	0.188211
1194	0.185201
1206	0.16296
1218	0.110368
1230	0.0793478
1242	0.0528428
1254	0.0496655
1266	0.0422241
1278	0.0341973
1290	0.0268395
1302	0.0248328
1314	0.0244147
1326	0.0260869
1338	0.0314381
1350	0.0330267
1362	0.0376254
1374	0.0926421
1386	0.14097
1398	0.0630434
1410	0.0261706
1422	0.0295986
1434	0.0469899
1446	0.0863712
1458	0.121655
1470	0.102425
1482	0.0726588
1494	0.133445
1506	0.109364
1518	0.0169732
1530	0.0102843
1542	0.0132107
1554	0.00702341
1566	0.00643812
1578	0.0156354
1590	0.0276756
1602	0.059699
1614	0.0529264
1626	0.0102007
1638	0.00752508
1650	0.00543478
1662	0.00434782
1674	0.00158863
1686	0.00468227
1698	0.00551839
1710	0.00986622
1722	0.0212374
1734	0.0364548
1746	0.0453177
1758	0.0428093
1770	0.0369565
1782	0.0203177
1794	0.0252508
1806	0.0179766
1818	0.00602006
1830	0.00250836
1842	0.00150502
1854	0.00635451
1866	0.0105351
1878	0.0125418
1890	0.00501672
1902	0.00108696
1914	0.00225752
1926	0.00861204
1938	0.0175585
1950	0.0215719
1962	0.0134615
1974	0.00259197
1986	0.00200669
1998	0.00225752
2010	0.00317726
2022	0.00301003
2034	0.00367893
2046	0.0041806
2058	0.00401338
2070	0.00476588
2082	0.00652174
2094	0.00852842
2106	0.00735786
2118	0.00543478
2130	0.00359532
2142	0.00158863
2154	0.00125418
2166	0.0014214
2178	0.00117057
2190	0.000334448
2202	0.000334448
2214	0.00108696
2226	0.00150502
2238	0.00217391
2250	0.00301003
2262	0.00234114
2274	0.000334448
2286	0.000585284
2298	0.00309364
2310	0.00535117
2322	0.00568562
2334	0.00518394
2346	0.00468227
2358	0.0035117
2370	0.00326087
2382	0.00376254
2394	0.00342809
2406	0.0035117
2418	0.00392976
2430	0.00342809
2442	0.0035117
2454	0.00267558
2466	0.00301003
2478	0.00292642
2490	0.00301003
2502	0.00309364
2514	0.00367893
2526	0.00401338
2538	0.00401338
2550	0.00409699
2562	0.00426421
2574	0.00526756
2586	0.0069398
2598	0.00861204
2610	0.00944816
2622	0.00844481
2634	0.00928093
2646	0.0101171
2658	0.0104515
2670	0.0103679
2682	0.0109532
2694	0.0119565
2706	0.0144649
2718	0.0204849
2730	0.0337792
2742	0.0378762
2754	0.0293478
2766	0.0262542
2778	0.0308528
2790	0.0439799
2802	0.0766722
2814	0.171405
2826	0.248746
2838	0.264883
2850	0.243562
2862	0.333277
2874	0.432776
2886	0.359699
2898	0.293562
2910	0.302257
2922	0.342308
2934	0.403428
2946	0.365468
2958	0.290301
2970	0.191388
2982	0.16898
2994	0.232692
3006	0.12709
3018	0.117809
3030	0.23704
3042	0.27408
3054	0.139548
3066	0.185451
3078	0.231187
3090	0.132525
3102	0.0917224
3114	0.0518394
3126	0.0247492
3138	0.0110368
3150	0.0076923
3162	0.00760869
3174	0.00719063
3186	0.00518394
3198	0.00409699
3210	0.00376254
3222	0.00367893
3234	0.00292642
3246	0.00301003
3258	0.00309364
3270	0.00309364
3282	0.00292642
3294	0.00326087
3306	0.00292642
3318	0.00250836
3330	0.00200669
3342	0.00225752
3354	0.00250836
3366	0.00225752
3378	0.00234114
3390	0.00234114
3402	0.0027592
3414	0.00183946
3426	0.0020903
3438	0.00200669
3450	0.00192308
3462	0.00192308
3474	0.00192308
3486	0.00175585
3498	0.00150502
3510	0.00108696
3522	0.00100334
3534	0.00117057
3546	0.000501672
3558	0.00041806
3570	0.00217391
3582	0.00434782
3594	0.00250836
3606	0.0014214
3618	0.00317726
3630	0.011204
3642	0.00777592
3654	0.00844481
3666	0.0107023
3678	0.0107023
3690	0.00618729
3702	0.00225752
3714	0.00326087
3726	0.00108696
3738	0.00158863
3750	0.00250836
3762	0.00158863
3774	0.00117057
3786	0.00117057
3798	0.000919732
3810	0.00175585
3822	0.00326087
3834	0.00158863
3846	0.0014214
3858	0.00225752
3870	0.00234114
3882	0.00083612
3894	0.00167224
3906	0.000919732
3918	0.00167224
3930	0.00267558
3942	0.00234114
3954	0.00200669
3966	0.00192308
