Infrared Spectrum: Butanoic acid, heptafluoro-, ethyl ester
Formula: C 6 H 5 F 7 O 2
CAS: 356-27-4
Origin: Sadtler Research Labs Under US-EPA Contract
1/CM	ABSORBANCE
450	0.00159804
462	0.00679167
474	0.00466095
486	0.00705801
498	0
510	0.00878922
522	0.0139828
534	0.0287647
546	0.0138497
558	0.00679167
570	0.00372876
582	0.0114526
594	0.0223726
606	0.0221062
618	0.0175784
630	0.0189101
642	0.0311618
654	0.038353
666	0.0146487
678	0.00865605
690	0.00452778
702	0.0066585
714	0.0335588
726	0.103074
738	0.085362
750	0.0950834
762	0.0404837
774	0.0130507
786	0.0182443
798	0.0163799
810	0.0178448
822	0.0310286
834	0.0661855
846	0.0434134
858	0.0343579
870	0.0287647
882	0.00905556
894	0.00745752
906	0.0126511
918	0.0456773
930	0.18444
942	0.136499
954	0.106136
966	0.257151
978	0.106802
990	0.0414159
1002	0.0771054
1014	0.168327
1026	0.121851
1038	0.0412827
1050	0.0276994
1062	0.0371544
1074	0.108534
1086	0.324802
1098	0.191498
1110	0.0824322
1122	0.129841
1134	0.234912
1146	0.445587
1158	0.295371
1170	0.21214
1182	0.310952
1194	0.399643
1206	0.397113
1218	0.865072
1230	1.28482
1242	1.30573
1254	0.575028
1266	0.441059
1278	0.297635
1290	0.309221
1302	0.428541
1314	0.336387
1326	0.144889
1338	0.0926863
1350	0.127177
1362	0.0857615
1374	0.0617909
1386	0.0438129
1398	0.0234379
1410	0.0171789
1422	0.0127843
1434	0.0123848
1446	0.0189101
1458	0.0217067
1470	0.0272999
1482	0.0261013
1494	0.0113194
1506	0.00492729
1518	0.00319608
1530	0.0026634
1542	0.00173121
1554	0.0026634
1566	0.00332925
1578	0.00372876
1590	0.00359559
1602	0.00332925
1614	0.00306291
1626	0.00186438
1638	0.00146487
1650	0.00079902
1662	0.00253023
1674	0.00226389
1686	0.00279657
1698	0.00426144
1710	0.00692484
1722	0.00918873
1734	0.0109199
1746	0.0210409
1758	0.0342247
1770	0.0716455
1782	0.267006
1794	0.685825
1806	0.244234
1818	0.0627231
1830	0.0267672
1842	0.0153145
1854	0.0101209
1866	0.00692484
1878	0.00585948
1890	0.00346242
1902	0.00199755
1914	0.00146487
1926	0.00119853
1938	0.00173121
1950	0.00186438
1962	0.00186438
1974	0.00226389
1986	0.00186438
1998	0.00106536
2010	0.00079902
2022	0.00039951
2034	0.00039951
2046	0.00053268
2058	0.00053268
2070	0.00053268
2082	0.00079902
2094	0.00093219
2106	0.00079902
2118	0.00079902
2130	0.00066585
2142	0.00119853
2154	0.00146487
2166	0.00159804
2178	0.0013317
2190	0.00053268
2202	0.00053268
2214	0.00013317
2226	0.00053268
2238	0.00079902
2250	0.00053268
2262	0.00079902
2274	0.00106536
2286	0.00146487
2298	0.0026634
2310	0.00346242
2322	0.00372876
2334	0.00372876
2346	0.00559314
2358	0.00466095
2370	0.00572631
2382	0.00519363
2394	0.00346242
2406	0.00386193
2418	0.00412827
2430	0.00359559
2442	0.00332925
2454	0.00412827
2466	0.00492729
2478	0.00452778
2490	0.00386193
2502	0.00332925
2514	0.0026634
2526	0.00239706
2538	0.00213072
2550	0.00213072
2562	0.00213072
2574	0.00292974
2586	0.00253023
2598	0.00213072
2610	0.00146487
2622	0.00173121
2634	0.00146487
2646	0.00066585
2658	0.00079902
2670	0.00066585
2682	0.00066585
2694	0.00039951
2706	0.00026634
2718	0.00093219
2730	0.00106536
2742	0.00119853
2754	0.00106536
2766	0.0013317
2778	0.00186438
2790	0.00199755
2802	0.00199755
2814	0.00173121
2826	0.00226389
2838	0.0026634
2850	0.00279657
2862	0.00346242
2874	0.00559314
2886	0.0105204
2898	0.0110531
2910	0.0135833
2922	0.0177116
2934	0.0162467
2946	0.0294306
2958	0.0288979
2970	0.0230384
2982	0.0419486
2994	0.0956161
3006	0.0553987
3018	0.0356896
3030	0.0171789
3042	0.00852288
3054	0.00519363
3066	0.00386193
3078	0.00279657
3090	0.00306291
3102	0.00279657
3114	0.00199755
3126	0.00213072
3138	0.00199755
3150	0.00199755
3162	0.00199755
3174	0.00199755
3186	0.00173121
3198	0.00186438
3210	0.0013317
3222	0.00093219
3234	0.00093219
3246	0.0013317
3258	0.00106536
3270	0.00053268
3282	0.00053268
3294	0.00053268
3306	0.00053268
3318	0.00053268
3330	0.00119853
3342	0.00119853
3354	0.00079902
3366	0.00146487
3378	0.00093219
3390	0.00146487
3402	0.00106536
3414	0.00093219
3426	0.00119853
3438	0.0013317
3450	0.00079902
3462	0.00093219
3474	0.00119853
3486	0.00106536
3498	0.00013317
3510	0.00053268
3522	0.00146487
3534	0.00106536
3546	0.00199755
3558	0.00439461
3570	0.00719118
3582	0.00346242
3594	0.00093219
3606	0.00173121
3618	0.00066585
3630	0.00106536
3642	0.00106536
3654	0.00079902
3666	0.00213072
3678	0.0013317
3690	0.00039951
3702	0.00066585
3714	0.00213072
3726	0.00079902
3738	0.00173121
3750	0.00066585
3762	0.00159804
3774	0.0013317
3786	0.00079902
3798	0.00026634
3810	0.00066585
3822	0.00119853
3834	0.00159804
3846	0.00119853
3858	0.00106536
3870	0
3882	0.00119853
3894	0.00066585
3906	0.00106536
3918	0.00106536
3930	0.00039951
3942	0.00026634
3954	0.00093219
3966	0.00026634
