Infrared Spectrum: Bicyclo[2.2.1]heptan-2-amine, N-(phenylmethyl)-
Formula: C 14 H 19 N
CAS: 35718-03-7
Origin: Sadtler Research Labs Under US-EPA Contract
1/CM	ABSORBANCE
450	0.013531
462	0.00200459
474	0.00826894
486	0.00739193
498	0.013531
510	0.00839423
522	0.00764251
534	0.00526205
546	0.00476091
558	0.00739193
570	0.00739193
582	0.0150344
594	0.0214241
606	0.0238045
618	0.0176655
630	0.0116517
642	0.0166632
654	0.0271873
666	0.0434746
678	0.073794
690	0.153852
702	0.204844
714	0.133305
726	0.122907
738	0.160493
750	0.115765
762	0.0526205
774	0.0196701
786	0.00952181
798	0.0165379
810	0.0202965
822	0.0196701
834	0.0149092
846	0.00902066
858	0.00162873
870	0.000877009
882	0.00400918
894	0.00463562
906	0.012654
918	0.00826894
930	0.0132804
942	0.0172896
954	0.0127793
966	0.0127793
978	0.0189183
990	0.0120276
1002	0.0086448
1014	0.0086448
1026	0.0474838
1038	0.0206724
1050	0.0209229
1062	0.0438504
1074	0.0429734
1086	0.0394654
1098	0.0747963
1110	0.0836917
1122	0.0925871
1134	0.120777
1146	0.0392148
1158	0.0900814
1170	0.11351
1182	0.0539987
1194	0.0438504
1206	0.0452286
1218	0.0319482
1230	0.0281896
1242	0.0372102
1254	0.0318229
1266	0.0195448
1278	0.0185425
1290	0.0311965
1302	0.0478596
1314	0.0442263
1326	0.0544998
1338	0.0996032
1350	0.106619
1362	0.0660262
1374	0.0437252
1386	0.0202965
1398	0.0132804
1410	0.0132804
1422	0.0229275
1434	0.0595113
1446	0.173021
1458	0.203591
1470	0.116016
1482	0.0646481
1494	0.0773021
1506	0.0291919
1518	0.00601378
1530	0.00400918
1542	0.00363332
1554	0.00225517
1566	0.00350804
1578	0.00764251
1590	0.0156609
1602	0.029693
1614	0.0145333
1626	0.00313218
1638	0.00425976
1650	0.0110253
1662	0.00275631
1674	0.00300689
1686	0.00764251
1698	0.00726665
1710	0.00601378
1722	0.00789308
1734	0.00914595
1746	0.00626435
1758	0.00851952
1770	0.0101482
1782	0.0086448
1794	0.011777
1806	0.00952181
1818	0.00413447
1830	0.00225517
1842	0.00250574
1854	0.00413447
1866	0.00701607
1878	0.00751722
1890	0.00363332
1902	0.00175402
1914	0.00225517
1926	0.00438504
1938	0.00927124
1950	0.0106494
1962	0.00501148
1974	0.000626435
1986	0.000501148
1998	0.000375861
2010	0.000626435
2022	0
2034	0.000375861
2046	0.000375861
2058	0.00112758
2070	0.0010023
2082	0.00150344
2094	0.00125287
2106	0.00137816
2118	0.00125287
2130	0.00112758
2142	0.00112758
2154	0.0010023
2166	0.00137816
2178	0.00162873
2190	0.0018793
2202	0.0018793
2214	0.00150344
2226	0.00150344
2238	0.00137816
2250	0.00175402
2262	0.00125287
2274	0.00125287
2286	0.00150344
2298	0.00212988
2310	0.00363332
2322	0.00263103
2334	0.00112758
2346	0.0018793
2358	0.00137816
2370	0.00125287
2382	0.0018793
2394	0.00137816
2406	0.00162873
2418	0.0018793
2430	0.00175402
2442	0.00150344
2454	0.000751722
2466	0.000626435
2478	0.00112758
2490	0.00125287
2502	0.00175402
2514	0.00162873
2526	0.00238045
2538	0.00238045
2550	0.00313218
2562	0.00350804
2574	0.00476091
2586	0.0057632
2598	0.00613906
2610	0.00714136
2622	0.00714136
2634	0.00751722
2646	0.00764251
2658	0.00814365
2670	0.00939652
2682	0.0105241
2694	0.0115264
2706	0.0129046
2718	0.0149092
2730	0.0172896
2742	0.0165379
2754	0.0182919
2766	0.023554
2778	0.0345792
2790	0.055878
2802	0.0913342
2814	0.128795
2826	0.147338
2838	0.136688
2850	0.126164
2862	0.17039
2874	0.328753
2886	0.322238
2898	0.193193
2910	0.201336
2922	0.266736
2934	0.379494
2946	0.736562
2958	1.25287
2970	0.802839
2982	0.195197
2994	0.0595113
3006	0.0467321
3018	0.0666527
3030	0.138066
3042	0.11802
3054	0.0736688
3066	0.133556
3078	0.131677
3090	0.0749216
3102	0.0448527
3114	0.025308
3126	0.00902066
3138	0.00413447
3150	0.00338275
3162	0.00350804
3174	0.00300689
3186	0.00162873
3198	0.00112758
3210	0.0010023
3222	0.00112758
3234	0.0010023
3246	0.00150344
3258	0.00137816
3270	0.0010023
3282	0.00125287
3294	0.00150344
3306	0.00137816
3318	0.00275631
3330	0.00238045
3342	0.00275631
3354	0.00325746
3366	0.00275631
3378	0.00212988
3390	0.00313218
3402	0.00325746
3414	0.00338275
3426	0.00275631
3438	0.00238045
3450	0.00225517
3462	0.00150344
3474	0.0018793
3486	0.00162873
3498	0.0018793
3510	0.00162873
3522	0.00137816
3534	0.00137816
3546	0.00175402
3558	0.00137816
3570	0.0018793
3582	0.000626435
3594	0.00112758
3606	0.000877009
3618	0.00112758
3630	0.00225517
3642	0.00313218
3654	0.00350804
3666	0.00275631
3678	0.0028816
3690	0.00350804
3702	0.00413447
3714	0.00476091
3726	0.00313218
3738	0.00212988
3750	0.00212988
3762	0.00363332
3774	0.0028816
3786	0.00175402
3798	0.00162873
3810	0.00238045
3822	0.00212988
3834	0.00263103
3846	0.00162873
3858	0.00200459
3870	0.00275631
3882	0.00438504
3894	0.0038839
3906	0.00313218
3918	0.00300689
3930	0.00150344
3942	0.000751722
3954	0.0028816
3966	0.000626435
