Infrared Spectrum: 4-(p-Acetoxyphenyl)-2-butanone
Formula: C 12 H 14 O 3
CAS: 3572-06-3
Origin: Sadtler Research Labs Under US-EPA Contract
1/CM	ABSORBANCE
450	0.0145386
462	0.00218861
474	0.0368936
486	0.0331417
498	0.0328291
510	0.0514322
522	0.0522139
534	0.0922341
546	0.0667525
558	0.047993
570	0.0451791
582	0.0533082
594	0.0417398
606	0.0404892
618	0.0303278
630	0.0453354
642	0.0439284
654	0.0372063
666	0.0262633
678	0.0240747
690	0.0211044
702	0.0215734
714	0.0198538
726	0.0182905
738	0.022355
750	0.0331417
762	0.0304842
774	0.0268886
786	0.0275139
798	0.0403329
810	0.0500253
822	0.0622189
834	0.0700354
846	0.0665962
858	0.0558095
870	0.0500253
882	0.0547151
894	0.0844177
906	0.156485
918	0.100363
930	0.0579981
942	0.047993
954	0.0406455
966	0.0384569
978	0.0451791
990	0.0611246
1002	0.111463
1014	0.164927
1026	0.0933284
1038	0.0531519
1050	0.0509633
1062	0.0569038
1074	0.0689411
1086	0.0705044
1098	0.0658145
1110	0.0619063
1122	0.0600303
1134	0.0822291
1146	0.154922
1158	0.278109
1170	0.462109
1182	0.460702
1194	1.05835
1206	1.56329
1218	0.833859
1230	0.313752
1242	0.17118
1254	0.123969
1266	0.0995816
1278	0.0778518
1290	0.0625316
1302	0.0545588
1314	0.0486183
1326	0.0525265
1338	0.0725367
1350	0.110525
1362	0.216047
1374	0.30234
1386	0.116778
1398	0.0576854
1410	0.0630006
1422	0.0662835
1434	0.0670651
1446	0.0639386
1458	0.0468987
1470	0.0378316
1482	0.0451791
1494	0.0803531
1506	0.329542
1518	0.155078
1530	0.0428341
1542	0.0193848
1554	0.0268886
1566	0.0218861
1578	0.0190721
1590	0.0317348
1602	0.0408019
1614	0.035643
1626	0.0270449
1638	0.0156329
1650	0.0107867
1662	0.024231
1674	0.0239183
1686	0.0362683
1698	0.0576854
1710	0.102552
1722	0.188533
1734	0.301246
1746	0.209012
1758	0.187595
1770	0.262945
1782	0.3952
1794	0.321412
1806	0.159299
1818	0.0775392
1830	0.0376753
1842	0.0250126
1854	0.0218861
1866	0.0165709
1878	0.0168835
1890	0.0175088
1902	0.0131316
1914	0.010943
1926	0.0096924
1938	0.00922341
1950	0.0096924
1962	0.0096924
1974	0.0100051
1986	0.0085981
1998	0.0101614
2010	0.0103177
2022	0.00891075
2034	0.00844177
2046	0.00812911
2058	0.00719113
2070	0.00640949
2082	0.00609683
2094	0.00812911
2106	0.00875442
2118	0.00797278
2130	0.00547151
2142	0.0037519
2154	0.00297025
2166	0.00281392
2178	0.00265759
2190	0.00250126
2202	0.00203228
2214	0.00187595
2226	0.00140696
2238	0.00203228
2250	0.00140696
2262	0.00203228
2274	0.00328291
2286	0.00437721
2298	0.00453354
2310	0.00500253
2322	0.00218861
2334	0.000937974
2346	0.00406455
2358	0.00156329
2370	0.00453354
2382	0.00531519
2394	0.00406455
2406	0.00531519
2418	0.0048462
2430	0.0037519
2442	0.00265759
2454	0.00187595
2466	0.00218861
2478	0.00234493
2490	0.00218861
2502	0.00203228
2514	0.00203228
2526	0.00218861
2538	0.00218861
2550	0.00218861
2562	0.00187595
2574	0.00265759
2586	0.00250126
2598	0.00218861
2610	0.00156329
2622	0.00140696
2634	0.00187595
2646	0.00187595
2658	0.00234493
2670	0.00297025
2682	0.00281392
2694	0.00250126
2706	0.00281392
2718	0.00281392
2730	0.00297025
2742	0.00312658
2754	0.00297025
2766	0.00312658
2778	0.00422088
2790	0.00468987
2802	0.00578417
2814	0.00656582
2826	0.00766012
2838	0.00984873
2850	0.0139133
2862	0.0209481
2874	0.0250126
2886	0.0261069
2898	0.0373626
2910	0.0494
2922	0.0592487
2934	0.0750379
2946	0.070348
2958	0.0633132
2970	0.0515886
2982	0.0331417
2994	0.0303278
3006	0.0381443
3018	0.0408019
3030	0.0473677
3042	0.0626879
3054	0.0364247
3066	0.0292335
3078	0.0268886
3090	0.0201664
3102	0.0173525
3114	0.0142259
3126	0.010474
3138	0.00562784
3150	0.00453354
3162	0.00468987
3174	0.00359557
3186	0.00328291
3198	0.00234493
3210	0.00203228
3222	0.00171962
3234	0.00203228
3246	0.00171962
3258	0.000937974
3270	0.00218861
3282	0.00234493
3294	0.00234493
3306	0.00187595
3318	0.00250126
3330	0.00265759
3342	0.00250126
3354	0.00203228
3366	0.00265759
3378	0.00390823
3390	0.00359557
3402	0.00390823
3414	0.0048462
3426	0.00422088
3438	0.00515886
3450	0.00734746
3462	0.00531519
3474	0.00406455
3486	0.00328291
3498	0.00437721
3510	0.00297025
3522	0.0059405
3534	0.00578417
3546	0.00797278
3558	0.00844177
3570	0.00953607
3582	0.00812911
3594	0.00766012
3606	0.00891075
3618	0.00297025
3630	0.00656582
3642	0.00875442
3654	0.0125063
3666	0.01235
3678	0
3690	0.00406455
3702	0.00766012
3714	0.00609683
3726	0.00640949
3738	0.00500253
3750	0.00906708
3762	0.00609683
3774	0.00797278
3786	0.0096924
3798	0.00734746
3810	0.0101614
3822	0.00140696
3834	0.00625316
3846	0.0115683
3858	0.00343924
3870	0.00312658
3882	0.00672215
3894	0.00500253
3906	0.00625316
3918	0.00984873
3930	0.00625316
3942	0.00625316
3954	0.0059405
3966	0.0070348
