Infrared Spectrum: Acetamide, N-(4-methoxyphenyl)-N-methyl-
Formula: C 10 H 13 N O 2
CAS: 35813-38-8
Origin: Sadtler Research Labs Under US-EPA Contract
1/CM	ABSORBANCE
450	0.0125236
462	0.0104364
474	0.0106261
486	0.00740033
498	0.00531306
510	0.00702082
522	0.0142314
534	0.0235292
546	0.0527511
558	0.098671
570	0.095635
582	0.0954453
594	0.113661
606	0.0409864
618	0.0168879
630	0.0115749
642	0.0176469
654	0.0117646
666	0.0094876
678	0.00664132
690	0.00170777
702	0.00208727
714	0.00246678
726	0.0115749
738	0.0166982
750	0.00626182
762	0.00379504
774	0.00455405
786	0.0208727
798	0.0580641
810	0.0278935
822	0.0390889
834	0.120303
846	0.103415
858	0.0250473
870	0.0132826
882	0.0140416
894	0.0115749
906	0.022201
918	0.0328271
930	0.00853884
942	0.0129031
954	0.0335861
966	0.0755213
978	0.0599616
990	0.0385197
1002	0.0472482
1014	0.073434
1026	0.119354
1038	0.238898
1050	0.179505
1062	0.0635669
1074	0.0510433
1086	0.069639
1098	0.0823524
1110	0.074952
1122	0.068121
1134	0.112523
1146	0.160151
1158	0.141745
1170	0.216507
1182	0.157304
1194	0.0844396
1206	0.0707775
1218	0.103984
1230	0.234344
1242	0.744397
1254	0.636618
1266	0.337379
1278	0.364514
1290	0.468308
1302	0.467549
1314	0.212902
1326	0.149904
1338	0.211763
1350	0.240036
1362	0.228082
1374	0.414798
1386	0.300188
1398	0.144781
1410	0.135673
1422	0.182352
1434	0.147248
1446	0.163566
1458	0.12998
1470	0.152181
1482	0.134344
1494	0.237949
1506	0.826939
1518	0.997526
1530	0.166033
1542	0.0643259
1554	0.0531306
1566	0.0500945
1578	0.0531306
1590	0.0557871
1602	0.0586334
1614	0.0616694
1626	0.0573051
1638	0.0664132
1650	0.0732443
1662	0.0842499
1674	0.143073
1686	0.82637
1698	1.8461
1710	0.26034
1722	0.0580641
1734	0.0280833
1746	0.0299808
1758	0.0373811
1770	0.0239088
1782	0.0104364
1794	0.00417454
1806	0.00645157
1818	0.00569256
1830	0.0047438
1842	0.00626182
1854	0.00853884
1866	0.0091081
1878	0.0138519
1890	0.0106261
1902	0.00721058
1914	0.0043643
1926	0.00341554
1938	0.00360529
1950	0.00341554
1962	0.00493355
1974	0.00531306
1986	0.00417454
1998	0.00455405
2010	0.00664132
2022	0.00834909
2034	0.0127134
2046	0.0166982
2058	0.0140416
2070	0.0127134
2082	0.0106261
2094	0.00645157
2106	0.00360529
2118	0.00132826
2130	0.000569256
2142	0.000189752
2154	0.000379504
2166	0.000379504
2178	0.00094876
2190	0.00132826
2202	0.00227702
2214	0.00265653
2226	0.00227702
2238	0.00094876
2250	0.00151802
2262	0.00284628
2274	0.0047438
2286	0.00550281
2298	0.00607206
2310	0.00683107
2322	0.00322578
2334	0.00151802
2346	0.00341554
2358	0.00132826
2370	0.00151802
2382	0.00246678
2394	0.00208727
2406	0.00303603
2418	0.00246678
2430	0.00189752
2442	0.00132826
2454	0.00170777
2466	0.00189752
2478	0.00303603
2490	0.00379504
2502	0.00341554
2514	0.0047438
2526	0.00702082
2538	0.00777983
2550	0.00569256
2562	0.00322578
2574	0.00303603
2586	0.00341554
2598	0.00417454
2610	0.00550281
2622	0.00455405
2634	0.00531306
2646	0.00569256
2658	0.0047438
2670	0.00379504
2682	0.00341554
2694	0.00284628
2706	0.00360529
2718	0.00341554
2730	0.00360529
2742	0.00398479
2754	0.00417454
2766	0.00607206
2778	0.00759008
2790	0.0106261
2802	0.0159392
2814	0.0235292
2826	0.0341554
2838	0.0637567
2850	0.0981018
2862	0.0533203
2874	0.0491458
2886	0.0626182
2898	0.0785573
2910	0.103415
2922	0.126565
2934	0.146489
2946	0.19924
2958	0.174003
2970	0.118215
2982	0.0762803
2994	0.0743828
3006	0.123529
3018	0.115749
3030	0.0611001
3042	0.0804548
3054	0.0779881
3066	0.0472482
3078	0.044402
3090	0.0351041
3102	0.0307398
3114	0.02296
3126	0.0157494
3138	0.0104364
3150	0.00740033
3162	0.00550281
3174	0.00455405
3186	0.00341554
3198	0.00284628
3210	0.00303603
3222	0.00265653
3234	0.00208727
3246	0.00208727
3258	0.00170777
3270	0.00189752
3282	0.00227702
3294	0.00227702
3306	0.00246678
3318	0.00246678
3330	0.00265653
3342	0.00303603
3354	0.0047438
3366	0.0132826
3378	0.0140416
3390	0.00322578
3402	0.00132826
3414	0.00151802
3426	0.00227702
3438	0.00208727
3450	0.00170777
3462	0.00151802
3474	0.00208727
3486	0.00170777
3498	0.00113851
3510	0.00132826
3522	0.00113851
3534	0.00208727
3546	0.00189752
3558	0.00113851
3570	0.00227702
3582	0.00227702
3594	0.00208727
3606	0.00094876
3618	0.00151802
3630	0.00341554
3642	0.00151802
3654	0.00189752
3666	0.00170777
3678	0.00303603
3690	0.00189752
3702	0.00246678
3714	0.00189752
3726	0.00227702
3738	0.00303603
3750	0.00208727
3762	0.00189752
3774	0.00189752
3786	0.00208727
3798	0.00113851
3810	0.00113851
3822	0.00246678
3834	0.00208727
3846	0.00208727
3858	0.00284628
3870	0.00208727
3882	0.00246678
3894	0.00303603
3906	0.00265653
3918	0.00227702
3930	0.00265653
3942	0.00113851
3954	0.00227702
3966	0.00303603
