Infrared Spectrum: Benzenamine, 3-phenoxy-
Formula: C 12 H 11 N O
CAS: 3586-12-7
Origin: Sadtler Research Labs Under US-EPA Contract
1/CM	ABSORBANCE
450	0.188834
462	0.0581951
474	0.025235
486	0.0928718
498	0.0638601
510	0.0296984
522	0.0441184
534	0.0345051
546	0.0276384
558	0.0271234
570	0.0473801
582	0.0497834
594	0.0482384
606	0.0458351
618	0.0353634
630	0.0539034
642	0.0827435
654	0.170637
666	0.273294
678	0.320674
690	0.468308
702	0.225742
714	0.119309
726	0.142484
738	0.175444
750	0.258359
762	0.333206
774	0.300932
786	0.191924
798	0.0909835
810	0.0787952
822	0.0944168
834	0.137505
846	0.184199
858	0.154329
870	0.11227
882	0.0645468
894	0.0581951
906	0.0537318
918	0.0389684
930	0.0418867
942	0.0727868
954	0.270719
966	0.295611
978	0.0775935
990	0.0489251
1002	0.0520151
1014	0.0192267
1026	0.0575084
1038	0.000515001
1050	0.021115
1062	0.0571651
1074	0.0918418
1086	0.0721001
1098	0.0784518
1110	0.0501268
1122	0.0549334
1134	0.161539
1146	0.60856
1158	0.310546
1170	0.299902
1182	0.130124
1194	0.146775
1206	0.454918
1218	1.35995
1230	1.36149
1242	0.653536
1254	0.241364
1266	0.23278
1278	0.553626
1290	0.529249
1302	0.317584
1314	0.263509
1326	0.170122
1338	0.0964769
1350	0.0439468
1362	0.0341617
1374	0.0329601
1386	0.0348484
1398	0.0408567
1410	0.0382817
1422	0.0523584
1434	0.0751901
1446	0.131154
1458	0.365651
1470	0.412859
1482	1.19532
1494	1.4511
1506	0.356724
1518	0.186087
1530	0.166689
1542	0.142484
1554	0.158792
1566	0.308829
1578	0.695595
1590	1.15824
1602	0.876875
1614	0.69611
1626	0.838765
1638	0.468479
1650	0.166002
1662	0.0743318
1674	0.0679801
1686	0.0545901
1698	0.0489251
1710	0.0372517
1722	0.0386251
1734	0.0408567
1746	0.0257501
1758	0.0187117
1770	0.02369
1782	0.0212867
1794	0.0209434
1806	0.0151067
1818	0.0115017
1830	0.0157934
1842	0.0168234
1854	0.0151067
1866	0.0199134
1878	0.0181967
1890	0.0204284
1902	0.0243767
1914	0.0262651
1926	0.025235
1938	0.024205
1950	0.0245484
1962	0.0188834
1974	0.01339
1986	0.0103
1998	0.00944169
2010	0.00892668
2022	0.0111584
2034	0.0125317
2046	0.0145917
2058	0.012875
2070	0.00944169
2082	0.00566501
2094	0.00618001
2106	0.00721001
2118	0.00532168
2130	0.00394834
2142	0.00326167
2154	0.00257501
2166	0.00188834
2178	0.000858335
2190	0
2202	0.000686668
2214	0.00206
2226	0.00343334
2238	0.00446334
2250	0.00360501
2262	0.00480668
2274	0.00497834
2286	0.00738168
2298	0.00978502
2310	0.0125317
2322	0.0120167
2334	0.00772502
2346	0.00583668
2358	0.00755335
2370	0.0125317
2382	0.0130467
2394	0.0103
2406	0.010815
2418	0.0173384
2430	0.0219734
2442	0.0212867
2454	0.0183684
2466	0.0130467
2478	0.00858335
2490	0.00652335
2502	0.00480668
2514	0.00377667
2526	0.00412001
2538	0.00549334
2550	0.00566501
2562	0.00721001
2574	0.00806835
2586	0.00824002
2598	0.00892668
2610	0.00892668
2622	0.00738168
2634	0.00600835
2646	0.00429168
2658	0.00377667
2670	0.00360501
2682	0.00480668
2694	0.00446334
2706	0.00463501
2718	0.00549334
2730	0.00652335
2742	0.00824002
2754	0.00806835
2766	0.00789668
2778	0.00738168
2790	0.00652335
2802	0.00412001
2814	0.00360501
2826	0.00343334
2838	0.00394834
2850	0.00497834
2862	0.00652335
2874	0.00532168
2886	0.00532168
2898	0.00772502
2910	0.00738168
2922	0.00635168
2934	0.00995669
2946	0.0116734
2958	0.010815
2970	0.0130467
2982	0.0152784
2994	0.015965
3006	0.0262651
3018	0.0573368
3030	0.111927
3042	0.185229
3054	0.190379
3066	0.16892
3078	0.188834
3090	0.137505
3102	0.0849752
3114	0.0430884
3126	0.0228317
3138	0.01854
3150	0.0199134
3162	0.0248917
3174	0.0326167
3186	0.0412001
3198	0.0494401
3210	0.0532168
3222	0.0482384
3234	0.0351917
3246	0.0262651
3258	0.0248917
3270	0.0260934
3282	0.0329601
3294	0.0412001
3306	0.0480668
3318	0.0515001
3330	0.0484101
3342	0.0448051
3354	0.0418867
3366	0.0427451
3378	0.0439468
3390	0.0458351
3402	0.0597401
3414	0.0765635
3426	0.0662635
3438	0.0451484
3450	0.0358784
3462	0.0317584
3474	0.0310717
3486	0.0370801
3498	0.0412001
3510	0.0302134
3522	0.018025
3534	0.00755335
3546	0.00343334
3558	0.000858335
3570	0.00291834
3582	0.00343334
3594	0.00223167
3606	0.00206
3618	0.00257501
3630	0.00412001
3642	0.00360501
3654	0.00515001
3666	0.00257501
3678	0.00377667
3690	0.00326167
3702	0.00257501
3714	0.00137334
3726	0.000686668
3738	0.001545
3750	0.00480668
3762	0.00240334
3774	0.00223167
3786	0.00223167
3798	0.00240334
3810	0.00480668
3822	0.00343334
3834	0.00343334
3846	0.00703835
3858	0.010815
3870	0.00377667
3882	0.00480668
3894	0.00652335
3906	0.00326167
3918	0.00274667
3930	0.00480668
3942	0.00343334
3954	0.00583668
3966	0.00652335
