Infrared Spectrum: Glycine, N-(m-nitrophenyl)-, ethyl ester
Formula: C 10 H 12 N 2 O 4
CAS: 3589-58-0
Origin: Sadtler Research Labs Under US-EPA Contract
1/CM	ABSORBANCE
450	0.00854757
462	0.00825485
474	0.00515196
486	0.00187344
498	0.00199053
510	0.00333707
522	0.00158072
534	0.0011709
546	0.00263452
558	0.00199053
570	0.00245889
582	0.0035127
594	0.0046836
606	0.00485923
618	0.00474215
630	0.00269307
642	0.00339561
654	0.00989411
666	0.0265794
678	0.0386397
690	0.0161584
702	0.0114163
714	0.0139923
726	0.0454895
738	0.0825485
750	0.0190271
762	0.0114163
774	0.014929
786	0.0422109
798	0.0407473
810	0.0587792
822	0.0432062
834	0.0186173
846	0.0133483
858	0.0329608
870	0.0245889
882	0.00930866
894	0.00515196
906	0.00825485
918	0.010421
930	0.00579596
942	0.0018149
954	0.00035127
966	0.00105381
978	0.00374688
990	0.0157486
1002	0.0196126
1014	0.0376444
1026	0.0735911
1038	0.0622333
1050	0.0326096
1062	0.0247645
1074	0.0302678
1086	0.0389324
1098	0.0551494
1110	0.0520465
1122	0.0655119
1134	0.0750547
1146	0.077455
1158	0.0716005
1170	0.110065
1182	0.18711
1194	0.276215
1206	0.351153
1218	0.285173
1230	0.152744
1242	0.142206
1254	0.124994
1266	0.112523
1278	0.089164
1290	0.0716591
1302	0.0771623
1314	0.0947844
1326	0.121715
1338	0.16457
1350	0.329081
1362	0.262809
1374	0.126223
1386	0.0551494
1398	0.038347
1410	0.0288627
1422	0.0312045
1434	0.037703
1446	0.0463091
1458	0.0693173
1470	0.0560276
1482	0.0742351
1494	0.103976
1506	0.16697
1518	0.146304
1530	0.174874
1542	0.422929
1554	0.447869
1566	0.106786
1578	0.0838364
1590	0.0937891
1602	0.0526905
1614	0.078099
1626	0.127687
1638	0.0523978
1650	0.0205493
1662	0.0117675
1674	0.0146948
1686	0.0180904
1698	0.0234765
1710	0.0304434
1722	0.0479484
1734	0.0720104
1746	0.11346
1758	0.272059
1770	0.188515
1782	0.0547981
1794	0.0286285
1806	0.0157486
1818	0.00854757
1830	0.00684977
1842	0.00386397
1854	0.00310289
1866	0.00240034
1878	0.00134654
1890	0.00240034
1902	0.00152217
1914	0.0023418
1926	0.00392252
1938	0.00210762
1950	0.00035127
1962	0.00058545
1974	0
1986	0
1998	0.00046836
2010	0.000175635
2022	0.00058545
2034	0.00046836
2046	0.00111235
2058	0.000878175
2070	0.00146363
2082	0.00111235
2094	0.00081963
2106	0.000761085
2118	0.000761085
2130	0.000409815
2142	0.000643995
2154	0.000292725
2166	0.000526905
2178	0.000526905
2190	0.000175635
2202	0.000175635
2214	0.000292725
2226	0.00058545
2238	0.00070254
2250	0.00081963
2262	0.00128799
2274	0.00146363
2286	0.00222471
2298	0.00374688
2310	0.00684977
2322	0.00778649
2334	0.0070254
2346	0.0125286
2358	0.00474215
2370	0.00497633
2382	0.00421524
2394	0.00199053
2406	0.00169781
2418	0.00187344
2430	0.00245889
2442	0.00187344
2454	0.00169781
2466	0.00175635
2478	0.00128799
2490	0.0011709
2502	0.00146363
2514	0.0011709
2526	0.00163926
2538	0.00204908
2550	0.00210762
2562	0.00269307
2574	0.00275162
2586	0.00257598
2598	0.00333707
2610	0.00286871
2622	0.00240034
2634	0.00269307
2646	0.00210762
2658	0.00310289
2670	0.00327852
2682	0.00327852
2694	0.00380543
2706	0.00345415
2718	0.00269307
2730	0.00345415
2742	0.00362979
2754	0.00398106
2766	0.00480069
2778	0.00497633
2790	0.00550323
2802	0.00614723
2814	0.00755231
2826	0.0101868
2838	0.0130555
2850	0.0154559
2862	0.0179148
2874	0.0203737
2886	0.0242376
2898	0.0255842
2910	0.0285114
2922	0.0330194
2934	0.034483
2946	0.0427379
2958	0.0333707
2970	0.0353026
2982	0.051344
2994	0.0605355
3006	0.035127
3018	0.0220715
3030	0.0150461
3042	0.017505
3054	0.0140508
3066	0.0138166
3078	0.0186759
3090	0.0134654
3102	0.00807921
3114	0.00579596
3126	0.00368834
3138	0.0023418
3150	0.00140508
3162	0.00163926
3174	0.00193198
3186	0.0011709
3198	0.00134654
3210	0.0018149
3222	0.00128799
3234	0.00093672
3246	0.00134654
3258	0.000643995
3270	0.00187344
3282	0.00070254
3294	0.00146363
3306	0.0018149
3318	0.00169781
3330	0.00210762
3342	0.00263452
3354	0.00362979
3366	0.00579596
3378	0.00784503
3390	0.00925011
3402	0.0145777
3414	0.02535
3426	0.0457822
3438	0.0285114
3450	0.0177977
3462	0.0125286
3474	0.00684977
3486	0.00456651
3498	0.00368834
3510	0.00251744
3522	0.0011709
3534	0.000643995
3546	0.00251744
3558	0.000761085
3570	0.00275162
3582	0.00070254
3594	0.00333707
3606	0.00111235
3618	0.00333707
3630	0.00643995
3642	0.00204908
3654	0.00122945
3666	0.00093672
3678	0.00562032
3690	0.00228326
3702	0.00281016
3714	0.00362979
3726	0.00427379
3738	0.0053276
3750	0.00292725
3762	0.00222471
3774	0.00222471
3786	0.00058545
3798	0.00263452
3810	0.00011709
3822	0.00345415
3834	0.00345415
3846	0.0023418
3858	0.00433233
3870	0.00550323
3882	0.00386397
3894	0.00562032
3906	0.0029858
3918	0.00421524
3930	0.0018149
3942	0.00222471
3954	0.00263452
3966	0.00222471
