Infrared Spectrum: Benzene, (2,2-dichloro-1-methylcyclopropyl)-
Formula: C 10 H 10 Cl 2
CAS: 3591-42-2
Origin: Sadtler Research Labs Under US-EPA Contract
1/CM	ABSORBANCE
450	0.0283546
462	0.0518076
474	0.0502565
486	0.0196062
498	0.0140222
510	0
522	0.0155113
534	0.103429
546	0.0811549
558	0.0109199
570	0.00912062
582	0.0258107
594	0.1074
606	0.0511251
618	0.0135879
630	0.0144565
642	0.00304021
654	0.0131535
666	0.0232048
678	0.0475885
690	0.296699
702	0.500393
714	0.109758
726	0.0318911
738	0.0563369
750	0.191719
762	0.364142
774	0.62045
786	0.298436
798	0.049574
810	0.0135879
822	0.0101133
834	0.0140222
846	0.0240735
858	0.0672568
870	0.116645
882	0.0285407
894	0.00701109
906	0.0140222
918	0.0121608
930	0.0297196
942	0.0361722
954	0.00912062
966	0.0037227
978	0.00173726
990	0.00272998
1002	0.00787972
1014	0.037289
1026	0.217406
1038	0.27821
1050	0.193332
1062	0.170189
1074	0.393365
1086	0.228698
1098	0.101444
1110	0.0915784
1122	0.053793
1134	0.0170003
1146	0.010982
1158	0.00887244
1170	0.00682495
1182	0.00912062
1194	0.00508769
1206	0.00415702
1218	0.00694904
1230	0.0137119
1242	0.0222121
1254	0.0341868
1266	0.0214055
1278	0.0102995
1290	0.00862426
1302	0.0112922
1314	0.0174967
1326	0.019296
1338	0.0134017
1350	0.00577019
1362	0.0086863
1374	0.0308364
1386	0.0774942
1398	0.0277962
1410	0.0243216
1422	0.0919507
1434	0.166901
1446	0.179682
1458	0.135258
1470	0.0412599
1482	0.0268034
1494	0.175401
1506	0.115404
1518	0.0232669
1530	0.0190478
1542	0.017931
1554	0.00639064
1566	0.00608041
1578	0.0145185
1590	0.0379095
1602	0.0994581
1614	0.0511871
1626	0.0109199
1638	0.006887
1650	0.00701109
1662	0.00806585
1674	0.010982
1686	0.00961698
1698	0.0101133
1710	0.00924471
1722	0.0128433
1734	0.0219019
1746	0.0283546
1758	0.0141463
1770	0.00670086
1782	0.0102374
1794	0.0266173
1806	0.0164419
1818	0.00998925
1830	0.00409497
1842	0.0024818
1854	0.00384679
1866	0.0153872
1878	0.0170624
1890	0.0176828
1902	0.00682495
1914	0.00595632
1926	0.00831403
1938	0.0224603
1950	0.0214055
1962	0.0174967
1974	0.00415702
1986	0.0037227
1998	0.0012409
2010	0.00074454
2022	0.00062045
2034	0.000558405
2046	0.0012409
2058	0.00117886
2070	0.00260589
2082	0.00794176
2094	0.00949289
2106	0.00241976
2118	0.00186135
2130	0.00210953
2142	0.00235771
2154	0.00241976
2166	0.00148908
2178	0.00111681
2190	0.000806585
2202	0.000310225
2214	0
2226	6.2045e-05
2238	0.000682495
2250	0.00167522
2262	0.00086863
2274	0.000310225
2286	0.00167522
2298	0.00198544
2310	0.00359861
2322	0.00341248
2334	0.00223362
2346	0.0024818
2358	0.00235771
2370	0.00161317
2382	0.00142704
2394	0.00117886
2406	0.000806585
2418	0.00086863
2430	0.000806585
2442	0.00167522
2454	0.00179931
2466	0.0024818
2478	0.00260589
2490	0.00155113
2502	0.00161317
2514	0.00173726
2526	0.00161317
2538	0.00130295
2550	0.0012409
2562	0.00074454
2574	0.00142704
2586	0.00173726
2598	0.00179931
2610	0.00210953
2622	0.00198544
2634	0.00260589
2646	0.00223362
2658	0.00111681
2670	0.00099272
2682	0.00142704
2694	0.0019234
2706	0.00204749
2718	0.00279203
2730	0.0019234
2742	0.00452929
2754	0.00577019
2766	0.00304021
2778	0.00304021
2790	0.00291612
2802	0.00477747
2814	0.00645268
2826	0.00818994
2838	0.0105477
2850	0.0107958
2862	0.0180551
2874	0.0457892
2886	0.06614
2898	0.0434935
2910	0.0397088
2922	0.0429972
2934	0.132032
2946	0.152631
2958	0.055158
2970	0.126882
2982	0.123159
2994	0.197862
3006	0.128557
3018	0.0929434
3030	0.158401
3042	0.226464
3054	0.109261
3066	0.227023
3078	0.262016
3090	0.169631
3102	0.0886003
3114	0.0519937
3126	0.0243216
3138	0.0162558
3150	0.012409
3162	0.00874835
3174	0.00608041
3186	0.00322634
3198	0.00217158
3210	0.00186135
3222	0.00173726
3234	0.00136499
3246	0.00142704
3258	0.00148908
3270	0.00142704
3282	0.00204749
3294	0.0012409
3306	0.00167522
3318	0.000310225
3330	0.000310225
3342	0.00117886
3354	0.000682495
3366	0.0012409
3378	0.00062045
3390	0.000186135
3402	0.000682495
3414	0.00099272
3426	0.00062045
3438	0.000930675
3450	0.00099272
3462	0.00062045
3474	0.00111681
3486	0.00111681
3498	0.0019234
3510	0.000930675
3522	0.000558405
3534	0.00074454
3546	0.00037227
3558	0.000930675
3570	0.00074454
3582	0.00130295
3594	0.00111681
3606	0.00099272
3618	0.00062045
3630	0.00136499
3642	0.0024818
3654	0.00223362
3666	0.00204749
3678	0.00049636
3690	0.00229567
3702	0.00148908
3714	0.00142704
3726	0.00161317
3738	0.00155113
3750	0.000558405
3762	0.00179931
3774	0.00130295
3786	0.00111681
3798	0
3810	0.000682495
3822	0.00062045
3834	0.000434315
3846	0.000310225
3858	0.00117886
3870	0.00111681
3882	0.00161317
3894	0.0012409
3906	0.00049636
3918	0.00204749
3930	0.00062045
3942	0.00291612
3954	0.00167522
3966	0.00167522
