Infrared Spectrum: Benzo[b]thiophene-4-ol
Formula: C 8 H 6 O S
CAS: 3610-02-4
Origin: Sadtler Research Labs Under US-EPA Contract
1/CM	ABSORBANCE
450	0.00646958
462	0.0140032
474	0.0144289
486	0.0132797
498	0.00787415
510	0.00732084
522	0.00727827
534	0.0219625
546	0.0292833
558	0.0173657
570	0.00876798
582	0.00165996
594	0.00442655
606	0.0157483
618	0.0169826
630	0.00497987
642	0.0011492
654	0.00178765
666	0.0211538
678	0.0864455
690	0.0834235
702	0.0241758
714	0.0130243
726	0.12007
738	0.369106
750	0.218221
762	0.0479685
774	0.020941
786	0.0449465
798	0.0548211
810	0.0186
822	0.0088531
834	0.00604395
846	0.00842747
858	0.0193236
870	0.0201323
882	0.0160037
894	0.0115346
906	0.0414564
918	0.241673
930	0.230308
942	0.0234948
954	0.00864029
966	0.00395836
978	0.00255378
990	0.00276659
1002	0.00676752
1014	0.00859773
1026	0.00646958
1038	0.00961924
1050	0.0288577
1062	0.0285598
1074	0.0129817
1086	0.0227286
1098	0.0211538
1110	0.0191959
1122	0.0391154
1134	0.115899
1146	0.164293
1158	0.105556
1170	0.0520971
1182	0.0453296
1194	0.119517
1206	0.22801
1218	0.181063
1230	0.13667
1242	0.123518
1254	0.122198
1266	0.242652
1278	0.166506
1290	0.0364339
1302	0.0454147
1314	0.0513735
1326	0.0724422
1338	0.110494
1350	0.082785
1362	0.0235373
1374	0.011492
1386	0.00949155
1398	0.026006
1410	0.0741447
1422	0.193747
1434	0.149652
1446	0.109515
1458	0.160377
1470	0.11292
1482	0.0523525
1494	0.0148971
1506	0.0178765
1518	0.0271552
1530	0.0242609
1542	0.0345186
1554	0.0688244
1566	0.223328
1578	0.266189
1590	0.0786564
1602	0.0507351
1614	0.0450742
1626	0.0246014
1638	0.00753365
1650	0.00515012
1662	0.005065
1674	0.00642701
1686	0.0093213
1698	0.00961924
1710	0.00774647
1722	0.00791672
1734	0.00864029
1746	0.00727827
1758	0.00791672
1770	0.00783159
1782	0.00566088
1794	0.00553319
1806	0.00417117
1818	0.00378811
1830	0.00263891
1842	0.00234096
1854	0.0022984
1866	0.00336248
1878	0.00957667
1890	0.0112792
1902	0.00617163
1914	0.00187277
1926	0.00085126
1938	0.000808697
1950	0.0011492
1962	0.000681008
1974	0.000340504
1986	0.000468193
1998	0.00119176
2010	0.00148971
2022	0.00127689
2034	0.00119176
2046	0.000978949
2058	0.00170252
2070	0.00200046
2082	0.000936386
2094	0.000936386
2106	0.00102151
2118	0.00161739
2130	0.00153227
2142	0.00110664
2154	0.0011492
2166	0.00204302
2178	0.00357529
2190	0.00378811
2202	0.00208559
2214	0.0011492
2226	0.000553319
2238	0.00042563
2250	0.000212815
2262	0.000808697
2274	0.00136202
2286	0.00280916
2298	0.0039158
2310	0.00468193
2322	0.0039158
2334	0.00327735
2346	0.00446912
2358	0.00370298
2370	0.0054055
2382	0.00549063
2394	0.00276659
2406	0.00323479
2418	0.00200046
2430	0.00174508
2442	0.00144714
2454	0.00183021
2466	0.00302197
2478	0.00408605
2490	0.00429886
2502	0.00387323
2514	0.0022984
2526	0.00251122
2538	0.00221328
2550	0.00153227
2562	0.00178765
2574	0.00165996
2586	0.000978949
2598	0.000978949
2610	0.00153227
2622	0.00157483
2634	0.00161739
2646	0.00191533
2658	0.00268147
2670	0.00289428
2682	0.00200046
2694	0.00136202
2706	0.000978949
2718	0.00085126
2730	0.00110664
2742	0.00131945
2754	0.00144714
2766	0.00157483
2778	0.00148971
2790	0.00174508
2802	0.00131945
2814	0.000638445
2826	0.000383067
2838	0.000340504
2850	0.000978949
2862	0.000595882
2874	0.00085126
2886	0.00140458
2898	0.00221328
2910	0.00221328
2922	0.00297941
2934	0.00276659
2946	0.00255378
2958	0.00200046
2970	0.00123433
2982	0.00174508
2994	0.00314966
3006	0.00744853
3018	0.0159186
3030	0.0196215
3042	0.0302197
3054	0.0457552
3066	0.0450742
3078	0.0508202
3090	0.0397538
3102	0.0154504
3114	0.00872542
3126	0.00532037
3138	0.00140458
3150	0.000723571
3162	0.000468193
3174	0.000808697
3186	0.000681008
3198	0.000595882
3210	0.000638445
3222	0.000766134
3234	0.000681008
3246	0.00085126
3258	0.00042563
3270	0.000681008
3282	0.000255378
3294	0.000595882
3306	0.00110664
3318	0.00148971
3330	0.00276659
3342	0.00238353
3354	0.00204302
3366	0.00204302
3378	0.0022984
3390	0.00285172
3402	0.00331991
3414	0.00297941
3426	0.00259634
3438	0.00144714
3450	0.0011492
3462	0.00191533
3474	0.00178765
3486	0.00204302
3498	0.00157483
3510	0.00140458
3522	0.000638445
3534	0.000808697
3546	0.000766134
3558	0.0011492
3570	0.00106408
3582	0.0019579
3594	0.00148971
3606	0.00280916
3618	0.00693777
3630	0.0276234
3642	0.167315
3654	0.2026
3666	0.0428609
3678	0.00497987
3690	0.0034476
3702	0.00191533
3714	0.000936386
3726	8.5126e-05
3738	8.5126e-05
3750	0.00148971
3762	0.00102151
3774	0.00153227
3786	0.00217071
3798	0.00153227
3810	0.00208559
3822	0.00238353
3834	0.00187277
3846	0.00285172
3858	0.00289428
3870	0.00191533
3882	0.00110664
3894	0.00302197
3906	0.00259634
3918	0.00349017
3930	0.00314966
3942	0.00285172
3954	0.00349017
3966	0.00336248
