Infrared Spectrum: Cyclohexanol, 2-butyl-,
Formula: C 10 H 20 O
CAS: 36159-49-6
Origin: Sadtler Research Labs Under US-EPA Contract
1/CM	ABSORBANCE
450	0.00177365
462	0.00310388
474	0.00236486
486	0.00285754
498	0.000936092
510	0.00399071
522	0.00773508
534	0.00379364
546	0.000936092
558	0.00310388
570	0.00285754
582	0
594	0.00487753
606	0.00315315
618	0.0010839
630	0.00290681
642	0.00379364
654	0.00403998
666	0.00403998
678	0.00448339
690	0.00300535
702	0.00517314
714	0.0026112
726	0.00807995
738	0.00783361
750	0.00389217
762	0.00487753
774	0.00610923
786	0.004779
798	0.00325169
810	0.00537021
822	0.00704532
834	0.00891751
846	0.0107897
858	0.00995214
870	0.00793215
882	0.00798142
894	0.011036
906	0.00867117
918	0.00832629
930	0.0127111
942	0.0129082
954	0.0182292
966	0.0357686
978	0.0408924
990	0.0199535
1002	0.013795
1014	0.0136965
1026	0.0238457
1038	0.0373451
1050	0.0506968
1062	0.0512387
1074	0.030891
1086	0.0194116
1098	0.0163077
1110	0.0143863
1122	0.0168989
1134	0.0191653
1146	0.0173423
1158	0.0147311
1170	0.0159628
1182	0.021136
1194	0.0203477
1206	0.0192145
1218	0.0217765
1230	0.0228111
1242	0.019116
1254	0.0177857
1266	0.0172438
1278	0.015076
1290	0.0132531
1302	0.0126619
1314	0.0132038
1326	0.0142385
1338	0.0168989
1350	0.0172438
1362	0.0174901
1374	0.0221706
1386	0.0252745
1398	0.0153223
1410	0.0098536
1422	0.00872044
1434	0.0134009
1446	0.0339457
1458	0.0487261
1470	0.0341427
1482	0.0131053
1494	0.00556728
1506	0.00541948
1518	0.00379364
1530	0.00315315
1542	0.00453266
1554	0.00270974
1566	0.0026112
1578	0.00266047
1590	0.00157658
1602	0.00226633
1614	0.00206926
1626	0.00266047
1638	0.00211852
1650	0.00251267
1662	0.00192145
1674	0.00206926
1686	0.00325169
1698	0.00305462
1710	0.00197072
1722	0.00206926
1734	0.00295608
1746	0.00152731
1758	0.00206926
1770	0.00197072
1782	0.00177365
1794	0.00201999
1806	0.00152731
1818	0.00147804
1830	0.00201999
1842	0.00152731
1854	0.00147804
1866	0.00147804
1878	0.00152731
1890	0.00142877
1902	0.00147804
1914	0.00147804
1926	0.000936092
1938	0.00147804
1950	0.00142877
1962	0.00142877
1974	0.00142877
1986	0.000886824
1998	0.000936092
2010	0.0013795
2022	0.0013795
2034	0.0013795
2046	0.00118243
2058	0.00142877
2070	0.00128097
2082	0.00133024
2094	0.00147804
2106	0.00133024
2118	0.00133024
2130	0.0013795
2142	0.00133024
2154	0.00128097
2166	0.00128097
2178	0.0012317
2190	0.00128097
2202	0.00177365
2214	0.00128097
2226	0.00128097
2238	0.00133024
2250	0.00073902
2262	0.000886824
2274	0.00128097
2286	0.00118243
2298	0.00172438
2310	0.00167511
2322	0.00325169
2334	0.00438485
2346	0.00330096
2358	0.00423705
2370	0.00453266
2382	0.00182292
2394	0.0012317
2406	0.0012317
2418	0.00162584
2430	0.0012317
2442	0.000788288
2454	0.000689752
2466	0.000640484
2478	0.000837556
2490	0.000936092
2502	0.000689752
2514	0.00118243
2526	0.00118243
2538	0.00142877
2550	0.00118243
2562	0.00118243
2574	0.00162584
2586	0.00216779
2598	0.00236486
2610	0.00221706
2622	0.00320242
2634	0.00325169
2646	0.00423705
2658	0.00571509
2670	0.00719313
2682	0.00674972
2694	0.00512387
2706	0.00448339
2718	0.00428632
2730	0.00522241
2742	0.00527168
2754	0.00532094
2766	0.00566582
2778	0.00625704
2790	0.00788288
2802	0.00990287
2814	0.0112331
2826	0.0151253
2838	0.0252745
2850	0.0645411
2862	0.16692
2874	0.191554
2886	0.13056
2898	0.104941
2910	0.140463
2922	0.245897
2934	0.449029
2946	0.421734
2958	0.167659
2970	0.147311
2982	0.0574958
2994	0.0192638
3006	0.0124648
3018	0.00891751
3030	0.00714386
3042	0.00522241
3054	0.00413851
3066	0.00310388
3078	0.00305462
3090	0.00256194
3102	0.00211852
3114	0.00221706
3126	0.00167511
3138	0.00167511
3150	0.00113316
3162	0.00167511
3174	0.0012317
3186	0.00128097
3198	0.00128097
3210	0.0012317
3222	0.00133024
3234	0.00133024
3246	0.00128097
3258	0.00133024
3270	0.00133024
3282	0.000394144
3294	0.000936092
3306	0.000886824
3318	0.000936092
3330	0.000886824
3342	0.000936092
3354	0.00118243
3366	0.00147804
3378	0.00142877
3390	0.0013795
3402	0.0012317
3414	0.000936092
3426	0.00147804
3438	0.00147804
3450	0.00152731
3462	0.00157658
3474	0.00147804
3486	0.00152731
3498	0.00152731
3510	0.00103463
3522	0.0010839
3534	0.000788288
3546	0.0010839
3558	0.00103463
3570	0.00118243
3582	0.000689752
3594	0.00162584
3606	0.00167511
3618	0.00201999
3630	0.00418778
3642	0.00886824
3654	0.0186233
3666	0.0126619
3678	0.00428632
3690	0.00177365
3702	0.00073902
3714	0.00073902
3726	0.00142877
3738	0.00133024
3750	0.00073902
3762	0.000837556
3774	0.000394144
3786	0.000837556
3798	0.000837556
3810	0.000886824
3822	0.00133024
3834	0.00133024
3846	0.000591216
3858	0.00049268
3870	0.000394144
3882	0.000394144
3894	0.000394144
3906	0.000394144
3918	0.000394144
3930	0.000394144
3942	0.000394144
3954	0.000394144
3966	0.000394144
