Infrared Spectrum: 4-Pyridinemethanol, 1,2,3,6-tetrahydro-1-methyl-
Formula: C 7 H 13 N O
CAS: 36166-75-3
Origin: Sadtler Research Labs Under US-EPA Contract
1/CM	ABSORBANCE
450	0.00920667
462	0.00987625
474	0.0115502
486	0.00864869
498	0.010211
510	0.0142285
522	0.0190829
534	0.0166278
546	0.0130567
558	0.0135031
570	0.0128335
582	0.0102668
594	0.0027899
606	0.00223192
618	0.00239931
630	0.00133915
642	0.00156234
654	0.00195293
666	0.00518921
678	0.0149539
690	0.0210358
702	0.0198641
714	0.0135031
726	0.00820231
738	0.00680736
750	0.0138379
762	0.0313027
774	0.0390028
786	0.0292382
798	0.0252765
810	0.0550726
822	0.0994878
834	0.0684083
846	0.0237141
858	0.00970885
870	0.00931827
882	0.0106574
894	0.0137821
906	0.0205895
918	0.0318607
930	0.0374405
942	0.0487675
954	0.0920667
966	0.164214
978	0.174815
990	0.182348
1002	0.305773
1014	0.337522
1026	0.23636
1038	0.195739
1050	0.198752
1062	0.172751
1074	0.113158
1086	0.0853151
1098	0.0561886
1110	0.0545146
1122	0.0964189
1134	0.143791
1146	0.13425
1158	0.15523
1170	0.210358
1182	0.162986
1194	0.131739
1206	0.118403
1218	0.0772802
1230	0.0607082
1242	0.061322
1254	0.0893884
1266	0.110201
1278	0.118013
1290	0.138993
1302	0.115055
1314	0.0740997
1326	0.062159
1338	0.0675156
1350	0.111317
1362	0.175931
1374	0.272796
1386	0.207792
1398	0.0737092
1410	0.0503298
1422	0.0532871
1434	0.0765549
1446	0.113605
1458	0.149315
1470	0.134696
1482	0.0564118
1494	0.0199757
1506	0.011327
1518	0.00725374
1530	0.00747693
1542	0.00931827
1554	0.00703055
1566	0.00580299
1578	0.0055798
1590	0.00502182
1602	0.00435224
1614	0.00518921
1626	0.0056356
1638	0.00591459
1650	0.00513342
1662	0.00530081
1674	0.00959726
1686	0.0102668
1698	0.00518921
1710	0.00340368
1722	0.00418485
1734	0.00429645
1746	0.00251091
1758	0.00301309
1770	0.00217612
1782	0.00245511
1794	0.0026783
1806	0.00424065
1818	0.00597039
1830	0.00373847
1842	0.00245511
1854	0.00172974
1866	0.00111596
1878	0.00167394
1890	0.00150655
1902	0.00206453
1914	0.00228772
1926	0.00200873
1938	0.00256671
1950	0.00329208
1962	0.00312469
1974	0.00329208
1986	0.00368267
1998	0.00362687
2010	0.00357107
2022	0.00295729
2034	0.00251091
2046	0.00256671
2058	0.00200873
2070	0.00128335
2082	0.00128335
2094	0.000669576
2106	0.000725374
2118	0.000446384
2130	0
2142	0.000502182
2154	0.00083697
2166	0.00172974
2178	0.00200873
2190	0.00150655
2202	0.000892768
2214	0.00122756
2226	0.00150655
2238	0.00145075
2250	0.00161814
2262	0.00212032
2274	0.00223192
2286	0.0027341
2298	0.00239931
2310	0.00312469
2322	0.00340368
2334	0.00401746
2346	0.00502182
2358	0.00424065
2370	0.00513342
2382	0.00479863
2394	0.00368267
2406	0.00429645
2418	0.00435224
2430	0.00451964
2442	0.00468703
2454	0.00440804
2466	0.00440804
2478	0.00474283
2490	0.00619358
2502	0.00764433
2514	0.00853709
2526	0.00809071
2538	0.0084255
2550	0.00876029
2562	0.00876029
2574	0.0101552
2586	0.011048
2598	0.0121082
2610	0.0145633
2622	0.0203105
2634	0.0282896
2646	0.0349853
2658	0.0481537
2670	0.0719794
2682	0.0970885
2694	0.108192
2706	0.117622
2718	0.142843
2730	0.182459
2742	0.2199
2754	0.25628
2766	0.379036
2778	0.532871
2790	0.557366
2802	0.348459
2814	0.175875
2826	0.126494
2838	0.20489
2850	0.301644
2862	0.283565
2874	0.299356
2886	0.313138
2898	0.366593
2910	0.474674
2922	0.509045
2934	0.473948
2946	0.553795
2958	0.436061
2970	0.251482
2982	0.183296
2994	0.0814093
3006	0.0521711
3018	0.060206
3030	0.0574719
3042	0.037831
3054	0.029015
3066	0.0247185
3078	0.0161256
3090	0.0103784
3102	0.0083697
3114	0.00775592
3126	0.00781172
3138	0.00686315
3150	0.00641677
3162	0.00535661
3174	0.00479863
3186	0.00446384
3198	0.00440804
3210	0.00401746
3222	0.00329208
3234	0.0026783
3246	0.00217612
3258	0.00200873
3270	0.00195293
3282	0.00223192
3294	0.00239931
3306	0.00256671
3318	0.0029015
3330	0.00256671
3342	0.00306889
3354	0.0028457
3366	0.00340368
3378	0.0026783
3390	0.0026783
3402	0.00262251
3414	0.00262251
3426	0.00306889
3438	0.0027341
3450	0.00306889
3462	0.0027899
3474	0.0026783
3486	0.00251091
3498	0.0029015
3510	0.00172974
3522	0.00189713
3534	0.00217612
3546	0.00223192
3558	0.00161814
3570	0.0026783
3582	0.00362687
3594	0.00418485
3606	0.00446384
3618	0.00680736
3630	0.0179112
3642	0.040342
3654	0.0622148
3666	0.0631075
3678	0.038668
3690	0.015456
3702	0.00809071
3714	0.00591459
3726	0.005524
3738	0.00329208
3750	0.00295729
3762	0.00228772
3774	0.00301309
3786	0.00178554
3798	0.00117176
3810	0.00312469
3822	0.00245511
3834	0.00318049
3846	0.00368267
3858	0.00418485
3870	0.00396166
3882	0.00502182
3894	0.0027341
3906	0.00435224
3918	0.00446384
3930	0.0027899
3942	0.00407325
3954	0.0027341
3966	0.00184133
