Infrared Spectrum: Benzenesulfonamide, N-butyl-
Formula: C 10 H 15 N O 2 S
CAS: 3622-84-2
Origin: Sadtler Research Labs Under US-EPA Contract
1/CM	ABSORBANCE
450	0.00230076
462	0.00626318
474	0.00587972
486	0.00715792
498	0.00236467
510	0.0192369
522	0.0252445
534	0.0379625
546	0.0507445
558	0.114207
570	0.210072
582	0.34799
594	0.34358
606	0.091583
618	0.0466543
630	0.0260114
642	0.0207708
654	0.021985
666	0.0409024
678	0.0708123
690	0.14367
702	0.0798875
714	0.124113
726	0.135617
738	0.121493
750	0.148846
762	0.0591168
774	0.0535566
786	0.0685754
798	0.0626318
810	0.0485077
822	0.0533009
834	0.0712597
846	0.073113
858	0.0497859
870	0.0409024
882	0.061098
894	0.0677446
906	0.0479964
918	0.0242858
930	0.00977823
942	0.00901131
954	0.0160414
966	0.0246054
978	0.0222407
990	0.00920304
1002	0.00805266
1014	0.0170001
1026	0.0552182
1038	0.053237
1050	0.0506806
1062	0.0803988
1074	0.134914
1086	0.176967
1098	0.231035
1110	0.0821883
1122	0.0380904
1134	0.0287595
1146	0.0531092
1158	0.23717
1170	0.6391
1182	0.305554
1194	0.0566243
1206	0.0199399
1218	0.0180865
1230	0.0144437
1242	0.00933086
1254	0.00939477
1266	0.012782
1278	0.0194926
1290	0.0257557
1302	0.0343197
1314	0.0485716
1326	0.0893462
1338	0.163929
1350	0.266824
1362	0.243178
1374	0.140922
1386	0.110948
1398	0.154534
1410	0.238704
1422	0.159775
1434	0.0763725
1446	0.108072
1458	0.0807183
1470	0.0584777
1482	0.0506167
1494	0.0195565
1506	0.0107369
1518	0.00479325
1530	0.00249249
1542	0.00236467
1554	0.00153384
1566	6.391e-05
1578	0.00300377
1590	0.00421806
1602	0.0019173
1614	0.00121429
1626	0.00044737
1638	0.00166166
1650	0.00274813
1662	0.00421806
1674	0.00613536
1686	0.0044737
1698	0.00262031
1710	0.00210903
1722	0.00198121
1734	0.00440979
1746	0.00338723
1758	0.00626318
1770	0.00843612
1782	0.0070301
1794	0.00971432
1806	0.014891
1818	0.0083083
1830	0.00517671
1842	0.00440979
1854	0.00351505
1866	0.00415415
1878	0.00632709
1890	0.00977823
1902	0.0105451
1914	0.00824439
1926	0.00492107
1938	0.00632709
1950	0.0103534
1962	0.0114399
1974	0.00996996
1986	0.00619927
1998	0.00421806
2010	0.00396242
2022	0.00306768
2034	0.00281204
2046	0.00332332
2058	0.00332332
2070	0.00524062
2082	0.00677446
2094	0.00581581
2106	0.00607145
2118	0.00696619
2130	0.0070301
2142	0.00696619
2154	0.00696619
2166	0.00715792
2178	0.00747747
2190	0.00709401
2202	0.00658273
2214	0.00664664
2226	0.00664664
2238	0.00658273
2250	0.00818048
2262	0.00818048
2274	0.00741356
2286	0.00818048
2298	0.0102895
2310	0.012782
2322	0.014891
2334	0.0105451
2346	0.00856394
2358	0.0118233
2370	6.391e-05
2382	0.00230076
2394	0.0044737
2406	0.00543235
2418	0.00492107
2430	0.00530453
2442	0.00485716
2454	0.00453761
2466	0.00402633
2478	0.00396242
2490	0.00402633
2502	0.00504889
2514	0.00466543
2526	0.0031955
2538	0.00345114
2550	0.00332332
2562	0.00274813
2574	0.00325941
2586	0.00428197
2598	0.00440979
2610	0.00453761
2622	0.0044737
2634	0.00543235
2646	0.00581581
2658	0.00556017
2670	0.00824439
2682	0.00818048
2694	0.00696619
2706	0.00549626
2718	0.00504889
2730	0.00600754
2742	0.00754138
2754	0.00792484
2766	0.00728574
2778	0.00677446
2790	0.00837221
2802	0.00939477
2814	0.0115677
2826	0.014188
2838	0.0200677
2850	0.0307407
2862	0.0552182
2874	0.0879402
2886	0.105579
2898	0.0843612
2910	0.0848086
2922	0.118873
2934	0.171023
2946	0.199463
2958	0.16591
2970	0.202978
2982	0.130057
2994	0.0520227
3006	0.0309964
3018	0.0252445
3030	0.0251166
3042	0.023455
3054	0.0263309
3066	0.0570716
3078	0.0913274
3090	0.042628
3102	0.022049
3114	0.0101617
3126	0.0076692
3138	0.00798875
3150	0.00722183
3162	0.00786093
3174	0.00754138
3186	0.00760529
3198	0.00715792
3210	0.00696619
3222	0.00824439
3234	0.00824439
3246	0.00805266
3258	0.0083083
3270	0.0083083
3282	0.00843612
3294	0.00556017
3306	0.00607145
3318	0.00568799
3330	0.00600754
3342	0.006391
3354	0.00850003
3366	0.00843612
3378	0.0140602
3390	0.021985
3402	0.0382182
3414	0.0557934
3426	0.0483799
3438	0.0279926
3450	0.0138685
3462	0.0100339
3474	0.00677446
3486	0.00728574
3498	0.00568799
3510	0.00613536
3522	0.00619927
3534	0.00600754
3546	0.00632709
3558	0.00683837
3570	0.00626318
3582	0.00696619
3594	0.00747747
3606	0.00658273
3618	0.00587972
3630	0.006391
3642	0.00504889
3654	0.00556017
3666	0.00671055
3678	0.00466543
3690	0.00600754
3702	0.00517671
3714	0.00524062
3726	0.00581581
3738	0.00415415
3750	0.00428197
3762	0.00479325
3774	0.00543235
3786	0.00440979
3798	0.00556017
3810	0.00543235
3822	0.00460152
3834	0.00543235
3846	0.00632709
3858	0.00543235
3870	0.00696619
3882	0.00543235
3894	0.00568799
3906	0.0057519
3918	0.00626318
3930	0.00741356
3942	0.00715792
3954	0.00472934
3966	0.00594363
