Infrared Spectrum: Ethanone, 1-(2,4-difluorophenyl)-
Formula: C 8 H 6 F 2 O
CAS: 364-83-0
Origin: Sadtler Research Labs Under US-EPA Contract
1/CM	ABSORBANCE
450	0.0212451
462	0.00928677
474	0.00597915
486	0.00508864
498	0.0103045
510	0.0352388
522	0.0679333
534	0.151896
546	0.143881
558	0.0797644
570	0.0417268
582	0.0515225
594	0.0555934
606	0.0404547
618	0.058901
630	0.0366382
642	0.00585194
654	0.00127216
666	0.00165381
678	0.00381648
690	0.00114494
702	0.00114494
714	0.00228989
726	0.0202273
738	0.0460522
750	0.0117039
762	0.0039437
774	0.00356205
786	0.00419813
798	0.0133577
810	0.0616998
822	0.117929
834	0.0517769
846	0.158257
858	0.321093
870	0.0834537
882	0.0114494
894	0.0055975
906	0.00547029
918	0.00966842
930	0.0136121
942	0.0213723
954	0.0594099
966	0.386737
978	0.379231
990	0.0487237
1002	0.0179375
1014	0.0169197
1026	0.0201001
1038	0.0157748
1050	0.0167925
1062	0.0295141
1074	0.045925
1086	0.0389281
1098	0.168434
1110	0.478714
1122	0.120474
1134	0.119837
1146	0.302774
1158	0.0634808
1170	0.0204818
1182	0.0204818
1194	0.0290052
1206	0.0582649
1218	0.196803
1230	0.182046
1242	0.298322
1254	1.04864
1266	1.09558
1278	0.432153
1290	0.179883
1302	0.120219
1314	0.0900689
1326	0.0379104
1338	0.0320584
1350	0.0632264
1362	0.240311
1374	0.289925
1386	0.0628447
1398	0.0721315
1410	0.151896
1422	0.32491
1434	0.366255
1446	0.156985
1458	0.0573744
1470	0.092486
1482	0.108134
1494	0.302265
1506	0.261429
1518	0.0367654
1530	0.0217539
1542	0.0249343
1554	0.0418541
1566	0.0852347
1578	0.164745
1590	0.330507
1602	0.724113
1614	1.03058
1626	0.548428
1638	0.270207
1650	0.127343
1662	0.0849803
1674	0.0951576
1686	0.11195
1698	0.446655
1710	0.847259
1722	0.300484
1734	0.0802733
1746	0.0646257
1758	0.0354933
1770	0.0199729
1782	0.015902
1794	0.0113222
1806	0.00852347
1818	0.0063608
1830	0.00585194
1842	0.0055975
1854	0.00292597
1866	0.00279875
1878	0.00597915
1890	0.00585194
1902	0.00661523
1914	0.00839626
1926	0.0103045
1938	0.00852347
1950	0.00597915
1962	0.00381648
1974	0.00190824
1986	0.00216267
1998	0.00330762
2010	0.00254432
2022	0.0024171
2034	0.0039437
2046	0.00419813
2058	0.00139938
2070	0.000890512
2082	0.00203546
2094	0.000890512
2106	0.00165381
2118	0.00178102
2130	0.00127216
2142	0.000508864
2154	0.000381648
2166	0.00127216
2178	0.00127216
2190	0.000254432
2202	0.000127216
2214	0.00127216
2226	0.00330762
2238	0.00407091
2250	0.00165381
2262	0.000890512
2274	0.00139938
2286	0.00190824
2298	0.00127216
2310	0.00216267
2322	0.00610637
2334	0.00852347
2346	0.00814182
2358	0.00585194
2370	0.00674245
2382	0.00534307
2394	0.00534307
2406	0.00661523
2418	0.00508864
2430	0.00343483
2442	0.00305318
2454	0.00279875
2466	0.00330762
2478	0.00279875
2490	0.00178102
2502	0.00139938
2514	0.00165381
2526	0.00305318
2538	0.00343483
2550	0.00267154
2562	0.00419813
2574	0.00750574
2586	0.00763296
2598	0.00432534
2610	0.0031804
2622	0.00330762
2634	0.00381648
2646	0.00267154
2658	0.00165381
2670	0.00279875
2682	0.00292597
2694	0.00292597
2706	0.00267154
2718	0.0031804
2730	0.00330762
2742	0.00343483
2754	0.00368926
2766	0.00419813
2778	0.00292597
2790	0.0024171
2802	0.00279875
2814	0.00203546
2826	0.00139938
2838	0.00178102
2850	0.00279875
2862	0.00356205
2874	0.0039437
2886	0.00343483
2898	0.00432534
2910	0.00470699
2922	0.00585194
2934	0.00903234
2946	0.01234
2958	0.0109406
2970	0.0127216
2982	0.0183191
2994	0.0212451
3006	0.0227717
3018	0.0414724
3030	0.0212451
3042	0.00928677
3054	0.00814182
3066	0.0087779
3078	0.0118311
3090	0.0207362
3102	0.0169197
3114	0.00928677
3126	0.00445256
3138	0.00356205
3150	0.00267154
3162	0.00267154
3174	0.00190824
3186	0.00267154
3198	0.00203546
3210	0.00139938
3222	0.00127216
3234	0.00101773
3246	0.000254432
3258	0.000381648
3270	0.000890512
3282	0.000763296
3294	0.00178102
3306	0.00114494
3318	0.00114494
3330	0.00127216
3342	0.00127216
3354	0.00152659
3366	0.0024171
3378	0.00368926
3390	0.0118311
3402	0.014121
3414	0.00432534
3426	0.00139938
3438	0.000381648
3450	0.00139938
3462	0.000890512
3474	0.000508864
3486	0.000381648
3498	0.000763296
3510	0.000381648
3522	0.000890512
3534	0.00114494
3546	0.00063608
3558	0.00101773
3570	0.000763296
3582	0.000254432
3594	0
3606	0.00063608
3618	0.000890512
3630	0.00114494
3642	0.000763296
3654	0.000508864
3666	0.00114494
3678	0.000127216
3690	0.00127216
3702	0.000890512
3714	0
3726	0.00101773
3738	0.000890512
3750	0.00063608
3762	0.00101773
3774	0.000890512
3786	0.00216267
3798	0.000890512
3810	0.000381648
3822	0.00165381
3834	0.000763296
3846	0.00152659
3858	0.00190824
3870	0.000890512
3882	0.00152659
3894	0.00139938
3906	0.00152659
3918	0.00127216
3930	0.00139938
3942	0.000890512
3954	0.00279875
3966	0.00203546
