Infrared Spectrum: Ethanamine, 2-[(2-furanylmethyl)thio]-
Formula: C 7 H 11 N O S
CAS: 36415-21-1
Origin: Sadtler Research Labs Under US-EPA Contract
1/CM	ABSORBANCE
450	0.0382342
462	0.0296569
474	0.00261679
486	0.00203528
498	0.00436131
510	0.0392518
522	0.0658558
534	0.0296569
546	0.00799574
558	0.0126478
570	0.02893
582	0.0241326
594	0.0127932
606	0.00348905
618	0.00857724
630	0.00712347
642	0.0056697
654	0.00770498
666	0.0479744
678	0.0769044
690	0.0190444
702	0.0126478
714	0.0245687
726	0.0295115
738	0.0561155
750	0.105689
762	0.120808
774	0.155408
786	0.111795
798	0.0795212
810	0.361843
822	0.563045
834	0.132729
846	0.0183175
858	0.0117755
870	0.0241326
882	0.0456484
894	0.0367804
906	0.0271855
918	0.0539349
930	0.0327098
942	0.0180267
954	0.0226788
966	0.00959488
978	0.00741423
990	0.0103218
1002	0.00915875
1014	0.00741423
1026	0.00770498
1038	0.0142469
1050	0.0226788
1062	0.0210797
1074	0.0447761
1086	0.0911514
1098	0.0539349
1110	0.0229696
1122	0.0507366
1134	0.110923
1146	0.070944
1158	0.0164276
1170	0.0125024
1182	0.0172999
1194	0.0241326
1206	0.0415778
1218	0.0545164
1230	0.05786
1242	0.147994
1254	0.388302
1266	0.445871
1278	0.282613
1290	0.174598
1302	0.117465
1314	0.0828649
1326	0.133747
1338	0.41636
1350	0.843768
1362	0.618725
1374	0.311834
1386	0.175906
1398	0.111504
1410	0.0904245
1422	0.0690541
1434	0.0484105
1446	0.0465206
1458	0.0622214
1470	0.0863539
1482	0.113394
1494	0.238273
1506	0.485559
1518	0.496608
1530	0.574821
1542	0.975334
1554	1.44621
1566	1.11417
1578	0.545309
1590	0.353702
1602	0.228387
1614	0.236238
1626	0.287846
1638	0.150174
1650	0.0516088
1662	0.0191898
1674	0.0181721
1686	0.020062
1698	0.0181721
1710	0.0129386
1722	0.0109033
1734	0.00668734
1746	0.0109033
1758	0.020062
1770	0.021225
1782	0.00857724
1794	0.00436131
1806	0.00610583
1818	0.00799574
1830	0.0107579
1842	0.00988564
1854	0.0056697
1866	0.0056697
1878	0.00799574
1890	0.0139562
1902	0.0164276
1914	0.00712347
1926	0.00479744
1938	0.00494282
1950	0.00363443
1962	0.00276216
1974	0.00276216
1986	0.00392518
1998	0.00523357
2010	0.00479744
2022	0.00523357
2034	0.00494282
2046	0.00407056
2058	0.00494282
2070	0.00450669
2082	0.00421593
2094	0.00305292
2106	0.00203528
2118	0.00203528
2130	0.00159915
2142	0.00174452
2154	0.000872262
2166	0.00276216
2178	0.00247141
2190	0.00290754
2202	0.00218066
2214	0.00130839
2226	0.00116302
2238	0.00116302
2250	0.00145377
2262	0.00276216
2274	0.0037798
2286	0.00145377
2298	0.00101764
2310	0.00101764
2322	0.00130839
2334	0.00130839
2346	0.00596046
2358	0.00305292
2370	0.00639659
2382	0.00610583
2394	0.00610583
2406	0.00494282
2418	0.00610583
2430	0.00785036
2442	0.0075596
2454	0.00610583
2466	0.00610583
2478	0.00596046
2490	0.00537895
2502	0.00639659
2514	0.00683272
2526	0.00625121
2538	0.00625121
2550	0.00683272
2562	0.00654197
2574	0.00552433
2586	0.00596046
2598	0.00683272
2610	0.0069781
2622	0.0075596
2634	0.00726885
2646	0.00712347
2658	0.00683272
2670	0.00770498
2682	0.00959488
2694	0.0113394
2706	0.00944951
2718	0.00799574
2730	0.0075596
2742	0.00915875
2754	0.0129386
2766	0.0126478
2778	0.0101764
2790	0.00959488
2802	0.0103218
2814	0.0113394
2826	0.0126478
2838	0.0168637
2850	0.0239872
2862	0.0356174
2874	0.0597499
2886	0.0725431
2898	0.0658558
2910	0.0619306
2922	0.0715255
2934	0.114121
2946	0.121826
2958	0.0645474
2970	0.04434
2982	0.035472
2994	0.0396879
3006	0.0468114
3018	0.0539349
3030	0.0533534
3042	0.0603315
3054	0.0674549
3066	0.0430316
3078	0.0334367
3090	0.0251502
3102	0.0172999
3114	0.0126478
3126	0.00959488
3138	0.00770498
3150	0.0050882
3162	0.00479744
3174	0.00552433
3186	0.00537895
3198	0.00552433
3210	0.00523357
3222	0.00668734
3234	0.00625121
3246	0.00610583
3258	0.00610583
3270	0.00639659
3282	0.00552433
3294	0.00654197
3306	0.0056697
3318	0.00596046
3330	0.00494282
3342	0.0056697
3354	0.00596046
3366	0.00639659
3378	0.0050882
3390	0.00537895
3402	0.00523357
3414	0.00625121
3426	0.00596046
3438	0.00450669
3450	0.00552433
3462	0.0056697
3474	0.00625121
3486	0.00654197
3498	0.00596046
3510	0.00494282
3522	0.00552433
3534	0.0056697
3546	0.0056697
3558	0.00494282
3570	0.00494282
3582	0.00479744
3594	0.00814111
3606	0.00363443
3618	0.00625121
3630	0.00857724
3642	0.00276216
3654	0.0135201
3666	0.00203528
3678	0.0117755
3690	0.0107579
3702	0.00552433
3714	0.00915875
3726	0.00450669
3738	0.00872262
3750	0.0162822
3762	0.00363443
3774	0.00872262
3786	0.00494282
3798	0.00930413
3810	0.00334367
3822	0.0183175
3834	0.00930413
3846	0.00712347
3858	0.0138108
3870	0.012357
3882	0.00799574
3894	0.00799574
3906	0.0120663
3918	0.0103218
3930	0.00770498
3942	0.00610583
3954	0.0126478
3966	0.0119209
