Infrared Spectrum: Bis(2-ethylhexyl) hydrogen phosphite
Formula: C 16 H 35 O 3 P
CAS: 3658-48-8
Origin: Sadtler Research Labs Under US-EPA Contract
1/CM	ABSORBANCE
450	0.0192436
462	0.0130119
474	0.0127626
486	0.0139093
498	0.014358
510	0.01366
522	0.022883
534	0.0246777
546	0.0257247
558	0.0285663
570	0.0203903
582	0.0159533
594	0.0135104
606	0.00692971
618	0.00653087
630	0.00692971
642	0.00343993
654	0.00673029
666	0.00623175
678	0.00608219
690	0.0108183
702	0.0081262
714	0.00982124
726	0.0155046
738	0.0142582
750	0.0144577
762	0.0223844
774	0.0296631
786	0.0297628
798	0.026971
810	0.0276191
822	0.0278185
834	0.0294637
846	0.0304608
858	0.0325048
870	0.0286661
882	0.0265722
894	0.0290649
906	0.0313083
918	0.0382879
930	0.0544406
942	0.0918311
954	0.22529
966	0.448985
978	0.475507
990	0.312485
1002	0.182665
1014	0.135254
1026	0.137647
1038	0.183812
1050	0.196325
1062	0.153002
1074	0.132861
1086	0.116459
1098	0.0660067
1110	0.0462645
1122	0.0398333
1134	0.033801
1146	0.0355459
1158	0.0319066
1170	0.0224842
1182	0.0189445
1194	0.0198917
1206	0.0210882
1218	0.020839
1230	0.0238302
1242	0.0293142
1254	0.0432733
1266	0.0851506
1278	0.174888
1290	0.129321
1302	0.093576
1314	0.048159
1326	0.0294139
1338	0.0247276
1350	0.0233317
1362	0.023232
1374	0.0262731
1386	0.0460152
1398	0.0286162
1410	0.015355
1422	0.0170999
1434	0.0170999
1446	0.0304608
1458	0.0697956
1470	0.0816609
1482	0.0429243
1494	0.0196923
1506	0.0205398
1518	0.0137597
1530	0.00902357
1542	0.0162524
1554	0.0107685
1566	0.0081262
1578	0.0119151
1590	0.00683
1602	0.00558365
1614	0.00633146
1626	0.00807635
1638	0.00962182
1650	0.0101702
1662	0.00717898
1674	0.00702941
1686	0.0125632
1698	0.0124635
1710	0.00687985
1722	0.00762766
1734	0.0137099
1746	0.00942241
1758	0.0107685
1770	0.0105192
1782	0.00658073
1794	0.00917314
1806	0.00643117
1818	0.0061819
1830	0.00727868
1842	0.00533438
1854	0.0062816
1866	0.00638131
1878	0.00573321
1890	0.00648102
1902	0.00598248
1914	0.00528452
1926	0.00588277
1938	0.00533438
1950	0.00388861
1962	0.00468628
1974	0.00468628
1986	0.00403817
1998	0.0043373
2010	0.00279182
2022	0.00453671
2034	0.00348978
2046	0.00463642
2058	0.00343993
2070	0.00413788
2082	0.00493555
2094	0.00343993
2106	0.0036892
2118	0.0037889
2130	0.00388861
2142	0.0037889
2154	0.00373905
2166	0.00363934
2178	0.00289153
2190	0.00423759
2202	0.00299124
2214	0.00403817
2226	0.00339007
2238	0.00324051
2250	0.00488569
2262	0.00363934
2274	0.00383876
2286	0.00353963
2298	0.0036892
2310	0.00458657
2322	0.0049854
2334	0.00488569
2346	0.00533438
2358	0.00882416
2370	0.0101702
2382	0.0167011
2394	0.0216366
2406	0.0250766
2418	0.0310092
2430	0.0363934
2442	0.0283171
2454	0.0164518
2466	0.0087743
2478	0.00558365
2490	0.00603233
2502	0.00578306
2514	0.00608219
2526	0.00717898
2538	0.00598248
2550	0.00687985
2562	0.00702941
2574	0.00663058
2586	0.00678014
2598	0.00658073
2610	0.00722883
2622	0.00702941
2634	0.00683
2646	0.00782708
2658	0.00857489
2670	0.00942241
2682	0.00937255
2694	0.0101702
2706	0.00967168
2718	0.0101702
2730	0.0118653
2742	0.0118154
2754	0.0139093
2766	0.0142084
2778	0.0133609
2790	0.0152055
2802	0.018097
2814	0.0211381
2826	0.0261734
2838	0.0355958
2850	0.0584289
2862	0.130568
2874	0.200164
2886	0.206346
2898	0.171996
2910	0.190741
2922	0.270159
2934	0.381632
2946	0.363186
2958	0.29354
2970	0.451877
2982	0.206894
2994	0.0705933
3006	0.0405812
3018	0.0284168
3030	0.0226337
3042	0.0181469
3054	0.0146072
3066	0.0149063
3078	0.0132113
3090	0.0126131
3102	0.0127626
3114	0.011267
3126	0.0104195
3138	0.00977138
3150	0.00887401
3162	0.00822591
3174	0.00707927
3186	0.00702941
3198	0.00668044
3210	0.00727868
3222	0.00623175
3234	0.00787693
3246	0.0056335
3258	0.00638131
3270	0.00633146
3282	0.00568336
3294	0.00508511
3306	0.00588277
3318	0.00458657
3330	0.00448686
3342	0.00443701
3354	0.00438715
3366	0.00598248
3378	0.00443701
3390	0.00548394
3402	0.00558365
3414	0.00453671
3426	0.00518482
3438	0.00483584
3450	0.00408803
3462	0.00558365
3474	0.00418774
3486	0.00334022
3498	0.00533438
3510	0.00259241
3522	0.00324051
3534	0.00558365
3546	0.00418774
3558	0.00483584
3570	0.0056335
3582	0.00329036
3594	0.00413788
3606	0.0031408
3618	0.00423759
3630	0.00987109
3642	0.00488569
3654	0.0100207
3666	0.0124136
3678	0.0157539
3690	0.0106688
3702	0.00852503
3714	0.0093227
3726	0.00807635
3738	0.0107186
3750	0.0118154
3762	0.00762766
3774	0.00882416
3786	0.00702941
3798	0.0109679
3810	0.0111673
3822	0.013311
3834	0.0154049
3846	0.0130617
3858	0.0144078
3870	0.0158536
3882	0.0130119
3894	0.0133609
3906	0.0147069
3918	0.0123139
3930	0.0134107
3942	0.0150559
3954	0
3966	0.00124635
