Infrared Spectrum: Cyclohexaneacetic acid, .alpha.-ethyl-, methyl ester
Formula: C 11 H 20 O 2
CAS: 36613-93-1
Origin: Sadtler Research Labs Under US-EPA Contract
1/CM	ABSORBANCE
450	0
462	0.00529621
474	0.0115271
486	0.0186925
498	0.00171348
510	0.0127732
522	0.00607507
534	0.00420582
546	0.0162002
558	0.0179137
570	0.0218079
582	0.0116828
594	0.0154213
606	0.0160444
618	0.0130848
630	0.00872318
642	0.010904
654	0.0102809
666	0.0112155
678	0.0152656
690	0.0113713
702	0.0151098
714	0.00919049
726	0.016979
738	0.0182252
750	0.0361389
762	0.0208733
774	0.0196271
786	0.037385
798	0.0618411
810	0.036762
822	0.0271042
834	0.0297523
846	0.0378524
858	0.0311542
870	0.033335
882	0.03131
894	0.0376966
906	0.0345812
918	0.0297523
930	0.0185367
942	0.0157329
954	0.016979
966	0.0227426
978	0.024456
990	0.0619969
1002	0.129601
1014	0.0749259
1026	0.051716
1038	0.0610622
1050	0.0616853
1062	0.0725893
1074	0.116984
1086	0.122592
1098	0.124461
1110	0.128667
1122	0.163715
1134	0.248922
1146	0.44862
1158	0.587568
1170	0.632119
1182	0.36357
1194	0.364193
1206	0.256555
1218	0.236928
1230	0.278207
1242	0.228205
1254	0.188639
1266	0.216366
1278	0.195804
1290	0.11418
1302	0.0786644
1314	0.0718104
1326	0.074147
1338	0.081624
1350	0.116672
1362	0.128044
1374	0.0898799
1386	0.0864529
1398	0.0515602
1410	0.0311542
1422	0.0356716
1434	0.126642
1446	0.194402
1458	0.208266
1470	0.122748
1482	0.0548314
1494	0.0286619
1506	0.0126175
1518	0.00872318
1530	0.00856741
1542	0.00389427
1554	0.012929
1566	0.0127732
1578	0.0110597
1590	0.0135521
1602	0.0124617
1614	0.00950203
1626	0.00716547
1638	0.00498467
1650	0.00249234
1662	0.0119944
1674	0.00654238
1686	0.00778855
1698	0.0210291
1710	0.0574795
1722	0.0803778
1734	0.16356
1746	0.759228
1758	0.796924
1770	0.144867
1782	0.0683835
1794	0.0378524
1806	0.0255464
1818	0.0141752
1830	0.00654238
1842	0.00576353
1854	0.00685392
1866	0.0048289
1878	0.00545198
1890	0.0037385
1902	0.00467313
1914	0.00420582
1926	0.00529621
1938	0.00638661
1950	0.00669815
1962	0.00638661
1974	0.00685392
1986	0.00841163
1998	0.00950203
2010	0.00841163
2022	0.00747701
2034	0.00763278
2046	0.00716547
2058	0.00700969
2070	0.00716547
2082	0.00560776
2094	0.00514044
2106	0.0048289
2118	0.00451736
2130	0.00389427
2142	0.00327119
2154	0.00327119
2166	0.00295965
2178	0.00311542
2190	0.00264811
2202	0.00218079
2214	0.00140194
2226	0.00202502
2238	0.00249234
2250	0.00186925
2262	0.00155771
2274	0.00155771
2286	0.00171348
2298	0.00249234
2310	0.00202502
2322	0.000934626
2334	0
2346	0.0010904
2358	0.000778855
2370	0.000778855
2382	0.00233657
2394	0.00218079
2406	0.00202502
2418	0.00218079
2430	0.00218079
2442	0.0010904
2454	0.000311542
2466	0
2478	0.000467313
2490	0.00186925
2502	0.00124617
2514	0.000778855
2526	0.00140194
2538	0.00202502
2550	0.00155771
2562	0.00186925
2574	0.00264811
2586	0.00436159
2598	0.0059193
2610	0.00700969
2622	0.00685392
2634	0.00716547
2646	0.00872318
2658	0.0132405
2670	0.0182252
2682	0.0146425
2694	0.00950203
2706	0.00950203
2718	0.00919049
2730	0.00825586
2742	0.00872318
2754	0.00996934
2766	0.0096578
2778	0.0123059
2790	0.0177579
2802	0.0253907
2814	0.0272599
2826	0.0348927
2838	0.0593488
2850	0.173217
2862	0.51015
2874	0.335687
2886	0.245807
2898	0.230853
2910	0.340827
2922	0.646605
2934	1.41939
2946	1.22047
2958	0.554233
2970	0.467936
2982	0.331948
2994	0.131315
3006	0.0844279
3018	0.063243
3030	0.0615295
3042	0.0380081
3054	0.0261695
3066	0.0214964
3078	0.0199387
3090	0.0182252
3102	0.0155771
3114	0.012929
3126	0.0104367
3138	0.00903472
3150	0.00887895
3162	0.00825586
3174	0.00545198
3186	0.00436159
3198	0.0037385
3210	0.00280388
3222	0.00249234
3234	0.00280388
3246	0.00264811
3258	0.00202502
3270	0.00233657
3282	0.00171348
3294	0.0010904
3306	0.0010904
3318	0.00155771
3330	0.00155771
3342	0.0010904
3354	0.00218079
3366	0.00280388
3378	0.00264811
3390	0.00264811
3402	0.00233657
3414	0.00218079
3426	0.00389427
3438	0.00311542
3450	0.00311542
3462	0.00467313
3474	0.00841163
3486	0.0105924
3498	0.00638661
3510	0.00342696
3522	0.00218079
3534	0.00264811
3546	0.00280388
3558	0.00202502
3570	0.00233657
3582	0.00218079
3594	0.00155771
3606	0.00249234
3618	0.00249234
3630	0.000778855
3642	0.00311542
3654	0.000155771
3666	0.00202502
3678	0.000155771
3690	0.000155771
3702	0.00186925
3714	0.00140194
3726	0.00327119
3738	0.00140194
3750	0.000155771
3762	0.00218079
3774	0.00405005
3786	0.00342696
3798	0.00218079
3810	0.0037385
3822	0
3834	0.00249234
3846	0.00327119
3858	0.00155771
3870	0.00358273
3882	0.00186925
3894	0.00311542
3906	0.00186925
3918	0.00311542
3930	0.000778855
3942	0.00202502
3954	0.00124617
3966	0.00638661
