Infrared Spectrum: 4-Fluoro-3-nitrobenzotrifluoride
Formula: C 7 H 3 F 4 N O 2
CAS: 367-86-2
Origin: Sadtler Research Labs Under US-EPA Contract
1/CM	ABSORBANCE
450	0.00165301
462	0.00247952
474	0.00075137
486	0.00157788
498	0.00225411
510	0.00540986
522	0.00390712
534	0.00338116
546	0.00217897
558	0.00293034
570	0.00390712
582	0.00976781
594	0.018108
606	0.0457584
618	0.0326846
630	0.0178075
642	0.00826507
654	0.00631151
666	0.00849048
678	0.0359906
690	0.0492899
702	0.0235179
714	0.0114208
726	0.00510932
738	0.00413253
750	0.00796452
762	0.0135998
774	0.0127733
786	0.00571041
798	0.00721315
810	0.0212638
822	0.0392967
834	0.070178
846	0.0251709
858	0.00330603
870	0.00330603
882	0.00495904
894	0.0105192
906	0.0265985
918	0.0213389
930	0.0040574
942	0.00172815
954	0.00165301
966	0.00172815
978	0.00172815
990	0.00217897
1002	0.00165301
1014	0.00217897
1026	0.00428281
1038	0.00435795
1050	0.00578555
1062	0.0148771
1074	0.0369674
1086	0.0333608
1098	0.10121
1110	0.109024
1122	0.0314824
1134	0.0369674
1146	0.167105
1158	0.417611
1170	0.208731
1182	0.295589
1194	0.126606
1206	0.0381696
1218	0.0171312
1230	0.0137501
1242	0.0231422
1254	0.0444811
1266	0.0582312
1278	0.127432
1290	0.0504921
1302	0.0617626
1314	0.233977
1326	0.75137
1338	0.108723
1350	0.109174
1362	0.105342
1374	0.0327597
1386	0.0184837
1398	0.0122473
1410	0.0139755
1422	0.014276
1434	0.0122473
1446	0.00909158
1458	0.00924185
1470	0.00631151
1482	0.00901644
1494	0.0138252
1506	0.0239687
1518	0.0304305
1530	0.0366669
1542	0.0664962
1554	0.133894
1566	0.213013
1578	0.0773911
1590	0.0633405
1602	0.0640167
1614	0.0695769
1626	0.0812231
1638	0.0995565
1650	0.0293034
1662	0.00961754
1674	0.0089413
1686	0.005485
1698	0.00420767
1710	0.00195356
1722	0.00217897
1734	0.00323089
1746	0.00278007
1758	0.00180329
1770	0.00210384
1782	0.00255466
1794	0.0034563
1806	0.00217897
1818	0.00308062
1830	0.00270493
1842	0.0014276
1854	0.000901644
1866	0.00135247
1878	0.00135247
1890	0.0014276
1902	0.0014276
1914	0.00360658
1926	0.00330603
1938	0.00120219
1950	0.00075137
1962	0.00075137
1974	0.000901644
1986	0.00075137
1998	0.000901644
2010	0.000676233
2022	0.000901644
2034	0.00075137
2046	0.00135247
2058	0.000976781
2070	0.00172815
2082	0.00135247
2094	0.0014276
2106	0.00075137
2118	0.00075137
2130	0.000676233
2142	0.000601096
2154	0.00075137
2166	0.000676233
2178	0.000676233
2190	0.000676233
2202	0.000676233
2214	0.000601096
2226	0.000601096
2238	0.000601096
2250	0.00120219
2262	0.00075137
2274	0.000450822
2286	0.000375685
2298	0.000676233
2310	0.000901644
2322	0.00075137
2334	0.00120219
2346	0.000901644
2358	0
2370	0.00112705
2382	0.00105192
2394	0.00127733
2406	0.00120219
2418	0.000901644
2430	0.000676233
2442	0.000676233
2454	0.00135247
2466	0.00127733
2478	0.00120219
2490	0.00105192
2502	0.00135247
2514	0.000901644
2526	0.00135247
2538	0.00075137
2550	0.00075137
2562	0.00075137
2574	0.00135247
2586	0.000901644
2598	0.000901644
2610	0.000901644
2622	0.000976781
2634	0.00105192
2646	0.000976781
2658	0.00105192
2670	0.00150274
2682	0.00150274
2694	0.00075137
2706	0.0014276
2718	0.000976781
2730	0.00105192
2742	0.00105192
2754	0.000976781
2766	0.00112705
2778	0.00105192
2790	0.00112705
2802	0.00105192
2814	0.00105192
2826	0.00120219
2838	0.00172815
2850	0.00120219
2862	0.00187842
2874	0.00150274
2886	0.00270493
2898	0.00315575
2910	0.00368171
2922	0.00270493
2934	0.00165301
2946	0.00165301
2958	0.00232925
2970	0.00157788
2982	0.00112705
2994	0.00120219
3006	0.00127733
3018	0.00127733
3030	0.00127733
3042	0.000901644
3054	0.00135247
3066	0.00135247
3078	0.00210384
3090	0.00563527
3102	0.00616123
3114	0.00195356
3126	0.0014276
3138	0.00150274
3150	0.00112705
3162	0.0014276
3174	0.00105192
3186	0.00150274
3198	0.00120219
3210	0.00150274
3222	0.00210384
3234	0.00247952
3246	0.00285521
3258	0.00323089
3270	0.00270493
3282	0.00217897
3294	0.00172815
3306	0.00210384
3318	0.00165301
3330	0.00172815
3342	0.00165301
3354	0.00150274
3366	0.00112705
3378	0.00172815
3390	0.00135247
3402	0.00187842
3414	0.00075137
3426	0.00172815
3438	0.00180329
3450	0.00187842
3462	0.00187842
3474	0.00157788
3486	0.00195356
3498	0.000450822
3510	0.000901644
3522	0.0020287
3534	0.00120219
3546	0.0020287
3558	0.00135247
3570	0.00180329
3582	0.00135247
3594	0.00210384
3606	0.00210384
3618	0.00232925
3630	0.00172815
3642	0.00127733
3654	0.00172815
3666	0.00195356
3678	0.00172815
3690	0.00232925
3702	0.00232925
3714	0.00157788
3726	0.00150274
3738	0.00225411
3750	0.00210384
3762	0.00247952
3774	0.00195356
3786	0.00225411
3798	0.00150274
3810	0.000976781
3822	0.00157788
3834	0.00270493
3846	0.00150274
3858	0.00157788
3870	0.00112705
3882	0.000676233
3894	0.000601096
3906	0.00127733
3918	0.00172815
3930	0.00172815
3942	0.000601096
3954	0.00127733
3966	0.00127733
