Infrared Spectrum: Benzene, 1,2-difluoro-
Formula: C 6 H 4 F 2
CAS: 367-11-3
Origin: Sadtler Research Labs Under US-EPA Contract
1/CM	ABSORBANCE
450	0
462	0.0319127
474	0.021835
486	0.015413
498	0.0179818
510	0.0202542
522	0.0195626
534	0.0292451
546	0.0381372
558	0.0582926
570	0.0403108
582	0.0299367
594	0.0200566
606	0.0157094
618	0.015907
630	0.0169938
642	0.0165986
654	0.0156106
666	0.0148202
678	0.018377
690	0.018871
702	0.018871
714	0.0242062
726	0.0667895
738	0.268245
750	0.775884
762	0.498846
774	0.223587
786	0.0236134
798	0.0172902
810	0.0191674
822	0.0291463
834	0.0536489
846	0.0945526
858	0.0826964
870	0.0691607
882	0.0222302
894	0.0217362
906	0.0244038
918	0.0335923
930	0.0711367
942	0.0340863
954	0.017389
966	0.0161046
978	0.0172902
990	0.0195626
1002	0.022823
1014	0.0528585
1026	0.061553
1038	0.034778
1050	0.0176854
1062	0.0165986
1074	0.0179818
1086	0.0406072
1098	0.129331
1110	0.130813
1122	0.037742
1134	0.0172902
1146	0.0190686
1158	0.021341
1170	0.0205506
1182	0.036754
1194	0.0944538
1206	0.259056
1218	0.266367
1230	0.0887233
1242	0.0330983
1254	0.10384
1266	0.530957
1278	0.784974
1290	0.439368
1302	0.113621
1314	0.0239098
1326	0.0204518
1338	0.0153142
1350	0.0200566
1362	0.0179818
1374	0.0199578
1386	0.0282571
1398	0.03626
1410	0.0374456
1422	0.0230206
1434	0.0192662
1446	0.0464365
1458	0.0690619
1470	0.0680739
1482	0.0543406
1494	0.206198
1506	0.796435
1518	0.98801
1530	0.447075
1542	0.0966274
1554	0.0353708
1566	0.062047
1578	0.0823012
1590	0.098307
1602	0.138618
1614	0.198392
1626	0.155118
1638	0.0520681
1650	0.0134369
1662	0.0176854
1674	0.0128441
1686	0.0139309
1698	0.0135357
1710	0.0232182
1722	0.023811
1734	0.0166974
1746	0.0217362
1758	0.0301343
1770	0.0306283
1782	0.0266763
1794	0.0157094
1806	0.0187722
1818	0.0171914
1830	0.0130417
1842	0.0152154
1854	0.0190686
1866	0.0166974
1878	0.020847
1890	0.0256883
1902	0.0257871
1914	0.0176854
1926	0.0212422
1938	0.0206494
1950	0.0167962
1962	0.0156106
1974	0.0147213
1986	0.0142273
1998	0.0135357
2010	0.014919
2022	0.0175866
2034	0.0225266
2046	0.021341
2058	0.0170926
2070	0.0167962
2082	0.0150178
2094	0.0133381
2106	0.0140297
2118	0.0158082
2130	0.0158082
2142	0.0140297
2154	0.0132393
2166	0.0131405
2178	0.0124489
2190	0.0122513
2202	0.0126465
2214	0.0122513
2226	0.0129429
2238	0.0134369
2250	0.0144249
2262	0.0170926
2274	0.0185746
2286	0.0186734
2298	0.017389
2310	0.0167962
2322	0.0162034
2334	0.0155118
2346	0.0156106
2358	0.0151166
2370	0.0171914
2382	0.016401
2394	0.0134369
2406	0.0128441
2418	0.0139309
2430	0.0145237
2442	0.014919
2454	0.016895
2466	0.019859
2478	0.0200566
2490	0.017883
2502	0.0142273
2514	0.0128441
2526	0.0143261
2538	0.0163022
2550	0.0179818
2562	0.0175866
2574	0.0185746
2586	0.0200566
2598	0.0184758
2610	0.0150178
2622	0.0143261
2634	0.0134369
2646	0.0131405
2658	0.0129429
2670	0.0133381
2682	0.0136345
2694	0.0132393
2706	0.0128441
2718	0.0133381
2730	0.0136345
2742	0.0134369
2754	0.0133381
2766	0.0141285
2778	0.0148202
2790	0.0146225
2802	0.0140297
2814	0.0136345
2826	0.0141285
2838	0.0133381
2850	0.0131405
2862	0.0136345
2874	0.0138321
2886	0.0142273
2898	0.0151166
2910	0.0151166
2922	0.0145237
2934	0.0143261
2946	0.0142273
2958	0.0144249
2970	0.0152154
2982	0.0139309
2994	0.0133381
3006	0.0133381
3018	0.0137333
3030	0.0165986
3042	0.0221314
3054	0.0411012
3066	0.0658015
3078	0.0739031
3090	0.0593794
3102	0.0403108
3114	0.023317
3126	0.0158082
3138	0.0145237
3150	0.0135357
3162	0.0130417
3174	0.0127453
3186	0.0128441
3198	0.0122513
3210	0.0125477
3222	0.0123501
3234	0.0124489
3246	0.0127453
3258	0.0125477
3270	0.0131405
3282	0.0133381
3294	0.0133381
3306	0.0129429
3318	0.0138321
3330	0.0133381
3342	0.0131405
3354	0.0133381
3366	0.0132393
3378	0.0132393
3390	0.0131405
3402	0.0135357
3414	0.0130417
3426	0.0131405
3438	0.0131405
3450	0.0133381
3462	0.0132393
3474	0.0132393
3486	0.0130417
3498	0.0129429
3510	0.0130417
3522	0.0128441
3534	0.0133381
3546	0.0129429
3558	0.0129429
3570	0.0132393
3582	0.0128441
3594	0.0135357
3606	0.0133381
3618	0.0136345
3630	0.0135357
3642	0.0144249
3654	0.0141285
3666	0.0136345
3678	0.0132393
3690	0.0132393
3702	0.0135357
3714	0.0132393
3726	0.0125477
3738	0.0136345
3750	0.0129429
3762	0.0131405
3774	0.0128441
3786	0.0135357
3798	0.0129429
3810	0.0132393
3822	0.0128441
3834	0.0141285
3846	0.0132393
3858	0.0138321
3870	0.0136345
3882	0.0135357
3894	0.0155118
3906	0.0155118
3918	0.0157094
3930	0.015413
3942	0.0155118
3954	0.0153142
3966	0.0135357
