Infrared Spectrum: 1,2,4-Trifluorobenzene
Formula: C 6 H 3 F 3
CAS: 367-23-7
Origin: Sadtler Research Labs Under US-EPA Contract
1/CM	ABSORBANCE
450	0.0114121
462	0.00731766
474	0.00165518
486	0.00087115
498	0.00557536
510	0.00444286
522	0.00200365
534	0.00270056
546	8.7115e-05
558	0.000435575
570	0.0101053
582	0.0186426
594	0.025002
606	0.0189911
618	0.00836304
630	0.00252633
642	0.00278768
654	0.00226499
666	0.00182941
678	0.00182941
690	0.00339749
702	0.00331037
714	0.0169874
726	0.0540984
738	0.0456483
750	0.00940842
762	0.0139384
774	0.131544
786	0.137903
798	0.0533144
810	0.0609805
822	0.0301418
834	0.0268314
846	0.0773581
858	0.0980915
870	0.0438188
882	0.00331037
894	0.0023521
906	0.0040944
918	0.00513979
930	0.00557536
942	0.0105409
954	0.0594995
966	0.101576
978	0.0260474
990	0.00304902
1002	0.00296191
1014	0.00252633
1026	0.0023521
1038	0.00182941
1050	0.00383306
1062	0.00479132
1074	0.00540113
1086	0.0292706
1098	0.0527917
1110	0.0304902
1122	0.00662074
1134	0.104277
1146	0.242005
1158	0.054534
1170	0.00496555
1182	0.00670785
1194	0.0405085
1206	0.134244
1218	0.114818
1230	0.0289222
1242	0.149402
1254	0.213083
1266	0.0533144
1278	0.00975688
1290	0.0161163
1302	0.0479132
1314	0.0765741
1326	0.0452127
1338	0.0052269
1350	0.00182941
1362	0.00418152
1374	0.00688208
1386	0.00731766
1398	0.00905996
1410	0.00932131
1422	0.0121961
1434	0.0473034
1446	0.057583
1458	0.0463452
1470	0.0180328
1482	0.0138513
1494	0.0466936
1506	0.19505
1518	0.835868
1530	0.666865
1542	0.0887702
1554	0.0297933
1566	0.012893
1578	0.0126317
1590	0.0202107
1602	0.0342362
1614	0.0605449
1626	0.11142
1638	0.0761385
1650	0.0298804
1662	0.0119348
1674	0.0058367
1686	0.00426863
1698	0.00766612
1710	0.00627228
1722	0.0058367
1734	0.0058367
1746	0.00383306
1758	0.00261345
1770	0.00296191
1782	0.00339749
1794	0.00270056
1806	0.0017423
1818	0.00252633
1830	0.00435575
1842	0.00775323
1854	0.0069692
1866	0.00679497
1878	0.0052269
1890	0.0023521
1902	0.00130672
1914	0.00148095
1926	0.00130672
1938	0.00113249
1950	0.00113249
1962	0.00113249
1974	0.00104538
1986	0.00156807
1998	0.00165518
2010	0.000958265
2022	0.00209076
2034	0.00331037
2046	0.00243922
2058	0.00148095
2070	0.00191653
2082	0.00191653
2094	0.00287479
2106	0.00209076
2118	0.000958265
2130	0.000784035
2142	0.00087115
2154	0.00087115
2166	0.00087115
2178	0.00121961
2190	0.00130672
2202	0.00087115
2214	0.00130672
2226	0.00113249
2238	0.00121961
2250	0.0017423
2262	0.000958265
2274	0.00121961
2286	0.00261345
2298	0.00383306
2310	0.00392017
2322	0.0023521
2334	0.00165518
2346	0.00287479
2358	0.0040944
2370	8.7115e-05
2382	0.00069692
2394	0.00243922
2406	0.00296191
2418	0.00182941
2430	0.00034846
2442	0.00139384
2454	0.00383306
2466	0.0023521
2478	0.000609805
2490	0.00069692
2502	0.00034846
2514	0.00087115
2526	0.00130672
2538	0.00226499
2550	0.0023521
2562	0.00226499
2574	0.0017423
2586	0.00139384
2598	0.00052269
2610	0.00034846
2622	0.00034846
2634	0.00017423
2646	0.00017423
2658	0.000261345
2670	0.00017423
2682	0.000261345
2694	0.000261345
2706	0.000261345
2718	8.7115e-05
2730	0.00069692
2742	0.000609805
2754	0.000609805
2766	0.000609805
2778	0.00052269
2790	8.7115e-05
2802	8.7115e-05
2814	8.7115e-05
2826	0.00113249
2838	0.0017423
2850	0.000261345
2862	0.000261345
2874	0.00052269
2886	0.00069692
2898	0.00087115
2910	0.000958265
2922	0.000609805
2934	0.00052269
2946	0.000435575
2958	0.00052269
2970	0.00052269
2982	0.000435575
2994	0.000609805
3006	0.000609805
3018	0.00069692
3030	0.00052269
3042	0.000609805
3054	0.000609805
3066	0.00226499
3078	0.00392017
3090	0.00513979
3102	0.00426863
3114	0.00130672
3126	0.00087115
3138	0.000784035
3150	0.00087115
3162	0.00148095
3174	0.00087115
3186	0.00104538
3198	0.00104538
3210	0.00104538
3222	0.00113249
3234	0.00104538
3246	0.00104538
3258	0.00121961
3270	0.00113249
3282	0.00113249
3294	0.00182941
3306	0.00121961
3318	0.0017423
3330	0.0017423
3342	0.00182941
3354	0.00139384
3366	0.00200365
3378	0.00252633
3390	0.00191653
3402	0.00182941
3414	0.00191653
3426	0.00200365
3438	0.00156807
3450	0.00200365
3462	0.00278768
3474	0.00165518
3486	0.00226499
3498	0.00278768
3510	0.0023521
3522	0.00226499
3534	0.00182941
3546	0.00252633
3558	0.00322325
3570	0.00261345
3582	0.00287479
3594	0.00200365
3606	0.00252633
3618	0.0023521
3630	0.00261345
3642	0.00252633
3654	0.00243922
3666	0.00339749
3678	0.00200365
3690	0.00261345
3702	0.00392017
3714	0.00339749
3726	0.00287479
3738	0.00270056
3750	0.00217787
3762	0.00209076
3774	0.00304902
3786	0.0034846
3798	0.00313614
3810	0.00191653
3822	0.00243922
3834	0.00304902
3846	0.00322325
3858	0.00296191
3870	0.00331037
3882	0.00313614
3894	0.00339749
3906	0.00243922
3918	0.0040944
3930	0.00339749
3942	0.00479132
3954	0.0040944
3966	0.00339749
