Infrared Spectrum: Propanoic acid, 2,3-dibromo-, ethyl ester
Formula: C 5 H 8 Br 2 O 2
CAS: 3674-13-3
Origin: Sadtler Research Labs Under US-EPA Contract
1/CM	ABSORBANCE
450	0.0145116
462	0.00542353
474	0.013852
486	0.0135588
498	0.000806201
510	0.0233065
522	0.00960112
534	0.0106272
546	0.0216208
558	0.0413361
570	0.0555546
582	0.0811331
594	0.0441212
606	0.0600253
618	0.071019
630	0.0436814
642	0.0452205
654	0.025432
666	0.0262382
678	0.0351064
690	0.0205948
702	0.0181029
714	0.0128992
726	0.00872163
738	0.0216208
750	0.0177364
762	0.0131924
774	0.0203016
786	0.0238196
798	0.022427
810	0.0263115
822	0.0194221
834	0.0260916
846	0.0384045
858	0.0489584
870	0.0418492
882	0.0285835
894	0.0157576
906	0.0216208
918	0.0175165
930	0.027704
942	0.0425821
954	0.0378914
966	0.0222072
978	0.0211811
990	0.0270444
1002	0.0454404
1014	0.0962311
1026	0.122543
1038	0.0905144
1050	0.0554813
1062	0.10466
1074	0.08084
1086	0.0624439
1098	0.0766624
1110	0.0759295
1122	0.0828921
1134	0.170621
1146	0.436448
1158	0.267805
1170	0.153691
1182	0.0960845
1194	0.190263
1206	0.337212
1218	0.138227
1230	0.135442
1242	0.214743
1254	0.323506
1266	0.289939
1278	0.197593
1290	0.0880225
1302	0.0874362
1314	0.0764425
1326	0.0897082
1338	0.114554
1350	0.159848
1362	0.0661085
1374	0.125767
1386	0.0827455
1398	0.0482255
1410	0.0377449
1422	0.045587
1434	0.0754897
1446	0.0427287
1458	0.0385511
1470	0.0460267
1482	0.037012
1494	0.0203749
1506	0.00916137
1518	0.0115067
1530	0.0119464
1542	0.00762226
1554	0.00930796
1566	0.0104073
1578	0.0102607
1590	0.012093
1602	0.0102607
1614	0.0127526
1626	0.0106272
1638	0.00938125
1650	0.00916137
1662	0.0126793
1674	0.00886821
1686	0.0135588
1698	0.0160507
1710	0.024186
1722	0.0395038
1734	0.0562875
1746	0.12672
1758	0.419738
1770	0.544919
1782	0.0912473
1794	0.055921
1806	0.0288034
1818	0.0195687
1830	0.0145849
1842	0.0142917
1854	0.0109937
1866	0.00982099
1878	0.00945454
1890	0.0109937
1902	0.00850176
1914	0.0110669
1926	0.00864834
1938	0.00784214
1950	0.00776885
1962	0.00901479
1974	0.0089415
1986	0.00864834
1998	0.00784214
2010	0.00872163
2022	0.0081353
2034	0.00622974
2046	0.0081353
2058	0.00703594
2070	0.0065229
2082	0.00776885
2094	0.00806201
2106	0.00710923
2118	0.00644961
2130	0.0057167
2142	0.00798872
2154	0.0057167
2166	0.00593657
2178	0.00608315
2190	0.00681606
2202	0.00600986
2214	0.00718252
2226	0.00622974
2238	0.00703594
2250	0.00557012
2262	0.00549683
2274	0.00688935
2286	0.00593657
2298	0.00439746
2310	0.00483721
2322	0.00307822
2334	0.00124595
2346	0.00520366
2358	0.000659619
2370	0.00175898
2382	0.00351797
2394	0.00630303
2406	0.00681606
2418	0.0057167
2430	0.00373784
2442	0.00578999
2454	0.00417759
2466	0.00439746
2478	0.00425088
2490	0.00469062
2502	0.00447075
2514	0.00432417
2526	0.00381113
2538	0.00432417
2550	0.00293164
2562	0.0032981
2574	0.00586328
2586	0.00373784
2598	0.00366455
2610	0.00359126
2622	0.00483721
2634	0.00439746
2646	0.00351797
2658	0.00285835
2670	0.00520366
2682	0.00212544
2694	0.00359126
2706	0.00359126
2718	0.00300493
2730	0.00271177
2742	0.00520366
2754	0.00483721
2766	0.00527695
2778	0.00439746
2790	0.00476391
2802	0.0065229
2814	0.00564341
2826	0.00791543
2838	0.00930796
2850	0.00989428
2862	0.00967441
2874	0.0145849
2886	0.0213277
2898	0.023673
2910	0.0255053
2922	0.0302692
2934	0.032248
2946	0.0524764
2958	0.0417759
2970	0.0515236
2982	0.0857505
2994	0.131851
3006	0.0680873
3018	0.0406032
3030	0.0186892
3042	0.0106272
3054	0.00982099
3066	0.00916137
3078	0.00564341
3090	0.00600986
3102	0.00828188
3114	0.0065229
3126	0.00747568
3138	0.00557012
3150	0.00593657
3162	0.00564341
3174	0.00600986
3186	0.00637632
3198	0.00674277
3210	0.00139253
3222	0.00476391
3234	0.00432417
3246	0.00476391
3258	0.00278506
3270	0.00344468
3282	0.00432417
3294	0.00498379
3306	0.00212544
3318	0.00447075
3330	0.00454404
3342	0.0016124
3354	0.00578999
3366	0.00505708
3378	0.00417759
3390	0.00373784
3402	0.00454404
3414	0.004031
3426	0.00564341
3438	0.00278506
3450	0.00578999
3462	0.00315151
3474	0.0032248
3486	0.00505708
3498	0.00740239
3510	0.00784214
3522	0.00644961
3534	0.00351797
3546	0.00513037
3558	0.00542353
3570	0.00674277
3582	0.0150247
3594	0.00872163
3606	0.004031
3618	0.00483721
3630	0.00513037
3642	0.00227202
3654	0.00578999
3666	0.00483721
3678	0.00637632
3690	0.00381113
3702	0.00351797
3714	0.00483721
3726	0.00476391
3738	0.00183227
3750	0.00300493
3762	0.00256519
3774	0.00388442
3786	0.00505708
3798	0.00366455
3810	0.00315151
3822	0.00227202
3834	0.00234531
3846	0.00366455
3858	0.0032981
3870	0.000659619
3882	0.00520366
3894	0.00249189
3906	0.0032248
3918	0.00300493
3930	0.00351797
3942	0.00432417
3954	0
3966	0.000659619
