Infrared Spectrum: 1-Pentanol, 3-methyl-2-phenyl-,
Formula: C 12 H 18 O
CAS: 36748-84-2
Origin: Sadtler Research Labs Under US-EPA Contract
1/CM	ABSORBANCE
450	0.0117619
462	0.00411964
474	0.00101498
486	0.000417935
498	0.00405994
510	0.011344
522	0.00997073
534	0.0154039
546	0.0187474
558	0.0274046
570	0.0308078
582	0.012956
594	0.00501522
606	0.00370171
618	0.00310466
630	0.00501522
642	0.00788106
654	0.0118813
666	0.0148665
678	0.0153442
690	0.0725416
702	0.287181
714	0.087229
726	0.0288972
738	0.0513463
750	0.0785718
762	0.0658546
774	0.0365992
786	0.0158218
798	0.00746313
810	0.00543316
822	0.00579138
834	0.00459728
846	0.00447788
858	0.00011941
870	0.0012538
882	0.00256732
894	0.00417935
906	0.0111648
918	0.00931398
930	0.0160009
942	0.0201803
954	0.0300913
966	0.0390471
978	0.0447787
990	0.0572571
1002	0.0771389
1014	0.103409
1026	0.157502
1038	0.194519
1050	0.23064
1062	0.243417
1074	0.138635
1086	0.0691384
1098	0.0352857
1110	0.0314645
1122	0.0313451
1134	0.0288972
1146	0.0296137
1158	0.0373753
1170	0.0479431
1182	0.0548689
1194	0.036838
1206	0.0333154
1218	0.0349274
1230	0.0396441
1242	0.0512866
1254	0.0426891
1266	0.0373156
1278	0.0411367
1290	0.0380918
1302	0.035823
1314	0.0339124
1326	0.0382709
1338	0.0413159
1350	0.0382709
1362	0.0432861
1374	0.0813182
1386	0.134097
1398	0.0753477
1410	0.0340916
1422	0.0229267
1434	0.0230461
1446	0.0508687
1458	0.10723
1470	0.106932
1482	0.0725416
1494	0.100006
1506	0.0569586
1518	0.0256731
1530	0.0106872
1542	0.00859752
1554	0.00549286
1566	0.00459728
1578	0.0112842
1590	0.0247776
1602	0.0477043
1614	0.0226879
1626	0.00680637
1638	0.00394053
1650	0.00441817
1662	0.00465699
1674	0.00435846
1686	0.00280613
1698	0.00292554
1710	0.00340318
1722	0.00400023
1734	0.00483611
1746	0.00411964
1758	0.00226879
1770	0.00137321
1782	0.00179115
1794	0.00740342
1806	0.00979162
1818	0.00435846
1830	0.00095528
1842	0
1854	0.00232849
1866	0.00680637
1878	0.00776165
1890	0.00573168
1902	0.00149263
1914	0.00107469
1926	0.00292554
1938	0.0106275
1950	0.0106872
1962	0.00746313
1974	0.00131351
1986	0.00155233
1998	0.0012538
2010	0.00101498
2022	0.00101498
2034	0.00208968
2046	0.00232849
2058	0.00202997
2070	0.0023882
2082	0.00214938
2094	0.00161203
2106	0.0011344
2118	0.000776165
2130	0.000298525
2142	0.000537345
2154	0.00035823
2166	0.00047764
2178	0.000298525
2190	0.00059705
2202	0.000179115
2214	0.00023882
2226	0.000656755
2238	0.000537345
2250	0.00101498
2262	0.0011344
2274	0.00059705
2286	0.00095528
2298	0.0011344
2310	0.00197027
2322	0.0023882
2334	0.00250761
2346	0.00417935
2358	0.0024479
2370	0.00226879
2382	0.00220908
2394	0.00268673
2406	0.00292554
2418	0.00310466
2430	0.00298525
2442	0.00322407
2454	0.00322407
2466	0.00292554
2478	0.00262702
2490	0.00256732
2502	0.00250761
2514	0.00256732
2526	0.00292554
2538	0.00334348
2550	0.00352259
2562	0.00388083
2574	0.00441817
2586	0.00501522
2598	0.00567198
2610	0.00632873
2622	0.00573168
2634	0.00608991
2646	0.0060302
2658	0.00608991
2670	0.00668696
2682	0.00746313
2694	0.00811988
2706	0.00823929
2718	0.0102693
2730	0.0127172
2742	0.0161203
2754	0.0164786
2766	0.0160009
2778	0.0172547
2790	0.0201206
2802	0.0235238
2814	0.0260911
2826	0.030151
2838	0.0399426
2850	0.0569586
2862	0.10526
2874	0.219356
2886	0.367843
2898	0.301809
2910	0.235178
2922	0.295241
2934	0.373873
2946	0.352737
2958	0.312735
2970	0.576511
2982	0.431906
2994	0.146277
3006	0.0669293
3018	0.0670487
3030	0.151949
3042	0.143411
3054	0.0712878
3066	0.124843
3078	0.147113
3090	0.0942145
3102	0.0505104
3114	0.0300316
3126	0.0146874
3138	0.0105081
3150	0.0083587
3162	0.00794076
3174	0.00650784
3186	0.00483611
3198	0.00340318
3210	0.00268673
3222	0.00197027
3234	0.0011344
3246	0.000656755
3258	0.00047764
3270	0.00083587
3282	0.00083587
3294	0.00071646
3306	0.000656755
3318	0.00143292
3330	0.00095528
3342	0.000895575
3354	0.00083587
3366	0.00131351
3378	0.00095528
3390	0.00107469
3402	0.000537345
3414	0.000895575
3426	0.00095528
3438	0.00101498
3450	0.0011344
3462	0.00155233
3474	0.00137321
3486	0.000895575
3498	0.0011941
3510	0.00155233
3522	0.0011941
3534	0.00173144
3546	0.00220908
3558	0.00232849
3570	0.00268673
3582	0.00179115
3594	0.003642
3606	0.00549286
3618	0.0390471
3630	0.06072
3642	0.0308078
3654	0.0299122
3666	0.04048
3678	0.0274643
3690	0.0105678
3702	0.00608991
3714	0.003642
3726	0.00376141
3738	0.00280613
3750	0.000656755
3762	0.00179115
3774	0.00214938
3786	0.000417935
3798	0.00167174
3810	0.00101498
3822	0.00149263
3834	0.00220908
3846	0.000417935
3858	0.00202997
3870	0.00214938
3882	0.00185085
3894	0.00208968
3906	0.00214938
3918	0.00268673
3930	0.00292554
3942	0.000895575
3954	0.000298525
3966	0.00047764
