Infrared Spectrum: Toluene, 3-benzyloxy-2-bromo-5-methoxy-,
Formula: C 15 H 15 Br O 2
CAS: 36776-45-1
Origin: Sadtler Research Labs Under US-EPA Contract
1/CM	ABSORBANCE
450	0.0109795
462	0.0247038
474	0.0100821
486	0.00739004
498	0.00147801
510	0.000211144
522	0.00380059
534	0.00211144
546	0.0105572
558	0.0154135
570	0.0114546
582	0.0238065
594	0.034786
606	0.0427039
618	0.0428622
630	0.037742
642	0.0301936
654	0.0348388
666	0.0411203
678	0.0458182
690	0.105308
702	0.11861
714	0.0594898
726	0.0871497
738	0.15044
750	0.0814488
762	0.0224868
774	0.00876248
786	0.0100821
798	0.0232786
810	0.0443402
822	0.0755896
834	0.0965984
846	0.0775954
858	0.0361584
870	0.0178945
882	0.0178417
894	0.027871
906	0.0399062
918	0.0261819
930	0.0352083
942	0.0543696
954	0.0391672
966	0.0366863
978	0.043918
990	0.0698359
1002	0.11634
1014	0.120299
1026	0.274434
1038	0.142944
1050	0.150757
1062	0.192722
1074	0.241021
1086	0.270792
1098	0.19003
1110	0.114123
1122	0.0820294
1134	0.0982347
1146	0.245349
1158	0.52786
1170	0.299666
1182	0.148434
1194	0.309432
1206	0.198739
1218	0.124997
1230	0.102933
1242	0.0785456
1254	0.0915309
1266	0.127109
1278	0.119719
1290	0.0774898
1302	0.131701
1314	0.256804
1326	0.4121
1338	0.241021
1350	0.0896306
1362	0.0936952
1374	0.175144
1386	0.130593
1398	0.0775954
1410	0.147642
1422	0.219062
1434	0.20444
1446	0.20993
1458	0.264036
1470	0.276387
1482	0.125842
1494	0.0938535
1506	0.0560059
1518	0.0438124
1530	0.0486687
1542	0.0689385
1554	0.112487
1566	0.240335
1578	0.430259
1590	0.438546
1602	0.221068
1614	0.0835075
1626	0.0338886
1638	0.0204282
1650	0.0166276
1662	0.0125631
1674	0.0132493
1686	0.0138299
1698	0.0163637
1710	0.0184223
1722	0.0220645
1734	0.0250206
1746	0.0238065
1758	0.0171027
1770	0.0177361
1782	0.0141466
1794	0.0130909
1806	0.0107683
1818	0.00427567
1830	0.00274487
1842	0.00158358
1854	0.00242816
1866	0.00522581
1878	0.00459238
1890	0.00279766
1902	0.000580646
1914	0.000633432
1926	0.00158358
1938	0.00469795
1950	0.00659825
1962	0.00522581
1974	0.0019003
1986	0.00179472
1998	0.00211144
2010	0.00237537
2022	0.0019003
2034	0.000686218
2046	0.00052786
2058	0.000422288
2070	0.00116129
2082	0.00237537
2094	0.00353666
2106	0.00390616
2118	0.00316716
2130	0.00279766
2142	0.00237537
2154	0.00158358
2166	0.000950148
2178	0.000316716
2190	0.000158358
2202	0.000316716
2214	0.000580646
2226	0.000950148
2238	0.00116129
2250	0.00232258
2262	0.0026393
2274	0.00311437
2286	0.00401174
2298	0.0049091
2310	0.00665104
2322	0.00448681
2334	0.00274487
2346	0.00480353
2358	0.00348388
2370	0.00358945
2382	0.00459238
2394	0.0022698
2406	0.00211144
2418	0.00211144
2430	0.00216423
2442	0.00200587
2454	0.0022698
2466	0.00290323
2478	0.00348388
2490	0.00332552
2502	0.00327273
2514	0.00321995
2526	0.00274487
2538	0.00237537
2550	0.0019003
2562	0.00153079
2574	0.00174194
2586	0.00221701
2598	0.0030088
2610	0.00343109
2622	0.0030088
2634	0.00279766
2646	0.00327273
2658	0.00316716
2670	0.00285044
2682	0.00343109
2694	0.00364223
2706	0.00390616
2718	0.00411731
2730	0.00575367
2742	0.00712611
2754	0.00643989
2766	0.00654546
2778	0.0079179
2790	0.00992377
2802	0.0124575
2814	0.0163637
2826	0.0266569
2838	0.0548974
2850	0.072264
2862	0.0636071
2874	0.0683579
2886	0.0684634
2898	0.0744283
2910	0.0889444
2922	0.10895
2934	0.135713
2946	0.145267
2958	0.132123
2970	0.0950676
2982	0.0662464
2994	0.0647684
3006	0.0819767
3018	0.0618652
3030	0.0702054
3042	0.0617068
3054	0.0480353
3066	0.0678828
3078	0.0667215
3090	0.0413842
3102	0.0233314
3114	0.0159414
3126	0.00775954
3138	0.00485631
3150	0.00443402
3162	0.00369502
3174	0.00332552
3186	0.00285044
3198	0.00205865
3210	0.00142522
3222	0.00200587
3234	0.00142522
3246	0.00100293
3258	0.00105572
3270	0.00100293
3282	0.00105572
3294	0.00131965
3306	0.00137244
3318	0.00116129
3330	0.00105572
3342	0.00142522
3354	0.00121408
3366	0.00110851
3378	0.00105572
3390	0.00158358
3402	0.00142522
3414	0.00163637
3426	0.00137244
3438	0.00184751
3450	0.00126686
3462	0.00137244
3474	0.00179472
3486	0.00131965
3498	0.00158358
3510	0.00121408
3522	0.00174194
3534	0.00179472
3546	0.00406452
3558	0.0033783
3570	0.000580646
3582	0.00153079
3594	0.000316716
3606	0.00052786
3618	0.000950148
3630	0.00174194
3642	0.00174194
3654	0.00174194
3666	0.00153079
3678	0.00269209
3690	0.00110851
3702	0.000580646
3714	0.000950148
3726	0.00026393
3738	0.00100293
3750	0.000580646
3762	0.00142522
3774	0.00079179
3786	0.000633432
3798	0.00110851
3810	0.00137244
3822	0.00100293
3834	0.00116129
3846	0.00174194
3858	0.00137244
3870	0.00121408
3882	0.00205865
3894	0.00147801
3906	0.00163637
3918	0.00168915
3930	0.00174194
3942	0.00126686
3954	0.000633432
3966	0.00105572
