Infrared Spectrum: m-Trifluoromethylbenzonitrile
Formula: C 8 H 4 F 3 N
CAS: 368-77-4
Origin: Sadtler Research Labs Under US-EPA Contract
1/CM	ABSORBANCE
450	0.00678696
462	0.00803124
474	0.0150444
486	0.0118772
498	0.00938863
510	0.00328036
522	0.00927551
534	0.0276003
546	0.0219445
558	0.00531645
570	0.00520334
582	0.0084837
594	0.0084837
606	0.00384594
618	0.00305413
630	0.0056558
642	0.00859682
654	0.0364234
666	0.0490923
678	0.0245462
690	0.0982978
702	0.0804255
714	0.0212658
726	0.038007
738	0.0706975
750	0.0105198
762	0.00667384
774	0.00486399
786	0.0210396
798	0.0990896
810	0.094565
822	0.0213789
834	0.0133477
846	0.0259036
858	0.0787287
870	0.0249986
882	0.00316725
894	0.0132346
906	0.0613089
918	0.0415136
930	0.0118772
942	0.00656073
954	0.00542957
966	0.00452464
978	0.0049771
990	0.00542957
1002	0.00644761
1014	0.00859682
1026	0.00757877
1038	0.00678696
1050	0.0188904
1062	0.0730729
1074	0.204287
1086	0.222725
1098	0.0969404
1110	0.0441152
1122	0.0447939
1134	0.0900403
1146	0.392852
1158	1.13116
1170	0.683447
1182	0.875178
1194	0.566032
1206	0.136983
1218	0.0384594
1230	0.0178723
1242	0.0166281
1254	0.0209265
1266	0.0481874
1278	0.0660597
1290	0.0568973
1302	0.0705844
1314	0.269782
1326	0.914204
1338	0.966011
1350	0.0992027
1362	0.0162887
1374	0.00837058
1386	0.0128952
1398	0.0133477
1410	0.0119903
1422	0.0246593
1434	0.102822
1446	0.072168
1458	0.0164018
1470	0.00961486
1482	0.0265823
1494	0.0265823
1506	0.00938863
1518	0.00373283
1530	0.00203609
1542	0.0021492
1554	0.00294102
1566	0.00226232
1578	0.00226232
1590	0.00486399
1602	0.00961486
1614	0.010746
1626	0.00961486
1638	0.00531645
1650	0.00769189
1662	0.0091624
1674	0.00328036
1686	0.00395906
1698	0.00305413
1710	0.00271478
1722	0.00690008
1734	0.00882305
1746	0.00203609
1758	0.00237544
1770	0.0021492
1782	0.00441152
1794	0.00248855
1806	0.00757877
1818	0.00859682
1830	0.00373283
1842	0.00226232
1854	0.00656073
1866	0.00361971
1878	0.000339348
1890	0.00463776
1902	0.00859682
1914	0.00859682
1926	0.00294102
1938	0.00226232
1950	0.00328036
1962	0.00678696
1974	0.00441152
1986	0.00101804
1998	0.00169674
2010	0.00260167
2022	0.00237544
2034	0.00203609
2046	0.00237544
2058	0.0021492
2070	0.0028279
2082	0.00180986
2094	0.00147051
2106	0.00124428
2118	0.00101804
2130	0.00147051
2142	0.000791812
2154	0.00113116
2166	0.00192297
2178	0.00248855
2190	0.00339348
2202	0.00180986
2214	0.00169674
2226	0.00486399
2238	0.0152707
2250	0.00995421
2262	0.00373283
2274	0.00339348
2286	0.00305413
2298	0.00271478
2310	0.0021492
2322	0.00135739
2334	0.0028279
2346	0.00226232
2358	0.00395906
2370	0.00316725
2382	0.00294102
2394	0.00271478
2406	0.00226232
2418	0.0021492
2430	0.00203609
2442	0.00158362
2454	0.00203609
2466	0.00192297
2478	0.00192297
2490	0.00305413
2502	0.00260167
2514	0.00271478
2526	0.00203609
2538	0.00135739
2550	0.00180986
2562	0.00124428
2574	0.00169674
2586	0.00147051
2598	0.0021492
2610	0.00294102
2622	0.00271478
2634	0.00226232
2646	0.00203609
2658	0.00339348
2670	0.00260167
2682	0.00135739
2694	0.00226232
2706	0.00260167
2718	0.00260167
2730	0.00203609
2742	0.00203609
2754	0.00226232
2766	0.0028279
2778	0.00361971
2790	0.0028279
2802	0.00294102
2814	0.00192297
2826	0.00237544
2838	0.00260167
2850	0.00237544
2862	0.00237544
2874	0.00294102
2886	0.00271478
2898	0.0028279
2910	0.00316725
2922	0.00418529
2934	0.00463776
2946	0.00429841
2958	0.00418529
2970	0.00475087
2982	0.00361971
2994	0.00339348
3006	0.00271478
3018	0.00339348
3030	0.00328036
3042	0.00395906
3054	0.0056558
3066	0.00746566
3078	0.0122165
3090	0.0195691
3102	0.00950174
3114	0.00509022
3126	0.00429841
3138	0.00339348
3150	0.00328036
3162	0.0035066
3174	0.00260167
3186	0.00339348
3198	0.00407218
3210	0.00373283
3222	0.00328036
3234	0.00339348
3246	0.00373283
3258	0.00260167
3270	0.00271478
3282	0.00339348
3294	0.00339348
3306	0.00328036
3318	0.0035066
3330	0.00339348
3342	0.00271478
3354	0.00373283
3366	0.00328036
3378	0.00441152
3390	0.00316725
3402	0.00339348
3414	0.00452464
3426	0.00475087
3438	0.00373283
3450	0.00248855
3462	0.00339348
3474	0.00294102
3486	0.00373283
3498	0.00328036
3510	0.0028279
3522	0.00361971
3534	0.00361971
3546	0.00361971
3558	0.00339348
3570	0.00361971
3582	0.00226232
3594	0.00294102
3606	0.00180986
3618	0.00203609
3630	0.00305413
3642	0.00328036
3654	0.00418529
3666	0.000904928
3678	0.00429841
3690	0.00328036
3702	0.00271478
3714	0.00452464
3726	0.00475087
3738	0.00486399
3750	0.0049771
3762	0.00418529
3774	0.0028279
3786	0.0028279
3798	0.00542957
3810	0.00294102
3822	0.00429841
3834	0.00407218
3846	0.00373283
3858	0.00791812
3870	0.00305413
3882	0.00395906
3894	0.00395906
3906	0.00384594
3918	0.00576892
3930	0.00542957
3942	0.00542957
3954	0.00599515
3966	0.00373283
