Infrared Spectrum: Benzenesulfonyl fluoride
Formula: C 6 H 5 F O 2 S
CAS: 368-43-4
Origin: Sadtler Research Labs Under US-EPA Contract
1/CM	ABSORBANCE
450	0.0247871
462	0.0215496
474	0.020892
486	0.0268106
498	0.0303516
510	0.036169
522	0.0434534
534	0.0572128
546	0.0344997
558	0.0178569
570	0.0211955
582	0.143968
594	0.345047
606	0.021752
618	0.0194756
630	0.0205379
642	0.0206391
654	0.0213473
666	0.0289858
678	0.0551387
690	0.0550376
702	0.0496755
714	0.110126
726	0.0917124
738	0.0682405
750	0.151606
762	0.0966193
774	0.0815446
786	0.313633
798	0.493112
810	0.129601
822	0.0271141
834	0.0192733
846	0.0159852
858	0.0143158
870	0.0134053
882	0.0136076
894	0.0143664
906	0.0174522
918	0.0169463
930	0.0161369
942	0.0133041
954	0.0140123
966	0.0132029
978	0.0137088
990	0.0140629
1002	0.0149735
1014	0.01381
1026	0.0197285
1038	0.0154793
1050	0.015277
1062	0.0172498
1074	0.018211
1086	0.0242307
1098	0.0525589
1110	0.044971
1122	0.0180592
1134	0.0128994
1146	0.0123936
1158	0.0138606
1170	0.017958
1182	0.0346514
1194	0.0262541
1206	0.0695052
1218	0.424467
1230	0.409949
1242	0.0744626
1254	0.034702
1266	0.0197285
1278	0.0191721
1290	0.0202344
1302	0.017351
1314	0.0165416
1326	0.0190203
1338	0.0195262
1350	0.0148723
1362	0.011483
1374	0.0137594
1386	0.018211
1398	0.0357137
1410	0.0765366
1422	0.214131
1434	0.321879
1446	0.212057
1458	0.121356
1470	0.037636
1482	0.0201838
1494	0.0172498
1506	0.00849845
1518	0.00930782
1530	0.00900431
1542	0.00283282
1554	0.00895372
1566	0.0106736
1578	0.0109266
1590	0.0177557
1602	0.0124442
1614	0.0108254
1626	0.00935841
1638	0.0068797
1650	0.00753731
1662	0.00809376
1674	0.00849845
1686	0.00677852
1698	0.00586798
1710	0.00834669
1722	0.00870079
1734	0.0050586
1746	0.00854903
1758	0.00905489
1770	0.00935841
1782	0.00930782
1794	0.00763849
1806	0.0122418
1818	0.0127477
1830	0.00905489
1842	0.00814435
1854	0.00819493
1866	0.00748673
1878	0.00854903
1890	0.0097631
1902	0.0117865
1914	0.0117865
1926	0.00966193
1938	0.00885255
1950	0.009409
1962	0.0111289
1974	0.010876
1986	0.0097631
1998	0.00753731
2010	0.00763849
2022	0.00773966
2034	0.00779024
2046	0.00748673
2058	0.00728438
2070	0.00703145
2082	0.00703145
2094	0.00763849
2106	0.00738556
2118	0.00728438
2130	0.0072338
2142	0.00773966
2154	0.00773966
2166	0.00728438
2178	0.00718321
2190	0.00698087
2202	0.00753731
2214	0.00708204
2226	0.00718321
2238	0.00728438
2250	0.00713263
2262	0.00657618
2274	0.00682911
2286	0.00647501
2298	0.00703145
2310	0.00900431
2322	0.0121912
2334	0.0150746
2346	0.0147711
2358	0.0159346
2370	0.0209426
2382	0.00905489
2394	0.0050586
2406	0.00601973
2418	0.00612091
2430	0.00698087
2442	0.0075879
2454	0.00652559
2466	0.00591856
2478	0.00607032
2490	0.00622208
2502	0.0068797
2514	0.00642442
2526	0.00632325
2538	0.00586798
2550	0.00647501
2562	0.00693028
2574	0.00693028
2586	0.00738556
2598	0.00718321
2610	0.00728438
2622	0.00844786
2634	0.00880196
2646	0.00951017
2658	0.0075879
2670	0.0068797
2682	0.00748673
2694	0.00819493
2706	0.00768907
2718	0.00703145
2730	0.00642442
2742	0.00703145
2754	0.00657618
2766	0.00693028
2778	0.00693028
2790	0.00652559
2802	0.00693028
2814	0.00718321
2826	0.00738556
2838	0.00743614
2850	0.00677852
2862	0.00703145
2874	0.00657618
2886	0.00733497
2898	0.00834669
2910	0.00768907
2922	0.00703145
2934	0.00748673
2946	0.00789142
2958	0.00804317
2970	0.00824552
2982	0.0075879
2994	0.00738556
3006	0.00844786
3018	0.0101172
3030	0.0101172
3042	0.0103195
3054	0.0113819
3066	0.0182615
3078	0.0404182
3090	0.0360172
3102	0.0145688
3114	0.010269
3126	0.00819493
3138	0.00779024
3150	0.00819493
3162	0.00935841
3174	0.00935841
3186	0.00834669
3198	0.00789142
3210	0.00844786
3222	0.00839728
3234	0.00875138
3246	0.00768907
3258	0.00779024
3270	0.00789142
3282	0.00859962
3294	0.00890314
3306	0.00885255
3318	0.00748673
3330	0.00789142
3342	0.00819493
3354	0.00920665
3366	0.00935841
3378	0.00849845
3390	0.00834669
3402	0.00880196
3414	0.0082961
3426	0.00930782
3438	0.00930782
3450	0.00773966
3462	0.00773966
3474	0.0082961
3486	0.00986427
3498	0.00935841
3510	0.00880196
3522	0.00814435
3534	0.00834669
3546	0.00844786
3558	0.00900431
3570	0.00809376
3582	0.00865021
3594	0.00844786
3606	0.00799259
3618	0.00768907
3630	0.00743614
3642	0.00809376
3654	0.00743614
3666	0.00773966
3678	0.00607032
3690	0.00693028
3702	0.00748673
3714	0.00682911
3726	0.00581739
3738	0.00546329
3750	0.00500801
3762	0.00693028
3774	0.00743614
3786	0.00743614
3798	0.00571622
3810	0.00637384
3822	0.0054127
3834	0.00642442
3846	0.00622208
3858	0.00581739
3870	0.0054127
3882	0.00698087
3894	0.00743614
3906	0.00703145
3918	0.00698087
3930	0.00738556
3942	0.00804317
3954	0
3966	0.000607032
