Infrared Spectrum: Sulfone, 3-butynyl p-tolyl,
Formula: C 11 H 12 O 2 S
CAS: 36832-52-7
Origin: Sadtler Research Labs Under US-EPA Contract
1/CM	ABSORBANCE
450	0.0148765
462	0.0177264
474	0.00535781
486	0.0125396
498	0.0222862
510	0.0721025
522	0.156118
534	0.0731284
546	0.0374477
558	0.0995185
570	0.249879
582	0.0326599
594	0.0113996
606	0.0178404
618	0.0589359
630	0.179487
642	0.338511
654	0.211007
666	0.101912
678	0.0406966
690	0.0419505
702	0.0366497
714	0.0744394
726	0.104648
738	0.0411526
750	0.0588789
762	0.114737
774	0.0918808
786	0.0400126
798	0.0666877
810	0.121463
822	0.105788
834	0.0217732
846	0.00889169
858	0.00473083
870	0.00159594
882	0.000512982
894	0.000797972
906	0.00433185
918	0.00900568
930	0.00792272
942	0.0161874
954	0.029867
966	0.0330018
978	0.0456554
990	0.0118556
1002	0.0103166
1014	0.0342558
1026	0.0307789
1038	0.0141355
1050	0.0146485
1062	0.0144205
1074	0.027758
1086	0.132748
1098	0.115364
1110	0.0332298
1122	0.0429195
1134	0.143236
1146	0.29012
1158	0.551912
1170	0.303628
1182	0.0702785
1194	0.0353388
1206	0.0398986
1218	0.0433755
1230	0.056314
1242	0.0417795
1254	0.0546611
1266	0.103508
1278	0.0824191
1290	0.0705635
1302	0.084756
1314	0.0898858
1326	0.147511
1338	0.262191
1350	0.469721
1362	0.184446
1374	0.0440595
1386	0.0386446
1398	0.0435465
1410	0.0594489
1422	0.0405826
1434	0.0389296
1446	0.0320329
1458	0.0216022
1470	0.0172134
1482	0.0167574
1494	0.0386446
1506	0.0248511
1518	0.0146485
1530	0.0108296
1542	0.0100316
1554	0.0085497
1566	0.00940467
1578	0.0153895
1590	0.0340278
1602	0.0660037
1614	0.027815
1626	0.0113426
1638	0.00837871
1650	0.00997465
1662	0.00381887
1674	0.00267891
1686	0.00341988
1698	0.00444584
1710	0.00302089
1722	0.00398986
1734	0.00621278
1746	0.00478783
1758	0.00490183
1770	0.0058138
1782	0.00376187
1794	0.00718175
1806	0.00780873
1818	0.00199493
1830	0.00165294
1842	0.00102596
1854	0.000683976
1866	0.00182394
1878	0.00193793
1890	0.00302089
1902	0.00490183
1914	0.0100316
1926	0.00621278
1938	0.00222292
1950	0.00119696
1962	0.000968966
1974	0.00113996
1986	0.00085497
1998	0.000797972
2010	0.000341988
2022	0.00056998
2034	0.00056998
2046	0.000170994
2058	5.6998e-05
2070	0.000341988
2082	0.00056998
2094	0.00159594
2106	0.00381887
2118	0.00911968
2130	0.0112286
2142	0.00233692
2154	0.00056998
2166	0.000626978
2178	0.00108296
2190	0.000797972
2202	0.000341988
2214	5.6998e-05
2226	0.000683976
2238	0.00108296
2250	0.00176694
2262	0.000968966
2274	0.000740974
2286	0.00102596
2298	0.00227992
2310	0.00222292
2322	0.00170994
2334	0.000797972
2346	0.00341988
2358	0.00136795
2370	0.00307789
2382	0.0027929
2394	0.00199493
2406	0.00182394
2418	0.00227992
2430	0.00159594
2442	0.00170994
2454	0.00131095
2466	0.00125396
2478	0.00136795
2490	0.00188093
2502	0.00182394
2514	0.00131095
2526	0.00056998
2538	0.000455984
2550	0.000512982
2562	0.00148195
2574	0.00170994
2586	0.00250791
2598	0.00165294
2610	0.00119696
2622	0.00119696
2634	0.000797972
2646	0.000911968
2658	0.00113996
2670	0.00119696
2682	0.00227992
2694	0.00239392
2706	0.00113996
2718	0.000740974
2730	0.00136795
2742	0.0029069
2754	0.00307789
2766	0.0028499
2778	0.00216592
2790	0.00233692
2802	0.0027929
2814	0.00319189
2826	0.00364787
2838	0.00507282
2850	0.00889169
2862	0.0148765
2874	0.0235402
2886	0.0254211
2898	0.0221722
2910	0.0234832
2922	0.0364217
2934	0.0679986
2946	0.0589929
2958	0.0347688
2970	0.0234832
2982	0.0226282
2994	0.0269031
3006	0.0243951
3018	0.0252501
3030	0.0368777
3042	0.0466814
3054	0.0418365
3066	0.0353388
3078	0.0226282
3090	0.0160164
3102	0.00957566
3114	0.00541481
3126	0.00387586
3138	0.00307789
3150	0.0027359
3162	0.00193793
3174	0.00153895
3186	0.00136795
3198	0.00119696
3210	0.000797972
3222	0.00159594
3234	0.00193793
3246	0.0029069
3258	0.00455984
3270	0.00877769
3282	0.0137935
3294	0.0233692
3306	0.058195
3318	0.057112
3330	0.177606
3342	0.0262761
3354	0.00968966
3366	0.00661177
3378	0.00433185
3390	0.00250791
3402	0.00159594
3414	0.00108296
3426	0.00119696
3438	0.00108296
3450	0.00113996
3462	0.000626978
3474	0.000683976
3486	0.000968966
3498	0.000911968
3510	0.000170994
3522	0.00125396
3534	0.000341988
3546	0.00085497
3558	0.00102596
3570	0.000626978
3582	0.000512982
3594	0.00188093
3606	0.000797972
3618	0.000683976
3630	0.00210893
3642	0.00102596
3654	0.00119696
3666	0.00056998
3678	0.00319189
3690	0.00102596
3702	0.00102596
3714	0.00188093
3726	0.00216592
3738	0.00205193
3750	5.6998e-05
3762	0.00056998
3774	0.000341988
3786	0.000398986
3798	0.000740974
3810	0
3822	0.00085497
3834	0.00119696
3846	0.000227992
3858	0.00262191
3870	0.000626978
3882	0.000227992
3894	0.00250791
3906	0.00159594
3918	0.00205193
3930	0.00216592
3942	0.00313489
3954	0.00233692
3966	0.00125396
