Infrared Spectrum: 2-Propenoic acid, 2-cyano-3-phenyl-, methyl ester
Formula: C 11 H 9 N O 2
CAS: 3695-84-9
Origin: Sadtler Research Labs Under US-EPA Contract
1/CM	ABSORBANCE
450	0
462	0.0115451
474	0.0232261
486	0.0226828
498	0.0138542
510	0.0122243
522	0.0112735
534	0.00964358
546	0.0112735
558	0.0103227
570	0.0153482
582	0.0751112
594	0.0270292
606	0.00801368
618	0.00747038
630	0.00719873
642	0.00719873
654	0.0114093
666	0.0268934
678	0.0827174
690	0.139492
702	0.0573182
714	0.048897
726	0.0450939
738	0.0391176
750	0.0624795
762	0.0953492
774	0.115044
786	0.0722589
798	0.0415625
810	0.0228186
822	0.0184722
834	0.0278441
846	0.0252634
858	0.0134467
870	0.0100511
882	0.0105944
894	0.0104585
906	0.011681
918	0.013175
930	0.0196946
942	0.0362653
954	0.0384385
966	0.038031
978	0.0622079
990	0.0293382
1002	0.0467238
1014	0.0158915
1026	0.0173856
1038	0.0180647
1050	0.0264859
1062	0.0541942
1074	0.115723
1086	0.244213
1098	0.16951
1110	0.123193
1122	0.0478104
1134	0.0344996
1146	0.0342279
1158	0.0548733
1170	0.0670976
1182	0.162175
1194	0.435591
1206	0.652232
1218	0.173856
1230	0.216777
1242	0.314435
1254	0.731146
1266	1.33367
1278	0.818617
1290	0.234298
1302	0.123193
1314	0.143567
1326	0.103634
1338	0.0681841
1350	0.0532434
1362	0.0427849
1374	0.029474
1386	0.021732
1398	0.0191513
1410	0.020917
1422	0.0251276
1434	0.0965716
1446	0.197897
1458	0.0933118
1470	0.0399326
1482	0.0283874
1494	0.0498478
1506	0.0328697
1518	0.0234977
1530	0.0255351
1542	0.0203738
1554	0.0214604
1566	0.0358578
1578	0.067505
1590	0.0584048
1602	0.151581
1614	0.375556
1626	0.126861
1638	0.0339563
1650	0.0224111
1662	0.0234977
1674	0.0228186
1686	0.0239052
1698	0.0293382
1710	0.0569107
1722	0.0688633
1734	0.128626
1746	0.596679
1758	0.806121
1770	0.133516
1782	0.0560957
1794	0.0560957
1806	0.0346354
1818	0.0182006
1830	0.017114
1842	0.0156199
1854	0.0146691
1866	0.0138542
1878	0.0160274
1890	0.0168423
1902	0.0167065
1914	0.011681
1926	0.0118168
1938	0.0138542
1950	0.0173856
1962	0.0165706
1974	0.0153482
1986	0.00842115
1998	0.0081495
2010	0.0076062
2022	0.00774203
2034	0.0092361
2046	0.0092361
2058	0.00991522
2070	0.0104585
2082	0.0101869
2094	0.0114093
2106	0.0127676
2118	0.0105944
2130	0.00787785
2142	0.00665543
2154	0.00679125
2166	0.00719873
2178	0.00774203
2190	0.00719873
2202	0.00733455
2214	0.0086928
2226	0.0153482
2238	0.011681
2250	0.00774203
2262	0.00774203
2274	0.00828532
2286	0.00896445
2298	0.0105944
2310	0.0122243
2322	0.0145333
2334	0.0118168
2346	0.0143975
2358	0.0127676
2370	0.0115451
2382	0.0118168
2394	0.00801368
2406	0.00747038
2418	0.00733455
2430	0.0070629
2442	0.0070629
2454	0.0070629
2466	0.00774203
2478	0.00774203
2490	0.0076062
2502	0.00719873
2514	0.00747038
2526	0.00774203
2538	0.0076062
2550	0.0070629
2562	0.00733455
2574	0.00747038
2586	0.0081495
2598	0.00910028
2610	0.00828532
2622	0.00747038
2634	0.00733455
2646	0.0076062
2658	0.00747038
2670	0.00692708
2682	0.00665543
2694	0.00733455
2706	0.00733455
2718	0.0070629
2730	0.0070629
2742	0.00692708
2754	0.0070629
2766	0.00747038
2778	0.00842115
2790	0.00964358
2802	0.0111377
2814	0.0114093
2826	0.010866
2838	0.0124959
2850	0.0283874
2862	0.0244485
2874	0.0133109
2886	0.0152124
2898	0.0228186
2910	0.027165
2922	0.0266217
2934	0.0243127
2946	0.0296099
2958	0.0994239
2970	0.138134
2982	0.0312398
2994	0.0289307
3006	0.041155
3018	0.0421058
3030	0.0548733
3042	0.0645169
3054	0.0419699
3066	0.073753
3078	0.103363
3090	0.0480821
3102	0.0389818
3114	0.0268934
3126	0.0160274
3138	0.0130392
3150	0.0126317
3162	0.0112735
3174	0.0097794
3186	0.00964358
3198	0.00964358
3210	0.00896445
3222	0.00855698
3234	0.00787785
3246	0.00774203
3258	0.00801368
3270	0.00774203
3282	0.0076062
3294	0.00719873
3306	0.00719873
3318	0.00747038
3330	0.00733455
3342	0.0076062
3354	0.00801368
3366	0.00842115
3378	0.00787785
3390	0.0070629
3402	0.00733455
3414	0.00665543
3426	0.00774203
3438	0.00801368
3450	0.00787785
3462	0.0086928
3474	0.0105944
3486	0.0148049
3498	0.0110018
3510	0.00665543
3522	0.00733455
3534	0.0081495
3546	0.00719873
3558	0.00747038
3570	0.00774203
3582	0.00801368
3594	0.00747038
3606	0.00719873
3618	0.00774203
3630	0.0076062
3642	0.00801368
3654	0.00828532
3666	0.0081495
3678	0.00801368
3690	0.00828532
3702	0.00882862
3714	0.00787785
3726	0.00747038
3738	0.00787785
3750	0.00787785
3762	0.00733455
3774	0.00747038
3786	0.00733455
3798	0.00787785
3810	0.00747038
3822	0.00828532
3834	0.0086928
3846	0.0081495
3858	0.00787785
3870	0.00828532
3882	0.00692708
3894	0.0086928
3906	0.0086928
3918	0.00855698
3930	0.00787785
3942	0.0097794
3954	0.00733455
3966	0.0086928
