Infrared Spectrum: 1,3-Dichloro-4,6-dinitrobenzene
Formula: C 6 H 2 Cl 2 N 2 O 4
CAS: 3698-83-7
Origin: Sadtler Research Labs Under US-EPA Contract
1/CM	ABSORBANCE
450	0.0117743
462	0.01268
474	0.00667963
486	0.00350963
498	0.00600034
510	0.0056607
522	0.00758534
534	0.00532106
546	0.00283035
558	0.00373606
570	0.0246807
582	0.0874012
594	0.125894
606	0.0687209
618	0.0367946
630	0.0238882
642	0.0170953
654	0.0159632
666	0.0198125
678	0.0327188
690	0.0200389
702	0.0224164
714	0.0199257
726	0.0238882
738	0.0302281
750	0.0253599
762	0.041776
774	0.0266053
786	0.0184539
798	0.016416
810	0.00633998
822	0.114799
834	0.225522
846	0.0204917
858	0.0114346
870	0.0448327
882	0.0424552
894	0.075627
906	0.137442
918	0.0458517
930	0.0835519
942	0.395683
954	0.111742
966	0.0260392
978	0.0121139
990	0.00316999
1002	0
1014	0.00215107
1026	0.00316999
1038	0.00554749
1050	0.00769855
1062	0.0105289
1074	0.0288696
1086	0.0972508
1098	0.206616
1110	0.0709852
1122	0.0360021
1134	0.0337378
1146	0.0392853
1158	0.0516256
1170	0.0552484
1182	0.0369078
1194	0.0209446
1206	0.0121139
1218	0.00758534
1230	0.044946
1242	0.0292092
1254	0.0187935
1266	0.0284167
1278	0.0294356
1290	0.0387192
1302	0.0619281
1314	0.127139
1326	0.383569
1338	0.816839
1350	0.905372
1362	0.30364
1374	0.216012
1386	0.128611
1398	0.0804952
1410	0.0580788
1422	0.0637395
1434	0.0997415
1446	0.125668
1458	0.203898
1470	0.134498
1482	0.0572863
1494	0.0576259
1506	0.0980433
1518	0.180916
1530	0.31032
1542	0.579429
1554	0.924506
1566	0.831104
1578	0.899825
1590	1.13214
1602	0.635357
1614	0.179671
1626	0.0894391
1638	0.0461913
1650	0.0278506
1662	0.0184539
1674	0.0135857
1686	0.0107553
1698	0.0101893
1710	0.00849105
1722	0.00826462
1734	0.0117743
1746	0.0144914
1758	0.0108685
1770	0.0134725
1782	0.0105289
1794	0.00769855
1806	0.00815141
1818	0.00520784
1830	0.00430213
1842	0.00350963
1854	0.00260392
1866	0.00271714
1878	0.00215107
1890	0.00249071
1902	0.00226428
1914	0.00283035
1926	0.00226428
1938	0.00135857
1950	0.00169821
1962	0.00203785
1974	0.00192464
1986	0.00101893
1998	0.000679284
2010	0.00056607
2022	0.000679284
2034	0.000905712
2046	0.000905712
2058	0.00124535
2070	0.00124535
2082	0.00101893
2094	0.00101893
2106	0.00169821
2118	0.001585
2130	0.00147178
2142	0.000679284
2154	0.000339642
2166	0.000339642
2178	0.00056607
2190	0.000452856
2202	0.000905712
2214	0.000792498
2226	0.000679284
2238	0
2250	0
2262	0.000452856
2274	0.000905712
2286	0.000792498
2298	0.000792498
2310	0.00113214
2322	0.00316999
2334	0.00509463
2346	0.00690605
2358	0.00679284
2370	0.00611356
2382	0.00464177
2394	0.0040757
2406	0.00339642
2418	0.00294356
2430	0.00249071
2442	0.00283035
2454	0.00271714
2466	0.00271714
2478	0.00294356
2490	0.00328321
2502	0.00384928
2514	0.00350963
2526	0.00339642
2538	0.00362285
2550	0.00441535
2562	0.00475499
2574	0.00362285
2586	0.00294356
2598	0.00362285
2610	0.00373606
2622	0.00430213
2634	0.00600034
2646	0.00747212
2658	0.00962319
2670	0.0143782
2682	0.0157367
2694	0.0125668
2706	0.00950998
2718	0.00837784
2730	0.00735891
2742	0.00622677
2754	0.00543427
2766	0.00498142
2778	0.00498142
2790	0.00509463
2802	0.00543427
2814	0.00633998
2826	0.00735891
2838	0.00815141
2850	0.011661
2862	0.0153971
2874	0.0202653
2886	0.0252467
2898	0.0261524
2910	0.0241146
2922	0.0208314
2934	0.0156235
2946	0.0114346
2958	0.00917033
2970	0.00667963
2982	0.00532106
2994	0.00441535
3006	0.00577391
3018	0.00849105
3030	0.00984962
3042	0.0108685
3054	0.00928355
3066	0.00883069
3078	0.01268
3090	0.0285299
3102	0.061362
3114	0.0333981
3126	0.00849105
3138	0.00577391
3150	0.00441535
3162	0.00362285
3174	0.00283035
3186	0.00226428
3198	0.00192464
3210	0.00124535
3222	0.00135857
3234	0.000905712
3246	0.00124535
3258	0.00056607
3270	0.000792498
3282	0.000452856
3294	0.000339642
3306	0.00056607
3318	0.000226428
3330	0.000226428
3342	0.000452856
3354	0.000339642
3366	0.000679284
3378	0.00113214
3390	0.001585
3402	0.00181142
3414	0.00192464
3426	0.00135857
3438	0.00147178
3450	0.00113214
3462	0.00181142
3474	0.000905712
3486	0.000905712
3498	0.00147178
3510	0.00113214
3522	0.00147178
3534	0.001585
3546	0.001585
3558	0.00101893
3570	0.00113214
3582	0.000905712
3594	0.00169821
3606	0
3618	0.000905712
3630	0.00181142
3642	0.000452856
3654	0.000113214
3666	0.00056607
3678	0.00101893
3690	0.000679284
3702	0.000905712
3714	0.000792498
3726	0.000905712
3738	0
3750	0
3762	0.000113214
3774	0.000452856
3786	0.000113214
3798	0
3810	0
3822	0
3834	0
3846	0.000113214
3858	0.00101893
3870	0
3882	0
3894	0
3906	0.000339642
3918	0.000339642
3930	0.00169821
3942	0.00056607
3954	0.00181142
3966	0.00181142
