Infrared Spectrum: p-Fluoroaniline
Formula: C 6 H 6 F N
CAS: 371-40-4
Origin: Sadtler Research Labs Under US-EPA Contract
1/CM	ABSORBANCE
450	0.0483564
462	0.0169728
474	0.0127029
486	0.043446
498	0.0634077
510	0.0475024
522	0.0247653
534	0.0052306
546	0.00608458
558	0.00800602
570	0.00416313
582	0.0111017
594	0.0143041
606	0.0225236
618	0.0225236
630	0.0347995
642	0.131939
654	0.15884
666	0.0944711
678	0.087319
690	0.0584974
702	0.0312769
714	0.0254058
726	0.0370412
738	0.07974
750	0.113259
762	0.0572164
774	0.00117422
786	0.0163323
798	0.0690653
810	0.174638
822	0.290779
834	0.205381
846	0.111978
858	0.0604188
870	0.0283947
882	0.0191077
894	0.0153716
906	0.0135569
918	0.0146243
930	0.0107814
942	0.00960723
954	0.00875325
966	0.00896675
978	0.010141
990	0.0114219
1002	0.0146243
1014	0.0213494
1026	0.0218831
1038	0.018574
1050	0.025299
1062	0.035013
1074	0.0530533
1086	0.0647954
1098	0.0533735
1110	0.0511318
1122	0.0413111
1134	0.0217764
1146	0.0236978
1158	0.0226304
1170	0.0163323
1182	0.0209224
1194	0.0684248
1206	0.113686
1218	0.172396
1230	0.647954
1242	0.652117
1254	0.0519858
1266	0.0905215
1278	0.089881
1290	0.0333051
1302	0.0240181
1314	0.0234843
1326	0.027007
1338	0.00832627
1350	0.00832627
1362	0.00277542
1374	0.00288217
1386	0.00640482
1398	0.00394964
1410	0.0197482
1422	0.0239113
1434	0.00960723
1446	0.0131299
1458	0.00939374
1470	0.026153
1482	0.0338388
1494	0.117422
1506	0.728762
1518	1.06715
1530	0.441079
1542	0.0248721
1554	0.0104612
1566	0.0163323
1578	0.0210292
1590	0.0309566
1602	0.0650089
1614	0.145069
1626	0.191611
1638	0.119343
1650	0.0336253
1662	0.0264733
1674	0.00832627
1686	0.00469687
1698	0.0036294
1710	0.0157986
1722	0.0162255
1734	0.00234843
1746	0.00405639
1758	0.00512386
1770	0.00245518
1782	0.0052306
1794	0.00320241
1806	0.00768578
1818	0.0103545
1830	0.0131299
1842	0.0232708
1854	0.0277542
1866	0.0141974
1878	0.00928699
1890	0.00629807
1902	0.010141
1914	0.0112084
1926	0.00992747
1938	0.00982072
1950	0.0103545
1962	0.0104612
1974	0.00971398
1986	0.0106747
1998	0.00950048
2010	0.00982072
2022	0.00918024
2034	0.00832627
2046	0.00757904
2058	0.00843301
2070	0.00950048
2082	0.0100342
2094	0.00768578
2106	0.00587108
2118	0.00555084
2130	0.00512386
2142	0.00448337
2154	0.00501711
2166	0.00619133
2178	0.0054441
2190	0.00533735
2202	0.0052306
2214	0.00448337
2226	0.00501711
2238	0.0054441
2250	0.00555084
2262	0.00576434
2274	0.00629807
2286	0.00480361
2298	0.00234843
2310	0.000533735
2322	0.00266868
2334	0.00277542
2346	0.000320241
2358	0.00661831
2370	0.000320241
2382	0.00117422
2394	0.00629807
2406	0.00405639
2418	0.00384289
2430	0.00469687
2442	0.00555084
2454	0.00608458
2466	0.00757904
2478	0.00619133
2490	0.00533735
2502	0.00629807
2514	0.00640482
2526	0.00640482
2538	0.00672506
2550	0.00629807
2562	0.00576434
2574	0.00608458
2586	0.00608458
2598	0.00651157
2610	0.00576434
2622	0.00587108
2634	0.00512386
2646	0.00437663
2658	0.00533735
2670	0.0054441
2682	0.00480361
2694	0.00512386
2706	0.00565759
2718	0.00565759
2730	0.00576434
2742	0.0054441
2754	0.00555084
2766	0.0054441
2778	0.00480361
2790	0.00533735
2802	0.0052306
2814	0.00587108
2826	0.00501711
2838	0.00587108
2850	0.00597783
2862	0.00661831
2874	0.00843301
2886	0.00928699
2898	0.00939374
2910	0.00779253
2922	0.00789928
2934	0.00853976
2946	0.00651157
2958	0.00587108
2970	0.0052306
2982	0.00608458
2994	0.00672506
3006	0.0157986
3018	0.0428055
3030	0.0623402
3042	0.0616998
3054	0.0683181
3066	0.0482496
3078	0.0247653
3090	0.0201752
3102	0.0140906
3114	0.0128096
3126	0.0122759
3138	0.0112084
3150	0.00768578
3162	0.0052306
3174	0.00512386
3186	0.00512386
3198	0.00619133
3210	0.00672506
3222	0.0070453
3234	0.00736554
3246	0.00907349
3258	0.00811277
3270	0.00629807
3282	0.00426988
3294	0.00512386
3306	0.00501711
3318	0.00533735
3330	0.00512386
3342	0.00565759
3354	0.00512386
3366	0.00608458
3378	0.00928699
3390	0.0147311
3402	0.0313836
3414	0.0400301
3426	0.0211359
3438	0.00864651
3450	0.00971398
3462	0.0130231
3474	0.0215629
3486	0.0279677
3498	0.0312769
3510	0.0213494
3522	0.0100342
3534	0.0054441
3546	0.00373615
3558	0.00373615
3570	0.00426988
3582	0.00192145
3594	0.000533735
3606	0.00309566
3618	0.00245518
3630	0.0036294
3642	0.00309566
3654	0.00448337
3666	0.00138771
3678	0.00587108
3690	0.00555084
3702	0.00394964
3714	0.00565759
3726	0.00256193
3738	0.00416313
3750	0.00352265
3762	0.00373615
3774	0.00192145
3786	0.00416313
3798	0.00256193
3810	0.00394964
3822	0.00224169
3834	0.00234843
3846	0.00320241
3858	0.00160121
3870	0.00160121
3882	0.00747229
3894	0.00693855
3906	0.00373615
3918	0.00192145
3930	0.00117422
3942	0.00213494
3954	0.000533735
3966	0.0070453
