Infrared Spectrum: Phenol, 4-fluoro-
Formula: C 6 H 5 F O
CAS: 371-41-5
Origin: Sadtler Research Labs Under US-EPA Contract
1/CM	ABSORBANCE
450	0.0107142
462	0.0153627
474	0.012585
486	0.021882
498	0.0453512
510	0.0418365
522	0.0244896
534	0.00958044
546	0.00725619
558	0.00294783
570	0.00357141
582	0.00192743
594	0.000850335
606	0
618	0.00317458
630	0.0036281
642	0.00481856
654	0.00595234
666	0.00493194
678	0.00487525
690	0.00442174
702	0.00595234
714	0.00583897
726	0.0117913
738	0.137641
750	0.144727
762	0.0284012
774	0.0112811
786	0.0167799
798	0.0189908
810	0.0579928
822	0.103514
834	0.101984
846	0.0640586
858	0.0181972
870	0.0119614
882	0.00941037
894	0.00663261
906	0.00419499
918	0.00447843
930	0.00391154
942	0.00487525
954	0.0036281
966	0.00385485
978	0.00340134
990	0.00238094
1002	0.00385485
1014	0.00476188
1026	0.00402492
1038	0.00430836
1050	0.00629248
1062	0.0124149
1074	0.0282878
1086	0.0361676
1098	0.0390587
1110	0.0207482
1122	0.0124716
1134	0.0108843
1146	0.0285713
1158	0.132709
1170	0.324601
1182	0.279307
1194	0.125226
1206	0.071995
1218	0.146428
1230	0.356064
1242	0.28027
1254	0.0502265
1266	0.0411562
1278	0.0140022
1290	0.0159863
1302	0.02534
1314	0.053231
1326	0.0624146
1338	0.0329363
1350	0.0114512
1362	0.00759633
1374	0.0051587
1386	0.00521539
1398	0.00799315
1410	0.012585
1422	0.0339567
1434	0.0638885
1446	0.0543081
1458	0.0179704
1470	0.00810653
1482	0.0144557
1494	0.0768703
1506	0.523013
1518	0.540246
1530	0.117913
1542	0.0365077
1554	0.0216552
1566	0.0122448
1578	0.0107142
1590	0.00799315
1602	0.0122448
1614	0.0155328
1626	0.0145124
1638	0.0114512
1650	0.0071995
1662	0.00459181
1674	0.00583897
1686	0.0117346
1698	0.0108843
1710	0.00493194
1722	0.0071995
1734	0.0137187
1746	0.0087868
1758	0.0113945
1770	0.0114512
1782	0.00731288
1794	0.00776639
1806	0.00402492
1818	0.00510201
1830	0.0071995
1842	0.00833328
1854	0.00782308
1866	0.00787977
1878	0.00476188
1890	0.00425167
1902	0.00192743
1914	0.00147391
1926	0.00187074
1938	0.00119047
1950	0.000907024
1962	0.00130385
1974	0.00187074
1986	0.00289114
1998	0.00453512
2010	0.00538545
2022	0.00192743
2034	0.000850335
2046	0.000907024
2058	0.0015306
2070	0.00238094
2082	0.00232425
2094	0.00170067
2106	0.000907024
2118	0.000793646
2130	0.000793646
2142	0.000850335
2154	0.000850335
2166	0.000850335
2178	0.000793646
2190	0.000283445
2202	0.000340134
2214	0.000510201
2226	0.000850335
2238	0.00124716
2250	0.00130385
2262	0.000736957
2274	0.000736957
2286	0.000736957
2298	0.000793646
2310	0.000793646
2322	0.000793646
2334	0.00130385
2346	0.00272107
2358	0.00226756
2370	0.00181405
2382	0.00170067
2394	0.00119047
2406	0.00119047
2418	0.00232425
2430	0.0041383
2442	0.00385485
2454	0.00215418
2466	0.00215418
2478	0.00232425
2490	0.00277776
2502	0.00215418
2514	0.00113378
2526	0.00119047
2538	0.000680268
2550	0.000680268
2562	0.000623579
2574	0.000736957
2586	0.00107709
2598	0.000793646
2610	0.000680268
2622	0.00056689
2634	0.00056689
2646	0.00056689
2658	0.00056689
2670	0.00056689
2682	0.00056689
2694	0.000793646
2706	0.00056689
2718	0.00056689
2730	0.000623579
2742	0.00056689
2754	0.000907024
2766	0.000736957
2778	0.00113378
2790	0.00056689
2802	0.000396823
2814	0.000396823
2826	0.000623579
2838	0.000623579
2850	0.000680268
2862	0.000680268
2874	0.000680268
2886	0.00113378
2898	0.00113378
2910	0.0010204
2922	0.00056689
2934	0.000623579
2946	0.000680268
2958	0.000680268
2970	0.000453512
2982	0.000736957
2994	0.000736957
3006	0.00221087
3018	0.00697275
3030	0.0175736
3042	0.0226756
3054	0.0170634
3066	0.0119047
3078	0.00850335
3090	0.00583897
3102	0.00476188
3114	0.00334465
3126	0.00266438
3138	0.00221087
3150	0.00136054
3162	0.000793646
3174	0.000850335
3186	0.000793646
3198	0.000736957
3210	0.000907024
3222	0.000850335
3234	0.000736957
3246	0.000907024
3258	0.00187074
3270	0.00141723
3282	0.00192743
3294	0.00170067
3306	0.0015306
3318	0.00141723
3330	0.00141723
3342	0.000907024
3354	0.00113378
3366	0.00130385
3378	0.00192743
3390	0.00181405
3402	0.00187074
3414	0.00192743
3426	0.0015306
3438	0.00147391
3450	0.000963713
3462	0.000963713
3474	0.000963713
3486	0.00107709
3498	0.0010204
3510	0.00107709
3522	0.0010204
3534	0.0010204
3546	0.00107709
3558	0.000623579
3570	0.00294783
3582	0.00107709
3594	0.00107709
3606	0.00119047
3618	0.00425167
3630	0.0130952
3642	0.0402492
3654	0.120124
3666	0.10153
3678	0.0247731
3690	0.00663261
3702	0.00164398
3714	0.00345803
3726	0.00243763
3738	0.00493194
3750	0.00532877
3762	0.00164398
3774	0.00107709
3786	0.000963713
3798	0.0015306
3810	0.00226756
3822	0.00425167
3834	0.00334465
3846	0.00277776
3858	0.00345803
3870	0.00379816
3882	0.00277776
3894	0.00277776
3906	0.00294783
3918	0.00272107
3930	0.00272107
3942	0.00130385
3954	5.6689e-05
3966	0.000113378
