Infrared Spectrum: Benzene, 1,3-difluoro-
Formula: C 6 H 4 F 2
CAS: 372-18-9
Origin: Sadtler Research Labs Under US-EPA Contract
1/CM	ABSORBANCE
450	0.0962433
462	0.0238805
474	0.0152258
486	0.00649102
498	0.0222778
510	0.0496042
522	0.0377441
534	0.0273264
546	0.0028849
558	0.00216367
570	0.00264449
582	0.00296503
594	0.0020034
606	0.00240408
618	0.00272462
630	0.00144245
642	0.00192326
654	0.026525
666	0.0580986
678	0.0685163
690	0.037103
702	0.00432734
714	0.00617047
726	0.0249223
738	0.0234798
750	0.0552137
762	0.109225
774	0.131984
786	0.0778121
798	0.00785333
810	0.00104177
822	0.00296503
834	0.0415104
846	0.112912
858	0.137113
870	0.0856654
882	0.018271
894	0.011219
906	0.00769306
918	0.00977659
930	0.0206751
942	0.147611
954	0.301472
966	0.185675
978	0.0180306
990	0.0080136
1002	0.00392666
1014	0.00256435
1026	0.00176299
1038	0.00520884
1050	0.0160272
1062	0.0319743
1074	0.028288
1086	0.020595
1098	0.0216367
1110	0.217249
1122	0.469437
1134	0.262445
1146	0.0586596
1158	0.103375
1170	0.0387858
1182	0.00232394
1194	0.00352598
1206	0.00520884
1218	0.00633074
1230	0.00697183
1242	0.0245216
1254	0.108745
1266	0.150415
1278	0.301311
1290	0.31798
1302	0.0868674
1314	0.0146649
1326	0.00536911
1338	0.00609034
1350	0.00152258
1362	0.00344585
1374	0.00352598
1386	0.00328558
1398	0.00905537
1410	0.012982
1422	0.0178703
1434	0.037103
1446	0.119483
1458	0.139998
1470	0.0822195
1482	0.245457
1494	0.486826
1506	0.326154
1518	0.050646
1530	0.0402283
1542	0.0403084
1554	0.0460782
1566	0.0560151
1578	0.099609
1590	0.183271
1602	0.549653
1614	0.729157
1626	0.245136
1638	0.159631
1650	0.0968043
1662	0.0281277
1674	0.0144245
1686	0.011219
1698	0.0165882
1710	0.0112992
1722	0.0091355
1734	0.0145046
1746	0.0111389
1758	0.00921564
1770	0.00857455
1782	0.00408694
1794	0.00432734
1806	0.00240408
1818	0.00392666
1830	0.0101773
1842	0.00953618
1854	0.00721224
1866	0.00849442
1878	0.00040068
1890	0.00224381
1902	0.00368626
1914	0.00969646
1926	0.0103375
1938	0.00264449
1950	0.00128218
1962	0.00184313
1974	0.00160272
1986	0.000961632
1998	0.00160272
2010	0.0028849
2022	0.00352598
2034	0.0020034
2046	0.000641088
2058	0.000881496
2070	0.00320544
2082	0.00328558
2094	0.00104177
2106	0.000320544
2118	0.00104177
2130	0.00176299
2142	0.00104177
2154	0.000240408
2166	0.000480816
2178	0.000480816
2190	0.000240408
2202	0.000560952
2214	0.00120204
2226	0.00384653
2238	0.0060102
2250	0.00320544
2262	0.000721224
2274	0.00080136
2286	0.00040068
2298	0.000721224
2310	0.00232394
2322	0.00416707
2334	0.00641088
2346	0.00897523
2358	0.00544925
2370	0.00609034
2382	0.00504857
2394	0.0091355
2406	0.0109786
2418	0.0051287
2430	0.00528898
2442	0.00456775
2454	0.0020034
2466	0.00120204
2478	0.000721224
2490	0.00080136
2502	0.00104177
2514	0.000881496
2526	0.00120204
2538	0.00192326
2550	0.00280476
2562	0.00464789
2574	0.00560952
2586	0.00368626
2598	0.00360612
2610	0.00280476
2622	0.00208354
2634	0.00120204
2646	0.00120204
2658	0.00080136
2670	0.000881496
2682	0.000961632
2694	0.0011219
2706	0.0020034
2718	0.00248422
2730	0.0028849
2742	0.00336571
2754	0.00336571
2766	0.00320544
2778	0.0028849
2790	0.0020034
2802	0.00128218
2814	0.00104177
2826	0.00128218
2838	0.00120204
2850	0.0011219
2862	0.00184313
2874	0.00184313
2886	0.00136231
2898	0.00120204
2910	0.00144245
2922	0.00120204
2934	0.00160272
2946	0.00136231
2958	0.00104177
2970	0.00104177
2982	0.00144245
2994	0.00120204
3006	0.000320544
3018	0.0011219
3030	0.0031253
3042	0.00817387
3054	0.0128218
3066	0.0128218
3078	0.0193128
3090	0.0246819
3102	0.0173094
3114	0.00761292
3126	0.00304517
3138	0.00168286
3150	0.0011219
3162	0.000641088
3174	0.000881496
3186	0.000320544
3198	0.000320544
3210	0.00040068
3222	0.00080136
3234	0.0011219
3246	0.000961632
3258	0.0011219
3270	0.0011219
3282	0.000961632
3294	0.00104177
3306	0.00104177
3318	0.00128218
3330	0.00128218
3342	0.00136231
3354	0.00128218
3366	0.00152258
3378	0.00152258
3390	0.0011219
3402	0.00120204
3414	0.000961632
3426	0.0011219
3438	0.00080136
3450	0.0011219
3462	0.0011219
3474	0.00128218
3486	0.000560952
3498	0.00152258
3510	0.00080136
3522	0.0011219
3534	0.0011219
3546	0.00160272
3558	0.00136231
3570	0.00152258
3582	0.00224381
3594	0.00168286
3606	0.00224381
3618	0.00208354
3630	0.00136231
3642	0.00120204
3654	0.00144245
3666	0.00120204
3678	0.000560952
3690	0.00120204
3702	0.00136231
3714	0.00040068
3726	0.00152258
3738	0.00144245
3750	0.00104177
3762	0.0011219
3774	0.0020034
3786	0.00256435
3798	0.00216367
3810	0.00136231
3822	0.00192326
3834	0.0020034
3846	0.00144245
3858	0.00216367
3870	0.00192326
3882	0.00168286
3894	0.0031253
3906	0.000961632
3918	0.00216367
3930	0.00144245
3942	0.00176299
3954	0.00216367
3966	0.00136231
