Infrared Spectrum: Benzenamine, 3-fluoro-
Formula: C 6 H 6 F N
CAS: 372-19-0
Origin: Sadtler Research Labs Under US-EPA Contract
1/CM	ABSORBANCE
450	0.0459989
462	0.0426672
474	0.028803
486	0.0180556
498	0.0338543
510	0.0713627
522	0.0730823
534	0.0482558
546	0.0347141
558	0.0182706
570	0.0178407
582	0.018808
594	0.0164435
606	0.00902782
618	0.0156912
630	0.0245041
642	0.0608303
654	0.202374
666	0.452573
678	0.622704
690	0.25912
702	0.0875913
714	0.0495455
726	0.0649143
738	0.132193
750	0.238377
762	0.411303
774	0.203986
786	0.0937173
798	0.0531996
810	0.0419149
822	0.097049
834	0.207962
846	0.22763
858	0.134557
870	0.0361113
882	0.0179482
894	0.0178407
906	0.0161211
918	0.0202051
930	0.0366486
942	0.186897
954	0.29018
966	0.165295
978	0.0307376
990	0.0320273
1002	0.037401
1014	0.0257938
1026	0.0024719
1038	0.0138641
1050	0.0428821
1062	0.0493306
1074	0.0509427
1086	0.0732973
1098	0.0883436
1110	0.0646993
1122	0.0458914
1134	0.168304
1146	0.545753
1158	0.558757
1170	0.328655
1182	0.250092
1194	0.0406252
1206	0.0111773
1218	0.00397654
1230	0.000859792
1242	0.00204201
1254	0.0222471
1266	0.0861941
1278	0.242031
1290	0.293834
1302	0.236335
1314	0.228705
1326	0.135202
1338	0.045569
1350	0.00472886
1362	0.000752318
1374	0.00128969
1386	0.00440643
1398	0.00967266
1410	0.0162286
1422	0.0263311
1434	0.0742645
1446	0.111021
1458	0.120048
1470	0.171851
1482	0.289105
1494	0.662792
1506	0.579607
1518	0.14638
1530	0.1021
1542	0.0663115
1554	0.0706104
1566	0.111236
1578	0.249985
1590	0.587883
1602	0.884726
1614	0.783593
1626	0.943299
1638	1.01283
1650	0.606476
1662	0.170454
1674	0.0687834
1686	0.0511576
1698	0.0313824
1710	0.0266536
1722	0.024934
1734	0.0195603
1746	0.0130044
1758	0.00601854
1770	0.00300927
1782	0.00408401
1794	0.00666339
1806	0.0130044
1818	0.0112848
1830	0.0049438
1842	0.00397654
1854	0.00462138
1866	0.00257938
1878	0.00763065
1890	0.0155837
1902	0.0251489
1914	0.02085
1926	0.00881287
1938	0.0058036
1950	0.00687834
1962	0.00730823
1974	0.00644844
1986	0.0053737
1998	0.00365412
2010	0.00376159
2022	0.00429896
2034	0.00505128
2046	0.0058036
2058	0.00730823
2070	0.00634097
2082	0.00429896
2094	0.0058036
2106	0.00655591
2118	0.00515875
2130	0.00462138
2142	0.00526623
2154	0.0058036
2166	0.00505128
2178	0.00311675
2190	0.00171958
2202	0.00107474
2214	0.00118221
2226	0.00311675
2238	0.00462138
2250	0.0053737
2262	0.00601854
2274	0.00483633
2286	0.00386906
2298	0.00311675
2310	0.000967266
2322	0.00171958
2334	0.00429896
2346	0.00548117
2358	0.00623349
2370	0.00763065
2382	0.00655591
2394	0.00472886
2406	0.00386906
2418	0.00472886
2430	0.00709328
2442	0.00881287
2454	0.00902782
2466	0.00859792
2478	0.00709328
2490	0.00526623
2502	0.00193453
2514	0.000107474
2526	0.000752318
2538	0.00107474
2550	0.00171958
2562	0.00343917
2574	0.00429896
2586	0.00558865
2598	0.00709328
2610	0.00677086
2622	0.00924276
2634	0.00838297
2646	0.00483633
2658	0.0029018
2670	0.00343917
2682	0.00483633
2694	0.00343917
2706	0.00322422
2718	0.00354664
2730	0.00483633
2742	0.0049438
2754	0.00644844
2766	0.00752318
2778	0.00773813
2790	0.00773813
2802	0.00569612
2814	0.00408401
2826	0.00193453
2838	0.00150464
2850	0.00182706
2862	0.00204201
2874	0.00343917
2886	0.00472886
2898	0.00612602
2910	0.00677086
2922	0.00859792
2934	0.00720076
2946	0.00601854
2958	0.00634097
2970	0.00677086
2982	0.00741571
2994	0.00666339
3006	0.00752318
3018	0.0127894
3030	0.0504053
3042	0.0969415
3054	0.107044
3066	0.099306
3078	0.0637321
3090	0.0524473
3102	0.041485
3114	0.0238592
3126	0.0127894
3138	0.00741571
3150	0.00505128
3162	0.00419149
3174	0.00440643
3186	0.00655591
3198	0.00859792
3210	0.0137567
3222	0.0191304
3234	0.0164435
3246	0.0110698
3258	0.00730823
3270	0.00698581
3282	0.00655591
3294	0.0058036
3306	0.00644844
3318	0.00623349
3330	0.00816802
3342	0.00730823
3354	0.00730823
3366	0.00892034
3378	0.0132193
3390	0.0205275
3402	0.0538445
3414	0.0839372
3426	0.0966191
3438	0.0628723
3450	0.0235368
3462	0.0132193
3474	0.0235368
3486	0.0462138
3498	0.0582509
3510	0.0648068
3522	0.0487932
3534	0.0274059
3546	0.00924276
3558	0.00408401
3570	0.00408401
3582	0.0049438
3594	0.00408401
3606	0.0053737
3618	0.00451391
3630	0.00354664
3642	0.00419149
3654	0.00333169
3666	0.00268685
3678	0.00612602
3690	0.0029018
3702	0.00204201
3714	0.00419149
3726	0.00612602
3738	0.00687834
3750	0.00397654
3762	0.00623349
3774	0.0049438
3786	0.00311675
3798	0.00462138
3810	0.0053737
3822	0.00472886
3834	0.00612602
3846	0.0137567
3858	0.0123595
3870	0.0103175
3882	0.00795308
3894	0.00419149
3906	0.00838297
3918	0.00419149
3930	0.00773813
3942	0.00913529
3954	0.00677086
3966	0.00623349
