Infrared Spectrum: Hexanoic acid, 5-hydroxy-3-methyl-, .delta.-lactone
Formula: C 7 H 12 O 2
CAS: 3720-20-5
Origin: Sadtler Research Labs Under US-EPA Contract
1/CM	ABSORBANCE
450	0.0103229
462	0.00633864
474	0.00543312
486	0.0022638
498	0.0020827
510	0.00172049
522	0.00407484
534	0.00959851
546	0.0119529
558	0.0134922
570	0.0152127
582	0.00977962
594	0.00615754
606	0.00425594
618	0.00561422
630	0.00633864
642	0.00335042
654	0.00398429
666	0.00624809
678	0.00380318
690	0.000814968
702	0.00090552
714	0.00144883
726	0
738	0.000181104
750	0.000724416
762	0.00199214
774	0.00561422
786	0.0146694
798	0.020827
810	0.0174765
822	0.0182915
834	0.0153938
846	0.00833078
858	0.0090552
870	0.0142167
882	0.0182915
894	0.0136734
906	0.00860244
918	0.0107757
930	0.0129489
942	0.0111379
954	0.0143072
966	0.0417445
978	0.0822212
990	0.0624809
1002	0.0398429
1014	0.0613037
1026	0.0554178
1038	0.0401145
1050	0.0419256
1062	0.0522485
1074	0.114729
1086	0.234892
1098	0.241683
1110	0.130757
1122	0.10658
1134	0.135828
1146	0.128131
1158	0.107938
1170	0.119076
1182	0.132478
1194	0.109387
1206	0.115273
1218	0.232085
1230	0.378417
1242	0.332145
1254	0.16245
1266	0.0849378
1278	0.0892843
1290	0.0773314
1302	0.0468154
1314	0.0314215
1326	0.0344098
1338	0.0627525
1350	0.0772409
1362	0.074796
1374	0.099245
1386	0.125777
1398	0.0683668
1410	0.0221852
1422	0.0264412
1434	0.0358586
1446	0.0507997
1458	0.0631147
1470	0.0465437
1482	0.021823
1494	0.00896465
1506	0.00914575
1518	0.00651974
1530	0.00398429
1542	0.00733471
1554	0.00525202
1566	0.00371263
1578	0.00651974
1590	0.0043465
1602	0.00597643
1614	0.00633864
1626	0.00570478
1638	0.00814968
1650	0.00642919
1662	0.0100513
1674	0.0108662
1686	0.0169332
1698	0.0194687
1710	0.0240868
1722	0.0363114
1734	0.0609415
1746	0.10667
1758	0.273829
1770	0.730483
1782	0.877992
1794	0.402594
1806	0.14597
1818	0.0668274
1830	0.0291577
1842	0.015756
1854	0.0112284
1866	0.00787802
1878	0.00588588
1890	0.00534257
1902	0.00479926
1914	0.00325987
1926	0.00271656
1938	0.00190159
1950	0.00162994
1962	0.00126773
1974	0.000724416
1986	0.000814968
1998	0.000633864
2010	0.00090552
2022	0.00108662
2034	0.00090552
2046	0.000633864
2058	0.000724416
2070	0.000543312
2082	9.0552e-05
2094	0
2106	9.0552e-05
2118	0.000181104
2130	0.000271656
2142	0.000362208
2154	0.000633864
2166	0.000814968
2178	0.000362208
2190	0.000362208
2202	0.000543312
2214	0.000633864
2226	0.000362208
2238	0.000271656
2250	0.000633864
2262	0.00108662
2274	0.00108662
2286	0.000633864
2298	0.00153938
2310	0.00181104
2322	0.0022638
2334	0.00199214
2346	0.00126773
2358	0.00172049
2370	0.00108662
2382	0.00153938
2394	0.000996072
2406	0.000543312
2418	0.000543312
2430	0.000633864
2442	0.000814968
2454	0.00108662
2466	0.00090552
2478	0.00090552
2490	0.00045276
2502	0.000814968
2514	0.000543312
2526	0.000271656
2538	9.0552e-05
2550	0.000181104
2562	0.000181104
2574	0.00045276
2586	0.000814968
2598	0.000724416
2610	0.00135828
2622	0.00172049
2634	0.00181104
2646	0.0020827
2658	0.00253546
2670	0.00298822
2682	0.00335042
2694	0.00235435
2706	0.0020827
2718	0.0024449
2730	0.00335042
2742	0.00488981
2754	0.0047087
2766	0.00289766
2778	0.00298822
2790	0.00371263
2802	0.00507091
2814	0.0066103
2826	0.00914575
2838	0.01313
2850	0.0211892
2862	0.0336853
2874	0.0542406
2886	0.0789613
2898	0.0872921
2910	0.104769
2922	0.140808
2934	0.19197
2946	0.222848
2958	0.175128
2970	0.231632
2982	0.20673
2994	0.141714
3006	0.0460004
3018	0.0118623
3030	0.00769692
3042	0.00624809
3054	0.00561422
3066	0.00488981
3078	0.00443705
3090	0.00389374
3102	0.00353153
3114	0.00316932
3126	0.00262601
3138	0.00271656
3150	0.00280711
3162	0.0024449
3174	0.00271656
3186	0.00325987
3198	0.00353153
3210	0.00316932
3222	0.00262601
3234	0.0022638
3246	0.00172049
3258	0.00135828
3270	0.00144883
3282	0.00126773
3294	0.00135828
3306	0.00108662
3318	0.00117718
3330	0.00199214
3342	0.00135828
3354	0.00135828
3366	0.00199214
3378	0.00117718
3390	0.00144883
3402	0.0022638
3414	0.00153938
3426	0.00135828
3438	0.00144883
3450	0.00144883
3462	0.00153938
3474	0.00162994
3486	0.00153938
3498	0.00153938
3510	0.00416539
3522	0.00715361
3534	0.00742526
3546	0.00597643
3558	0.00181104
3570	0.00805913
3582	0.00941741
3594	0.00235435
3606	0.000181104
3618	0.00144883
3630	0.00335042
3642	0.00108662
3654	0.000543312
3666	0.00126773
3678	0.00271656
3690	0.00162994
3702	0.00199214
3714	0.00181104
3726	0.00144883
3738	0.00344098
3750	0.0020827
3762	0.0020827
3774	0.00181104
3786	0.00181104
3798	0.00135828
3810	0.00262601
3822	0.00371263
3834	0.00144883
3846	0.00199214
3858	0.00307877
3870	0.00235435
3882	0.0022638
3894	0.00488981
3906	0.00325987
3918	0.00416539
3930	0.00217325
3942	0.0024449
3954	0.00190159
3966	0.00199214
