Infrared Spectrum: Cyclobutane carboxylic acid
Formula: C 5 H 8 O 2
CAS: 3721-95-7
Origin: Sadtler Research Labs Under US-EPA Contract
1/CM	ABSORBANCE
450	0.0100121
462	0.0088135
474	0.00430099
486	0.0070508
498	0.00902502
510	0.0227036
522	0.035677
534	0.0497081
546	0.0717066
558	0.112108
570	0.157726
582	0.16661
594	0.138901
606	0.0875709
618	0.0492851
630	0.0382858
642	0.0580281
654	0.0668416
666	0.0504132
678	0.0290493
690	0.0280622
702	0.0327157
714	0.0404011
726	0.0469583
738	0.044279
750	0.0302479
762	0.0206588
774	0.0190372
786	0.0179795
798	0.0141016
810	0.00810842
822	0.00387794
834	0.000141016
846	0.00155118
858	0.00105762
870	0.00289083
882	0.00514708
894	0.00542912
906	0.00831994
918	0.0123389
930	0.0121274
942	0.00810842
954	0.00507658
966	0.00310235
978	0.00359591
990	0.0105762
1002	0.0222805
1014	0.039696
1026	0.0618355
1038	0.0914489
1050	0.0994163
1062	0.0858787
1074	0.0843981
1086	0.127267
1098	0.189243
1110	0.255733
1122	0.388358
1134	0.512946
1146	0.426926
1158	0.249175
1170	0.172956
1182	0.118242
1194	0.0762897
1206	0.0604254
1218	0.0516824
1230	0.0450546
1242	0.0447726
1254	0.0553488
1266	0.0632457
1278	0.0516824
1290	0.0358886
1302	0.0276391
1314	0.0276391
1326	0.030953
1338	0.0381448
1350	0.0496376
1362	0.0679697
1374	0.0951858
1386	0.114011
1398	0.0912374
1410	0.0516119
1422	0.0358181
1434	0.0286968
1446	0.0251714
1458	0.0238317
1470	0.0143836
1482	0.0088135
1494	0.00465353
1506	0.00514708
1518	0.00458302
1530	0.00246778
1542	0.00345489
1554	0.00197422
1566	0.00190372
1578	0.00190372
1590	0.00141016
1602	0.000634572
1614	0
1626	0.00133965
1638	0.00303184
1650	0.00289083
1662	0.00317286
1674	0.00472404
1686	0.00747385
1698	0.012903
1710	0.0285557
1722	0.070085
1734	0.0999098
1746	0.193615
1758	0.460911
1770	0.688722
1782	0.656712
1794	0.309319
1806	0.118383
1818	0.0486505
1830	0.0196717
1842	0.00867248
1854	0.00521759
1866	0.00408946
1878	0.00303184
1890	0.00310235
1902	0.00246778
1914	0.00211524
1926	0.00112813
1938	0.00112813
1950	0.000846096
1962	0.00070508
1974	0.00070508
1986	0.000634572
1998	0.000775588
2010	0.000141016
2022	0.000211524
2034	0.000141016
2046	0.00070508
2058	0.000634572
2070	0.000634572
2082	0.00070508
2094	0.00070508
2106	0.000423048
2118	0.000634572
2130	0.00162168
2142	0.00303184
2154	0.00338438
2166	0.00380743
2178	0.00282032
2190	0.00225626
2202	0.00169219
2214	0.00169219
2226	0.00112813
2238	0.00155118
2250	0.00155118
2262	0.00148067
2274	0.00133965
2286	0.000775588
2298	0.000282032
2310	0.00070508
2322	0.000493556
2334	0.000634572
2346	0.00112813
2358	0.000775588
2370	0.00169219
2382	0.00105762
2394	0.00112813
2406	0.00169219
2418	0.00211524
2430	0.00169219
2442	0.00169219
2454	0.00169219
2466	0.00169219
2478	0.00183321
2490	0.00197422
2502	0.00204473
2514	0.00211524
2526	0.00218575
2538	0.00225626
2550	0.00169219
2562	0.00218575
2574	0.00169219
2586	0.00162168
2598	0.00218575
2610	0.00218575
2622	0.00317286
2634	0.00373692
2646	0.00408946
2658	0.004442
2670	0.00458302
2682	0.00458302
2694	0.00430099
2706	0.00465353
2718	0.00423048
2730	0.00458302
2742	0.00465353
2754	0.00465353
2766	0.00500607
2778	0.00514708
2790	0.00521759
2802	0.00585216
2814	0.00641623
2826	0.00754436
2838	0.00958909
2850	0.0153002
2862	0.0282737
2874	0.0541501
2886	0.0704375
2898	0.065784
2910	0.0550667
2922	0.0647263
2934	0.0946217
2946	0.160547
2958	0.222312
2970	0.236695
2982	0.229786
2994	0.240855
3006	0.19009
3018	0.0926475
3030	0.0382153
3042	0.022069
3054	0.01805
3066	0.0159348
3078	0.0137491
3090	0.0119864
3102	0.0111403
3114	0.0101532
3126	0.0100826
3138	0.00944807
3150	0.00888401
3162	0.00810842
3174	0.00768537
3186	0.0070508
3198	0.00712131
3210	0.00712131
3222	0.00662775
3234	0.00592267
3246	0.00557013
3258	0.00606369
3270	0.0062047
3282	0.00521759
3294	0.00430099
3306	0.00366642
3318	0.00366642
3330	0.00310235
3342	0.00246778
3354	0.00218575
3366	0.0026793
3378	0.00169219
3390	0.00253829
3402	0.00148067
3414	0.00155118
3426	0.00119864
3438	0.00112813
3450	0.000493556
3462	0.000916604
3474	0.00070508
3486	0.00119864
3498	0.00225626
3510	0.00458302
3522	0.00662775
3534	0.00817893
3546	0.0106467
3558	0.0329272
3570	0.194109
3582	0.201371
3594	0.0781229
3606	0.0103647
3618	0.00521759
3630	0.00296134
3642	0.0017627
3654	0.00162168
3666	0.000141016
3678	0.00105762
3690	0.00070508
3702	0.000141016
3714	0.000211524
3726	0.000211524
3738	0.00035254
3750	0
3762	7.0508e-05
3774	7.0508e-05
3786	7.0508e-05
3798	7.0508e-05
3810	7.0508e-05
3822	7.0508e-05
3834	7.0508e-05
3846	7.0508e-05
3858	0.000282032
3870	0.00070508
3882	0.000141016
3894	7.0508e-05
3906	0.000775588
3918	0.000141016
3930	7.0508e-05
3942	0.000211524
3954	7.0508e-05
3966	7.0508e-05
