Infrared Spectrum: 2-Hydroxy-2-methylbutyric acid
Formula: C 5 H 10 O 3
CAS: 3739-30-8
Origin: Sadtler Research Labs Under US-EPA Contract
1/CM	ABSORBANCE
450	0.0224174
462	7.0941e-05
474	0.0162455
486	0.0211404
498	0.0250422
510	0.0404364
522	0.0602289
534	0.0791702
546	0.0999559
558	0.132943
570	0.169194
582	0.172458
594	0.1289
606	0.0736368
618	0.0593067
630	0.0452604
642	0.0219208
654	0.0146848
666	0.0101446
678	0.00844198
690	0.0147557
702	0.0250422
714	0.055263
726	0.0651948
738	0.0669683
750	0.0646982
762	0.0559724
774	0.039656
786	0.0181609
798	0.0202891
810	0.0242618
822	0.0149686
834	0.0173096
846	0.0158908
858	0.0145429
870	0.0136916
882	0.0137626
894	0.0125566
906	0.0166711
918	0.0279508
930	0.0426355
942	0.0487365
954	0.0393723
966	0.0241199
978	0.0177353
990	0.0318525
1002	0.0672521
1014	0.0843488
1026	0.0954866
1038	0.120954
1050	0.12514
1062	0.11684
1074	0.123934
1086	0.167279
1098	0.293554
1110	0.500843
1122	0.621088
1134	0.498006
1146	0.33924
1158	0.263971
1170	0.214242
1182	0.161462
1194	0.119465
1206	0.111874
1218	0.0651948
1230	0.0501553
1242	0.0559015
1254	0.0725017
1266	0.100098
1278	0.128971
1290	0.138902
1302	0.137838
1314	0.114428
1326	0.104212
1338	0.113506
1350	0.129255
1362	0.140676
1374	0.144223
1386	0.133795
1398	0.0954866
1410	0.0534186
1422	0.0475305
1434	0.0495168
1446	0.0621443
1458	0.0846326
1470	0.066117
1482	0.0362509
1494	0.016813
1506	0.0294405
1518	0.0217789
1530	0.0141882
1542	0.0212114
1554	0.0136916
1566	0.014472
1578	0.0105702
1590	0.00340517
1602	0.0194378
1614	0.00602998
1626	0.00837104
1638	0.00844198
1650	0.00943515
1662	0.00787445
1674	0.00439834
1686	0.0273832
1698	0.0490912
1710	0.0835685
1722	0.138973
1734	0.259502
1746	0.4885
1758	0.667626
1770	0.685645
1782	0.445935
1794	0.239497
1806	0.144791
1818	0.0714376
1830	0.0335551
1842	0.0214951
1854	0.0148976
1866	0.0117762
1878	0.0110668
1890	0.00950609
1902	0.00780351
1914	0.00837104
1926	0.0058881
1938	0.00567528
1950	0.0074488
1962	0.00340517
1974	0.00602998
1986	0.0031214
1998	0.00602998
2010	0.00390175
2022	0.00375987
2034	0.00574622
2046	0.00425646
2058	0.00546246
2070	0.00638469
2082	0.00574622
2094	0.00759069
2106	0.0074488
2118	0.00808727
2130	0.00645563
2142	0.00375987
2154	0.00602998
2166	0.00900951
2178	0.00964798
2190	0.00971892
2202	0.00858386
2214	0.0074488
2226	0.00610093
2238	0.00446928
2250	0.00439834
2262	0.0039727
2274	0.00475305
2286	0.00808727
2298	0.0140463
2310	0.0172387
2322	0.0143301
2334	0.0124856
2346	0.0143301
2358	0.0131241
2370	0.0103574
2382	0.0135497
2394	0.00510775
2406	0.00404364
2418	0.00454022
2430	0.00354705
2442	0.00347611
2454	0.00390175
2466	0.00340517
2478	0.00411458
2490	0.0039727
2502	0.00383081
2514	0.0027667
2526	0.00234105
2538	0.00184447
2550	0.00205729
2562	0.00170258
2574	0.00141882
2586	0.00148976
2598	0.001206
2610	0.00163164
2622	0.001206
2634	0.001206
2646	0.000993174
2658	0.00127694
2670	0.000567528
2682	0.000851292
2694	0.00113506
2706	0.000993174
2718	0.000780351
2730	0.00219917
2742	0.00305046
2754	0.00368893
2766	0.00390175
2778	0.0039727
2790	0.00368893
2802	0.00446928
2814	0.00546246
2826	0.00879668
2838	0.0113506
2850	0.0184447
2862	0.0305756
2874	0.0453313
2886	0.062499
2898	0.0718632
2910	0.0694512
2922	0.0861224
2934	0.130106
2946	0.153587
2958	0.139683
2970	0.149331
2982	0.195017
2994	0.176785
3006	0.0988208
3018	0.0454022
3030	0.0278089
3042	0.0220627
3054	0.018019
3066	0.0146138
3078	0.0116343
3090	0.0100736
3102	0.00858386
3114	0.00666845
3126	0.00546246
3138	0.00539152
3150	0.00375987
3162	0.00333423
3174	0.00368893
3186	0.00305046
3198	0.00305046
3210	0.00333423
3222	0.00340517
3234	0.00283764
3246	0.00212823
3258	0.00198635
3270	0.0027667
3282	0.00198635
3294	0.00262482
3306	0.00361799
3318	0.00340517
3330	0.00290858
3342	0.00404364
3354	0.00532058
3366	0.00297952
3378	0.00425646
3390	0.00510775
3402	0.00475305
3414	0.00390175
3426	0.00326329
3438	0.00560434
3450	0.00773257
3462	0.0115634
3474	0.0236943
3486	0.0334842
3498	0.0322782
3510	0.0239781
3522	0.015607
3534	0.0149686
3546	0.0222755
3558	0.0905207
3570	0.243186
3582	0.274896
3594	0.148196
3606	0.0416424
3618	0.01809
3630	0.01809
3642	0.0246165
3654	0.0187994
3666	0.0074488
3678	0.00503681
3690	0.000922233
3702	0.00283764
3714	0.00212823
3726	0.00262482
3738	0.00532058
3750	0
3762	0.00269576
3774	0.000212823
3786	0.000283764
3798	0.00141882
3810	0.000425646
3822	0.00134788
3834	0.00290858
3846	0.00163164
3858	0.00461116
3870	0.0058881
3882	0.00390175
3894	0.00659751
3906	0.00219917
3918	0.00454022
3930	0.00319235
3942	0.00446928
3954	0.00269576
3966	0.00659751
