Infrared Spectrum: 1,1,1-Trifluoro-2-propanol
Formula: C 3 H 5 F 3 O
CAS: 374-01-6
Origin: Sadtler Research Labs Under US-EPA Contract
1/CM	ABSORBANCE
450	0
462	0.0214143
474	0.0639082
486	0.0746154
498	0.0418248
510	0.0197413
522	0.0200759
534	0.0789651
546	0.158599
558	0.112425
570	0.0260986
582	0.0217489
594	0.00803035
606	0.00669196
618	0.00936874
630	0.00803035
642	0.0301138
654	0.107071
666	0.185702
678	0.164288
690	0.0655812
702	0.0184029
714	0.0110417
726	0.0127147
738	0.0103725
750	0.00635736
762	0.0117109
774	0.0247603
786	0.0314522
798	0.0331252
810	0.0187375
822	0.0127147
834	0.0130493
846	0.0103725
858	0.0117109
870	0.0117109
882	0.0153915
894	0.037475
906	0.103725
918	0.164957
930	0.140531
942	0.0692618
954	0.0368058
966	0.0334598
978	0.0424939
990	0.0789651
1002	0.214812
1014	0.487844
1026	0.593577
1038	0.429624
1050	0.431966
1062	0.623021
1074	0.614991
1086	0.448027
1098	0.418917
1110	0.698306
1122	1.12291
1134	1.31029
1146	1.40464
1158	2.07116
1170	2.79992
1182	2.76177
1194	2.05979
1206	1.10384
1218	0.448696
1230	0.235892
1242	0.422263
1254	0.751173
1266	0.986395
1278	1.12258
1290	1.12793
1302	0.660162
1314	0.291435
1326	0.165961
1338	0.20812
1350	0.252621
1362	0.30783
1374	0.347313
1386	0.398506
1398	0.366719
1410	0.186706
1422	0.0876647
1434	0.0639082
1446	0.107071
1458	0.180348
1470	0.168303
1482	0.0936874
1494	0.0331252
1506	0.0197413
1518	0.0163953
1530	0.0110417
1542	0.0127147
1554	0.0117109
1566	0.0110417
1578	0.0103725
1590	0.00970334
1602	0.00970334
1614	0.0103725
1626	0.00936874
1638	0.00970334
1650	0.00836495
1662	0.00803035
1674	0.00869955
1686	0.00702656
1698	0.00702656
1710	0.00803035
1722	0.00869955
1734	0.00869955
1746	0.0100379
1758	0.00869955
1770	0.00803035
1782	0.00635736
1794	0.00535357
1806	0.00635736
1818	0.00669196
1830	0.00936874
1842	0.00869955
1854	0.00803035
1866	0.00501897
1878	0.00301138
1890	0.00334598
1902	0.00334598
1914	0.00468437
1926	0.00635736
1938	0.00836495
1950	0.0100379
1962	0.0120455
1974	0.0103725
1986	0.00702656
1998	0.00535357
2010	0.00468437
2022	0.00602276
2034	0.00702656
2046	0.00936874
2058	0.00869955
2070	0.00836495
2082	0.00602276
2094	0.00468437
2106	0.00334598
2118	0.00301138
2130	0.00301138
2142	0.00368058
2154	0.00468437
2166	0.00602276
2178	0.00669196
2190	0.00702656
2202	0.00602276
2214	0.00535357
2226	0.00602276
2238	0.00602276
2250	0.00535357
2262	0.00602276
2274	0.00702656
2286	0.00836495
2298	0.0120455
2310	0.0160607
2322	0.0163953
2334	0.0143877
2346	0.0120455
2358	0.0100379
2370	0.00869955
2382	0.00936874
2394	0.00936874
2406	0.00836495
2418	0.00803035
2430	0.00836495
2442	0.00702656
2454	0.00602276
2466	0.00635736
2478	0.00468437
2490	0.00368058
2502	0.00468437
2514	0.00468437
2526	0.00501897
2538	0.00535357
2550	0.00468437
2562	0.00501897
2574	0.00368058
2586	0.00301138
2598	0.00301138
2610	0.00368058
2622	0.00434977
2634	0.00468437
2646	0.00468437
2658	0.00468437
2670	0.00468437
2682	0.00468437
2694	0.00501897
2706	0.00669196
2718	0.00769575
2730	0.00769575
2742	0.00769575
2754	0.00803035
2766	0.00869955
2778	0.00936874
2790	0.00970334
2802	0.00970334
2814	0.0110417
2826	0.0133839
2838	0.0184029
2850	0.0230873
2862	0.0260986
2874	0.0314522
2886	0.0428285
2898	0.0756191
2910	0.131832
2922	0.186706
2934	0.156592
2946	0.129155
2958	0.124136
2970	0.103725
2982	0.0993756
2994	0.204774
3006	0.267344
3018	0.164288
3030	0.0445015
3042	0.0110417
3054	0.00769575
3066	0.00669196
3078	0.00669196
3090	0.00702656
3102	0.00702656
3114	0.00535357
3126	0.00535357
3138	0.00501897
3150	0.00468437
3162	0.00501897
3174	0.00501897
3186	0.00535357
3198	0.00635736
3210	0.00669196
3222	0.00769575
3234	0.00602276
3246	0.00468437
3258	0.00368058
3270	0.00368058
3282	0.00301138
3294	0.00334598
3306	0.00434977
3318	0.00468437
3330	0.00702656
3342	0.0100379
3354	0.00970334
3366	0.00836495
3378	0.00836495
3390	0.00836495
3402	0.00869955
3414	0.00970334
3426	0.00936874
3438	0.00970334
3450	0.00970334
3462	0.00970334
3474	0.00936874
3486	0.00970334
3498	0.00803035
3510	0.00869955
3522	0.00769575
3534	0.00769575
3546	0.00970334
3558	0.0103725
3570	0.0147223
3582	0.0110417
3594	0.0120455
3606	0.0160607
3618	0.039148
3630	0.112425
3642	0.302811
3654	0.372073
3666	0.243253
3678	0.0729424
3690	0.0247603
3702	0.0170645
3714	0.0147223
3726	0.0143877
3738	0.0143877
3750	0.00970334
3762	0.00936874
3774	0.0100379
3786	0.0100379
3798	0.0120455
3810	0.0103725
3822	0.0133839
3834	0.0133839
3846	0.0147223
3858	0.0153915
3870	0.0160607
3882	0.0150569
3894	0.0167299
3906	0.0127147
3918	0.0150569
3930	0.0150569
3942	0.0127147
3954	0.0130493
3966	0.0147223
