Infrared Spectrum: Benzene, p-bis(1-methylnonyl)-,
Formula: C 26 H 46
CAS: 37415-47-7
Origin: Sadtler Research Labs Under US-EPA Contract
1/CM	ABSORBANCE
450	0.00882114
462	0.00244546
474	0.00532762
486	0.00751107
498	0.00646301
510	0.00646301
522	0.00742373
534	0.0127513
546	0.0151968
558	0.0266381
570	0.0419222
582	0.0615733
594	0.0182536
606	0.0106552
618	0.00882114
630	0.00550229
642	0.00462891
654	0.00655035
666	0.00672503
678	0.00707438
690	0.00882114
702	0.0104806
714	0.0227079
726	0.0251533
738	0.019127
750	0.0165069
762	0.0151968
774	0.0131007
786	0.0111793
798	0.0119653
810	0.0229699
822	0.0635821
834	0.0836698
846	0.0206118
858	0.0127513
870	0.00969452
882	0.0094325
894	0.00908315
906	0.00733639
918	0.00585165
930	0.00628834
942	0.00558963
954	0.00541496
966	0.00532762
978	0.00707438
990	0.0124893
1002	0.0199131
1014	0.0365073
1026	0.013188
1038	0.0141488
1050	0.0162449
1062	0.0152841
1074	0.0165069
1086	0.0194764
1098	0.0207864
1110	0.0217472
1122	0.0151095
1134	0.0122273
1146	0.00786042
1158	0.006201
1170	0.00759841
1182	0.00812243
1194	0.00794776
1206	0.00716172
1218	0.00777308
1230	0.0100439
1242	0.0120526
1254	0.0151968
1266	0.0205244
1278	0.0198257
1290	0.0247167
1302	0.0336251
1314	0.0299569
1326	0.0305683
1338	0.0400881
1350	0.0503067
1362	0.0504814
1374	0.0724032
1386	0.0451537
1398	0.0289089
1410	0.0361579
1422	0.0434943
1434	0.0443677
1446	0.0901328
1458	0.147689
1470	0.099216
1482	0.0353719
1494	0.0346732
1506	0.0748487
1518	0.0426209
1530	0.0120526
1542	0.00410489
1554	0.00331884
1566	0.00314417
1578	0.00270748
1590	0.00174676
1602	0.00401755
1614	0.00419222
1626	0.00174676
1638	0.00192144
1650	0.00410489
1662	0.00541496
1674	0.000698704
1686	0.000262014
1698	0.00087338
1710	0.00122273
1722	0.000698704
1734	0.00165942
1746	0.00235813
1758	0.00340618
1770	0.00567697
1782	0.00908315
1794	0.00462891
1806	0.00358086
1818	0.00296949
1830	0.00218345
1842	0.00174676
1854	0.00227079
1866	0.00227079
1878	0.00410489
1890	0.00960718
1902	0.00602632
1914	0.00209611
1926	0.00122273
1938	0.00104806
1950	0.00104806
1962	0.00131007
1974	0.00122273
1986	0.00104806
1998	0.00104806
2010	0.00113539
2022	0.00165942
2034	0.0018341
2046	0.00192144
2058	0.00174676
2070	0.00139741
2082	0.00148475
2094	0.000960718
2106	0.00122273
2118	0.00131007
2130	0.00122273
2142	0.00165942
2154	0.00165942
2166	0.0018341
2178	0.00165942
2190	0.0018341
2202	0.00192144
2214	0.00209611
2226	0.00174676
2238	0.00200877
2250	0.00227079
2262	0.0025328
2274	0.00296949
2286	0.00384287
2298	0.00593898
2310	0.00751107
2322	0.00742373
2334	0.00550229
2346	0.00707438
2358	0.00707438
2370	0.00558963
2382	0.00663769
2394	0.00384287
2406	0.00375553
2418	0.00393021
2430	0.00410489
2442	0.00410489
2454	0.00401755
2466	0.00419222
2478	0.00454158
2490	0.00462891
2502	0.00532762
2514	0.00593898
2526	0.00672503
2538	0.00733639
2550	0.00777308
2562	0.00855912
2574	0.00960718
2586	0.0103932
2598	0.0109172
2610	0.0115286
2622	0.0128387
2634	0.0132754
2646	0.0144108
2658	0.0159829
2670	0.0179043
2682	0.0184283
2694	0.017817
2706	0.0179043
2718	0.0194764
2730	0.0222712
2742	0.0234939
2754	0.0235813
2766	0.0256774
2778	0.0300443
2790	0.036944
2802	0.0464638
2814	0.0605252
2826	0.0827964
2838	0.126989
2850	0.261577
2862	0.409004
2874	0.335378
2886	0.3035
2898	0.316862
2910	0.436079
2922	0.653987
2934	0.87338
2946	0.524028
2958	0.44097
2970	0.489966
2982	0.189785
2994	0.102535
3006	0.0884734
3018	0.0958098
3030	0.0669009
3042	0.0536255
3054	0.0499573
3066	0.0342365
3078	0.0335378
3090	0.0289089
3102	0.017817
3114	0.0145854
3126	0.0134501
3138	0.0104806
3150	0.00908315
3162	0.00838445
3174	0.00812243
3186	0.00777308
3198	0.00672503
3210	0.00524028
3222	0.00427956
3234	0.0036682
3246	0.00358086
3258	0.00262014
3270	0.00270748
3282	0.00270748
3294	0.0025328
3306	0.00262014
3318	0.00323151
3330	0.00358086
3342	0.00279482
3354	0.00340618
3366	0.00340618
3378	0.00358086
3390	0.00331884
3402	0.00384287
3414	0.00305683
3426	0.00358086
3438	0.00305683
3450	0.00305683
3462	0.00331884
3474	0.00296949
3486	0.00279482
3498	0.00270748
3510	0.00244546
3522	0.00209611
3534	0.00288215
3546	0.00296949
3558	0.00279482
3570	0.00296949
3582	0.00331884
3594	0.00340618
3606	0.00323151
3618	0.00480359
3630	0.00454158
3642	0.00419222
3654	0.00427956
3666	0.00480359
3678	0.00419222
3690	0.00480359
3702	0.0050656
3714	0.00375553
3726	0.00349352
3738	0.00489093
3750	0.00445424
3762	0.00331884
3774	0.00358086
3786	0.00384287
3798	0.00244546
3810	0.00323151
3822	0.00419222
3834	0.00314417
3846	0.00375553
3858	0.00323151
3870	0.00454158
3882	0.00454158
3894	0.00288215
3906	0.00288215
3918	0.00340618
3930	0.00262014
3942	0.00323151
3954	0.00305683
3966	0.00349352
