Infrared Spectrum: Benzo[b]thiophene-2-carboxaldehyde, 7-methyl-,
Formula: C 10 H 8 O S
CAS: 3751-76-6
Origin: Sadtler Research Labs Under US-EPA Contract
1/CM	ABSORBANCE
450	0
462	0.0213298
474	0.0353804
486	0.0187905
498	0.00914134
510	0.013712
522	0.023869
534	0.0272547
546	0.0231919
558	0.0345339
570	0.0638201
582	0.027424
594	0.0110035
606	0.0123577
618	0.0145584
630	0.0152356
642	0.0362268
654	0.123239
666	0.148123
678	0.0213298
690	0.0123577
702	0.0152356
714	0.0724536
726	0.18198
738	0.0473995
750	0.0218376
762	0.0746542
774	0.124254
786	0.0450295
798	0.0186212
810	0.0228533
822	0.0562023
834	0.104279
846	0.122054
858	0.0567101
870	0.0140506
882	0.00880277
894	0.0121884
906	0.00677136
918	0.0052478
930	0.00677136
942	0.00660208
954	0.0084642
966	0.0110035
978	0.0084642
990	0.00694064
1002	0.00863348
1014	0.0165898
1026	0.0176055
1038	0.0248847
1050	0.0347032
1062	0.0372425
1074	0.0380889
1086	0.0648358
1098	0.124254
1110	0.0878584
1122	0.194846
1134	0.404927
1146	0.186043
1158	0.0746542
1170	0.0365653
1182	0.0333489
1194	0.0130349
1206	0.0216684
1218	0.122731
1230	0.208219
1242	0.0634815
1254	0.0350418
1266	0.0208219
1278	0.010157
1290	0.0116806
1302	0.0243769
1314	0.0540016
1326	0.067375
1338	0.0319947
1350	0.0164205
1362	0.0199755
1374	0.0270854
1386	0.0739771
1398	0.0763471
1410	0.0242076
1422	0.0143891
1434	0.0225148
1446	0.0352111
1458	0.0646665
1470	0.132042
1482	0.0529859
1494	0.0230226
1506	0.0460452
1518	0.207373
1530	0.337044
1542	0.0782092
1554	0.0363961
1566	0.045876
1578	0.0648358
1590	0.0611115
1602	0.0431674
1614	0.0216684
1626	0.0142199
1638	0.012527
1650	0.023869
1662	0.0629736
1674	0.0907362
1686	0.22701
1698	1.37848
1710	1.21224
1722	0.0788863
1734	0.0242076
1746	0.0255619
1758	0.0347032
1770	0.0253926
1782	0.0360575
1794	0.0223455
1806	0.0110035
1818	0.00812563
1830	0.0187905
1842	0.0240383
1854	0.0165898
1866	0.0116806
1878	0.0152356
1890	0.00981847
1902	0.00863348
1914	0.0201448
1926	0.0155741
1938	0.00609422
1950	0.00592494
1962	0.00626351
1974	0.00457067
1986	0.00440138
1998	0.00440138
2010	0.0042321
2022	0.00406282
2034	0.0042321
2046	0.00457067
2058	0.00490924
2070	0.00406282
2082	0.0042321
2094	0.00389353
2106	0.00406282
2118	0.00440138
2130	0.00457067
2142	0.00440138
2154	0.00457067
2166	0.00490924
2178	0.00473995
2190	0.00490924
2202	0.00457067
2214	0.00440138
2226	0.0042321
2238	0.0042321
2250	0.00490924
2262	0.00694064
2274	0.00694064
2286	0.00626351
2298	0.00761778
2310	0.00897205
2322	0.00863348
2334	0.00863348
2346	0.0103263
2358	0.0094799
2370	0.00914134
2382	0.00795635
2394	0.00389353
2406	0.00406282
2418	0.00440138
2430	0.00406282
2442	0.00372425
2454	0.00389353
2466	0.0042321
2478	0.0052478
2490	0.00541709
2502	0.00575566
2514	0.00490924
2526	0.00507852
2538	0.00541709
2550	0.00507852
2562	0.00541709
2574	0.00558637
2586	0.00643279
2598	0.00677136
2610	0.00795635
2622	0.00914134
2634	0.0094799
2646	0.0106649
2658	0.0150663
2670	0.0230226
2682	0.0267469
2694	0.0264083
2706	0.0330104
2718	0.0573873
2730	0.0504466
2742	0.0650051
2754	0.0868427
2766	0.043506
2778	0.043506
2790	0.0917519
2802	0.207542
2814	0.178933
2826	0.0976769
2838	0.0694064
2850	0.0436753
2862	0.0416439
2874	0.0421517
2886	0.041136
2898	0.0413053
2910	0.0414746
2922	0.0562023
2934	0.0634815
2946	0.0497695
2958	0.0391046
2970	0.0353804
2982	0.0499388
2994	0.0477381
3006	0.0275933
3018	0.0338568
3030	0.054848
3042	0.0700836
3054	0.0763471
3066	0.103771
3078	0.102248
3090	0.0313175
3102	0.017267
3114	0.0130349
3126	0.00914134
3138	0.00778706
3150	0.00727921
3162	0.00592494
3174	0.00490924
3186	0.00457067
3198	0.00406282
3210	0.00440138
3222	0.00592494
3234	0.00592494
3246	0.00406282
3258	0.00338568
3270	0.00372425
3282	0.00389353
3294	0.00457067
3306	0.00457067
3318	0.0042321
3330	0.00457067
3342	0.00473995
3354	0.00507852
3366	0.00964919
3378	0.0208219
3390	0.0218376
3402	0.00812563
3414	0.00338568
3426	0.0042321
3438	0.00406282
3450	0.0042321
3462	0.00507852
3474	0.0042321
3486	0.00541709
3498	0.00457067
3510	0.00490924
3522	0.00541709
3534	0.00440138
3546	0.00490924
3558	0.0042321
3570	0.00507852
3582	0.0110035
3594	0.0074485
3606	0.0052478
3618	0.00558637
3630	0.00660208
3642	0.00575566
3654	0.00609422
3666	0.00626351
3678	0.00507852
3690	0.00406282
3702	0.00490924
3714	0.00406282
3726	0.00592494
3738	0.00440138
3750	0.00490924
3762	0.0052478
3774	0.00507852
3786	0.00507852
3798	0.00592494
3810	0.00558637
3822	0.0052478
3834	0.00643279
3846	0.00643279
3858	0.00660208
3870	0.00660208
3882	0.00626351
3894	0.00507852
3906	0.00812563
3918	0.00643279
3930	0.00660208
3942	0.00507852
3954	0.00694064
3966	0.00643279
