Infrared Spectrum: 1H,1H,9H-Hexadecafluoro-1-nonanol
Formula: C 9 H 4 F 16 O
CAS: 376-18-1
Origin: Sadtler Research Labs Under US-EPA Contract
1/CM	ABSORBANCE
450	0.0176459
462	0.0194926
474	0.0357022
486	0.0174407
498	0.0482185
510	0.0867933
522	0.0937695
534	0.164353
546	0.19985
558	0.137884
570	0.159634
582	0.125778
594	0.0966421
606	0.0984888
618	0.101156
630	0.0978732
642	0.0966421
654	0.114698
666	0.111826
678	0.0966421
690	0.129677
702	0.196772
714	0.180563
726	0.223446
738	0.229397
750	0.196157
762	0.214213
774	0.234321
786	0.204569
798	0.216265
810	0.201492
822	0.159018
834	0.148349
846	0.0867933
858	0.0689422
870	0.0976681
882	0.0966421
894	0.0777651
906	0.0716096
918	0.0757133
930	0.0970525
942	0.0995147
954	0.0750977
966	0.0724303
978	0.0769444
990	0.0837155
1002	0.100746
1014	0.100746
1026	0.0859725
1038	0.11675
1050	0.143014
1062	0.180563
1074	0.263663
1086	0.375489
1098	0.280898
1110	0.342043
1122	0.600166
1134	0.991864
1146	1.20279
1158	1.04296
1170	1.17776
1182	1.31134
1194	1.53827
1206	1.75556
1218	1.83394
1230	1.39485
1242	0.714659
1254	0.536559
1266	0.398059
1278	0.312292
1290	0.228986
1302	0.171535
1314	0.126804
1326	0.0966421
1338	0.0802273
1350	0.0888451
1362	0.133575
1374	0.0952058
1386	0.0746873
1398	0.13891
1410	0.111621
1422	0.0453459
1434	0.0291363
1446	0.0289311
1458	0.0385748
1470	0.0346763
1482	0.0231859
1494	0.0219548
1506	0.0231859
1518	0.0240066
1530	0.0217496
1542	0.0235963
1554	0.0231859
1566	0.02216
1578	0.0233911
1590	0.0219548
1602	0.0225703
1614	0.0248274
1626	0.0217496
1638	0.0231859
1650	0.0223652
1662	0.0205185
1674	0.0227755
1686	0.0227755
1698	0.0252378
1710	0.0233911
1722	0.0248274
1734	0.0283155
1746	0.0371385
1758	0.0342659
1770	0.0268792
1782	0.0233911
1794	0.0227755
1806	0.0196978
1818	0.0184667
1830	0.018877
1842	0.0172355
1854	0.0164148
1866	0.0160044
1878	0.0153889
1890	0.0151837
1902	0.0147733
1914	0.0145681
1926	0.0139526
1938	0.0139526
1950	0.0125163
1962	0.0127215
1974	0.01108
1986	0.0114904
1998	0.01108
2010	0.01108
2022	0.0108748
2034	0.0112852
2046	0.0104644
2058	0.0104644
2070	0.0104644
2082	0.0106696
2094	0.0106696
2106	0.00984888
2118	0.0106696
2130	0.0104644
2142	0.01108
2154	0.0119007
2166	0.0119007
2178	0.0108748
2190	0.0104644
2202	0.0108748
2214	0.0106696
2226	0.0112852
2238	0.0123111
2250	0.0145681
2262	0.0162096
2274	0.0164148
2286	0.0168252
2298	0.0182615
2310	0.0199029
2322	0.0199029
2334	0.0205185
2346	0.0219548
2358	0.0184667
2370	0.0201081
2382	0.0174407
2394	0.014363
2406	0.0131318
2418	0.0125163
2430	0.0112852
2442	0.0108748
2454	0.0096437
2466	0.00923333
2478	0.00902814
2490	0.00800222
2502	0.0082074
2514	0.00656592
2526	0.00677111
2538	0.00677111
2550	0.00574518
2562	0.00492444
2574	0.0041037
2586	0.00328296
2598	0.00246222
2610	0.00205185
2622	0.00205185
2634	0.00123111
2646	0.00102593
2658	0.00082074
2670	0.00041037
2682	0.00102593
2694	0.00102593
2706	0.00041037
2718	0.000615555
2730	0.00164148
2742	0.00164148
2754	0.00205185
2766	0.00246222
2778	0.00287259
2790	0.00266741
2802	0.00246222
2814	0.00246222
2826	0.00266741
2838	0.00328296
2850	0.0041037
2862	0.00636074
2874	0.00861777
2886	0.0139526
2898	0.02216
2910	0.01662
2922	0.0149785
2934	0.0233911
2946	0.0371385
2958	0.0414474
2970	0.0400111
2982	0.04986
2994	0.0313933
3006	0.0404214
3018	0.0287259
3030	0.0125163
3042	0.00533481
3054	0.00471926
3066	0.00389851
3078	0.00369333
3090	0.00225704
3102	0.00102593
3114	0.00123111
3126	0.00184667
3138	0.000615555
3150	0.00102593
3162	0.00184667
3174	0.00102593
3186	0.00246222
3198	0.00205185
3210	0.00184667
3222	0.00123111
3234	0.000205185
3246	0.00102593
3258	0.00184667
3270	0.000615555
3282	0.00082074
3294	0.00123111
3306	0.00041037
3318	0.00082074
3330	0.00082074
3342	0.00082074
3354	0.00164148
3366	0.00082074
3378	0.000615555
3390	0.00225704
3402	0.00225704
3414	0.00307778
3426	0.00205185
3438	0.00287259
3450	0.00266741
3462	0.00102593
3474	0.000205185
3486	0.00287259
3498	0.00205185
3510	0.00246222
3522	0.00123111
3534	0.00164148
3546	0.00328296
3558	0.00266741
3570	0.00369333
3582	0.00512963
3594	0.00533481
3606	0.00389851
3618	0.0160044
3630	0.0283155
3642	0.0344711
3654	0.128241
3666	0.0890503
3678	0.0461666
3690	0.0196978
3702	0.00943851
3714	0.00738666
3726	0.00779703
3738	0.00492444
3750	0.00697629
3762	0.00615555
3774	0.00553999
3786	0.00246222
3798	0.00471926
3810	0
3822	0.00553999
3834	0.00123111
3846	0.000615555
3858	0.00943851
3870	0.00533481
3882	0.00615555
3894	0.00328296
3906	0.0082074
3918	0.00861777
3930	0.00779703
3942	0.00574518
3954	0.00615555
3966	0.00697629
