Infrared Spectrum: Hexafluoro-1,5-pentanediol
Formula: C 5 H 6 F 6 O 2
CAS: 376-90-9
Origin: Sadtler Research Labs Under US-EPA Contract
1/CM	ABSORBANCE
450	0.0245037
462	0.0126575
474	0.0074647
486	0.0074106
498	0.0108725
510	0.0162817
522	0.0181208
534	0.0234218
546	0.0228809
558	0.0196354
570	0.0221777
582	0.0165522
594	0.0189322
606	0.0357007
618	0.0325093
630	0.0256937
642	0.0189322
654	0.0133066
666	0.0152539
678	0.0131444
690	0.008817
702	0.00524692
714	0.00210959
726	0.0047601
738	0.0230432
750	0.0407313
762	0.032347
774	0.0273165
786	0.00595012
798	0.00113593
810	0.00297506
822	0.00454373
834	0.0087629
846	0.0145507
858	0.0251528
870	0.0473846
882	0.106832
894	0.0943364
906	0.0578784
918	0.0661545
930	0.08817
942	0.076432
954	0.0734028
966	0.0768106
978	0.0584735
990	0.0602044
1002	0.0640449
1014	0.047601
1026	0.0492237
1038	0.0638286
1050	0.0880077
1062	0.133175
1074	0.235354
1086	0.283929
1098	0.200465
1110	0.190945
1122	0.216476
1134	0.305728
1146	0.465353
1158	0.529885
1170	0.356899
1182	0.230486
1194	0.168983
1206	0.125818
1218	0.11197
1230	0.110618
1242	0.110997
1254	0.115162
1266	0.0810839
1278	0.0651809
1290	0.0591226
1302	0.0550657
1314	0.0530102
1326	0.0426786
1338	0.0345648
1350	0.0431113
1362	0.0691296
1374	0.0538756
1386	0.0266674
1398	0.0253151
1410	0.0231514
1422	0.0130362
1434	0.00768106
1446	0.00773516
1458	0.0198518
1470	0.0154162
1482	0.00438145
1494	0.00265051
1506	0.00259642
1518	0.00194731
1530	0.00173094
1542	0.00119002
1554	0.00140639
1566	0.00081138
1578	0.00108184
1590	0.000757288
1602	0.000757288
1614	0.000595012
1626	0.000324552
1638	0.000216368
1650	0.000108184
1662	0.000162276
1674	0.000216368
1686	0.000432736
1698	0.000595012
1710	0.000486828
1722	0.000162276
1734	0.000757288
1746	0.00054092
1758	0.00102775
1770	0.00151458
1782	0.00129821
1794	0.0013523
1806	0.00151458
1818	0.00151458
1830	0.00124412
1842	0.00124412
1854	0.00140639
1866	0.00167685
1878	0.00124412
1890	0.00140639
1902	0.00156867
1914	0.00129821
1926	0.00151458
1938	0.00167685
1950	0.00162276
1962	0.00183913
1974	0.0020014
1986	0.00227186
1998	0.00243414
2010	0.00243414
2022	0.00248823
2034	0.00265051
2046	0.00254232
2058	0.00243414
2070	0.00265051
2082	0.00259642
2094	0.00259642
2106	0.00281278
2118	0.00302915
2130	0.00357007
2142	0.00438145
2154	0.00508465
2166	0.00454373
2178	0.00384053
2190	0.0034078
2202	0.00308324
2214	0.00292097
2226	0.0033537
2238	0.0034078
2250	0.00373235
2262	0.00384053
2274	0.00400281
2286	0.00416508
2298	0.00486828
2310	0.00524692
2322	0.00459782
2334	0.00411099
2346	0.00389462
2358	0.00324552
2370	0.00292097
2382	0.00421918
2394	0.00281278
2406	0.00227186
2418	0.00210959
2430	0.0020014
2442	0.00221777
2454	0.00216368
2466	0.00238005
2478	0.00275869
2490	0.0027046
2502	0.00254232
2514	0.00227186
2526	0.00210959
2538	0.00210959
2550	0.00189322
2562	0.00194731
2574	0.00151458
2586	0.00140639
2598	0.00162276
2610	0.00167685
2622	0.00129821
2634	0.00124412
2646	0.0013523
2658	0.00146048
2670	0.00129821
2682	0.00167685
2694	0.00140639
2706	0.00108184
2718	0.00173094
2730	0.00183913
2742	0.00173094
2754	0.00232596
2766	0.00265051
2778	0.0027046
2790	0.00275869
2802	0.00275869
2814	0.00248823
2826	0.00286688
2838	0.00281278
2850	0.00357007
2862	0.00524692
2874	0.00643695
2886	0.0127116
2898	0.0206091
2910	0.0142262
2922	0.0104938
2934	0.0181208
2946	0.0326175
2958	0.0386758
2970	0.0297506
2982	0.0223941
2994	0.0178504
3006	0.0137394
3018	0.00778925
3030	0.00389462
3042	0.00232596
3054	0.00189322
3066	0.00210959
3078	0.00156867
3090	0.00178504
3102	0.00162276
3114	0.00173094
3126	0.00183913
3138	0.00151458
3150	0.00183913
3162	0.00140639
3174	0.00140639
3186	0.00140639
3198	0.00151458
3210	0.0020014
3222	0.00210959
3234	0.00173094
3246	0.00183913
3258	0.00194731
3270	0.00151458
3282	0.00183913
3294	0.00146048
3306	0.00151458
3318	0.00167685
3330	0.00189322
3342	0.0013523
3354	0.0020555
3366	0.00227186
3378	0.00286688
3390	0.00259642
3402	0.00275869
3414	0.00281278
3426	0.00210959
3438	0.00194731
3450	0.00156867
3462	0.00140639
3474	0.00129821
3486	0.0020014
3498	0.0013523
3510	0.00113593
3522	0.00102775
3534	0.00173094
3546	0.00275869
3558	0.00308324
3570	0.00421918
3582	0.00400281
3594	0.00513874
3606	0.00551738
3618	0.00632876
3630	0.0112511
3642	0.032942
3654	0.115703
3666	0.106237
3678	0.0461946
3690	0.015903
3702	0.00800562
3714	0.0054092
3726	0.00432736
3738	0.00313734
3750	0.00297506
3762	0.00232596
3774	0.00254232
3786	0.00167685
3798	0.00173094
3810	0.00265051
3822	0.00183913
3834	0.00227186
3846	0.0027046
3858	0.00313734
3870	0.00346189
3882	0.00411099
3894	0.00367826
3906	0.00432736
3918	0.00421918
3930	0.00308324
3942	0.00297506
3954	0.00281278
3966	0.00140639
