Infrared Spectrum: 2-Ethylcyclohexanol,c&t
Formula: C 8 H 16 O
CAS: 3760-20-1
Origin: Sadtler Research Labs Under US-EPA Contract
1/CM	ABSORBANCE
450	0.00771215
462	0.00526385
474	0.00342762
486	0.00942596
498	0.0101604
510	0.0113846
522	0.00710007
534	0.00599834
546	0.0132208
558	0.0143226
570	0.0105277
582	0.00758973
594	0.00440694
606	0.0048966
618	0.00355004
630	0.00195864
642	0.00636558
654	0.00465177
666	0.00440694
678	0.00587592
690	0.000612075
702	0.00257072
714	0.00293796
726	0.00183623
738	0.00563109
750	0.0097932
762	0.00820181
774	0.00856905
786	0.00318279
798	0.00575351
810	0.0124863
822	0.017995
834	0.0308486
846	0.0417435
858	0.0265641
870	0.020933
882	0.0203209
894	0.0162812
906	0.0189743
918	0.0148122
930	0.0151795
942	0.0258296
954	0.0601058
966	0.118498
978	0.0990337
990	0.0581471
1002	0.0451711
1014	0.0479867
1026	0.076999
1038	0.135758
1050	0.212268
1062	0.18754
1074	0.0946268
1086	0.0592489
1098	0.0433349
1110	0.0337865
1122	0.0399073
1134	0.0522712
1146	0.0538626
1158	0.0448039
1170	0.0427228
1182	0.0580247
1194	0.0646351
1206	0.0585144
1218	0.0616972
1230	0.0652472
1242	0.0545971
1254	0.0490884
1266	0.0521488
1278	0.0441918
1290	0.0373366
1302	0.0335417
1314	0.0315831
1326	0.0347659
1338	0.0411314
1350	0.0448039
1362	0.0511695
1374	0.0676955
1386	0.076999
1398	0.048966
1410	0.0243606
1422	0.0190967
1434	0.0329296
1446	0.0913216
1458	0.139431
1470	0.0952389
1482	0.0364797
1494	0.0118743
1506	0.00722249
1518	0.00612075
1530	0.0040397
1542	0.00526385
1554	0.00355004
1566	0.00293796
1578	0.00342762
1590	0.00257072
1602	0.0024483
1614	0.00318279
1626	0.00183623
1638	0.00281555
1650	0.00024483
1662	0.00073449
1674	0.00073449
1686	0.00330521
1698	0.00232589
1710	0.00073449
1722	0.0024483
1734	0.00269313
1746	0.00134657
1758	0.000856905
1770	0.00171381
1782	0.00195864
1794	0.00183623
1806	0.00122415
1818	0.00097932
1830	0.00134657
1842	0.000856905
1854	0.00110174
1866	0.000856905
1878	0.00097932
1890	0.00110174
1902	0.00110174
1914	0.00134657
1926	0.00110174
1938	0.0015914
1950	0.0015914
1962	0.00183623
1974	0.000856905
1986	0.00134657
1998	0.0015914
2010	0.00146898
2022	0.0015914
2034	0.00134657
2046	0.00097932
2058	0.00122415
2070	0.00171381
2082	0.00208106
2094	0.00232589
2106	0.00232589
2118	0.00195864
2130	0.00134657
2142	0.00134657
2154	0.0015914
2166	0.00220347
2178	0.00195864
2190	0.00208106
2202	0.00195864
2214	0.00257072
2226	0.00232589
2238	0.00232589
2250	0.00195864
2262	0.00183623
2274	0.00195864
2286	0.00134657
2298	0.00048966
2310	0
2322	0.00110174
2334	0.00195864
2346	0.000612075
2358	0.00146898
2370	0
2382	0.000367245
2394	0.00208106
2406	0.0024483
2418	0.00208106
2430	0.00208106
2442	0.00195864
2454	0.00220347
2466	0.00232589
2478	0.0024483
2490	0.00232589
2502	0.00208106
2514	0.00306038
2526	0.00293796
2538	0.00293796
2550	0.00367245
2562	0.00416211
2574	0.00526385
2586	0.00599834
2598	0.00771215
2610	0.00807939
2622	0.00807939
2634	0.00954837
2646	0.0119967
2658	0.0160364
2670	0.0197088
2682	0.0187295
2694	0.0148122
2706	0.0116294
2718	0.0118743
2730	0.0122415
2742	0.0148122
2754	0.0157915
2766	0.0164036
2778	0.0186071
2790	0.0216675
2802	0.0250951
2814	0.0287675
2826	0.0372142
2838	0.0642679
2850	0.171871
2862	0.42429
2874	0.518305
2886	0.371652
2898	0.293306
2910	0.360023
2922	0.623582
2934	1.14421
2946	1.07431
2958	0.492965
2970	0.383526
2982	0.220102
2994	0.0542298
3006	0.0264416
3018	0.0175053
3030	0.0142001
3042	0.0134657
3054	0.0110174
3066	0.00746732
3078	0.00661041
3090	0.00612075
3102	0.006488
3114	0.00563109
3126	0.00452936
3138	0.00293796
3150	0.00355004
3162	0.0040397
3174	0.0040397
3186	0.00355004
3198	0.00342762
3210	0.00232589
3222	0.00195864
3234	0.00195864
3246	0.00208106
3258	0.00146898
3270	0.0024483
3282	0.00269313
3294	0.00257072
3306	0.00183623
3318	0.00318279
3330	0.0024483
3342	0.00293796
3354	0.00269313
3366	0.0024483
3378	0.00293796
3390	0.00171381
3402	0.00281555
3414	0.0040397
3426	0.00379487
3438	0.00342762
3450	0.00514143
3462	0.0040397
3474	0.00416211
3486	0.00281555
3498	0.00428453
3510	0.00355004
3522	0.00330521
3534	0.00465177
3546	0.00355004
3558	0.00281555
3570	0.00330521
3582	0.00146898
3594	0.00195864
3606	0.00452936
3618	0.00685524
3630	0.0133432
3642	0.029502
3654	0.0579023
3666	0.0437022
3678	0.0122415
3690	0.00538626
3702	0.00318279
3714	0.00379487
3726	0.00563109
3738	0.00367245
3750	0.00391728
3762	0.00367245
3774	0.00097932
3786	0.00293796
3798	0.00391728
3810	0.00538626
3822	0.00440694
3834	0.00807939
3846	0.00624317
3858	0.00624317
3870	0.00330521
3882	0
3894	0.00710007
3906	0.00795698
3918	0.0048966
3930	0.00195864
3942	0.00330521
3954	0.00575351
3966	0.011507
