Infrared Spectrum: 1H-Indole-2-carboxylic acid, ethyl ester
Formula: C 11 H 11 N O 2
CAS: 3770-50-1
Origin: Sadtler Research Labs Under US-EPA Contract
1/CM	ABSORBANCE
450	0.0608178
462	0.0994197
474	0.143851
486	0.0879179
498	0.0291484
510	0.014653
522	0.0130774
534	0.0126047
546	0.0122896
558	0.00835063
570	0.0126047
582	0.0611329
594	0.0271001
606	0.0404927
618	0.0222158
630	0.00929598
642	0.00283606
654	0.00283606
666	0.000945354
678	0.00126047
690	0.00661748
702	0.00677504
714	0.0143379
726	0.0934325
738	0.258712
750	0.213965
762	0.116909
774	0.119902
786	0.0458497
798	0.0233187
810	0.0472677
822	0.0699562
834	0.046795
846	0.0422258
858	0.0341903
870	0.0519945
882	0.0384444
894	0.0337176
906	0.0189071
918	0.0286757
930	0.0354508
942	0.0419107
954	0.0537276
966	0.0499462
978	0.0513642
990	0.0471101
1002	0.0597149
1014	0.113285
1026	0.244059
1038	0.129986
1050	0.0616056
1062	0.0415956
1074	0.056091
1086	0.133768
1098	0.227988
1110	0.204039
1122	0.10068
1134	0.0697986
1146	0.333395
1158	0.206087
1170	0.186865
1182	0.587538
1194	0.552717
1206	0.464011
1218	0.880125
1230	1.32649
1242	1.29876
1254	0.27951
1266	0.0896511
1278	0.0789371
1290	0.265329
1302	0.882173
1314	0.279667
1326	0.109346
1338	0.245319
1350	0.271789
1362	0.12069
1374	0.328826
1386	0.169218
1398	0.10777
1410	0.101626
1422	0.130459
1434	0.0901237
1446	0.0718469
1458	0.0742103
1470	0.0720045
1482	0.0538852
1494	0.0431712
1506	0.0471101
1518	0.0690108
1530	0.20593
1542	0.401145
1554	0.190174
1566	0.0645992
1578	0.0923296
1590	0.0474253
1602	0.0343479
1614	0.0499462
1626	0.0545154
1638	0.0335601
1650	0.0395473
1662	0.0456921
1674	0.0442741
1686	0.0593997
1698	0.0857121
1710	0.257294
1722	0.952602
1734	0.791734
1746	0.556971
1758	0.24658
1770	0.0523096
1782	0.025367
1794	0.0248943
1806	0.0269426
1818	0.0184344
1830	0.0181193
1842	0.014653
1854	0.0151257
1866	0.0105565
1878	0.0116594
1890	0.0154408
1902	0.0069326
1914	0.0100838
1926	0.0129198
1938	0.0026785
1950	0.00236338
1962	0.00236338
1974	0.00173315
1986	0.000945354
1998	0.000945354
2010	0.00110291
2022	0.00252094
2034	0.00299362
2046	0.00299362
2058	0.00299362
2070	0.00236338
2082	0.00141803
2094	0.000472677
2106	0.000630236
2118	0.000472677
2130	0.000315118
2142	0.000157559
2154	0.000787795
2166	0.00110291
2178	0.000945354
2190	0.00189071
2202	0.00236338
2214	0.00141803
2226	0.000787795
2238	0.00110291
2250	0.00141803
2262	0.00173315
2274	0.00252094
2286	0.00409653
2298	0.00709015
2310	0.00835063
2322	0.0061448
2334	0.000315118
2346	0.00362386
2358	0.00110291
2370	0.000157559
2382	0.00488433
2394	0.00110291
2406	0.000630236
2418	0.000315118
2430	0.000630236
2442	0.000945354
2454	0.00126047
2466	0.00141803
2478	0.00173315
2490	0.00173315
2502	0.00283606
2514	0.00472677
2526	0.00362386
2538	0.0034663
2550	0.00425409
2562	0.00378142
2574	0.00315118
2586	0.0026785
2598	0.00488433
2610	0.00425409
2622	0.00283606
2634	0.00236338
2646	0.00252094
2658	0.00252094
2670	0.0034663
2682	0.00472677
2694	0.00362386
2706	0.00299362
2718	0.00252094
2730	0.00409653
2742	0.00409653
2754	0.00630236
2766	0.00677504
2778	0.00945354
2790	0.00756283
2802	0.00724771
2814	0.00724771
2826	0.00976866
2838	0.0096111
2850	0.0115018
2862	0.0163861
2874	0.0223734
2886	0.0356083
2898	0.0354508
2910	0.0441165
2922	0.0483706
2934	0.0573515
2946	0.0997348
2958	0.0783068
2970	0.0924871
2982	0.15945
2994	0.155826
3006	0.0855545
3018	0.0564061
3030	0.0519945
3042	0.0532549
3054	0.0582968
3066	0.138652
3078	0.113127
3090	0.0609753
3102	0.0237914
3114	0.0122896
3126	0.0100838
3138	0.0111867
3150	0.00740527
3162	0.00677504
3174	0.0069326
3186	0.00567212
3198	0.00567212
3210	0.00378142
3222	0.00330874
3234	0.00378142
3246	0.00378142
3258	0.00488433
3270	0.00504189
3282	0.00362386
3294	0.00315118
3306	0.0026785
3318	0.00157559
3330	0.00141803
3342	0.00110291
3354	0.00126047
3366	0.00110291
3378	0.000787795
3390	0.00157559
3402	0.00110291
3414	0.00204827
3426	0.00567212
3438	0.0088233
3450	0.0140228
3462	0.0348205
3474	0.0849243
3486	0.212232
3498	0.245477
3510	0.126205
3522	0.0319845
3534	0.00504189
3546	0.0026785
3558	0.00189071
3570	0.00220583
3582	0.000945354
3594	0.00157559
3606	0.00126047
3618	0.00126047
3630	0.00141803
3642	0.00220583
3654	0.0026785
3666	0.000945354
3678	0.00236338
3690	0.00173315
3702	0.000315118
3714	0.000472677
3726	0.000157559
3738	0.00315118
3750	0.00189071
3762	0.000315118
3774	0.00126047
3786	0.000157559
3798	0.00189071
3810	0.00141803
3822	0.000157559
3834	0.00189071
3846	0.000315118
3858	0.00126047
3870	0.00110291
3882	0.00141803
3894	0.000157559
3906	0.00315118
3918	0.00157559
3930	0.00252094
3942	0.00378142
3954	0.00283606
3966	0.00126047
