Infrared Spectrum: 2-Imidazolidinone, 1-allyl-,
Formula: C 6 H 10 N 2 O
CAS: 37732-87-9
Origin: Sadtler Research Labs Under US-EPA Contract
1/CM	ABSORBANCE
450	0.0199996
462	0.0333751
474	0.0221652
486	0.0156685
498	0.0119743
510	0.00904441
522	0.0119743
534	0.0113374
546	0.0138851
558	0.0149042
570	0.0155411
582	0.0133755
594	0.0141398
606	0.01121
618	0.00751577
630	0.00267511
642	0.000382158
654	0.00305726
666	0.0151589
678	0.0327382
690	0.0350312
702	0.0256046
714	0.0266237
726	0.024076
738	0.0189805
750	0.0291714
762	0.0411457
774	0.0248403
786	0.0124838
798	0.0114647
810	0.01121
822	0.00853486
834	0.00484067
846	0.00369419
858	0.00420374
870	0.007261
882	0.0149042
894	0.0238212
906	0.0391075
918	0.0799984
930	0.087132
942	0.0467507
954	0.0242033
966	0.0187257
978	0.0225473
990	0.0383432
1002	0.0349038
1014	0.0159232
1026	0.0113374
1038	0.0160506
1050	0.0349038
1062	0.0457316
1074	0.047515
1086	0.0583428
1098	0.0599988
1110	0.0459863
1122	0.0333751
1134	0.0267511
1146	0.025095
1158	0.0233116
1170	0.0228021
1182	0.031337
1194	0.0496805
1206	0.065349
1218	0.0780876
1230	0.101781
1242	0.156557
1254	0.32458
1266	0.400629
1278	0.208658
1290	0.0760494
1302	0.0598714
1314	0.0521009
1326	0.0407635
1338	0.0480245
1350	0.0575785
1362	0.0466233
1374	0.0361776
1386	0.0480245
1398	0.126876
1410	0.302797
1422	0.337955
1434	0.212225
1446	0.124711
1458	0.0551581
1470	0.0294262
1482	0.103055
1494	0.137704
1506	0.0505722
1518	0.0197448
1530	0.0113374
1542	0.007261
1554	0.00484067
1566	0.00318465
1578	0.00369419
1590	0.00356681
1602	0.00356681
1614	0.00522283
1626	0.0104457
1638	0.0198722
1650	0.0230569
1662	0.0133755
1674	0.016178
1686	0.025732
1698	0.0443303
1710	0.0701897
1722	0.112864
1734	0.288529
1746	0.884059
1758	1.25603
1770	0.807372
1782	0.180251
1794	0.0585976
1806	0.0314643
1818	0.0196174
1830	0.0147768
1842	0.0146494
1854	0.0133755
1866	0.00955395
1878	0.0063693
1890	0.0054776
1902	0.00522283
1914	0.00484067
1926	0.00445851
1938	0.00433112
1950	0.00369419
1962	0.00280249
1974	0.00280249
1986	0.00254772
1998	0.00191079
2010	0.00101909
2022	0.00114647
2034	0.00063693
2046	0.00114647
2058	0.00114647
2070	0.00165602
2082	0.00191079
2094	0.00165602
2106	0.00191079
2118	0.00152863
2130	0.00127386
2142	0.00063693
2154	0.000509544
2166	0.00063693
2178	0.000509544
2190	0.000382158
2202	0.00114647
2214	0.00152863
2226	0.00216556
2238	0.00216556
2250	0.00280249
2262	0.00305726
2274	0.00343942
2286	0.00407635
2298	0.00471328
2310	0.0054776
2322	0.00394897
2334	0.00191079
2346	0.00267511
2358	0.00331204
2370	0.00140125
2382	0.00305726
2394	0.000891702
2406	0.000382158
2418	0.000254772
2430	0.00063693
2442	0.00127386
2454	0.00203818
2466	0.00216556
2478	0.00152863
2490	0.000891702
2502	0.000509544
2514	0.000509544
2526	0.000127386
2538	0.000764316
2550	0.00101909
2562	0.00140125
2574	0.00101909
2586	0.000764316
2598	0.00063693
2610	0.00063693
2622	0.00101909
2634	0.00152863
2646	0.00203818
2658	0.00229295
2670	0.00254772
2682	0.00433112
2694	0.00560498
2706	0.00675146
2718	0.00624191
2730	0.0054776
2742	0.00585976
2754	0.00751577
2766	0.0104457
2778	0.0155411
2790	0.0202544
2802	0.023439
2814	0.0280249
2826	0.0397444
2838	0.0605084
2850	0.0881511
2862	0.113246
2874	0.137067
2886	0.162927
2898	0.146621
2910	0.117577
2922	0.107386
2934	0.111718
2946	0.122927
2958	0.111972
2970	0.0745208
2982	0.0736291
2994	0.0830557
3006	0.0579606
3018	0.0357955
3030	0.0231843
3042	0.0141398
3054	0.0138851
3066	0.0182162
3078	0.0296809
3090	0.0463685
3102	0.0286618
3114	0.00853486
3126	0.00484067
3138	0.00356681
3150	0.00369419
3162	0.00305726
3174	0.00216556
3186	0.00216556
3198	0.00114647
3210	0.00152863
3222	0.00165602
3234	0.00114647
3246	0.000891702
3258	0.00127386
3270	0.000764316
3282	0.00127386
3294	0.000764316
3306	0.00101909
3318	0.00114647
3330	0.000764316
3342	0.000509544
3354	0.00114647
3366	0.000891702
3378	0.00114647
3390	0.00063693
3402	0.00140125
3414	0.00203818
3426	0.00254772
3438	0.00369419
3450	0.00394897
3462	0.0131208
3474	0.0703171
3486	0.105603
3498	0.0471328
3510	0.0121017
3522	0.00420374
3534	0.00101909
3546	0.00152863
3558	0.000891702
3570	0.00267511
3582	0.00305726
3594	0.00216556
3606	0.000509544
3618	0.00063693
3630	0.00229295
3642	0.0017834
3654	0.00165602
3666	0.00140125
3678	0.00216556
3690	0.00127386
3702	0.00140125
3714	0.00101909
3726	0.000764316
3738	0.000891702
3750	0
3762	0.00101909
3774	0.000509544
3786	0.000127386
3798	0.000764316
3810	0.000254772
3822	0.00191079
3834	0.00127386
3846	0.000764316
3858	0.00101909
3870	0.00152863
3882	0.00063693
3894	0.000382158
3906	0.00152863
3918	0.00114647
3930	0.00229295
3942	0.00063693
3954	0.00229295
3966	0.00114647
