Infrared Spectrum: N-(tert-Butylamino)ethyl methacrylate
Formula: C 10 H 19 N O 2
CAS: 3775-90-4
Origin: Sadtler Research Labs Under US-EPA Contract
1/CM	ABSORBANCE
450	0.0380535
462	0.0398303
474	0.0470856
486	0.0398303
498	0.0590791
510	0.0248754
522	0.0356844
534	0.0469376
546	0.0546371
558	0.0496028
570	0.0485663
582	0.0464934
594	0.0571542
606	0.0570062
618	0.0521199
630	0.0510835
642	0.0672229
654	0.0824739
666	0.0836584
678	0.0799567
690	0.0826219
702	0.0806971
714	0.0621886
726	0.0525641
738	0.0464934
750	0.0476779
762	0.0427917
774	0.0419032
786	0.0432359
798	0.0599675
810	0.0901734
822	0.0814374
834	0.0552294
846	0.0496028
858	0.0423474
870	0.0473818
882	0.0447165
894	0.0490105
906	0.054489
918	0.0655941
930	0.127042
942	0.16628
954	0.0881005
966	0.0786241
978	0.0839546
990	0.0912099
1002	0.103648
1014	0.173536
1026	0.146143
1038	0.0997978
1050	0.0922464
1062	0.0647057
1074	0.0608559
1086	0.0707765
1098	0.0962442
1110	0.139036
1122	0.210108
1134	0.280441
1146	0.568433
1158	1.3908
1170	1.21653
1182	0.565176
1194	0.311091
1206	0.220621
1218	0.242387
1230	0.293027
1242	0.185973
1254	0.132225
1266	0.116085
1278	0.150437
1290	0.343814
1302	0.376833
1314	0.355215
1326	0.281477
1338	0.143478
1350	0.119491
1362	0.193229
1374	0.188639
1386	0.15177
1398	0.168798
1410	0.142738
1422	0.0912099
1434	0.0940232
1446	0.145847
1458	0.212033
1470	0.17783
1482	0.149104
1494	0.0949116
1506	0.0433839
1518	0.0297617
1530	0.0230986
1542	0.0205815
1554	0.0201372
1566	0.0222102
1578	0.0250235
1590	0.0253196
1602	0.0276887
1614	0.03909
1626	0.0595233
1638	0.0882485
1650	0.0655941
1662	0.0393861
1674	0.0416071
1686	0.0451607
1698	0.0598195
1710	0.0989094
1722	0.267115
1734	0.685259
1746	0.639506
1758	0.218993
1770	0.0962442
1782	0.0541929
1794	0.037017
1806	0.0245793
1818	0.0170278
1830	0.0136223
1842	0.0125858
1854	0.0134742
1866	0.0165836
1878	0.019693
1890	0.0180643
1902	0.0134742
1914	0.0111051
1926	0.00947635
1938	0.00888408
1950	0.00843988
1962	0.00888408
1974	0.00888408
1986	0.00918022
1998	0.00947635
2010	0.00947635
2022	0.00814374
2034	0.00710726
2046	0.00621886
2058	0.00562658
2070	0.00577465
2082	0.00592272
2094	0.00607079
2106	0.00547852
2118	0.00533045
2130	0.00533045
2142	0.00533045
2154	0.00473818
2166	0.0041459
2178	0.00384977
2190	0.00340556
2202	0.00251716
2214	0.00281329
2226	0.00384977
2238	0.00340556
2250	0.0037017
2262	0.0041459
2274	0.00444204
2286	0.0037017
2298	0.00399784
2310	0.00429397
2322	0.0032575
2334	0.00399784
2346	0.00518238
2358	0.00251716
2370	0.00814374
2382	0.0074034
2394	0.00592272
2406	0.00533045
2418	0.00621886
2430	0.00651499
2442	0.00710726
2454	0.00769954
2466	0.00710726
2478	0.00577465
2490	0.00503431
2502	0.00503431
2514	0.00473818
2526	0.00473818
2538	0.00607079
2550	0.00681113
2562	0.00725533
2574	0.00829181
2586	0.00962442
2598	0.00932828
2610	0.0100686
2622	0.0102167
2634	0.0103648
2646	0.0105128
2658	0.0102167
2670	0.0116974
2682	0.0131781
2694	0.0167317
2706	0.0192488
2718	0.0186566
2730	0.0191008
2742	0.0204334
2754	0.021766
2766	0.0205815
2778	0.0207295
2790	0.0226544
2802	0.0285771
2814	0.041311
2826	0.0607079
2838	0.0786241
2850	0.100094
2862	0.118899
2874	0.151918
2886	0.163171
2898	0.170574
2910	0.189823
2922	0.199892
2934	0.240907
2946	0.301022
2958	0.456494
2970	0.743153
2982	0.559549
2994	0.224915
3006	0.10039
3018	0.0481221
3030	0.0315385
3042	0.021766
3054	0.019545
3066	0.0137703
3078	0.0116974
3090	0.0122896
3102	0.0210257
3114	0.0284291
3126	0.00947635
3138	0.0078476
3150	0.0074034
3162	0.00710726
3174	0.0078476
3186	0.00858794
3198	0.00843988
3210	0.00814374
3222	0.00814374
3234	0.00858794
3246	0.0078476
3258	0.00607079
3270	0.00681113
3282	0.00621886
3294	0.00621886
3306	0.00755147
3318	0.00843988
3330	0.00873601
3342	0.00977249
3354	0.00962442
3366	0.0102167
3378	0.0103648
3390	0.00932828
3402	0.00829181
3414	0.00799567
3426	0.0078476
3438	0.00829181
3450	0.0103648
3462	0.010809
3474	0.00918022
3486	0.00651499
3498	0.00636692
3510	0.00577465
3522	0.00444204
3534	0.0037017
3546	0.00518238
3558	0.00621886
3570	0.00977249
3582	0.0125858
3594	0.0125858
3606	0.00725533
3618	0.0032575
3630	0.00355363
3642	0.00355363
3654	0.00340556
3666	0.00503431
3678	0.00592272
3690	0.00444204
3702	0.0037017
3714	0.0041459
3726	0.00384977
3738	0.00384977
3750	0.00488624
3762	0.00488624
3774	0.00503431
3786	0.00755147
3798	0.00473818
3810	0.00562658
3822	0.00384977
3834	0.00533045
3846	0.00607079
3858	0.00592272
3870	0.00621886
3882	0.0069592
3894	0.0069592
3906	0.00518238
3918	0.0041459
3930	0.00725533
3942	0.00459011
3954	0.00533045
3966	0.00281329
