Infrared Spectrum: Phenol, 5-bromo-2-methoxy-,
Formula: C 7 H 7 Br O 2
CAS: 37942-01-1
Origin: Sadtler Research Labs Under US-EPA Contract
1/CM	ABSORBANCE
450	0.0905395
462	0.0879205
474	0.0622303
486	0.0341705
498	0.0226972
510	0.0173347
522	0.00673434
534	0.00424014
546	0.0074826
558	0.0110992
570	0.0281845
582	0.0450203
594	0.0216995
606	0.025815
618	0.0968997
630	0.0924101
642	0.0214501
654	0.0087297
666	0.00561195
678	0.00236949
690	0.00149652
702	0.00236949
714	0.00511311
726	0.00760731
738	0.0175841
750	0.0538747
762	0.0882947
774	0.0633527
786	0.127079
798	0.138054
810	0.0647245
822	0.025815
834	0.0293068
846	0.0559948
858	0.122839
870	0.180331
882	0.323997
894	0.103509
906	0.0385354
918	0.0218242
930	0.0109745
942	0.00710847
954	0.00685905
966	0.0120969
978	0.0236949
990	0.0369142
1002	0.0538747
1014	0.113985
1026	0.182825
1038	0.173347
1050	0.0754495
1062	0.0346694
1074	0.0372883
1086	0.0229466
1098	0.0280597
1110	0.0722071
1122	0.187439
1134	0.130447
1146	0.0633527
1158	0.0897912
1170	0.200908
1182	0.248921
1194	0.282343
1206	0.631531
1218	0.910757
1230	0.376001
1242	0.184072
1254	0.403562
1266	0.646995
1278	0.392338
1290	0.318759
1302	0.162372
1314	0.18295
1326	0.212007
1338	0.123712
1350	0.0475145
1362	0.0360412
1374	0.0360412
1386	0.0308034
1398	0.0320505
1410	0.0384107
1422	0.0544983
1434	0.127578
1446	0.233083
1458	0.176091
1470	0.189559
1482	0.330481
1494	1.073
1506	0.968373
1518	0.19567
1530	0.0533759
1542	0.0387848
1554	0.03654
1566	0.0606091
1578	0.116604
1590	0.184696
1602	0.144539
1614	0.0480133
1626	0.0238196
1638	0.0215748
1650	0.0223231
1662	0.013344
1674	0.0147158
1686	0.0178335
1698	0.021076
1710	0.0170853
1722	0.020203
1734	0.0183324
1746	0.0132193
1758	0.0117227
1770	0.0152146
1782	0.0145911
1794	0.0175841
1806	0.00972738
1818	0.00860499
1830	0.0101015
1842	0.00673434
1854	0.00149652
1866	0.00199536
1878	0.00187065
1890	0.00361659
1902	0.00261891
1914	0.00236949
1926	0.00137181
1938	0.00187065
1950	0.00274362
1962	0.00424014
1974	0.00561195
1986	0.00424014
1998	0.00486369
2010	0.00798144
2022	0.0101015
2034	0.00823086
2046	0.00723318
2058	0.00698376
2070	0.00735789
2082	0.00573666
2094	0.00536253
2106	0.00411543
2118	0.0024942
2130	0.00236949
2142	0.00261891
2154	0.00236949
2166	0.00212007
2178	0.00187065
2190	0.00199536
2202	0.00274362
2214	0.00274362
2226	0.00299304
2238	0.00461427
2250	0.00735789
2262	0.00698376
2274	0.00349188
2286	0.00187065
2298	0.00024942
2310	0.00012471
2322	0.00099768
2334	0.00286833
2346	0.00236949
2358	0.00187065
2370	0.00236949
2382	0.00349188
2394	0.00399072
2406	0.00299304
2418	0.00274362
2430	0.00286833
2442	0.00349188
2454	0.00486369
2466	0.00698376
2478	0.00885441
2490	0.00897912
2502	0.00810615
2514	0.00673434
2526	0.00710847
2538	0.00860499
2550	0.00735789
2562	0.00311775
2574	0.00199536
2586	0.00199536
2598	0.00261891
2610	0.00261891
2622	0.0024942
2634	0.0024942
2646	0.00299304
2658	0.00286833
2670	0.00261891
2682	0.00274362
2694	0.00336717
2706	0.00436485
2718	0.00424014
2730	0.0037413
2742	0.00448956
2754	0.00586137
2766	0.0062355
2778	0.00611079
2790	0.00710847
2802	0.0106003
2814	0.0137181
2826	0.0187065
2838	0.0375377
2850	0.0851769
2862	0.0532512
2874	0.0300551
2886	0.0276856
2898	0.0319258
2910	0.0476392
2922	0.067094
2934	0.0665951
2946	0.111491
2958	0.143417
2970	0.099768
2982	0.0561195
2994	0.0422767
3006	0.0768214
3018	0.0966502
3030	0.0289327
3042	0.0215748
3054	0.0209513
3066	0.0223231
3078	0.0331729
3090	0.0236949
3102	0.0143416
3114	0.0099768
3126	0.0074826
3138	0.00548724
3150	0.00486369
3162	0.00448956
3174	0.00399072
3186	0.00336717
3198	0.00349188
3210	0.00286833
3222	0.00324246
3234	0.00299304
3246	0.00274362
3258	0.00174594
3270	0.00162123
3282	0.00224478
3294	0.00261891
3306	0.00236949
3318	0.00162123
3330	0.00087297
3342	0.00112239
3354	0.00236949
3366	0.00174594
3378	0.00074826
3390	0.00074826
3402	0.00087297
3414	0.00049884
3426	0.0012471
3438	0.00099768
3450	0.00049884
3462	0.00112239
3474	0.00174594
3486	0.00187065
3498	0.00137181
3510	0.00149652
3522	0.00224478
3534	0.00436485
3546	0.00785673
3558	0.0207019
3570	0.119971
3582	0.49248
3594	0.311775
3606	0.0387848
3618	0.0104756
3630	0.00611079
3642	0.00735789
3654	0.0101015
3666	0.00324246
3678	0.00174594
3690	0.00037413
3702	0
3714	0
3726	0
3738	0.00012471
3750	0
3762	0
3774	0
3786	0
3798	0
3810	0
3822	0.00024942
3834	0
3846	0.00012471
3858	0.00012471
3870	0.00137181
3882	0.00062355
3894	0
3906	0.00062355
3918	0
3930	0
3942	0
3954	0.00012471
3966	0.00149652
