Infrared Spectrum: o-Cresol, 4-methylthio-,
Formula: C 8 H 10 O S
CAS: 3795-76-4
Origin: Sadtler Research Labs Under US-EPA Contract
1/CM	ABSORBANCE
450	0.0060979
462	0.0183761
474	0.0130198
486	0.00758117
498	0.00931165
510	0.0145031
522	0.0149151
534	0.0156568
546	0.0365874
558	0.0886667
570	0.0776246
582	0.0328792
594	0.0117014
606	0.0117838
618	0.0100533
630	0.0126078
642	0.0502664
654	0.0797671
666	0.012855
678	0.00354337
690	0.00461462
702	0.0114542
714	0.0113718
726	0.0107125
738	0.0164808
750	0.0529034
762	0.116437
774	0.0348569
786	0.0603197
798	0.161512
810	0.190765
822	0.129704
834	0.0465583
846	0.0212602
858	0.0323024
870	0.0651816
882	0.078119
894	0.0495248
906	0.0196946
918	0.0154095
930	0.0203538
942	0.0288414
954	0.0447454
966	0.101604
978	0.0878427
990	0.0627918
1002	0.0425205
1014	0.0236499
1026	0.0215074
1038	0.0234851
1050	0.0238148
1062	0.0282646
1074	0.0468055
1086	0.122205
1098	0.192331
1110	0.34107
1122	0.331676
1134	0.138356
1146	0.157804
1158	0.385568
1170	0.492529
1182	0.183679
1194	0.271192
1206	0.629814
1218	0.463028
1230	0.171236
1242	0.212602
1254	0.564138
1266	0.489315
1278	0.160935
1290	0.0903148
1302	0.170659
1314	0.311158
1326	0.175438
1338	0.0576004
1350	0.0406252
1362	0.0418612
1374	0.045899
1386	0.0891611
1398	0.167363
1410	0.118991
1422	0.0969895
1434	0.137862
1446	0.189035
1458	0.160523
1470	0.190848
1482	0.546915
1494	0.822722
1506	0.380212
1518	0.0945998
1530	0.0543042
1542	0.0466407
1554	0.0542218
1566	0.0716915
1578	0.114047
1590	0.126573
1602	0.105312
1614	0.0591661
1626	0.033044
1638	0.0230731
1650	0.0199418
1662	0.012855
1674	0.0137615
1686	0.00964127
1698	0.0126078
1710	0.0156568
1722	0.0162336
1734	0.0160688
1746	0.0201066
1758	0.0161512
1770	0.0127726
1782	0.0105477
1794	0.00914684
1806	0.00576828
1818	0.00708674
1830	0.00939406
1842	0.0119486
1854	0.0126078
1866	0.0129374
1878	0.0117838
1890	0.00906444
1902	0.00634511
1914	0.0062627
1926	0.00543866
1938	0.00313135
1950	0.00263693
1962	0.00288414
1974	0.00288414
1986	0.0041202
1998	0.00453222
2010	0.00857002
2022	0.0106301
2034	0.00494424
2046	0.00395539
2058	0.00255452
2070	0.0020601
2082	0.00263693
2094	0.00148327
2106	0.00164808
2118	0.000988848
2130	0.00255452
2142	0.0040378
2154	0.00337856
2166	0.00222491
2178	0.00140087
2190	0.00123606
2202	0.00148327
2214	0.00115366
2226	0.0019777
2238	0.0041202
2250	0.00683953
2262	0.00585068
2274	0.00543866
2286	0.00461462
2298	0.00543866
2310	0.00370818
2322	0.00280174
2334	0.00271933
2346	0.00189529
2358	0.00642751
2370	0.00749876
2382	0.0061803
2394	0.00650992
2406	0.00675713
2418	0.00997088
2430	0.00774598
2442	0.00683953
2454	0.00716915
2466	0.00848761
2478	0.00972367
2490	0.00749876
2502	0.0100533
2514	0.00889963
2526	0.00601549
2538	0.0042026
2550	0.00346097
2562	0.00313135
2574	0.0040378
2586	0.0042026
2598	0.00519145
2610	0.0062627
2622	0.00552107
2634	0.00444982
2646	0.00395539
2658	0.00370818
2670	0.00362578
2682	0.00304895
2694	0.00379058
2706	0.00461462
2718	0.00543866
2730	0.00593309
2742	0.0105477
2754	0.0112069
2766	0.00716915
2778	0.00601549
2790	0.00716915
2802	0.0106301
2814	0.0135967
2826	0.0251332
2838	0.0430973
2850	0.0633687
2862	0.0745756
2874	0.0949294
2886	0.0973191
2898	0.0916332
2910	0.122452
2922	0.218535
2934	0.319975
2946	0.194061
2958	0.117838
2970	0.105972
2982	0.12476
2994	0.150305
3006	0.115448
3018	0.120475
3030	0.115942
3042	0.0894907
3054	0.0798495
3066	0.0722683
3078	0.056694
3090	0.0418612
3102	0.0342801
3114	0.0238148
3126	0.0146679
3138	0.0107949
3150	0.008158
3162	0.00659232
3174	0.00535626
3186	0.00568588
3198	0.00568588
3210	0.00494424
3222	0.00510905
3234	0.00444982
3246	0.00510905
3258	0.00444982
3270	0.00543866
3282	0.00486184
3294	0.00477943
3306	0.00568588
3318	0.0060979
3330	0.00683953
3342	0.00873482
3354	0.0103829
3366	0.00972367
3378	0.0100533
3390	0.0100533
3402	0.00964127
3414	0.0102181
3426	0.0121958
3438	0.0126078
3450	0.0110421
3462	0.00964127
3474	0.0082404
3486	0.00667472
3498	0.00543866
3510	0.0062627
3522	0.00601549
3534	0.0061803
3546	0.00370818
3558	0.00387299
3570	0.00271933
3582	0.00741636
3594	0.00716915
3606	0.00955886
3618	0.0136791
3630	0.0518321
3642	0.259985
3654	0.51486
3666	0.176674
3678	0.0196946
3690	0.00494424
3702	0.00947646
3714	0.00115366
3726	0.00519145
3738	0.0019777
3750	0.000247212
3762	0.0061803
3774	0.00889963
3786	0.00955886
3798	0.00939406
3810	0.00997088
3822	0.00387299
3834	0.00444982
3846	0.0104653
3858	0.0060979
3870	0.00387299
3882	0.00650992
3894	0.00906444
3906	0.00576828
3918	0.00782838
3930	0.00807559
3942	0.0121958
3954	0.0118662
3966	0.0112893
