Infrared Spectrum: Sulfide, m-nitrophenyl phenyl,
Formula: C 12 H 9 N O 2 S
CAS: 37984-02-4
Origin: Sadtler Research Labs Under US-EPA Contract
1/CM	ABSORBANCE
450	0.0156183
462	0.0156183
474	0.0187231
486	0.0135484
498	0.015336
510	0.0226747
522	0.0237097
534	0.0194758
546	0.0111962
558	0.00564516
570	0.00461021
582	0.00310484
594	0.00413978
606	0.00244624
618	0.00545699
630	0.00630376
642	0.0123253
654	0.0390457
666	0.0705645
678	0.0957795
690	0.169073
702	0.117325
714	0.0707527
726	0.188266
738	0.229005
750	0.380296
762	0.0749865
774	0.0287903
786	0.035
798	0.0770564
810	0.0241801
822	0.00301075
834	0.00159946
846	0.00517473
858	0.0151478
870	0.0743279
882	0.0529704
894	0.0267204
906	0.022957
918	0.0185349
930	0.00668011
942	0.0013172
954	0.000752688
966	0.00197581
978	0.00329301
990	0.00498656
1002	0.0215457
1014	0.0169355
1026	0.0614382
1038	0.00846774
1050	0.0147715
1062	0.048172
1074	0.0463844
1086	0.0469489
1098	0.0354704
1110	0.0210753
1122	0.0561693
1134	0.0385753
1146	0.0191935
1158	0.0124194
1170	0.0140188
1182	0.0127957
1194	0.00461021
1206	0.00479839
1218	0.00517473
1230	0.00705645
1242	0.0106317
1254	0.0225806
1266	0.053629
1278	0.0506183
1290	0.0482661
1302	0.0391398
1314	0.0348118
1326	0.056922
1338	0.201626
1350	0.767742
1362	0.296089
1374	0.048172
1386	0.0275672
1398	0.0344355
1410	0.0261559
1422	0.0343414
1434	0.0486425
1446	0.0606855
1458	0.0870295
1470	0.151667
1482	0.127298
1494	0.0992607
1506	0.11582
1518	0.143575
1530	0.322056
1542	0.815255
1554	0.520672
1566	0.162392
1578	0.159005
1590	0.116667
1602	0.0586156
1614	0.0286962
1626	0.0168414
1638	0.0145833
1650	0.0168414
1662	0.00837365
1674	0.00649193
1686	0.00649193
1698	0.00837365
1710	0.0060215
1722	0.00677419
1734	0.00903226
1746	0.00555107
1758	0.00432796
1770	0.00724462
1782	0.00771505
1794	0.0129839
1806	0.00865591
1818	0.00508064
1830	0.0053629
1842	0.00376344
1854	0.00357527
1866	0.00762097
1878	0.00959677
1890	0.0107258
1902	0.00592742
1914	0.00319892
1926	0.00376344
1938	0.00903226
1950	0.0122312
1962	0.00912634
1974	0.00357527
1986	0.00122312
1998	0.00141129
2010	0.000752688
2022	0.000752688
2034	0
2046	0
2058	0.000282258
2070	0.000376344
2082	0.000658602
2094	0.000752688
2106	0.000188172
2118	9.4086e-05
2130	9.4086e-05
2142	9.4086e-05
2154	0.000376344
2166	0.000564516
2178	0.00047043
2190	0.000658602
2202	0.00103495
2214	0.000752688
2226	0.00122312
2238	0.000846774
2250	0.0013172
2262	0.00122312
2274	0.0013172
2286	0.00206989
2298	0.00291667
2310	0.00451613
2322	0.0053629
2334	0.00366935
2346	0.00498656
2358	0.00282258
2370	0.0013172
2382	0.00282258
2394	0.00235215
2406	0.00263441
2418	0.00301075
2430	0.00169355
2442	0.00188172
2454	0.00197581
2466	0.00310484
2478	0.00301075
2490	0.00178763
2502	0.00159946
2514	0.00169355
2526	0.00150538
2538	0.00225806
2550	0.00225806
2562	0.00319892
2574	0.0033871
2586	0.00282258
2598	0.00254032
2610	0.00282258
2622	0.00263441
2634	0.00206989
2646	0.00225806
2658	0.00244624
2670	0.00357527
2682	0.00423387
2694	0.00630376
2706	0.00517473
2718	0.00329301
2730	0.00357527
2742	0.00319892
2754	0.00263441
2766	0.00310484
2778	0.00263441
2790	0.00235215
2802	0.00291667
2814	0.00348118
2826	0.00461021
2838	0.00583333
2850	0.00724462
2862	0.00912634
2874	0.0114785
2886	0.0158064
2898	0.0118548
2910	0.00780914
2922	0.00818548
2934	0.00705645
2946	0.00573925
2958	0.00508064
2970	0.00545699
2982	0.00592742
2994	0.00856183
3006	0.0135484
3018	0.0204167
3030	0.0250269
3042	0.0211693
3054	0.0313306
3066	0.0885349
3078	0.138401
3090	0.0840188
3102	0.025215
3114	0.0103495
3126	0.00649193
3138	0.00498656
3150	0.00658602
3162	0.00489247
3174	0.00451613
3186	0.00395161
3198	0.00366935
3210	0.00216398
3222	0.00244624
3234	0.00244624
3246	0.00141129
3258	0.00159946
3270	0.00216398
3282	0.00188172
3294	0.00272849
3306	0.00159946
3318	0.00235215
3330	0.00169355
3342	0.00225806
3354	0.00094086
3366	0.00235215
3378	0.00159946
3390	0.00197581
3402	0.00244624
3414	0.00206989
3426	0.00225806
3438	0.00178763
3450	0.00206989
3462	0.00244624
3474	0.00169355
3486	0.00178763
3498	0.00282258
3510	0.00206989
3522	0.00216398
3534	0.00094086
3546	0.00291667
3558	0.00141129
3570	0.00244624
3582	0.00216398
3594	0.00235215
3606	0.00150538
3618	0.00159946
3630	0.00319892
3642	0.00357527
3654	0.00282258
3666	0.00197581
3678	0.00319892
3690	0.0033871
3702	0.00319892
3714	0.0013172
3726	0.00197581
3738	0.00461021
3750	0.00225806
3762	0.0033871
3774	0.00169355
3786	0.00301075
3798	0.00385753
3810	0.000376344
3822	0.00225806
3834	0.00254032
3846	0.00112903
3858	0.00432796
3870	0.00188172
3882	0.0013172
3894	0.00094086
3906	0.00319892
3918	0.00357527
3930	0.00235215
3942	0.0013172
3954	0.00395161
3966	0.00282258
