Infrared Spectrum: 2,5-Dimethylcyclohexanol
Formula: C 8 H 16 O
CAS: 3809-32-3
Origin: Sadtler Research Labs Under US-EPA Contract
1/CM	ABSORBANCE
450	0
462	0.0474292
474	0.0424918
486	0.0511697
498	0.0359086
510	0.0390506
522	0.0468307
534	0.0451849
546	0.0417437
558	0.050272
570	0.0444368
582	0.0423422
594	0.0397987
606	0.0386017
618	0.0436887
630	0.0409956
642	0.0426414
654	0.0444368
666	0.0418933
678	0.0397987
690	0.0435391
702	0.0432399
714	0.0369559
726	0.0386017
738	0.0409956
750	0.0448857
762	0.04713
774	0.0462323
786	0.0504216
798	0.0453346
810	0.043988
822	0.0535636
834	0.064785
846	0.0571545
858	0.0487758
870	0.0477285
882	0.0499727
894	0.061643
906	0.0664308
918	0.0701713
930	0.0854324
942	0.0863302
954	0.0719667
966	0.0818416
978	0.104584
990	0.137799
1002	0.178196
1014	0.215451
1026	0.360133
1038	0.462173
1050	0.293104
1062	0.143933
1074	0.114309
1086	0.12957
1098	0.169369
1110	0.14139
1122	0.106678
1134	0.10608
1146	0.10608
1158	0.0936615
1170	0.0918661
1182	0.0963546
1194	0.101891
1206	0.118498
1218	0.125381
1230	0.116852
1242	0.120892
1254	0.127326
1266	0.11371
1278	0.103387
1290	0.0996463
1302	0.09426
1314	0.0876767
1326	0.0857317
1338	0.0957562
1350	0.108623
1362	0.130617
1374	0.177598
1386	0.203931
1398	0.141689
1410	0.0830385
1422	0.0661316
1434	0.0860309
1446	0.161289
1458	0.236996
1470	0.202734
1482	0.103387
1494	0.0526659
1506	0.0411452
1518	0.0386017
1530	0.0359086
1542	0.0341131
1554	0.0350108
1566	0.0341131
1578	0.0339635
1590	0.0360582
1602	0.0357589
1614	0.0347116
1626	0.0339635
1638	0.0323177
1650	0.0327666
1662	0.0335147
1674	0.0323177
1686	0.0308215
1698	0.0306719
1710	0.0306719
1722	0.0320185
1734	0.0315696
1746	0.0303727
1758	0.0306719
1770	0.0305223
1782	0.0305223
1794	0.0296246
1806	0.0297742
1818	0.0291757
1830	0.0291757
1842	0.0288765
1854	0.0288765
1866	0.0287268
1878	0.0284276
1890	0.0284276
1902	0.0281284
1914	0.0281284
1926	0.0278291
1938	0.0284276
1950	0.0285772
1962	0.0285772
1974	0.0285772
1986	0.0278291
1998	0.0278291
2010	0.027081
2022	0.0278291
2034	0.0284276
2046	0.0284276
2058	0.0287268
2070	0.0309711
2082	0.0294749
2094	0.0266322
2106	0.0273803
2118	0.0278291
2130	0.0278291
2142	0.0284276
2154	0.0279788
2166	0.0276795
2178	0.0276795
2190	0.0273803
2202	0.0275299
2214	0.0279788
2226	0.027081
2238	0.0273803
2250	0.0273803
2262	0.0275299
2274	0.028278
2286	0.0285772
2298	0.0290261
2310	0.0287268
2322	0.0272307
2334	0.0264826
2346	0.0278291
2358	0.0264826
2370	0.0281284
2382	0.0303727
2394	0.030223
2406	0.0303727
2418	0.0297742
2430	0.0296246
2442	0.0293253
2454	0.0300734
2466	0.0299238
2478	0.0296246
2490	0.0290261
2502	0.0291757
2514	0.0300734
2526	0.0300734
2538	0.0303727
2550	0.0305223
2562	0.0327666
2574	0.0342628
2586	0.0362078
2598	0.0381528
2610	0.0403971
2622	0.0421926
2634	0.0447361
2646	0.0451849
2658	0.0450353
2670	0.0477285
2682	0.0489254
2694	0.04713
2706	0.0457834
2718	0.0478781
2730	0.0526659
2742	0.0541621
2754	0.0516186
2766	0.0513193
2778	0.0523667
2790	0.0568552
2802	0.0622415
2814	0.0694232
2826	0.0855821
2838	0.131665
2850	0.29056
2862	0.517831
2874	0.666253
2886	0.647401
2898	0.568253
2910	0.751387
2922	1.23406
2934	1.38353
2946	0.902352
2958	0.824999
2970	0.719219
2982	0.332902
2994	0.132114
3006	0.0631392
3018	0.045933
3030	0.0429407
3042	0.0435391
3054	0.0433895
3066	0.0447361
3078	0.0444368
3090	0.0430903
3102	0.0418933
3114	0.0414445
3126	0.0394994
3138	0.0372551
3150	0.0369559
3162	0.0360582
3174	0.0368063
3186	0.0335147
3198	0.0318688
3210	0.0290261
3222	0.0279788
3234	0.0290261
3246	0.0284276
3258	0.0275299
3270	0.028278
3282	0.0303727
3294	0.0300734
3306	0.0305223
3318	0.0306719
3330	0.0291757
3342	0.0308215
3354	0.0306719
3366	0.0318688
3378	0.0305223
3390	0.0284276
3402	0.0300734
3414	0.0306719
3426	0.0303727
3438	0.0309711
3450	0.0326169
3462	0.03142
3474	0.0303727
3486	0.0308215
3498	0.0320185
3510	0.0303727
3522	0.0303727
3534	0.0312704
3546	0.0317192
3558	0.0300734
3570	0.0293253
3582	0.0305223
3594	0.0332154
3606	0.0311208
3618	0.0362078
3630	0.0453346
3642	0.075408
3654	0.115955
3666	0.0903699
3678	0.0429407
3690	0.0311208
3702	0.0284276
3714	0.0290261
3726	0.0300734
3738	0.0308215
3750	0.0303727
3762	0.0303727
3774	0.0296246
3786	0.0327666
3798	0.0318688
3810	0.0323177
3822	0.033365
3834	0.0330658
3846	0.0344124
3858	0.0311208
3870	0.0353101
3882	0.0336643
3894	0.0299238
3906	0.0323177
3918	0.0317192
3930	0.0347116
3942	0.0284276
3954	0.0264826
3966	0.0315696
