Infrared Spectrum: Acetic acid, trifluoro-, ethyl ester
Formula: C 4 H 5 F 3 O 2
CAS: 383-63-1
Origin: Sadtler Research Labs Under US-EPA Contract
1/CM	ABSORBANCE
450	0.00576508
462	0.0054226
474	0.00747748
486	0.00576508
498	0.0039956
510	0.00793412
522	0.0132426
534	0.015697
546	0.0082766
558	0.00879032
570	0.0124434
582	0.0134138
594	0.016439
606	0.0123864
618	0.0125576
630	0.012843
642	0.00804828
654	0.0195784
666	0.012158
678	0.0141558
690	0.0117585
702	0.0174665
714	0.0125005
726	0.0551393
738	0.0569658
750	0.0110735
762	0.0244302
774	0.0324214
786	0.0348759
798	0.024944
810	0.0201492
822	0.0155828
834	0.02209
846	0.0275126
858	0.0437233
870	0.0300241
882	0.0168957
894	0.012843
906	0.0113018
918	0.0111306
930	0.0126718
942	0.012101
954	0.0119868
966	0.0126147
978	0.0134709
990	0.0160966
1002	0.0291679
1014	0.0415542
1026	0.0376728
1038	0.0230603
1050	0.019293
1062	0.0187222
1074	0.0174665
1086	0.0247156
1098	0.0408122
1110	0.0723204
1122	0.111306
1134	0.28169
1146	0.541118
1158	0.503731
1170	0.428728
1182	0.495112
1194	0.413316
1206	0.230603
1218	0.286313
1230	0.437689
1242	0.300583
1254	0.100061
1266	0.0414972
1278	0.0303095
1290	0.0247156
1302	0.0287683
1314	0.0309374
1326	0.0465773
1338	0.0817386
1350	0.0979493
1362	0.0603336
1374	0.0522853
1386	0.0586782
1398	0.037844
1410	0.0247727
1422	0.0186652
1434	0.0167244
1446	0.019236
1458	0.0287683
1470	0.0222612
1482	0.0188364
1494	0.0153545
1506	0.0168957
1518	0.0148979
1530	0.0120439
1542	0.0194072
1554	0.0140988
1566	0.0126147
1578	0.0134709
1590	0.00747748
1602	0.0065642
1614	0.00702084
1626	0.0100461
1638	0.00901864
1650	0.0113018
1662	0.00736332
1674	0.0111306
1686	0.016439
1698	0.0142129
1710	0.0110164
1722	0.0129001
1734	0.0194643
1746	0.0216333
1758	0.0268847
1770	0.0442941
1782	0.110221
1794	0.271758
1806	0.30104
1818	0.128145
1830	0.0379582
1842	0.0183227
1854	0.0101032
1866	0.00839076
1878	0.00605048
1890	0.00616464
1902	0.00690668
1914	0.005708
1926	0.00605048
1938	0.00645004
1950	0.0059934
1962	0.00787704
1974	0.00587924
1986	0.005708
1998	0.0062788
2010	0.005708
2022	0.00519428
2034	0.0048518
2046	0.00410976
2058	0.00667836
2070	0.0048518
2082	0.00479472
2094	0.0051372
2106	0.00553676
2118	0.00319648
2130	0.00502304
2142	0.00445224
2154	0.00405268
2166	0.0037102
2178	0.00433808
2190	0.004281
2202	0.0045664
2214	0.00462348
2226	0.0045664
2238	0.00405268
2250	0.00439516
2262	0.00450932
2274	0.00468056
2286	0.00508012
2298	0.00433808
2310	0.00622172
2322	0.00622172
2334	0.00502304
2346	0.00736332
2358	0.00793412
2370	0.0068496
2382	0.0054226
2394	0.00662128
2406	0.007135
2418	0.00673544
2430	0.00719208
2442	0.0062788
2454	0.00673544
2466	0.00736332
2478	0.00804828
2490	0.0079912
2502	0.00844784
2514	0.00844784
2526	0.00907572
2538	0.0088474
2550	0.00850492
2562	0.00816244
2574	0.00804828
2586	0.00810536
2598	0.0082766
2610	0.00793412
2622	0.00736332
2634	0.00879032
2646	0.00804828
2658	0.00924696
2670	0.00953236
2682	0.00896156
2694	0.00867616
2706	0.0091328
2718	0.008562
2730	0.0091328
2742	0.00953236
2754	0.0091328
2766	0.00981776
2778	0.00981776
2790	0.0102744
2802	0.0113018
2814	0.0111306
2826	0.0105027
2838	0.0114731
2850	0.0116443
2862	0.0118726
2874	0.013585
2886	0.016439
2898	0.0166674
2910	0.0176948
2922	0.0207771
2934	0.0204917
2946	0.0269418
2958	0.027798
2970	0.0259143
2982	0.0366454
2994	0.0571942
3006	0.046349
3018	0.0300241
3030	0.0202634
3042	0.0130142
3054	0.0111877
3066	0.0107881
3078	0.00987484
3090	0.00901864
3102	0.0103886
3114	0.00896156
3126	0.00844784
3138	0.0091328
3150	0.00947528
3162	0.00918988
3174	0.00879032
3186	0.00867616
3198	0.0088474
3210	0.0091328
3222	0.00793412
3234	0.0068496
3246	0.00776288
3258	0.00696376
3270	0.00707792
3282	0.00747748
3294	0.0065642
3306	0.00719208
3318	0.00719208
3330	0.0062788
3342	0.00633588
3354	0.00622172
3366	0.00707792
3378	0.00593632
3390	0.00645004
3402	0.0054226
3414	0.00565092
3426	0.00622172
3438	0.00559384
3450	0.00433808
3462	0.00547968
3474	0.00416684
3486	0.00433808
3498	0.0054226
3510	0.0034248
3522	0.00530844
3534	0.00433808
3546	0.00553676
3558	0.00490888
3570	0.00810536
3582	0.00736332
3594	0.00816244
3606	0.00587924
3618	0.00645004
3630	0.0088474
3642	0.00433808
3654	0.0082766
3666	0.00804828
3678	0.0124434
3690	0.0122151
3702	0.0113589
3714	0.0151833
3726	0.0153545
3738	0.0202063
3750	0.0229462
3762	0.0218046
3774	0.0218616
3786	0.0246586
3798	0.0284258
3810	0.0294533
3822	0.0323073
3834	0.0336201
3846	0.0347046
3858	0.0368166
3870	0.0379011
3882	0.0374445
3894	0.0377299
3906	0.0387002
3918	0.0365883
3930	0.0365883
3942	0.0368737
3954	0
3966	0.00325356
