Infrared Spectrum: Succinimide, N-(p-phenetidinomethyl)-,
Formula: C 13 H 16 N 2 O 3
CAS: 38359-10-3
Origin: Sadtler Research Labs Under US-EPA Contract
1/CM	ABSORBANCE
450	0.0331621
462	0.0229251
474	0.00865098
486	0.0317203
498	0.0297017
510	0.030711
522	0.0314319
534	0.0555105
546	0.0539244
558	0.0455618
570	0.032297
582	0.0266739
594	0.0596918
606	0.0813192
618	0.101937
630	0.149229
642	0.228386
654	0.228242
666	0.15096
678	0.0904027
690	0.0605569
702	0.0585383
714	0.0493106
726	0.0540686
738	0.0519059
750	0.0389294
762	0.0273948
774	0.0263855
786	0.0279715
798	0.0382085
810	0.0422456
822	0.0961701
834	0.118951
846	0.133946
858	0.0837703
870	0.0504641
882	0.0774263
894	0.0987654
906	0.0912678
918	0.071659
930	0.0533477
942	0.0273948
954	0.020474
966	0.0164369
978	0.0207624
990	0.0258088
1002	0.0423898
1014	0.0648824
1026	0.102514
1038	0.173741
1050	0.185419
1062	0.1103
1074	0.0658916
1086	0.0826169
1098	0.10857
1110	0.122123
1122	0.187438
1134	0.281734
1146	0.465134
1158	0.435577
1170	0.286203
1182	0.130197
1194	0.116932
1206	0.202865
1218	0.34157
1230	0.629503
1242	0.762872
1254	0.444228
1266	0.223916
1278	0.223195
1290	0.253762
1302	0.243813
1314	0.221898
1326	0.305235
1338	0.338253
1350	0.237469
1362	0.118807
1374	0.0805983
1386	0.0983328
1398	0.124286
1410	0.0758403
1422	0.055943
1434	0.0805983
1446	0.0840587
1458	0.0807425
1470	0.0873749
1482	0.178066
1494	0.333639
1506	0.632531
1518	0.278706
1530	0.0856447
1542	0.0632963
1554	0.0566639
1566	0.0578174
1578	0.0697846
1590	0.0840587
1602	0.127169
1614	0.106695
1626	0.0707939
1638	0.0774263
1650	0.0464269
1662	0.032297
1674	0.0330179
1686	0.0426782
1698	0.0919888
1710	0.186861
1722	0.249581
1734	0.30884
1746	0.455762
1758	0.86481
1770	1.41487
1782	1.28669
1794	0.758979
1806	0.187582
1818	0.14303
1830	0.10064
1842	0.0433991
1854	0.0242227
1866	0.0197531
1878	0.0197531
1890	0.0164369
1902	0.0126881
1914	0.0113905
1926	0.0129765
1938	0.0151392
1950	0.0148508
1962	0.0113905
1974	0.00980444
1986	0.0076417
1998	0.00547895
2010	0.00461386
2022	0.00533477
2034	0.0103812
2046	0.0187438
2058	0.00836261
2070	0.00504641
2082	0.00446967
2094	0.00230693
2106	0.00158601
2118	0.00273948
2130	0.00288366
2142	0.00389294
2154	0.00562314
2166	0.0093719
2178	0.0152834
2190	0.020474
2202	0.0138416
2214	0.0123997
2226	0.00547895
2238	0.00230693
2250	0.00187438
2262	0.00302784
2274	0.00490222
2286	0.00475804
2298	0.00331621
2310	0.0017302
2322	0.00158601
2334	0.000432549
2346	0.000720915
2358	0.000576732
2370	0.00129765
2382	0.00490222
2394	0.00403712
2406	0.00490222
2418	0.00533477
2430	0.00547895
2442	0.00605569
2454	0.00706497
2466	0.00793007
2478	0.00720915
2490	0.00619987
2502	0.00446967
2514	0.00331621
2526	0.00360458
2538	0.00389294
2550	0.00331621
2562	0.00288366
2574	0.00259529
2586	0.00259529
2598	0.00259529
2610	0.00374876
2622	0.00403712
2634	0.00418131
2646	0.00432549
2658	0.00446967
2670	0.00461386
2682	0.00432549
2694	0.00273948
2706	0.00331621
2718	0.00432549
2730	0.00634405
2742	0.0076417
2754	0.00749752
2766	0.00865098
2778	0.00966026
2790	0.0105254
2802	0.0135532
2814	0.0162927
2826	0.0201856
2838	0.0258088
2850	0.0340272
2862	0.0487339
2874	0.0798774
2886	0.10857
2898	0.104244
2910	0.102226
2922	0.0919888
2934	0.0917004
2946	0.117798
2958	0.0996305
2970	0.106695
2982	0.136397
2994	0.143174
3006	0.0824727
3018	0.0932864
3030	0.124286
3042	0.0573848
3054	0.042534
3066	0.0327295
3078	0.0330179
3090	0.030711
3102	0.0276831
3114	0.0181671
3126	0.0116788
3138	0.00749752
3150	0.00504641
3162	0.00432549
3174	0.00187438
3186	0.00115346
3198	0.00216275
3210	0.00216275
3222	0.00288366
3234	0.00389294
3246	0.00490222
3258	0.00648824
3270	0.00504641
3282	0.00144183
3294	0.00245111
3306	0.00201856
3318	0.00245111
3330	0.00129765
3342	0.00201856
3354	0.00100928
3366	0.00129765
3378	0.00187438
3390	0.00201856
3402	0.00490222
3414	0.00807425
3426	0.0209065
3438	0.0589708
3450	0.112751
3462	0.104677
3474	0.0824727
3486	0.0246553
3498	0.00821843
3510	0.00793007
3522	0.00793007
3534	0.0111021
3546	0.0139858
3558	0.0157159
3570	0.014995
3582	0.0125439
3594	0.0093719
3606	0.00605569
3618	0.00533477
3630	0.00432549
3642	0.00562314
3654	0.00619987
3666	0.00360458
3678	0.00865098
3690	0.00619987
3702	0.00446967
3714	0.00461386
3726	0.00821843
3738	0.0100928
3750	0.00129765
3762	0.0059115
3774	0.00648824
3786	0.00446967
3798	0.00360458
3810	0.00288366
3822	0.00389294
3834	0.00259529
3846	0.00288366
3858	0.00490222
3870	0.00490222
3882	0.00519059
3894	0.00259529
3906	0.00619987
3918	0.00403712
3930	0.00720915
3942	0.00807425
3954	0.00634405
3966	0.00865098
