Infrared Spectrum: Succinimide, N-(p-chloroanilinomethyl)-,
Formula: C 11 H 11 Cl N 2 O 2
CAS: 38359-09-0
Origin: Sadtler Research Labs Under US-EPA Contract
1/CM	ABSORBANCE
450	0.00700362
462	0
474	0.00845264
486	0.0106866
498	0.0142487
510	0.0120752
522	0.0123167
534	0.0110488
546	0.0214939
558	0.0116526
570	0.00869414
582	0.017509
594	0.0262032
606	0.0409953
618	0.06744
630	0.111635
642	0.117673
654	0.0964808
666	0.0644816
678	0.0382784
690	0.0297654
702	0.0157581
714	0.0154563
726	0.00295842
738	0.00362256
750	0.0134638
762	0.00489046
774	0.00374331
786	0.0158789
798	0.0184147
810	0.0366482
822	0.0484216
834	0.044799
846	0.0378558
858	0.0167242
870	0.012196
882	0.0291616
894	0.0329049
906	0.0233051
918	0.0127393
930	0.00863377
942	0.0057961
954	0.0047697
966	0.00440745
978	0.00639986
990	0.00869414
1002	0.0150336
1014	0.0222787
1026	0.0101432
1038	0.0117733
1050	0.0124978
1062	0.0134035
1074	0.0144299
1086	0.0458254
1098	0.0756511
1110	0.0404519
1122	0.0582025
1134	0.107952
1146	0.183483
1158	0.168449
1170	0.0978695
1182	0.0400293
1194	0.0333879
1206	0.0376746
1218	0.0493876
1230	0.0429877
1242	0.0394255
1254	0.0394859
1266	0.0553044
1278	0.0777039
1290	0.0710626
1302	0.0582628
1314	0.0619458
1326	0.112843
1338	0.132163
1350	0.0905036
1362	0.0358633
1374	0.0196222
1386	0.0128601
1398	0.0135242
1410	0.0117129
1422	0.0130412
1434	0.0188977
1446	0.0172072
1458	0.0187769
1470	0.0219165
1482	0.0766171
1494	0.137114
1506	0.0736587
1518	0.0090564
1530	0.00760738
1542	0.00706399
1554	0.00410557
1566	0.00319993
1578	0.00561497
1590	0.00845264
1602	0.0134035
1614	0.0224599
1626	0.0438934
1638	0.0373727
1650	0.0227014
1662	0.0196222
1674	0.0203467
1686	0.0300672
1698	0.0616439
1710	0.109281
1722	0.115862
1734	0.129929
1746	0.193203
1758	0.359479
1770	0.588666
1782	0.537528
1794	0.321623
1806	0.0780662
1818	0.0562704
1830	0.0403915
1842	0.0162411
1854	0.00941866
1866	0.00766775
1878	0.00712437
1890	0.00609798
1902	0.0042867
1914	0.00362256
1926	0.00362256
1938	0.00392444
1950	0.00368294
1962	0.00259617
1974	0.0015094
1986	0.00156978
1998	0.000784888
2010	0.000966016
2022	6.0376e-05
2034	0.000483008
2046	0.00108677
2058	0.0027773
2070	0.00235466
2082	0.000422632
2094	0.000422632
2106	0.00030188
2118	0.000241504
2130	0.000241504
2142	0.000181128
2154	0.000845264
2166	0.00108677
2178	0.0015094
2190	0.00102639
2202	0.000966016
2214	0.00156978
2226	0.0015094
2238	0.00181128
2250	0.00181128
2262	0.00253579
2274	0.00338106
2286	0.00289805
2298	0.00259617
2310	0.00229429
2322	0.000784888
2334	0.000664136
2346	0.000664136
2358	0.00193203
2370	0.000483008
2382	0.00223391
2394	0.0015094
2406	0.00144902
2418	0.00169053
2430	0.00181128
2442	0.0015094
2454	0.0017509
2466	0.00217354
2478	0.00217354
2490	0.00144902
2502	0.00114714
2514	0.00060376
2526	0.00060376
2538	0.000845264
2550	0.00108677
2562	0.00144902
2574	0.000483008
2586	0.000966016
2598	0.000966016
2610	0.00138865
2622	0.00138865
2634	0.00144902
2646	0.00156978
2658	0.0017509
2670	0.0012679
2682	0.00120752
2694	0.000784888
2706	0.00030188
2718	0.000664136
2730	0.00108677
2742	0.00108677
2754	0.00114714
2766	0.00120752
2778	0.00108677
2790	0.00102639
2802	0.000966016
2814	0.00181128
2826	0.0030188
2838	0.00398482
2850	0.00440745
2862	0.00591685
2874	0.00700362
2886	0.00935828
2898	0.0077885
2910	0.00621873
2922	0.00658098
2934	0.00676211
2946	0.0106866
2958	0.0143091
2970	0.0138865
2982	0.00700362
2994	0.0105054
3006	0.00827151
3018	0.00917715
3030	0.0227618
3042	0.0188373
3054	0.00821114
3066	0.00712437
3078	0.00712437
3090	0.00845264
3102	0.00851302
3114	0.00507158
3126	0.0032603
3138	0.00265654
3150	0.00223391
3162	0.00169053
3174	0.00120752
3186	0.00163015
3198	0.000483008
3210	0.00102639
3222	0.00114714
3234	0.00211316
3246	0.00223391
3258	0.00205278
3270	0.00163015
3282	0.0012679
3294	0.00132827
3306	0.00060376
3318	0.00120752
3330	0.00144902
3342	0.000664136
3354	0.000784888
3366	0.00108677
3378	0.000966016
3390	0.00259617
3402	0.00410557
3414	0.00803001
3426	0.0115922
3438	0.0262032
3450	0.0470329
3462	0.044799
3474	0.0373124
3486	0.0132223
3498	0.00615835
3510	0.00513196
3522	0.00440745
3534	0.00470933
3546	0.00609798
3558	0.00501121
3570	0.00495083
3582	0.00549422
3594	0.00313955
3606	0.00120752
3618	0.00132827
3630	0.00156978
3642	0.000724512
3654	0.00102639
3666	0.00102639
3678	0.00229429
3690	0.00169053
3702	0.00259617
3714	0.00138865
3726	0.00241504
3738	0.00217354
3750	0.0012679
3762	0.00253579
3774	0.00169053
3786	0.00253579
3798	0.00253579
3810	0.00193203
3822	0.00440745
3834	0.00362256
3846	0.00374331
3858	0.00380369
3870	0.00422632
3882	0.00313955
3894	0.00356218
3906	0.00374331
3918	0.0032603
3930	0.00181128
3942	0.00247542
3954	0.00283767
3966	0.00338106
