Infrared Spectrum: Succinimide, N-(m-bromoanilinomethyl)-,
Formula: C 11 H 11 Br N 2 O 2
CAS: 38359-11-4
Origin: Sadtler Research Labs Under US-EPA Contract
1/CM	ABSORBANCE
450	0.0112275
462	0.0540032
474	0.0402704
486	0.0556734
498	0.0496421
510	0.0514979
522	0.0569724
534	0.0594777
546	0.0608696
558	0.0684783
570	0.0489926
582	0.0540032
594	0.0720971
606	0.0870361
618	0.108841
630	0.130832
642	0.186228
654	0.192073
666	0.187991
678	0.148277
690	0.0994698
702	0.0702413
714	0.0561373
726	0.0517763
738	0.0540032
750	0.069035
762	0.0881495
774	0.0817471
786	0.0794274
798	0.0715403
810	0.0498277
822	0.0643028
834	0.101418
846	0.0817471
858	0.0884279
870	0.0924178
882	0.0943664
894	0.0900981
906	0.070798
918	0.0554878
930	0.0476008
942	0.0442604
954	0.0450027
966	0.0416623
978	0.0468584
990	0.0620758
1002	0.0564157
1014	0.0420334
1026	0.0414767
1038	0.0441676
1050	0.0476935
1062	0.0653235
1074	0.0705196
1086	0.0569724
1098	0.0543744
1110	0.0551167
1122	0.110512
1134	0.188362
1146	0.29776
1158	0.267232
1170	0.171845
1182	0.0761798
1194	0.0761798
1206	0.0797058
1218	0.0895414
1230	0.0904693
1242	0.0858298
1254	0.0842524
1266	0.0842524
1278	0.100119
1290	0.123688
1302	0.11812
1314	0.128049
1326	0.202837
1338	0.224085
1350	0.161638
1362	0.0816543
1374	0.054096
1386	0.0468584
1398	0.0503844
1410	0.0495493
1422	0.0463017
1434	0.0626326
1446	0.067272
1458	0.0713547
1470	0.0865721
1482	0.118584
1494	0.0630037
1506	0.0478791
1518	0.0409199
1530	0.0401776
1542	0.0418478
1554	0.0507556
1566	0.0832317
1578	0.127585
1590	0.145772
1602	0.11877
1614	0.105779
1626	0.108192
1638	0.0740456
1650	0.0481575
1662	0.0431469
1674	0.0494565
1686	0.0636533
1698	0.1068
1710	0.16934
1722	0.185114
1734	0.207662
1746	0.309266
1758	0.563229
1770	0.900053
1782	0.815151
1794	0.493359
1806	0.134915
1818	0.105223
1830	0.0784995
1842	0.0443531
1854	0.0302492
1866	0.0258881
1878	0.025053
1890	0.0244035
1902	0.0252386
1914	0.0251458
1926	0.025053
1938	0.0236612
1950	0.0228261
1962	0.0211559
1974	0.0197641
1986	0.0185578
1998	0.0179083
2010	0.0172588
2022	0.0170732
2034	0.0170732
2046	0.0168876
2058	0.0170732
2070	0.0180011
2082	0.0162381
2094	0.0151246
2106	0.0143823
2118	0.0153102
2130	0.0147535
2142	0.014939
2154	0.0147535
2166	0.0154958
2178	0.0147535
2190	0.0145679
2202	0.0139183
2214	0.0144751
2226	0.0140111
2238	0.01364
2250	0.0138256
2262	0.0141967
2274	0.0142895
2286	0.0141967
2298	0.0139183
2310	0.0137328
2322	0.0126193
2334	0.0139183
2346	0.0147535
2358	0.0139183
2370	0.011877
2382	0.0134544
2394	0.0121554
2406	0.0113203
2418	0.0113203
2430	0.0107635
2442	0.0115986
2454	0.0113203
2466	0.0104852
2478	0.0116914
2490	0.0103924
2502	0.00955727
2514	0.00797985
2526	0.0084438
2538	0.00751591
2550	0.00779428
2562	0.0084438
2574	0.00779428
2586	0.0076087
2598	0.00714475
2610	0.00723754
2622	0.00770149
2634	0.00723754
2646	0.00705196
2658	0.00723754
2670	0.00797985
2682	0.00658802
2694	0.00547455
2706	0.00501061
2718	0.00519618
2730	0.00491782
2742	0.00612407
2754	0.00640244
2766	0.00566013
2778	0.00491782
2790	0.00649523
2802	0.00621686
2814	0.00723754
2826	0.00668081
2838	0.0084438
2850	0.00946448
2862	0.0109491
2874	0.0113203
2886	0.0147535
2898	0.01364
2910	0.0111347
2922	0.0108563
2934	0.0126193
2946	0.0190217
2958	0.0244963
2970	0.0218054
2982	0.0146607
2994	0.0168876
3006	0.0128977
3018	0.0173515
3030	0.0271872
3042	0.0203208
3054	0.0176299
3066	0.0211559
3078	0.0223621
3090	0.0165164
3102	0.011877
3114	0.00937169
3126	0.00807264
3138	0.00807264
3150	0.00788707
3162	0.00658802
3174	0.0051034
3186	0.00473224
3198	0.00556734
3210	0.00528897
3222	0.00575292
3234	0.00612407
3246	0.00705196
3258	0.00584571
3270	0.00603128
3282	0.00584571
3294	0.00603128
3306	0.00612407
3318	0.00668081
3330	0.0059385
3342	0.00733033
3354	0.00751591
3366	0.00547455
3378	0.00825822
3390	0.00937169
3402	0.0112275
3414	0.0168876
3426	0.0263521
3438	0.0455594
3450	0.0728394
3462	0.0694062
3474	0.0551167
3486	0.02329
3498	0.0141039
3510	0.0110419
3522	0.013176
3534	0.0106707
3546	0.011413
3558	0.0134544
3570	0.0120626
3582	0.0120626
3594	0.0092789
3606	0.00686639
3618	0.00797985
3630	0.0107635
3642	0.010114
3654	0.00668081
3666	0.00816543
3678	0.0107635
3690	0.00881495
3702	0.00965006
3714	0.0084438
3726	0.011877
3738	0.0109491
3750	0.00965006
3762	0.00538176
3774	0.00751591
3786	0.00835101
3798	0.00937169
3810	0.0106707
3822	0.00668081
3834	0.0107635
3846	0.0134544
3858	0.00630965
3870	0.00974284
3882	0.00491782
3894	0.0108563
3906	0.0140111
3918	0.0130832
3930	0.00937169
3942	0.0218054
3954	0.0084438
3966	0.0154958
