Infrared Spectrum: 2-Nitro-.alpha.,.alpha.,.alpha.-trifluorotoluene
Formula: C 7 H 4 F 3 N O 2
CAS: 384-22-5
Origin: Sadtler Research Labs Under US-EPA Contract
1/CM	ABSORBANCE
450	0
462	0.0296055
474	0.0278954
486	0.0158181
498	0.0179557
510	0.0241547
522	0.0244753
534	0.021162
546	0.0184901
558	0.021162
570	0.0188107
582	0.0206276
594	0.0381558
606	0.0343082
618	0.0165662
630	0.0158181
642	0.0601729
654	0.0430722
666	0.0164594
678	0.0347357
690	0.108589
702	0.0524776
714	0.053867
726	0.0400796
738	0.0294986
750	0.0866789
762	0.151234
774	0.169938
786	0.119384
798	0.0286436
810	0.0208414
822	0.0191313
834	0.0223377
846	0.0712883
858	0.125048
870	0.0276817
882	0.0174213
894	0.0146424
906	0.0160319
918	0.0172075
930	0.0148562
942	0.0156043
954	0.0242615
966	0.0181694
978	0.0144287
990	0.0153906
1002	0.017635
1014	0.0175282
1026	0.0484162
1038	0.196444
1050	0.253517
1062	0.176243
1074	0.0534395
1086	0.0558977
1098	0.0532257
1110	0.136805
1122	0.175602
1134	0.209376
1146	0.323202
1158	0.354304
1170	0.767071
1182	1.06879
1194	0.682529
1206	0.180519
1218	0.0845413
1230	0.0548289
1242	0.0465992
1254	0.0610279
1266	0.167373
1278	0.325553
1290	0.142577
1302	0.281306
1314	1.01246
1326	0.570734
1338	0.157112
1350	0.237699
1362	0.530334
1374	0.238554
1386	0.053867
1398	0.0390108
1410	0.0412553
1422	0.0330256
1434	0.0289642
1446	0.0728915
1458	0.0732121
1470	0.0355907
1482	0.0404003
1494	0.0484162
1506	0.0429654
1518	0.0700057
1530	0.0982218
1542	0.176992
1554	0.62941
1566	0.861231
1578	0.251059
1590	0.135843
1602	0.102176
1614	0.0836863
1626	0.0568596
1638	0.0328119
1650	0.0234065
1662	0.0234065
1674	0.0178488
1686	0.0151768
1698	0.01678
1710	0.0187038
1722	0.020307
1734	0.0160319
1746	0.0158181
1758	0.0163525
1770	0.0145355
1782	0.0145355
1794	0.0144287
1806	0.0162456
1818	0.0178488
1830	0.0224446
1842	0.0171006
1854	0.0172075
1866	0.0180626
1878	0.0160319
1890	0.0152837
1902	0.0154975
1914	0.0173144
1926	0.0181694
1938	0.0234065
1950	0.022124
1962	0.0195589
1974	0.0215896
1986	0.0175282
1998	0.0143218
2010	0.0142149
2022	0.0147493
2034	0.0145355
2046	0.0157112
2058	0.0153906
2070	0.0151768
2082	0.0160319
2094	0.0166731
2106	0.0153906
2118	0.0151768
2130	0.014108
2142	0.0147493
2154	0.0154975
2166	0.0154975
2178	0.015925
2190	0.0145355
2202	0.0143218
2214	0.0157112
2226	0.0162456
2238	0.0165662
2250	0.0153906
2262	0.0157112
2274	0.0152837
2286	0.01678
2298	0.0156043
2310	0.0154975
2322	0.0158181
2334	0.015925
2346	0.0165662
2358	0.0152837
2370	0.0151768
2382	0.0147493
2394	0.0157112
2406	0.017635
2418	0.01678
2430	0.0156043
2442	0.0154975
2454	0.0151768
2466	0.0147493
2478	0.0149631
2490	0.0158181
2502	0.0153906
2514	0.0136805
2526	0.0135736
2538	0.0127186
2550	0.014108
2562	0.0147493
2574	0.0137874
2586	0.0142149
2598	0.0152837
2610	0.0147493
2622	0.0165662
2634	0.0153906
2646	0.0150699
2658	0.0157112
2670	0.0150699
2682	0.0153906
2694	0.0164594
2706	0.0190245
2718	0.0195589
2730	0.0174213
2742	0.0156043
2754	0.0152837
2766	0.0153906
2778	0.0147493
2790	0.0152837
2802	0.0154975
2814	0.0148562
2826	0.0150699
2838	0.0153906
2850	0.0157112
2862	0.0168869
2874	0.0182763
2886	0.0192382
2898	0.0234065
2910	0.0305674
2922	0.0278954
2934	0.0207345
2946	0.0182763
2958	0.0171006
2970	0.0160319
2982	0.015925
2994	0.0148562
3006	0.0158181
3018	0.0169938
3030	0.0169938
3042	0.0174213
3054	0.0185969
3066	0.0206276
3078	0.0325981
3090	0.0382627
3102	0.0301399
3114	0.0195589
3126	0.0146424
3138	0.0145355
3150	0.0147493
3162	0.0143218
3174	0.0146424
3186	0.0147493
3198	0.0144287
3210	0.0147493
3222	0.014108
3234	0.0144287
3246	0.0144287
3258	0.0138943
3270	0.0136805
3282	0.0143218
3294	0.0146424
3306	0.0143218
3318	0.0142149
3330	0.0143218
3342	0.0143218
3354	0.0147493
3366	0.0147493
3378	0.0145355
3390	0.0145355
3402	0.0147493
3414	0.0149631
3426	0.014108
3438	0.0142149
3450	0.014108
3462	0.0144287
3474	0.0143218
3486	0.014108
3498	0.0147493
3510	0.014108
3522	0.0150699
3534	0.0137874
3546	0.0142149
3558	0.0142149
3570	0.0140011
3582	0.0146424
3594	0.0144287
3606	0.014108
3618	0.0133599
3630	0.0149631
3642	0.0136805
3654	0.0142149
3666	0.0142149
3678	0.0130392
3690	0.0152837
3702	0.014108
3714	0.0153906
3726	0.0135736
3738	0.0127186
3750	0.0149631
3762	0.0140011
3774	0.0142149
3786	0.0145355
3798	0.0148562
3810	0.0127186
3822	0.0157112
3834	0.0152837
3846	0.0148562
3858	0.0142149
3870	0.0154975
3882	0.0144287
3894	0.0127186
3906	0.0149631
3918	0.0142149
3930	0.0126117
3942	0.013253
3954	0.0126117
3966	0.0144287
