Infrared Spectrum: 2-(o-Tolyloxy)-aniline
Formula: C 13 H 13 N O
CAS: 3840-18-4
Origin: Sadtler Research Labs Under US-EPA Contract
1/CM	ABSORBANCE
450	0.0469695
462	0.01802
474	0.0121037
486	0.0294463
498	0.0209556
510	0.0292656
522	0.0120134
534	0.0273688
546	0.0175232
558	0.0177942
570	0.0192394
582	0.0113811
594	0.0328787
606	0.00614217
618	0.0199169
630	0.0261945
642	0.0274591
654	0.0250203
666	0.0273236
678	0.0348207
690	0.0317948
702	0.0429952
714	0.0406919
726	0.0666154
738	0.192485
750	0.123114
762	0.0638605
774	0.0592539
786	0.05126
798	0.0443049
810	0.0233944
822	0.0232589
834	0.0175232
846	0.021046
858	0.0192394
870	0.0198717
882	0.0572667
894	0.0340529
906	0.0116972
918	0.0158974
930	0.0148586
942	0.00749706
954	0.0104778
966	0.00808418
978	0.00907776
990	0.0138199
1002	0.00862613
1014	0.0123295
1026	0.0213621
1038	0.0298076
1050	0.0248397
1062	0.01662
1074	0.012736
1086	0.0130069
1098	0.0186072
1110	0.0533375
1122	0.0498148
1134	0.0466082
1146	0.0470147
1158	0.0359949
1170	0.0295818
1182	0.0788998
1194	0.222247
1206	0.215789
1218	0.199711
1230	0.45163
1242	0.161774
1254	0.0663896
1266	0.106269
1278	0.10523
1290	0.06788
1302	0.0697768
1314	0.0422274
1326	0.0387499
1338	0.020504
1350	0.0107036
1362	0.00862613
1374	0.00835515
1386	0.0149038
1398	0.0116521
1410	0.00957456
1422	0.011923
1434	0.0232138
1446	0.052931
1458	0.0777707
1470	0.063183
1482	0.131108
1494	0.346084
1506	0.279288
1518	0.106675
1530	0.0251106
1542	0.0158522
1554	0.0170265
1566	0.0270978
1578	0.072306
1590	0.10681
1602	0.0666154
1614	0.0990876
1626	0.133953
1638	0.0544666
1650	0.0191491
1662	0.0131424
1674	0.00980037
1686	0.00826483
1698	0.00623249
1710	0.00546472
1722	0.00496793
1734	0.00496793
1746	0.00550989
1758	0.00532923
1770	0.0065938
1782	0.00587119
1794	0.00456146
1806	0.00379369
1818	0.00392918
1830	0.00284527
1842	0.00325174
1854	0.00343239
1866	0.00546472
1878	0.00555505
1890	0.00600668
1902	0.00713575
1914	0.00677445
1926	0.00560021
1938	0.006097
1950	0.00361304
1962	0.00302592
1974	0.00280011
1986	0.00361304
1998	0.00280011
2010	0.00284527
2022	0.00266462
2034	0.0024388
2046	0.00270978
2058	0.0032969
2070	0.00311625
2082	0.00234848
2094	0.00180652
2106	0.00162587
2118	0.00130973
2130	0.00103875
2142	0.000541956
2154	0.000541956
2166	0.00090326
2178	0.00045163
2190	0.000587119
2202	0.000722608
2214	0.000812934
2226	0.000812934
2238	0.000587119
2250	0.000225815
2262	0.000541956
2274	0.00112908
2286	0.00176136
2298	0.00221299
2310	0.00234848
2322	0.00135489
2334	4.5163e-05
2346	4.5163e-05
2358	0.000225815
2370	4.5163e-05
2382	0.00230331
2394	0.00252913
2406	0.00397434
2418	0.00334206
2430	0.00275494
2442	0.00284527
2454	0.0032969
2466	0.00316141
2478	0.00311625
2490	0.0024388
2502	0.00162587
2514	0.00162587
2526	0.00167103
2538	0.00171619
2550	0.0015807
2562	0.00194201
2574	0.00225815
2586	0.00198717
2598	0.00153554
2610	0.00239364
2622	0.00257429
2634	0.00203234
2646	0.0012194
2658	0.00189685
2670	0.00153554
2682	0.00140005
2694	0.00112908
2706	0.00112908
2718	0.00130973
2730	0.00167103
2742	0.00194201
2754	0.00252913
2766	0.00135489
2778	0.00144522
2790	0.00162587
2802	0.00180652
2814	0.00180652
2826	0.00248396
2838	0.00343239
2850	0.00541956
2862	0.00943907
2874	0.0122843
2886	0.0118327
2898	0.0112908
2910	0.0121488
2922	0.0172974
2934	0.0256526
2946	0.0227622
2958	0.01662
2970	0.0154909
2982	0.0167555
2994	0.013865
3006	0.00934874
3018	0.0177491
3030	0.0485502
3042	0.0602474
3054	0.0466534
3066	0.0539698
3078	0.0657573
3090	0.0446662
3102	0.0179297
3114	0.00844548
3126	0.00374853
3138	0.00248396
3150	0.0020775
3162	0.00257429
3174	0.00284527
3186	0.00298076
3198	0.00289043
3210	0.00307108
3222	0.00225815
3234	0.00234848
3246	0.00162587
3258	0.00189685
3270	0.00185168
3282	0.00135489
3294	0.00103875
3306	0.00144522
3318	0.00144522
3330	0.00167103
3342	0.00176136
3354	0.00234848
3366	0.00239364
3378	0.00284527
3390	0.00564538
3402	0.0154457
3414	0.0279107
3426	0.00957456
3438	0.00401951
3450	0.00392918
3462	0.0048776
3474	0.00731641
3486	0.0139102
3498	0.030214
3510	0.0283624
3522	0.00799385
3534	0.00307108
3546	0.00180652
3558	0.000993586
3570	0.00162587
3582	0.00090326
3594	0.00275494
3606	0.00162587
3618	0.000993586
3630	0.00167103
3642	0.00171619
3654	0.00203234
3666	0.0015807
3678	0.00230331
3690	0.00171619
3702	0.00252913
3714	0.00212266
3726	0.00212266
3738	0.00230331
3750	0.00307108
3762	0.00153554
3774	0.0032969
3786	0.00135489
3798	0.00343239
3810	4.5163e-05
3822	0.00383885
3834	0.00185168
3846	0.00334206
3858	0.00221299
3870	0.00347755
3882	0.00140005
3894	0.00130973
3906	0.00401951
3918	0.00234848
3930	0.0024388
3942	0.00203234
3954	0.00505826
3966	0.00252913
