Infrared Spectrum: 2,4-Pentadienoic acid, 5-phenyl-,
Formula: C 11 H 10 O 2
CAS: 38446-98-9
Origin: Sadtler Research Labs Under US-EPA Contract
1/CM	ABSORBANCE
450	0.0074106
462	0.0157846
474	0.0472796
486	0.0352745
498	0.03357
510	0.0360155
522	0.0369789
534	0.034978
546	0.0533563
558	0.07129
570	0.0644722
582	0.045427
594	0.0249737
606	0.0197863
618	0.0564688
630	0.039869
642	0.0399431
654	0.046168
666	0.0520224
678	0.0475761
690	0.0884085
702	0.0941887
714	0.0991538
726	0.0633606
738	0.0437966
750	0.0581732
762	0.0246032
774	0.0128203
786	0.0113382
798	0.011857
810	0.0131168
822	0.0223059
834	0.039128
846	0.0337923
858	0.0227505
870	0.0315692
882	0.0372012
894	0.0309022
906	0.0334959
918	0.0316433
930	0.032162
942	0.0386833
954	0.0400913
966	0.0440931
978	0.0719569
990	0.140283
1002	0.12183
1014	0.045427
1026	0.0372753
1038	0.0299388
1050	0.0327549
1062	0.0438708
1074	0.0607669
1086	0.124202
1098	0.480874
1110	0.46835
1122	0.199419
1134	0.178225
1146	0.196826
1158	0.263447
1170	0.162737
1182	0.0733649
1194	0.0558759
1206	0.0929289
1218	0.0742542
1230	0.0751435
1242	0.090854
1254	0.112789
1266	0.0919655
1278	0.0800345
1290	0.0706971
1302	0.0623973
1314	0.0479466
1326	0.0537268
1338	0.0644722
1350	0.134132
1362	0.211869
1374	0.097153
1386	0.0444636
1398	0.0346075
1410	0.0291237
1422	0.0185265
1434	0.0114864
1446	0.0199345
1458	0.00948557
1470	0.00385351
1482	0.00459457
1494	0.0140801
1506	0.00726239
1518	0.00585437
1530	0.00933736
1542	0.0098561
1554	0.014673
1566	0.0196381
1578	0.0274192
1590	0.0397208
1602	0.0711418
1614	0.148657
1626	0.276119
1638	0.285975
1650	0.0400172
1662	0.0338664
1674	0.0456493
1686	0.0649169
1698	0.0730685
1710	0.0821836
1722	0.0958191
1734	0.151176
1746	0.489767
1758	0.610782
1770	0.194528
1782	0.0910022
1794	0.0641017
1806	0.030087
1818	0.0175631
1830	0.00704007
1842	0.004891
1854	0.0061508
1866	0.0102266
1878	0.0104489
1890	0.00763292
1902	0.00311245
1914	0.00155623
1926	0.00229729
1938	0.00363119
1950	0.00422404
1962	0.00363119
1974	0.000296424
1986	0.00037053
1998	0.00037053
2010	0.000592848
2022	0.00163033
2034	0.00363119
2046	0.00296424
2058	0.00177854
2070	0.00133391
2082	0.00163033
2094	0.00170444
2106	0.0011857
2118	0.00170444
2130	0.00140801
2142	0.00192676
2154	0.00185265
2166	0.00214907
2178	0.00274192
2190	0.00355709
2202	0.00392762
2214	0.0037053
2226	0.00444636
2238	0.004891
2250	0.00526153
2262	0.00518742
2274	0.00600259
2286	0.00778113
2298	0.0109677
2310	0.0137837
2322	0.012598
2334	0.00911504
2346	0.0114864
2358	0.0109677
2370	0.00881861
2382	0.0112641
2394	0.00770702
2406	0.00778113
2418	0.00815166
2430	0.00844808
2442	0.00904093
2454	0.00933736
2466	0.0099302
2478	0.00978199
2490	0.0099302
2502	0.0104489
2514	0.0109677
2526	0.0105972
2538	0.01119
2550	0.0113382
2562	0.011857
2574	0.0115605
2586	0.0115605
2598	0.0112641
2610	0.0114123
2622	0.0116346
2634	0.0115605
2646	0.0117829
2658	0.0114864
2670	0.0115605
2682	0.0121534
2694	0.012598
2706	0.0126721
2718	0.0133391
2730	0.0148212
2742	0.0141542
2754	0.0136355
2766	0.0139319
2778	0.0149694
2790	0.0157105
2802	0.016081
2814	0.0161551
2826	0.0159328
2838	0.016081
2850	0.0162292
2862	0.0170444
2874	0.017489
2886	0.0185265
2898	0.0193417
2910	0.0193417
2922	0.0196381
2934	0.019564
2946	0.0199345
2958	0.0207497
2970	0.0220836
2982	0.0231211
2994	0.0261594
3006	0.0337182
3018	0.0452788
3030	0.0807014
3042	0.0802568
3054	0.0532822
3066	0.0765515
3078	0.0791452
3090	0.0547643
3102	0.0414253
3114	0.0288272
3126	0.0220095
3138	0.0193417
3150	0.0200086
3162	0.0190452
3174	0.0185265
3186	0.0180078
3198	0.0179337
3210	0.0175631
3222	0.0171926
3234	0.0165997
3246	0.0162292
3258	0.0159328
3270	0.0153399
3282	0.0154882
3294	0.0144507
3306	0.0143025
3318	0.0136355
3330	0.0129685
3342	0.0134873
3354	0.0129685
3366	0.0133391
3378	0.0122275
3390	0.0124498
3402	0.0105972
3414	0.0101525
3426	0.00970789
3438	0.00948557
3450	0.00970789
3462	0.00978199
3474	0.0104489
3486	0.0111159
3498	0.0120793
3510	0.00896683
3522	0.00889272
3534	0.00970789
3546	0.00704007
3558	0.00881861
3570	0.0202309
3582	0.256851
3594	0.101006
3606	0.00978199
3618	0.00578027
3630	0.00704007
3642	0.00896683
3654	0.00607669
3666	0.00585437
3678	0.00429815
3690	0.00466868
3702	0.00444636
3714	0.00355709
3726	0.00429815
3738	0.00348298
3750	0.00363119
3762	0.0049651
3774	0.00392762
3786	0.00474278
3798	0.00526153
3810	0.00444636
3822	0.004891
3834	0.00452047
3846	0.00511331
3858	0.00503921
3870	0.00392762
3882	0.00385351
3894	0.00637312
3906	0.00592848
3918	0.00563206
3930	0.00629901
3942	0.0062249
3954	0.00578027
3966	0.00503921
