Infrared Spectrum: 2-Butanone, 3-amino-3-methyl-, oxime
Formula: C 5 H 12 N 2 O
CAS: 38870-72-3
Origin: Sadtler Research Labs Under US-EPA Contract
1/CM	ABSORBANCE
450	0.0179127
462	0.0276547
474	0.0123459
486	0.0146803
498	0.0074973
510	0.00197534
522	0.00255896
534	0.00493834
546	0.00493834
558	0.0213247
570	0.0536034
582	0.0611456
594	0.0344337
606	0.0214144
618	0.0204268
630	0.0193493
642	0.0154884
654	0.0196636
666	0.0252304
678	0.0306177
690	0.0409433
702	0.047004
714	0.0594397
726	0.100967
738	0.146175
750	0.138184
762	0.125748
774	0.154121
786	0.164267
798	0.14806
810	0.117263
822	0.0834579
834	0.0766341
846	0.0997994
858	0.152909
870	0.170777
882	0.119598
894	0.121842
906	0.279779
918	0.445663
930	0.369657
942	0.147791
954	0.106893
966	0.131988
978	0.114659
990	0.128487
1002	0.114076
1014	0.0914042
1026	0.0492038
1038	0.0228062
1050	0.0145008
1062	0.0100114
1074	0.0145906
1086	0.0190351
1098	0.011852
1110	0.0193044
1122	0.0567011
1134	0.117263
1146	0.159823
1158	0.118296
1170	0.0718304
1182	0.0583622
1194	0.0677002
1206	0.0539626
1218	0.0326828
1230	0.020337
1242	0.0132437
1254	0.00722793
1266	0.00354663
1278	0.00336705
1290	0.0142314
1302	0.0386986
1314	0.0615048
1326	0.114435
1338	0.249431
1350	0.295851
1362	0.229678
1374	0.20126
1386	0.13751
1398	0.0625822
1410	0.0354214
1422	0.034299
1434	0.0432329
1446	0.0603375
1458	0.0771728
1470	0.0712917
1482	0.0434574
1494	0.0196187
1506	0.0136029
1518	0.0117173
1530	0.00852986
1542	0.0118071
1554	0.0104154
1566	0.0141416
1578	0.0240632
1590	0.0395965
1602	0.0575092
1614	0.0708427
1626	0.0673859
1638	0.0472285
1650	0.0299892
1662	0.0183168
1674	0.00844007
1686	0.00511792
1698	0.00327726
1710	0.00233449
1722	0.00511792
1734	0.00529749
1746	0.00237938
1758	0.00228959
1770	0.00161618
1782	0.00237938
1794	0.00130193
1806	0.00314258
1818	0.00269364
1830	0.00215491
1842	0.00260385
1854	0.00067341
1866	0.000269364
1878	0.000628516
1890	0.00103256
1902	0.000808092
1914	0.00112235
1926	0.0014815
1938	0.00170597
1950	0.00193044
1962	0.00242428
1974	0.00314258
1986	0.00318747
1998	0.00381599
2010	0.00390578
2022	0.00336705
2034	0.0037711
2046	0.00354663
2058	0.00350173
2070	0.00363641
2082	0.0037262
2094	0.00323237
2106	0.00332216
2118	0.00305279
2130	0.00228959
2142	0.00197534
2154	0.00121214
2166	0.00139171
2178	0.0014815
2190	0.00121214
2202	0.0015264
2214	0.00166108
2226	0.00175087
2238	0.00206512
2250	0.00143661
2262	0.000404046
2274	0.000404046
2286	0.00103256
2298	0.00219981
2310	0.00305279
2322	0.00269364
2334	0.00215491
2346	0.00309769
2358	0.00215491
2370	0.00228959
2382	0.00291811
2394	0.00139171
2406	0.000987668
2418	0.000987668
2430	0.000718304
2442	0.00139171
2454	0.00170597
2466	0.00206512
2478	0.00237938
2490	0.00242428
2502	0.00255896
2514	0.00255896
2526	0.00255896
2538	0.00273853
2550	0.00260385
2562	0.00314258
2574	0.00390578
2586	0.00462408
2598	0.00493834
2610	0.00489345
2622	0.0052077
2634	0.00574643
2646	0.00659942
2658	0.00709325
2670	0.00731772
2682	0.0060158
2694	0.00462408
2706	0.00399557
2718	0.00480366
2730	0.00561175
2742	0.00507302
2754	0.00511792
2766	0.00471387
2778	0.00471387
2790	0.00570154
2802	0.00808092
2814	0.0096971
2826	0.0120316
2838	0.0147701
2850	0.0234347
2862	0.0437717
2874	0.0743894
2886	0.0881718
2898	0.0882616
2910	0.100338
2922	0.136253
2934	0.19282
2946	0.208129
2958	0.197309
2970	0.321845
2982	0.422991
2994	0.287187
3006	0.1209
3018	0.0519424
3030	0.0318747
3042	0.0247815
3054	0.0208308
3066	0.017778
3078	0.0172842
3090	0.0184963
3102	0.0175536
3114	0.0126152
3126	0.00812581
3138	0.00704836
3150	0.00655452
3162	0.00610558
3174	0.00574643
3186	0.00579133
3198	0.00610558
3210	0.00610558
3222	0.00579133
3234	0.00561175
3246	0.00534239
3258	0.00668921
3270	0.00740751
3282	0.00659942
3294	0.00498323
3306	0.00556686
3318	0.00619537
3330	0.0101909
3342	0.00929306
3354	0.00579133
3366	0.00430982
3378	0.00332216
3390	0.00386088
3402	0.0044894
3414	0.00462408
3426	0.00386088
3438	0.00314258
3450	0.00309769
3462	0.00233449
3474	0.00184065
3486	0.00116724
3498	0.000493834
3510	0.00125703
3522	0.00139171
3534	0.00125703
3546	0.00184065
3558	0.000852986
3570	0.002963
3582	0.00332216
3594	0.00736262
3606	0.00938285
3618	0.0257243
3630	0.130776
3642	0.40885
3654	0.380073
3666	0.0781156
3678	0.0133335
3690	0.00610558
3702	0.00435472
3714	0.00219981
3726	0.000808092
3738	0.000314258
3750	0.000493834
3762	0.00022447
3774	0.00022447
3786	0.00022447
3798	0.00044894
3810	0.00022447
3822	0.00022447
3834	0.00022447
3846	0.00022447
3858	0.00044894
3870	0.00139171
3882	0.000179576
3894	0.00022447
3906	0.00022447
3918	0.000269364
3930	0.00022447
3942	0.00022447
3954	0.000269364
3966	0.000179576
