Infrared Spectrum: 1H-Isoindole-1,3(2H)-dione, 2-(2-hydroxyethyl)-
Formula: C 10 H 9 N O 3
CAS: 3891-07-4
Origin: Sadtler Research Labs Under US-EPA Contract
1/CM	ABSORBANCE
450	0
462	0.0254849
474	0.0150445
486	0.0214644
498	0.0256146
510	0.0361846
522	0.062707
534	0.0496728
546	0.0324883
558	0.0321641
570	0.0241231
582	0.030932
594	0.0184814
606	0.03813
618	0.0335907
630	0.0320344
642	0.0169899
654	0.0158875
666	0.0316453
678	0.0201026
690	0.0417615
702	0.0743795
714	0.25433
726	0.178978
738	0.0221128
750	0.0178978
762	0.017379
774	0.0256146
786	0.0331368
798	0.0320344
810	0.0181572
822	0.0201026
834	0.0276248
846	0.0324235
858	0.0226316
870	0.0517479
882	0.0395567
894	0.0445499
906	0.0398809
918	0.0287921
930	0.0282084
942	0.0299593
954	0.0354065
966	0.0421506
978	0.0539527
990	0.0948712
1002	0.121134
1014	0.178978
1026	0.148954
1038	0.130148
1050	0.138837
1062	0.126127
1074	0.110888
1086	0.0766492
1098	0.0488298
1110	0.0545363
1122	0.05084
1134	0.0456523
1146	0.0387137
1158	0.0422154
1170	0.0564169
1182	0.0638094
1194	0.0562872
1206	0.0413724
1218	0.0400106
1230	0.046625
1242	0.0503861
1254	0.0470789
1266	0.0442905
1278	0.0460414
1290	0.0595944
1302	0.0862465
1314	0.104533
1326	0.111796
1338	0.115752
1350	0.172039
1362	0.260426
1374	0.218534
1386	0.406202
1398	0.36042
1410	0.151029
1422	0.103885
1434	0.135919
1446	0.0948063
1458	0.0554442
1470	0.0794376
1482	0.0315805
1494	0.0198432
1506	0.0183517
1518	0.021205
1530	0.0219831
1542	0.022891
1554	0.0233449
1566	0.0236043
1578	0.0272357
1590	0.0373519
1602	0.0422802
1614	0.0510994
1626	0.0361198
1638	0.0337853
1650	0.0392973
1662	0.0523964
1674	0.0772328
1686	0.138254
1698	0.273525
1710	0.41113
1722	0.485185
1734	0.64847
1746	0.368266
1758	0.109721
1770	0.14396
1782	0.133261
1794	0.0781406
1806	0.0230207
1818	0.0142015
1830	0.0114131
1842	0.0141366
1854	0.0108294
1866	0.00985674
1878	0.0103755
1890	0.00946766
1902	0.00959736
1914	0.0106349
1926	0.00953251
1938	0.0105052
1950	0.00998644
1962	0.0086895
1974	0.0097919
1986	0.00836526
1998	0.0075871
2010	0.00739256
2022	0.00687378
2034	0.00687378
2046	0.00765195
2058	0.00810588
2070	0.00810588
2082	0.00778164
2094	0.00797618
2106	0.0074574
2118	0.00706832
2130	0.00713317
2142	0.00732771
2154	0.00739256
2166	0.00713317
2178	0.00726286
2190	0.00719802
2202	0.00719802
2214	0.00732771
2226	0.00719802
2238	0.00797618
2250	0.00823557
2262	0.00817072
2274	0.00791133
2286	0.00719802
2298	0.00791133
2310	0.00836526
2322	0.00830042
2334	0.00804103
2346	0.00784649
2358	0.00778164
2370	0.00875435
2382	0.00843011
2394	0.00823557
2406	0.00881919
2418	0.00901373
2430	0.00862465
2442	0.0086895
2454	0.00888404
2466	0.0086895
2478	0.00875435
2490	0.00836526
2502	0.00784649
2514	0.00765195
2526	0.00726286
2538	0.00693863
2550	0.00700348
2562	0.00667924
2574	0.00629016
2586	0.00635501
2598	0.00661439
2610	0.00687378
2622	0.0075871
2634	0.00862465
2646	0.00804103
2658	0.00804103
2670	0.00810588
2682	0.00862465
2694	0.00985674
2706	0.00972705
2718	0.00810588
2730	0.00830042
2742	0.00914343
2754	0.00933797
2766	0.00998644
2778	0.0110888
2790	0.0119967
2802	0.0116076
2814	0.01271
2826	0.0138124
2838	0.0142663
2850	0.0176384
2862	0.0234746
2874	0.0332665
2886	0.0442905
2898	0.0421506
2910	0.0336556
2922	0.0359901
2934	0.0520073
2946	0.0699699
2958	0.0517479
2970	0.030932
2982	0.0237988
2994	0.0177032
3006	0.0122561
3018	0.0119967
3030	0.0138773
3042	0.015693
3054	0.0188056
3066	0.0243825
3078	0.0226316
3090	0.0266521
3102	0.0174438
3114	0.0117373
3126	0.0100513
3138	0.00998644
3150	0.010181
3162	0.00959736
3174	0.0101161
3186	0.011024
3198	0.0110888
3210	0.0126452
3222	0.0126452
3234	0.0131639
3246	0.0134233
3258	0.0134882
3270	0.0141366
3282	0.0150445
3294	0.0154336
3306	0.0164711
3318	0.0178329
3330	0.0173141
3342	0.0198432
3354	0.020362
3366	0.0215941
3378	0.0245122
3390	0.0247067
3402	0.027106
3414	0.0298296
3426	0.032229
3438	0.0354065
3450	0.0390379
3462	0.0433826
3474	0.045782
3486	0.0467547
3498	0.05084
3510	0.0514885
3522	0.0528503
3534	0.055509
3546	0.0611507
3558	0.0627719
3570	0.0556387
3582	0.0424748
3594	0.0331368
3606	0.0258091
3618	0.0210753
3630	0.0160821
3642	0.0120615
3654	0.0096622
3666	0.0134882
3678	0.01271
3690	0.0085598
3702	0.0075871
3714	0.00531745
3726	0.00641985
3738	0.0053823
3750	0.00531745
3762	0.00590108
3774	0.00544715
3786	0.00687378
3798	0.00609562
3810	0.00531745
3822	0.00531745
3834	0.00531745
3846	0.00525261
3858	0.0053823
3870	0.00531745
3882	0.00531745
3894	0.00583623
3906	0.00531745
3918	0.00557684
3930	0.00531745
3942	0.00590108
3954	0.00797618
3966	0.00635501
