Infrared Spectrum: Butanoic acid, 2,2-dimethyl-3-oxo-, methyl ester
Formula: C 7 H 12 O 3
CAS: 38923-57-8
Origin: Sadtler Research Labs Under US-EPA Contract
1/CM	ABSORBANCE
450	0.0240358
462	0.0228157
474	0.0235477
486	0.0254999
498	0.0229377
510	0.0174473
522	0.0142751
534	0.0145191
546	0.0117129
558	0.0106148
570	0.013543
582	0.0181793
594	0.0284281
606	0.0298922
618	0.0301362
630	0.0262319
642	0.00915068
654	0.00305023
666	0.00109808
678	0.00158612
690	0.000854063
702	0.00109808
714	0.000854063
726	0.00109808
738	0.00158612
750	0.00256219
762	0.00976072
774	0.0175693
786	0.0119569
798	0.00610045
810	0.00597844
822	0.013787
834	0.0489256
846	0.0868704
858	0.0420931
870	0.00890666
882	0.00512438
894	0.0095167
906	0.013787
918	0.0111028
930	0.0104928
942	0.0207415
954	0.0492916
966	0.0732054
978	0.0691791
990	0.0695451
1002	0.0551481
1014	0.0591744
1026	0.0586863
1038	0.0442893
1050	0.0335525
1062	0.0311123
1074	0.0358706
1086	0.054172
1098	0.126767
1110	0.422395
1122	0.665559
1134	0.439476
1146	0.621758
1158	0.859797
1170	0.472663
1182	0.266834
1194	0.283061
1206	0.237063
1218	0.194604
1230	0.237674
1242	0.311367
1254	0.467783
1266	0.636399
1278	0.483644
1290	0.205463
1302	0.0867484
1314	0.0508778
1326	0.0450213
1338	0.0599064
1350	0.133844
1362	0.223887
1374	0.171911
1386	0.143361
1398	0.119203
1410	0.0553921
1422	0.0625906
1434	0.14214
1446	0.190212
1458	0.177157
1470	0.217908
1482	0.149949
1494	0.0525859
1506	0.0334305
1518	0.0261099
1530	0.0226937
1542	0.0237918
1554	0.0203755
1566	0.0168372
1578	0.0167152
1590	0.0148851
1602	0.013421
1614	0.013787
1626	0.0145191
1638	0.013909
1650	0.0169593
1662	0.0193994
1674	0.0302582
1686	0.0524639
1698	0.0929709
1710	0.227181
1722	0.774757
1734	1.22009
1746	0.84357
1758	0.707042
1770	0.439354
1782	0.152389
1794	0.067837
1806	0.0366027
1818	0.0184234
1830	0.0114688
1842	0.00841862
1854	0.00585643
1866	0.0053684
1878	0.00390429
1890	0.00292822
1902	0.00231817
1914	0.00256219
1926	0.00292822
1938	0.00366027
1950	0.00475835
1962	0.00780858
1974	0.00963871
1986	0.00902867
1998	0.00793059
2010	0.00597844
2022	0.00414831
2034	0.00378228
2046	0.00329424
2058	0.00280621
2070	0.00341625
2082	0.00378228
2094	0.00512438
2106	0.00597844
2118	0.00451433
2130	0.00305023
2142	0.00292822
2154	0.00219616
2166	0.00195214
2178	0.00146411
2190	0.000488036
2202	0
2214	0.000366027
2226	0.000366027
2238	0.000610045
2250	0.000610045
2262	0.000732054
2274	0.00183014
2286	0.00195214
2298	0.00244018
2310	0.00353826
2322	0.00280621
2334	0.0026842
2346	0.00439232
2358	0.00207415
2370	0.00305023
2382	0.00292822
2394	0.00183014
2406	0.00170813
2418	0.00183014
2430	0.00170813
2442	0.00146411
2454	0.00183014
2466	0.00231817
2478	0.0026842
2490	0.00195214
2502	0.00183014
2514	0.00170813
2526	0.00158612
2538	0.00122009
2550	0.0013421
2562	0.00146411
2574	0.00170813
2586	0.00195214
2598	0.00292822
2610	0.00317223
2622	0.00207415
2634	0.00183014
2646	0.00195214
2658	0.00219616
2670	0.00231817
2682	0.00183014
2694	0.00195214
2706	0.00207415
2718	0.00183014
2730	0.00256219
2742	0.00317223
2754	0.00280621
2766	0.00292822
2778	0.00366027
2790	0.00341625
2802	0.00451433
2814	0.00658849
2826	0.00976072
2838	0.0202535
2850	0.0418491
2862	0.0326984
2874	0.040751
2886	0.0655188
2898	0.067227
2910	0.0733274
2922	0.0888226
2934	0.121033
2946	0.19558
2958	0.288185
2970	0.226571
2982	0.198387
2994	0.32308
3006	0.234623
3018	0.112126
3030	0.0727174
3042	0.0527079
3054	0.0325764
3066	0.0234257
3078	0.0190334
3090	0.0175693
3102	0.0159832
3114	0.013543
3126	0.0113468
3138	0.00902867
3150	0.00695451
3162	0.00634447
3174	0.00610045
3186	0.00610045
3198	0.00597844
3210	0.00488036
3222	0.00463634
3234	0.0040263
3246	0.00317223
3258	0.00231817
3270	0.00219616
3282	0.00231817
3294	0.00219616
3306	0.00231817
3318	0.00244018
3330	0.00256219
3342	0.00231817
3354	0.0026842
3366	0.00231817
3378	0.00231817
3390	0.00256219
3402	0.00305023
3414	0.00305023
3426	0.00585643
3438	0.0103708
3450	0.0126889
3462	0.0101267
3474	0.0103708
3486	0.0101267
3498	0.00488036
3510	0.00341625
3522	0.00195214
3534	0.0013421
3546	0.00109808
3558	0.00158612
3570	0.00207415
3582	0.00109808
3594	0.00146411
3606	0.000976072
3618	0.00158612
3630	0.00219616
3642	0.0013421
3654	0.00231817
3666	0.00158612
3678	0.00170813
3690	0.00207415
3702	0.00183014
3714	0.00207415
3726	0.00207415
3738	0.00109808
3750	0.0013421
3762	0.00183014
3774	0.00122009
3786	0.00207415
3798	0.00256219
3810	0.000854063
3822	0.00292822
3834	0.00280621
3846	0.00183014
3858	0.00231817
3870	0.00305023
3882	0.00244018
3894	0.00292822
3906	0.00219616
3918	0.00183014
3930	0.00109808
3942	0.00195214
3954	0.00183014
3966	0.00158612
