Infrared Spectrum: Benzene, 2-chloro-4-methyl-1-nitro-
Formula: C 7 H 6 Cl N O 2
CAS: 38939-88-7
Origin: Sadtler Research Labs Under US-EPA Contract
1/CM	ABSORBANCE
450	0
462	0.039403
474	0.0254961
486	0.0288279
498	0.0310009
510	0.0354917
522	0.0295523
534	0.0250615
546	0.0270896
558	0.0311458
570	0.048964
582	0.0824276
594	0.0578007
606	0.1227
618	0.0775022
630	0.0370852
642	0.038389
654	0.0321598
666	0.0353468
678	0.0657683
690	0.132985
702	0.0722871
714	0.0354917
726	0.0386787
738	0.0870633
750	0.107199
762	0.0685207
774	0.056497
786	0.0493986
798	0.0466462
810	0.155004
822	0.726493
834	0.392437
846	0.0614223
858	0.0657683
870	0.121541
882	0.148051
894	0.363464
906	0.143995
918	0.0380992
930	0.033029
942	0.0331739
954	0.0395479
966	0.0354917
978	0.0325944
990	0.0450527
1002	0.0428797
1014	0.038389
1026	0.0365057
1038	0.0775022
1050	0.225843
1062	0.193538
1074	0.0528754
1086	0.0356365
1098	0.0331739
1110	0.0401273
1122	0.0385338
1134	0.0518613
1146	0.0534548
1158	0.0834417
1170	0.0640299
1182	0.04795
1194	0.0527305
1206	0.102419
1218	0.131392
1230	0.0754741
1242	0.0488192
1254	0.0730115
1266	0.0719974
1278	0.0528754
1290	0.0731563
1302	0.0973486
1314	0.128205
1326	0.152687
1338	0.316962
1350	1.10618
1362	1.07272
1374	0.266405
1386	0.217875
1398	0.21889
1410	0.138345
1422	0.093727
1434	0.0966243
1446	0.100101
1458	0.10662
1470	0.170505
1482	0.297551
1494	0.206721
1506	0.198609
1518	0.343183
1530	0.672748
1542	1.28697
1554	1.32507
1566	0.818771
1578	0.738082
1590	0.818047
1602	0.830216
1614	0.248442
1626	0.0932924
1638	0.0698244
1650	0.0509921
1662	0.034043
1674	0.0273793
1686	0.034043
1698	0.0334636
1710	0.029842
1722	0.0239026
1734	0.0334636
1746	0.0395479
1758	0.0327393
1770	0.0356365
1782	0.030856
1794	0.0239026
1806	0.0275242
1818	0.0305663
1830	0.0310009
1842	0.0243372
1854	0.0239026
1866	0.0237577
1878	0.0278139
1890	0.0307112
1902	0.0395479
1914	0.0317252
1926	0.0260755
1938	0.0265101
1950	0.0252063
1962	0.023468
1974	0.0227436
1986	0.0228885
1998	0.0247717
2010	0.023468
2022	0.0233231
2034	0.0241923
2046	0.0231782
2058	0.0218745
2070	0.0228885
2082	0.0223091
2094	0.0225988
2106	0.0224539
2118	0.0225988
2130	0.0218745
2142	0.0220193
2154	0.0211501
2166	0.0220193
2178	0.0230334
2190	0.023468
2202	0.0233231
2214	0.024482
2226	0.0221642
2238	0.0225988
2250	0.0228885
2262	0.0228885
2274	0.0241923
2286	0.0252063
2298	0.0225988
2310	0.0221642
2322	0.021295
2334	0.0211501
2346	0.0228885
2358	0.0257858
2370	0.0267998
2382	0.026655
2394	0.0273793
2406	0.0278139
2418	0.0272344
2430	0.0260755
2442	0.0260755
2454	0.0256409
2466	0.0253512
2478	0.0262204
2490	0.0270896
2502	0.026655
2514	0.0262204
2526	0.0257858
2538	0.0257858
2550	0.0257858
2562	0.0250615
2574	0.0252063
2586	0.0259307
2598	0.027669
2610	0.0267998
2622	0.0257858
2634	0.0265101
2646	0.0281036
2658	0.0281036
2670	0.0278139
2682	0.0294074
2694	0.0334636
2706	0.035202
2718	0.0310009
2730	0.0312906
2742	0.0337533
2754	0.0338982
2766	0.0281036
2778	0.0275242
2790	0.0283933
2802	0.0285382
2814	0.0295523
2826	0.0314355
2838	0.0365057
2850	0.045777
2862	0.0646093
2874	0.0870633
2886	0.091554
2898	0.0935821
2910	0.0911195
2922	0.0999562
2934	0.153266
2946	0.151383
2958	0.0956102
2970	0.0679412
2982	0.0576559
2994	0.0622915
3006	0.0759087
3018	0.0743152
3030	0.069245
3042	0.0870633
3054	0.0925681
3066	0.0918438
3078	0.0776471
3090	0.0478051
3102	0.0350571
3114	0.0302766
3126	0.0275242
3138	0.026655
3150	0.0267998
3162	0.0252063
3174	0.0253512
3186	0.024482
3198	0.0240474
3210	0.0237577
3222	0.0227436
3234	0.0233231
3246	0.0239026
3258	0.0220193
3270	0.0228885
3282	0.0227436
3294	0.0237577
3306	0.0241923
3318	0.0230334
3330	0.0237577
3342	0.0227436
3354	0.0231782
3366	0.0233231
3378	0.0233231
3390	0.023468
3402	0.0230334
3414	0.0241923
3426	0.0231782
3438	0.0230334
3450	0.0240474
3462	0.0233231
3474	0.0237577
3486	0.0228885
3498	0.0224539
3510	0.0225988
3522	0.0239026
3534	0.0239026
3546	0.0227436
3558	0.0237577
3570	0.0221642
3582	0.0240474
3594	0.0224539
3606	0.023468
3618	0.0239026
3630	0.0211501
3642	0.0240474
3654	0.0210053
3666	0.0243372
3678	0.024482
3690	0.0217296
3702	0.0239026
3714	0.0231782
3726	0.0259307
3738	0.0233231
3750	0.0207156
3762	0.0218745
3774	0.0249166
3786	0.0254961
3798	0.0220193
3810	0.0241923
3822	0.0207156
3834	0.0220193
3846	0.0224539
3858	0.024482
3870	0.0231782
3882	0.0227436
3894	0.0243372
3906	0.0224539
3918	0.0257858
3930	0.0262204
3942	0.0257858
3954	0.0241923
3966	0.0253512
