Infrared Spectrum: 4,1-Benzoxazepin-2(3H)-one, 1,5-di-hydro-1-methyl-5-phenyl-,
Formula: C 16 H 15 N O 2
CAS: 3897-15-2
Origin: Sadtler Research Labs Under US-EPA Contract
1/CM	ABSORBANCE
450	0.00526176
462	0.00321552
474	0.0077256
486	0.00150336
498	0.00025056
510	0.00225504
522	0.0045936
534	0.0075168
546	0.00839376
558	0.00321552
570	0.00309024
582	0.00129456
594	0.0107323
606	0.0103147
618	0.0151171
630	0.00434304
642	0.00488592
654	0.00739152
666	0.00760032
678	0.00902016
690	0.025056
702	0.053411
714	0.0148248
726	0.0307354
738	0.0519912
750	0.0818078
762	0.077256
774	0.0199613
786	0.0240538
798	0.00851904
810	0.00705744
822	0.00680688
834	0.00425952
846	0.00484416
858	0.00467712
870	0.00697392
882	0.0100224
894	0.00421776
906	0.00684864
918	0.0139478
930	0.0162446
942	0.0319464
954	0.0247219
966	0.0144907
978	0.025223
990	0.00839376
1002	0.00588816
1014	0.0101894
1026	0.0246384
1038	0.0233438
1050	0.0211723
1062	0.0242626
1074	0.0529934
1086	0.0452261
1098	0.0973008
1110	0.0622642
1122	0.0393379
1134	0.0434722
1146	0.048901
1158	0.0306101
1170	0.0299419
1182	0.0312782
1194	0.0203789
1206	0.0176227
1218	0.0149083
1230	0.0206712
1242	0.015827
1254	0.019669
1266	0.0299419
1278	0.0291902
1290	0.0241373
1302	0.0359136
1314	0.0503626
1326	0.040716
1338	0.0621806
1350	0.0808474
1362	0.0923731
1374	0.119267
1386	0.049068
1398	0.0176645
1410	0.0152424
1422	0.0278122
1434	0.0185832
1446	0.0357466
1458	0.0907862
1470	0.057587
1482	0.0577958
1494	0.0884894
1506	0.0252648
1518	0.009396
1530	0.00734976
1542	0.00534528
1554	0.00655632
1566	0.00973008
1578	0.0205459
1590	0.0408413
1602	0.0687787
1614	0.0258077
1626	0.0119851
1638	0.0104818
1650	0.0128203
1662	0.0230515
1674	0.036707
1686	0.100391
1698	0.35663
1710	0.285722
1722	0.0592992
1734	0.0212558
1746	0.0120686
1758	0.0101894
1770	0.00714096
1782	0.0060552
1794	0.0058464
1806	0.0070992
1818	0.00384192
1830	0.00175392
1842	0.00171216
1854	0.00196272
1866	0.00162864
1878	0.00329904
1890	0.00263088
1902	0.00267264
1914	0.00317376
1926	0.00225504
1938	0.00346608
1950	0.00551232
1962	0.00275616
1974	0.00079344
1986	0.00075168
1998	0.0006264
2010	0.00087696
2022	0.00100224
2034	0.001044
2046	0.00171216
2058	0.00154512
2070	0.0014616
2082	0.00070992
2094	0.0004176
2106	0.00045936
2118	0.00050112
2130	0.00070992
2142	0.00058464
2154	0.00066816
2166	0.00087696
2178	0.00108576
2190	0.00087696
2202	0.0008352
2214	0.0008352
2226	0.00096048
2238	0.00075168
2250	0.001044
2262	0.00112752
2274	0.00141984
2286	0.00204624
2298	0.00304848
2310	0.00346608
2322	0.00463536
2334	0.00296496
2346	0.0043848
2358	0.00455184
2370	0.00304848
2382	0.00304848
2394	0.0008352
2406	0.00066816
2418	8.352e-05
2430	4.176e-05
2442	0.00054288
2454	0.00029232
2466	0.00087696
2478	0.0004176
2490	0.0006264
2502	0.00070992
2514	0.00045936
2526	0.0004176
2538	0.00108576
2550	0.00121104
2562	0.00112752
2574	0.00116928
2586	0.00154512
2598	0.00171216
2610	0.00129456
2622	0.00133632
2634	0.0016704
2646	0.00154512
2658	0.0016704
2670	0.00179568
2682	0.00192096
2694	0.00171216
2706	0.00200448
2718	0.00179568
2730	0.00150336
2742	0.00137808
2754	0.00129456
2766	0.00183744
2778	0.00221328
2790	0.00267264
2802	0.00325728
2814	0.00471888
2826	0.00693216
2838	0.0070992
2850	0.010273
2862	0.0269352
2874	0.0382522
2886	0.0167875
2898	0.0179568
2910	0.0299002
2922	0.029232
2934	0.0216734
2946	0.0205042
2958	0.0182074
2970	0.0156182
2982	0.0128621
2994	0.0121522
3006	0.0242208
3018	0.0144907
3030	0.0305266
3042	0.0329904
3054	0.0249725
3066	0.040883
3078	0.0539539
3090	0.030276
3102	0.0141984
3114	0.0077256
3126	0.00363312
3138	0.00217152
3150	0.00225504
3162	0.002088
3174	0.00200448
3186	0.00108576
3198	0.00112752
3210	0.00075168
3222	0.00012528
3234	0.0008352
3246	0.00091872
3258	0.00037584
3270	0.00033408
3282	0.00100224
3294	0.0008352
3306	0.00066816
3318	0.00096048
3330	0.00079344
3342	0.0014616
3354	0.00121104
3366	0.00150336
3378	0.0027144
3390	0.0033408
3402	0.00192096
3414	0.00116928
3426	0.00121104
3438	0.0014616
3450	4.176e-05
3462	0.0008352
3474	0.00100224
3486	0
3498	0.00037584
3510	0.00079344
3522	0.00066816
3534	0.0006264
3546	0.00133632
3558	0.00070992
3570	0.00137808
3582	0.00058464
3594	0.0012528
3606	0.00075168
3618	0.00075168
3630	0.00171216
3642	0.0006264
3654	0.00096048
3666	0.0008352
3678	0.00058464
3690	0.00100224
3702	0.0012528
3714	0.00096048
3726	0.0016704
3738	0.00158688
3750	0.00075168
3762	0.00079344
3774	0.00112752
3786	0.00045936
3798	0.00033408
3810	0.00033408
3822	0.00150336
3834	0.00091872
3846	0.00096048
3858	0.0014616
3870	0.0008352
3882	0.00029232
3894	0.00025056
3906	0.00121104
3918	0.00079344
3930	0.00129456
3942	0.00137808
3954	0.00217152
3966	0.00238032
