Infrared Spectrum: Benzeneacetic acid, .alpha.-cyclopentyl-
Formula: C 13 H 16 O 2
CAS: 3900-93-4
Origin: Sadtler Research Labs Under US-EPA Contract
1/CM	ABSORBANCE
450	0.0159305
462	0.011447
474	0.00620048
486	0.0170752
498	0.0231803
510	0.0301439
522	0.0489361
534	0.0527518
546	0.0337688
558	0.0311932
570	0.0439757
582	0.0733564
594	0.138891
606	0.25546
618	0.274347
630	0.187254
642	0.0976814
654	0.0700177
666	0.0617186
678	0.0505578
690	0.132213
702	0.264999
714	0.0761228
726	0.0658205
738	0.0600016
750	0.061814
762	0.052561
774	0.0162166
786	0.00648666
798	0.00457882
810	0.00190784
822	0.00047696
834	0.00143088
846	0.00162166
858	0.00171706
870	0.00419725
882	0.00972998
894	0.0131641
906	0.0103977
918	0.00982538
930	0.00534195
942	0.00515117
954	0.00515117
966	0.0036249
978	0.00410186
990	0.00648666
1002	0.011447
1014	0.0144996
1026	0.0276637
1038	0.0391107
1050	0.030907
1062	0.0593338
1074	0.122006
1086	0.163788
1098	0.339023
1110	0.675948
1122	0.367545
1134	0.237717
1146	0.200609
1158	0.156729
1170	0.130973
1182	0.0757412
1194	0.0770767
1206	0.059143
1218	0.0391107
1230	0.0363444
1242	0.0461697
1254	0.0534195
1266	0.0528472
1278	0.047696
1290	0.0501762
1302	0.0581891
1314	0.0592384
1326	0.0652481
1338	0.0607647
1350	0.0663928
1362	0.0835634
1374	0.0724025
1386	0.045502
1398	0.0285222
1410	0.0183153
1422	0.0142134
1434	0.0140226
1446	0.035772
1458	0.0701131
1470	0.0299531
1482	0.0301439
1494	0.0683961
1506	0.047219
1518	0.00381568
1530	0.00209862
1542	0.00162166
1554	0.00047696
1566	0.00209862
1578	0.0082991
1590	0.024325
1602	0.0395877
1614	0.0154535
1626	0.00438803
1638	0.00286176
1650	0.00333872
1662	0.00419725
1674	0.0059143
1686	0.00906224
1698	0.0149765
1710	0.0299531
1722	0.0757412
1734	0.116569
1746	0.13994
1758	0.423827
1770	0.95392
1782	0.333681
1794	0.137174
1806	0.117523
1818	0.0539919
1830	0.0227987
1842	0.0144042
1854	0.0104931
1866	0.00925302
1878	0.00963459
1890	0.00801293
1902	0.00620048
1914	0.00410186
1926	0.0047696
1938	0.0110655
1950	0.0106839
1962	0.00810832
1974	0.00295715
1986	0.00314794
1998	0.00276637
2010	0.00276637
2022	0.00228941
2034	0.00209862
2046	0.00181245
2058	0.00162166
2070	0.00190784
2082	0.00190784
2094	0.00162166
2106	0.00190784
2118	0.00162166
2130	0.00143088
2142	0.000858528
2154	0.0012401
2166	0.00228941
2178	0.00276637
2190	0.00343411
2202	0.00419725
2214	0.00429264
2226	0.00324333
2238	0.00248019
2250	0.00228941
2262	0.00257558
2274	0.00286176
2286	0.00305254
2298	0.0047696
2310	0.00629587
2322	0.0059143
2334	0.00372029
2346	0.0047696
2358	0.0035295
2370	0.00267098
2382	0.00505578
2394	0.00162166
2406	0.0011447
2418	0.00133549
2430	0.00152627
2442	0.00104931
2454	0.00133549
2466	0.00133549
2478	0.000858528
2490	0.000858528
2502	0.000858528
2514	0.000190784
2526	0.000381568
2538	0.000572352
2550	0.000763136
2562	0.00104931
2574	0.00143088
2586	0.00200323
2598	0.0023848
2610	0.00248019
2622	0.00257558
2634	0.0023848
2646	0.0023848
2658	0.0023848
2670	0.00190784
2682	0.00200323
2694	0.00181245
2706	0.00209862
2718	0.00295715
2730	0.00324333
2742	0.00343411
2754	0.00372029
2766	0.00496038
2778	0.00629587
2790	0.00791754
2802	0.00925302
2814	0.0110655
2826	0.0150719
2838	0.023848
2850	0.0392061
2862	0.0801293
2874	0.1739
2886	0.190021
2898	0.11075
2910	0.113803
2922	0.168367
2934	0.224171
2946	0.276446
2958	0.465131
2970	0.511301
2982	0.190498
2994	0.0830864
3006	0.0558043
3018	0.0496038
3030	0.0939611
3042	0.107793
3054	0.0551366
3066	0.0974906
3078	0.117618
3090	0.0662974
3102	0.0420679
3114	0.0236572
3126	0.0121148
3138	0.0071544
3150	0.00620048
3162	0.00629587
3174	0.00572352
3186	0.00438803
3198	0.00429264
3210	0.00410186
3222	0.00419725
3234	0.00381568
3246	0.00333872
3258	0.0036249
3270	0.00372029
3282	0.0035295
3294	0.00324333
3306	0.00400646
3318	0.00343411
3330	0.00343411
3342	0.0035295
3354	0.00343411
3366	0.00391107
3378	0.0047696
3390	0.00410186
3402	0.00457882
3414	0.0036249
3426	0.0036249
3438	0.0036249
3450	0.00343411
3462	0.00314794
3474	0.00486499
3486	0.0035295
3498	0.00438803
3510	0.00686822
3522	0.00896685
3534	0.00791754
3546	0.00848989
3558	0.0651527
3570	0.39187
3582	0.108747
3594	0.0109701
3606	0.00982538
3618	0.00410186
3630	0.00228941
3642	0.00438803
3654	0.0023848
3666	0.00400646
3678	0.00171706
3690	0.00219402
3702	0.00286176
3714	0.00209862
3726	0.00276637
3738	0.000572352
3750	0
3762	0.00305254
3774	0.00410186
3786	0.00400646
3798	0.00333872
3810	0.00505578
3822	0.0023848
3834	0.00400646
3846	0.00381568
3858	0.0035295
3870	0.00305254
3882	0.000763136
3894	0.00438803
3906	0.00324333
3918	0.00524656
3930	0.00448342
3942	0.0047696
3954	0.00534195
3966	0.00696362
