Infrared Spectrum: 2-Decenoic acid
Formula: C 10 H 18 O 2
CAS: 3913-85-7
Origin: Sadtler Research Labs Under US-EPA Contract
1/CM	ABSORBANCE
450	0.0507158
462	0.017071
474	0.0176787
486	0.0125961
498	0.0199438
510	0.02359
522	0.0328714
534	0.0414345
546	0.0495557
558	0.08309
570	0.0732562
582	0.0640854
594	0.0304405
606	0.0195018
618	0.0310483
630	0.0361861
642	0.0396666
654	0.0403848
666	0.0167395
678	0.0170158
690	0.010994
702	0.0254132
714	0.0330371
726	0.0322084
738	0.0266838
750	0.0256894
762	0.0126513
774	0.00939182
786	0.00999953
798	0.0034805
810	0.00082869
822	0.00386722
834	0.00563509
846	0.0109387
858	0.0171815
870	0.0178445
882	0.0172368
894	0.0114912
906	0.00668477
918	0.00508263
930	0.00458542
942	0.0107177
954	0.0186179
966	0.0283412
978	0.0570691
990	0.0416555
1002	0.0207725
1014	0.0176787
1026	0.0162976
1038	0.0154136
1050	0.0248607
1062	0.0382302
1074	0.0501634
1086	0.0635329
1098	0.120105
1110	0.266783
1122	0.184743
1134	0.185129
1146	0.188776
1158	0.167893
1170	0.116348
1182	0.0806592
1194	0.0436443
1206	0.0290041
1218	0.0288384
1230	0.0323189
1242	0.0424289
1254	0.0623175
1266	0.0711568
1278	0.0749688
1290	0.0565719
1302	0.0391694
1314	0.0337553
1326	0.0330924
1338	0.0550803
1350	0.0944154
1362	0.11121
1374	0.0874544
1386	0.0414345
1398	0.0219879
1410	0.0151374
1422	0.0170158
1434	0.0250264
1446	0.0476773
1458	0.0567376
1470	0.0460752
1482	0.0257999
1494	0.0205515
1506	0.0111044
1518	0.00569034
1530	0.00243082
1542	0.00397771
1554	0.00209935
1566	0.00298328
1578	0.006961
1590	0.01685
1602	0.0232033
1614	0.0212145
1626	0.0189494
1638	0.0228718
1650	0.071875
1662	0.136071
1674	0.0300538
1686	0.0178997
1698	0.0237005
1710	0.0463514
1722	0.055909
1734	0.0965148
1746	0.227172
1758	0.50191
1770	0.395893
1782	0.153418
1794	0.0733114
1806	0.0320979
1818	0.0155241
1830	0.00983379
1842	0.00646378
1854	0.00469591
1866	0.00386722
1878	0.00209935
1890	0.00226509
1902	0.00176787
1914	0.00116017
1926	0.0013259
1938	0.000883936
1950	0.00082869
1962	0.00110492
1974	0.00116017
1986	0.000718198
1998	0.00149164
2010	0.00165738
2022	0.00220984
2034	0.00243082
2046	0.00215459
2058	0.00325951
2070	0.00232033
2082	0.00082869
2094	0.00149164
2106	0.0013259
2118	0.000386722
2130	0.00055246
2142	0.000662952
2154	0.000497214
2166	0.000165738
2178	0.000718198
2190	0.00121541
2202	0.00127066
2214	0.0014364
2226	0.00116017
2238	0.00121541
2250	0.00116017
2262	0.000939182
2274	0.000939182
2286	0.00149164
2298	0.00325951
2310	0.00508263
2322	0.00546935
2334	0.00232033
2346	0.000220984
2358	0.00557985
2370	0.000165738
2382	0.000165738
2394	0.00193361
2406	0.00182312
2418	0.00248607
2430	0.00138115
2442	0.00193361
2454	0.00209935
2466	0.00160213
2478	0.00209935
2490	0.00243082
2502	0.00232033
2514	0.00309378
2526	0.00397771
2538	0.00353574
2550	0.00458542
2562	0.00464066
2574	0.00430919
2586	0.00491689
2598	0.00392247
2610	0.00453017
2622	0.00430919
2634	0.00403296
2646	0.00447493
2658	0.00585608
2670	0.00580083
2682	0.0068505
2694	0.00839739
2706	0.0090051
2718	0.00701624
2730	0.0068505
2742	0.00823165
2754	0.00751346
2766	0.0075687
2778	0.00950231
2790	0.0111597
2802	0.0124303
2814	0.0166843
2826	0.0202753
2838	0.0286174
2850	0.0591132
2862	0.150987
2874	0.15944
2886	0.116845
2898	0.0947469
2910	0.131706
2922	0.235845
2934	0.454619
2946	0.356779
2958	0.182257
2970	0.213581
2982	0.0920398
2994	0.0409373
3006	0.0288384
3018	0.0224299
3030	0.0203858
3042	0.0183417
3054	0.0201095
3066	0.0196123
3078	0.0143087
3090	0.0123199
3102	0.00988903
3114	0.0096128
3126	0.00856313
3138	0.00767919
3150	0.00701624
3162	0.0068505
3174	0.006961
3186	0.00546935
3198	0.00546935
3210	0.00530362
3222	0.00436443
3234	0.00458542
3246	0.00331476
3258	0.00370148
3270	0.00497214
3282	0.00613231
3294	0.00475116
3306	0.00602181
3318	0.00574558
3330	0.00508263
3342	0.00386722
3354	0.0055246
3366	0.00640854
3378	0.00546935
3390	0.00602181
3402	0.00591132
3414	0.0062428
3426	0.00591132
3438	0.00458542
3450	0.00491689
3462	0.00430919
3474	0.00436443
3486	0.00646378
3498	0.00790018
3510	0.00646378
3522	0.00569034
3534	0.00491689
3546	0.0055246
3558	0.0075687
3570	0.0264628
3582	0.199328
3594	0.105354
3606	0.0130933
3618	0.0062428
3630	0.00475116
3642	0.00486165
3654	0.00353574
3666	0.00502739
3678	0.00287279
3690	0.00331476
3702	0.00209935
3714	0.00453017
3726	0.00441968
3738	0.00232033
3750	0
3762	0.0020441
3774	0.00569034
3786	0.00436443
3798	0.00425394
3810	0.0055246
3822	0.00303853
3834	0.00563509
3846	0.0055246
3858	0.00458542
3870	0.00176787
3882	0.00469591
3894	0.00314902
3906	0.00259656
3918	0.00436443
3930	0.0118779
3942	0.00712673
3954	0.00430919
3966	0.00712673
