Infrared Spectrum: Benzene, hexafluoro-
Formula: C 6 F 6
CAS: 392-56-3
Origin: Sadtler Research Labs Under US-EPA Contract
1/CM	ABSORBANCE
450	0
462	0.000501396
474	0.00157582
486	0.00250698
498	0.00207721
510	0.00250698
522	0.00236372
534	0.0012893
546	0.00207721
558	0.00257861
570	0.00257861
582	0.00329489
594	0.0022921
606	0.00121768
618	0.00171907
630	0.00171907
642	0.0017907
654	0.00286512
666	0.00236372
678	0.00293675
690	0.00214884
702	0.0022921
714	0.00243535
726	0.00286512
738	0.00300838
750	0.00272186
762	0.0022921
774	0.00214884
786	0.00214884
798	0.00272186
810	0.00300838
822	0.00322326
834	0.00322326
846	0.00422605
858	0.00322326
870	0.00315163
882	0.00429768
894	0.00429768
906	0.00336652
918	0.00336652
930	0.00350977
942	0.0040828
954	0.00852373
966	0.0298689
978	0.0728457
990	0.260296
1002	0.376262
1014	0.428694
1026	0.322398
1038	0.0687629
1050	0.0189098
1062	0.00823722
1074	0.00780745
1086	0.0138958
1098	0.00673303
1110	0.00479908
1122	0.00501396
1134	0.0058735
1146	0.00594512
1158	0.00573024
1170	0.0053721
1182	0.00580187
1194	0.0058735
1206	0.00601675
1218	0.00608838
1230	0.00616001
1242	0.00630326
1254	0.00644652
1266	0.00651815
1278	0.00694792
1290	0.00866699
1302	0.00773582
1314	0.00558698
1326	0.00816559
1338	0.00838048
1350	0.0181219
1362	0.02156
1374	0.0147554
1386	0.00644652
1398	0.00222047
1410	0.00494233
1422	0.00651815
1434	0.00838048
1446	0.0138242
1458	0.0109591
1470	0.0149703
1482	0.0133228
1494	0.0106726
1506	0.059881
1518	0.67051
1530	0.715062
1542	0.369171
1554	0.029081
1566	0.0156149
1578	0.0121768
1590	0.0114605
1602	0.0138958
1614	0.00859536
1626	0.00458419
1638	0.00530047
1650	0.00214884
1662	0.00830885
1674	0.00515722
1686	0.00472745
1698	0.00365303
1710	0.00795071
1722	0.00651815
1734	0.00121768
1746	0.00623164
1758	0.0141823
1770	0.0128214
1782	0.00737768
1794	0.00701954
1806	0.0094549
1818	0.00802234
1830	0.00458419
1842	0.00530047
1854	0.00709117
1866	0.00544373
1878	0.0066614
1890	0.00544373
1902	0.00616001
1914	0.00544373
1926	0.00565861
1938	0.00573024
1950	0.00558698
1962	0.00544373
1974	0.00522884
1986	0.00501396
1998	0.00472745
2010	0.00472745
2022	0.00415442
2034	0.00436931
2046	0.00393954
2058	0.00393954
2070	0.00616001
2082	0.00809396
2094	0.00616001
2106	0.00315163
2118	0.00293675
2130	0.00272186
2142	0.00365303
2154	0.00436931
2166	0.00472745
2178	0.00401117
2190	0.0022921
2202	0.00164744
2214	0.00143256
2226	0.0012893
2238	0.00107442
2250	0.00143256
2262	0.00171907
2274	0.000429768
2286	0.000501396
2298	0.000644652
2310	0.000787908
2322	0.0012893
2334	0.00121768
2346	0.00071628
2358	0.00136093
2370	0.00071628
2382	0.000501396
2394	0.00186233
2406	0.00250698
2418	0.00157582
2430	0.000931164
2442	0.000931164
2454	0.000931164
2466	0.00365303
2478	0.00952652
2490	0.0123916
2502	0.00580187
2514	0.00300838
2526	0.000931164
2538	0.00114605
2550	0.000644652
2562	0.00107442
2574	0.00107442
2586	0.00071628
2598	0.00071628
2610	0.000573024
2622	0.000501396
2634	0.00121768
2646	0.00136093
2658	0.00114605
2670	0.00315163
2682	0.00981304
2694	0.0089535
2706	0.00164744
2718	0.00121768
2730	0.000573024
2742	0.0012893
2754	0.000573024
2766	0.000573024
2778	0.000644652
2790	0.000573024
2802	0.00121768
2814	0.00121768
2826	0.000573024
2838	0.000644652
2850	0.000644652
2862	0.000644652
2874	0.0012893
2886	0.00121768
2898	0.00171907
2910	0.000931164
2922	0.000859536
2934	0.000644652
2946	0.0012893
2958	0.0017907
2970	0.00222047
2982	0.0035814
2994	0.00272186
3006	0.0022921
3018	0.00379628
3030	0.00279349
3042	0.00171907
3054	0.0017907
3066	0.00071628
3078	0.00071628
3090	0.000787908
3102	0.000787908
3114	0.00136093
3126	0.00071628
3138	0.00071628
3150	0.00071628
3162	0.000787908
3174	0.00071628
3186	0.00114605
3198	0.000787908
3210	0.000859536
3222	0.000787908
3234	0.000859536
3246	0.000859536
3258	0.000787908
3270	0.00136093
3282	0.00143256
3294	0.000787908
3306	0.000787908
3318	0.000429768
3330	0.000859536
3342	0.000787908
3354	0.00143256
3366	0.0012893
3378	0.000787908
3390	0.000859536
3402	0.000859536
3414	0.000787908
3426	0.000931164
3438	0.00186233
3450	0.0017907
3462	0.000859536
3474	0.000501396
3486	0.000931164
3498	0.000859536
3510	0.00150419
3522	0.00143256
3534	0.00150419
3546	0.00150419
3558	0.00107442
3570	0.000859536
3582	0.000931164
3594	0.00157582
3606	0.00143256
3618	0.00107442
3630	0.000931164
3642	0.000644652
3654	0.000573024
3666	0.000573024
3678	0.00136093
3690	0.00164744
3702	0.000429768
3714	0.000429768
3726	0.000429768
3738	0.000573024
3750	0.000429768
3762	0.00143256
3774	0.00121768
3786	0.000931164
3798	0.000787908
3810	0.000501396
3822	0.000859536
3834	0.0017907
3846	0.00193396
3858	0.00171907
3870	0.00150419
3882	0.000644652
3894	0.00150419
3906	0.00171907
3918	0.00200558
3930	0.0022921
3942	0.00243535
3954	0.00186233
3966	0.000859536
