Infrared Spectrum: Benzene, 1-fluoro-2-(trifluoromethyl)-
Formula: C 7 H 4 F 4
CAS: 392-85-8
Origin: Sadtler Research Labs Under US-EPA Contract
1/CM	ABSORBANCE
450	0
462	0.0498086
474	0.0688803
486	0.0631402
498	0.0357363
510	0.0464757
522	0.0681396
534	0.0962842
546	0.078879
558	0.0442537
570	0.0409208
582	0.0396247
594	0.0486976
606	0.0407356
618	0.0394395
630	0.0340698
642	0.135353
654	0.148315
666	0.0351808
678	0.0385137
690	0.034255
702	0.0349956
714	0.0375879
726	0.0362918
738	0.0590667
750	0.260893
762	0.566781
774	0.184421
786	0.046846
798	0.0431427
810	0.0401802
822	0.0661028
834	0.135909
846	0.0910997
858	0.0461053
870	0.0477718
882	0.0449944
894	0.0412911
906	0.0366621
918	0.0361066
930	0.0418466
942	0.0572151
954	0.0572151
966	0.0401802
978	0.0374027
990	0.0364769
1002	0.037773
1014	0.044624
1026	0.177385
1038	0.19479
1050	0.207381
1062	0.508825
1074	0.207381
1086	0.0733242
1098	0.0968397
1110	0.310887
1122	0.440871
1134	0.29163
1146	0.478644
1158	1.07024
1170	1.78107
1182	0.636402
1194	0.211085
1206	0.113689
1218	0.0859152
1230	0.138316
1242	0.45198
1254	0.416429
1266	0.371065
1278	0.292
1290	0.133687
1302	0.212381
1314	0.595296
1326	1.74089
1338	0.771755
1350	0.117393
1362	0.0794345
1374	0.0679545
1386	0.0507344
1398	0.0535118
1410	0.0516602
1422	0.0507344
1434	0.0664732
1446	0.117393
1458	0.300148
1470	0.357177
1482	0.16035
1494	0.271077
1506	0.321997
1518	0.149426
1530	0.0566596
1542	0.0566596
1554	0.0535118
1566	0.0701764
1578	0.106653
1590	0.172386
1602	0.196642
1614	0.264041
1626	0.293297
1638	0.128317
1650	0.0707319
1662	0.0511047
1674	0.0520305
1686	0.0486976
1698	0.0531415
1710	0.0499937
1722	0.0451795
1734	0.0488828
1746	0.0436982
1758	0.0425873
1770	0.0436982
1782	0.0420318
1794	0.0464757
1806	0.0535118
1818	0.046846
1830	0.0422169
1842	0.0424021
1854	0.0372176
1866	0.0379582
1878	0.0374027
1890	0.0401802
1902	0.0396247
1914	0.045735
1926	0.0516602
1938	0.0418466
1950	0.0422169
1962	0.0407356
1974	0.0362918
1986	0.0357363
1998	0.0364769
2010	0.0364769
2022	0.0357363
2034	0.0353659
2046	0.0346253
2058	0.0351808
2070	0.041106
2082	0.0451795
2094	0.039995
2106	0.0368472
2118	0.0357363
2130	0.0357363
2142	0.0353659
2154	0.0364769
2166	0.0364769
2178	0.0359214
2190	0.0364769
2202	0.0364769
2214	0.037773
2226	0.0403653
2238	0.0394395
2250	0.0364769
2262	0.0366621
2274	0.0381434
2286	0.0368472
2298	0.0355511
2310	0.0351808
2322	0.0396247
2334	0.0355511
2346	0.0327737
2358	0.0349956
2370	0.0327737
2382	0.0327737
2394	0.0366621
2406	0.0362918
2418	0.0361066
2430	0.0364769
2442	0.0366621
2454	0.0368472
2466	0.0355511
2478	0.037773
2490	0.0401802
2502	0.0372176
2514	0.0346253
2526	0.0338846
2538	0.0338846
2550	0.0340698
2562	0.0349956
2574	0.0351808
2586	0.0346253
2598	0.0340698
2610	0.0327737
2622	0.033144
2634	0.034255
2646	0.0351808
2658	0.0348105
2670	0.0361066
2682	0.0381434
2694	0.0349956
2706	0.0340698
2718	0.0333292
2730	0.0333292
2742	0.0336995
2754	0.0338846
2766	0.0346253
2778	0.0338846
2790	0.0335143
2802	0.0335143
2814	0.0340698
2826	0.0344401
2838	0.0335143
2850	0.0327737
2862	0.0335143
2874	0.0344401
2886	0.0344401
2898	0.0340698
2910	0.0327737
2922	0.0340698
2934	0.0355511
2946	0.0366621
2958	0.0353659
2970	0.0349956
2982	0.0340698
2994	0.0329588
3006	0.0329588
3018	0.0355511
3030	0.039995
3042	0.041106
3054	0.0475866
3066	0.0640661
3078	0.0635106
3090	0.0631402
3102	0.0590667
3114	0.0449944
3126	0.0364769
3138	0.0348105
3150	0.0357363
3162	0.034255
3174	0.0346253
3186	0.0348105
3198	0.0348105
3210	0.0340698
3222	0.0346253
3234	0.0340698
3246	0.0361066
3258	0.0351808
3270	0.0355511
3282	0.0351808
3294	0.0348105
3306	0.0359214
3318	0.0361066
3330	0.0362918
3342	0.0361066
3354	0.0364769
3366	0.0355511
3378	0.0359214
3390	0.0357363
3402	0.0368472
3414	0.0372176
3426	0.0385137
3438	0.0392543
3450	0.0379582
3462	0.0386989
3474	0.0374027
3486	0.0362918
3498	0.0372176
3510	0.0357363
3522	0.0370324
3534	0.0375879
3546	0.0349956
3558	0.0370324
3570	0.0366621
3582	0.0372176
3594	0.0374027
3606	0.0379582
3618	0.0368472
3630	0.0372176
3642	0.0351808
3654	0.0329588
3666	0.0348105
3678	0.0357363
3690	0.0359214
3702	0.0357363
3714	0.0327737
3726	0.0325885
3738	0.0327737
3750	0.0336995
3762	0.0348105
3774	0.0329588
3786	0.0338846
3798	0.0325885
3810	0.0327737
3822	0.0340698
3834	0.0336995
3846	0.0348105
3858	0.0353659
3870	0.0351808
3882	0.0362918
3894	0.0344401
3906	0.0366621
3918	0.0374027
3930	0.0372176
3942	0.039995
3954	0.039995
3966	0.0374027
