Infrared Spectrum: Dodecamethylene dichloride
Formula: C 12 H 24 Cl 2
CAS: 3922-28-9
Origin: Sadtler Research Labs Under US-EPA Contract
1/CM	ABSORBANCE
450	0.00950289
462	0.016797
474	0.0110439
486	0.00349296
498	0.00744821
510	0.0124308
522	0.0114035
534	0.00611267
546	0.00827009
558	0.00862966
570	0.0101707
582	0.00785915
594	0.00678044
606	0.0133554
618	0.0124822
630	0.0118658
642	0.0179271
654	0.0356487
666	0.0406313
678	0.0163861
690	0.0149992
702	0.0213687
714	0.0354432
726	0.0365733
738	0.0438161
750	0.0399122
762	0.0297929
774	0.0154101
786	0.0137664
798	0.0169511
810	0.0161806
822	0.0110953
834	0.0108384
846	0.015821
858	0.0141259
870	0.0103248
882	0.0114548
894	0.0132013
906	0.0117117
918	0.0105302
930	0.0100679
942	0.0117117
954	0.0124822
966	0.011198
978	0.0121226
990	0.0130472
1002	0.0118658
1014	0.0103761
1026	0.0112494
1038	0.0125335
1050	0.0113521
1062	0.0116603
1074	0.00970836
1086	0.00970836
1098	0.00780778
1110	0.00570174
1122	0.00729411
1134	0.00862966
1146	0.00739685
1158	0.00801325
1170	0.00749958
1182	0.00893786
1194	0.0103248
1206	0.00852692
1218	0.010222
1230	0.0124308
1242	0.0162833
1254	0.0196736
1266	0.0250671
1278	0.0339536
1290	0.0452543
1302	0.0447407
1314	0.0384225
1326	0.0312825
1338	0.0230124
1350	0.0257862
1362	0.0231151
1374	0.0212146
1386	0.0156156
1398	0.00924606
1410	0.00991383
1422	0.0130986
1434	0.0212659
1446	0.0417614
1458	0.059483
1470	0.0452543
1482	0.0168997
1494	0.00791052
1506	0.005599
1518	0.0057531
1530	0.0048285
1542	0.00303065
1554	0.00421209
1566	0.00493123
1578	0.00374979
1590	0.00410936
1602	0.00400663
1614	0.00462303
1626	0.00349296
1638	0.00339022
1650	0.00333885
1662	0.00339022
1674	0.00328749
1686	0.00241425
1698	0.00272245
1710	0.00364706
1722	0.0049826
1734	0.00385252
1746	0.00457166
1758	0.00457166
1770	0.00410936
1782	0.00349296
1794	0.00236288
1806	0.00380116
1818	0.00323612
1830	0.00231152
1842	0.00205468
1854	0.00318475
1866	0.00256835
1878	0.00205468
1890	0.00256835
1902	0.00292792
1914	0.00292792
1926	0.00174648
1938	0.00261972
1950	0.00277382
1962	0.00282519
1974	0.00174648
1986	0.00272245
1998	0.00292792
2010	0.00231152
2022	0.00205468
2034	0.00251698
2046	0.00303065
2058	0.00241425
2070	0.00231152
2082	0.00236288
2094	0.00313339
2106	0.00220878
2118	0.00215741
2130	0.00215741
2142	0.00210605
2154	0.00226015
2166	0.00205468
2178	0.00200331
2190	0.00195195
2202	0.00190058
2214	0.00154101
2226	0.00179784
2238	0.00174648
2250	0.00174648
2262	0.00179784
2274	0.00169511
2286	0.00241425
2298	0.00256835
2310	0.00297929
2322	0.00118144
2334	0.00457166
2346	0.00436619
2358	0.00118144
2370	0.000821872
2382	0.00226015
2394	0.00123281
2406	0.000667771
2418	0.000821872
2430	0.00123281
2442	0.00118144
2454	0.000770505
2466	0.000770505
2478	0.00154101
2490	0.00220878
2502	0.00123281
2514	0.00118144
2526	0.00236288
2538	0.00169511
2550	0.00128418
2562	0.000770505
2574	0.00220878
2586	0.00118144
2598	0.00179784
2610	0.00210605
2622	0.00323612
2634	0.00339022
2646	0.00323612
2658	0.0045203
2670	0.0052908
2682	0.00585584
2694	0.00570174
2706	0.0059072
2718	0.0057531
2730	0.00626677
2742	0.0057531
2754	0.00621541
2766	0.00606131
2778	0.00688318
2790	0.00898922
2802	0.0105302
2814	0.0150505
2826	0.0221392
2838	0.0355973
2850	0.0764855
2862	0.193089
2874	0.167867
2886	0.108847
2898	0.1071
2910	0.169306
2922	0.29536
2934	0.51367
2946	0.380219
2958	0.208704
2970	0.161857
2982	0.0766396
2994	0.0606131
3006	0.0471035
3018	0.021831
3030	0.0141259
3042	0.00950289
3054	0.00893786
3066	0.00626677
3078	0.00472576
3090	0.00369842
3102	0.00405799
3114	0.00287655
3126	0.00200331
3138	0.00169511
3150	0.00210605
3162	0.00241425
3174	0.00159238
3186	0.00267108
3198	0.00210605
3210	0.00256835
3222	0.00154101
3234	0.00231152
3246	0.00236288
3258	0.00169511
3270	0.00148964
3282	0.00123281
3294	0.00169511
3306	0.00107871
3318	0.00241425
3330	0.00102734
3342	0.00159238
3354	0.00184921
3366	0.00267108
3378	0.00210605
3390	0.00256835
3402	0.00339022
3414	0.00210605
3426	0.00159238
3438	0.00154101
3450	0.0045203
3462	0.00143828
3474	0.00174648
3486	0.00200331
3498	0.00246562
3510	0.00159238
3522	0.000256835
3534	0.00236288
3546	0.00256835
3558	0.00215741
3570	0.00128418
3582	0.00297929
3594	0.00318475
3606	0.00159238
3618	0.00143828
3630	0.00195195
3642	0.00215741
3654	0.00113007
3666	0.000205468
3678	0.000667771
3690	0.00133554
3702	0.000102734
3714	0.000308202
3726	0.000102734
3738	0.000462303
3750	0.000102734
3762	0.000102734
3774	0.000359569
3786	5.1367e-05
3798	0.000102734
3810	0.000102734
3822	0.000102734
3834	0.000102734
3846	0.000102734
3858	0.000102734
3870	0.000102734
3882	0.000102734
3894	0.000102734
3906	0.000102734
3918	0.000102734
3930	0.00179784
3942	0.000873239
3954	0.000102734
3966	0.000102734
