Infrared Spectrum: Benzoyl chloride, 2-fluoro-
Formula: C 7 H 4 Cl F O
CAS: 393-52-2
Origin: Sadtler Research Labs Under US-EPA Contract
1/CM	ABSORBANCE
450	0.093939
462	0.124571
474	0.0957623
486	0.0207862
498	0.0206403
510	0.0284443
522	0.0236306
534	0.034206
546	0.0256728
558	0.00714753
570	0.00860621
582	0.00525125
594	0.00123988
606	0.00576179
618	0.0319451
630	0.0756326
642	0.138575
654	0.268762
666	0.171541
678	0.0499598
690	0.0136387
702	0.00641819
714	0.00846034
726	0.023193
738	0.0835824
750	0.166362
762	0.367004
774	0.128801
786	0.131865
798	0.365691
810	0.144118
822	0.0565239
834	0.0237765
846	0.0292465
858	0.0610458
870	0.181606
882	0.571146
894	0.621179
906	0.153016
918	0.0562321
930	0.0587119
942	0.0527313
954	0.0277879
966	0.0150244
978	0.0175042
990	0.0192546
1002	0.0252352
1014	0.023193
1026	0.033185
1038	0.0302676
1050	0.0196922
1062	0.0184523
1074	0.0142951
1086	0.0136387
1098	0.0356647
1110	0.105098
1122	0.0823425
1134	0.0183794
1146	0.074028
1158	0.152359
1170	0.0427393
1182	0.140544
1194	0.395302
1206	0.227992
1218	0.0613375
1230	0.0910946
1242	0.220188
1254	0.181752
1266	0.125301
1278	0.272263
1290	0.119685
1302	0.0350083
1314	0.0150973
1326	0.00867915
1338	0.0115965
1350	0.0115965
1362	0.0101378
1374	0.00962729
1386	0.00911675
1398	0.00765807
1410	0.00656406
1422	0.00641819
1434	0.0185982
1446	0.0787687
1458	0.171322
1470	0.104587
1482	0.239734
1494	0.276785
1506	0.092845
1518	0.0219531
1530	0.0138575
1542	0.0107213
1554	0.0107213
1566	0.0262562
1578	0.0726423
1590	0.108599
1602	0.152651
1614	0.248049
1626	0.0600976
1638	0.0131281
1650	0.00816861
1662	0.00670993
1674	0.0118882
1686	0.0167019
1698	0.0208591
1710	0.0328203
1722	0.0425205
1734	0.0613375
1746	0.12231
1758	0.248049
1770	0.305521
1782	0.256509
1794	0.479103
1806	0.72934
1818	0.271606
1830	0.109839
1842	0.0453649
1854	0.014368
1866	0.0068558
1878	0.00306323
1890	0.00415724
1902	0.00481364
1914	0.00700166
1926	0.0136387
1938	0.00955435
1950	0.00495951
1962	0.007731
1974	0.00277149
1986	0.00277149
1998	0.00262562
2010	0.000583472
2022	0.00102108
2034	0.00182335
2046	0.00255269
2058	0.00196922
2070	0.00291736
2082	0.00335496
2094	0.00204215
2106	0.000875208
2118	0.000510538
2130	0.00036467
2142	0.000437604
2154	0.000510538
2166	0.000510538
2178	0.000583472
2190	0.000510538
2202	0.000510538
2214	0.000656406
2226	0.00102108
2238	0.000583472
2250	0.00167748
2262	0.00269856
2274	0.00262562
2286	0.00211509
2298	0.00277149
2310	0.0034279
2322	0.00240682
2334	0.000656406
2346	0.00357377
2358	0.00401137
2370	0.000802274
2382	0.00306323
2394	0.00357377
2406	0.00423017
2418	0.00262562
2430	0.00153161
2442	0.00167748
2454	0.00131281
2466	0.00182335
2478	0.0032091
2490	0.00306323
2502	0.00189628
2514	0.000875208
2526	0.00189628
2538	0.00116694
2550	0.00131281
2562	0.00233389
2574	0.00233389
2586	0.00262562
2598	0.00335496
2610	0.00240682
2622	0.000948142
2634	0.00153161
2646	0.00175042
2658	0.000291736
2670	0.00153161
2682	0.00299029
2694	0.00211509
2706	0.00306323
2718	0.00262562
2730	0.00350083
2742	0.00204215
2754	0.0038655
2766	0.0032091
2778	0.00277149
2790	0.00204215
2802	0.0040843
2814	0.00262562
2826	0.00153161
2838	0.00175042
2850	0.00218802
2862	0.00255269
2874	0.00350083
2886	0.00277149
2898	0.00175042
2910	0.00123988
2922	0.00189628
2934	0.00131281
2946	0.0038655
2958	0.00153161
2970	0.00167748
2982	0.00299029
2994	0.00393844
3006	0.0034279
3018	0.00437604
3030	0.0068558
3042	0.00780394
3054	0.0162643
3066	0.0145139
3078	0.0237765
3090	0.0413536
3102	0.0280067
3114	0.00444897
3126	0.00160455
3138	0.00233389
3150	0.00123988
3162	0.00262562
3174	0.00328203
3186	0.00153161
3198	0.00175042
3210	0.00036467
3222	0.00226095
3234	0.00240682
3246	0.000802274
3258	0.00102108
3270	0.00189628
3282	0.00255269
3294	0.00175042
3306	0.00072934
3318	0.00196922
3330	0.00036467
3342	0.000802274
3354	0.00218802
3366	0.000875208
3378	0.00189628
3390	0.00240682
3402	0.00175042
3414	0.00160455
3426	0.00218802
3438	0.00153161
3450	0.00255269
3462	0.00350083
3474	0.0034279
3486	0.00503245
3498	0.00430311
3510	0.0034279
3522	0.00415724
3534	0.00401137
3546	0.00576179
3558	0.00846034
3570	0.0153891
3582	0.0135657
3594	0.00722047
3606	0.00474071
3618	0.00350083
3630	0.00218802
3642	0.00284443
3654	0.0032091
3666	0.00204215
3678	0.00379257
3690	0.00379257
3702	0.00313616
3714	0.00430311
3726	0.00379257
3738	0.00277149
3750	0.00350083
3762	0.00393844
3774	0.00495951
3786	0.00459484
3798	0.00204215
3810	0.00430311
3822	0.0040843
3834	0.0038655
3846	0.00335496
3858	0.00459484
3870	0.0036467
3882	0.00452191
3894	0.00313616
3906	0.00481364
3918	0.00401137
3930	0.00423017
3942	0.00561592
3954	0.00605352
3966	0.00678286
