Infrared Spectrum: 5-Amino-2-nitrobenzotrifluoride
Formula: C 7 H 5 F 3 N 2 O 2
CAS: 393-11-3
Origin: Sadtler Research Labs Under US-EPA Contract
1/CM	ABSORBANCE
450	0.0126353
462	0.00408302
474	0.00717288
486	0.0096558
498	0.0118628
510	0.00204151
522	0.0112559
534	0.0164976
546	0.0157803
558	0.013794
570	0.029464
582	0.0400026
594	0.0254361
606	0.023836
618	0.0279191
630	0.0440304
642	0.0696873
654	0.0400578
666	0.0497688
678	0.0615764
690	0.0744876
702	0.0393957
714	0.0383473
726	0.0336574
738	0.0414924
750	0.0597556
762	0.0424303
774	0.0290778
786	0.0209669
798	0.0173804
810	0.0241119
822	0.0506516
834	0.111511
846	0.0654387
858	0.0289674
870	0.0519206
882	0.0397819
894	0.0213531
906	0.0466237
918	0.0585969
930	0.0184288
942	0.0168287
954	0.0136285
966	0.0144561
978	0.0118077
990	0.00982133
1002	0.0113111
1014	0.0151182
1026	0.0224566
1038	0.0988202
1050	0.0982685
1062	0.0203048
1074	0.019753
1086	0.0243878
1098	0.0247188
1110	0.039506
1122	0.0755359
1134	0.124974
1146	0.177943
1158	0.228594
1170	0.37448
1182	0.55176
1194	0.280294
1206	0.0951234
1218	0.0569416
1230	0.0506516
1242	0.0923646
1254	0.247851
1266	0.240291
1278	0.115759
1290	0.0510378
1302	0.0500446
1314	0.105883
1326	0.287136
1338	0.437932
1350	0.377293
1362	0.305675
1374	0.0609695
1386	0.035423
1398	0.028857
1410	0.0238912
1422	0.0224015
1434	0.0525276
1446	0.113994
1458	0.0444167
1470	0.0268155
1482	0.0434787
1494	0.0720047
1506	0.0550656
1518	0.0672044
1530	0.10831
1542	0.244154
1554	0.3166
1566	0.174246
1578	0.11118
1590	0.103234
1602	0.124312
1614	0.107704
1626	0.234939
1638	0.19764
1650	0.0554519
1662	0.023505
1674	0.0130767
1686	0.00463478
1698	0.00540725
1710	0.01098
1722	0.00772464
1734	0.00215186
1746	0.00750394
1758	0.00590383
1770	0.00369679
1782	0.00430373
1794	0.000717288
1806	0.00286915
1818	0.00286915
1830	0.0011587
1842	0.00231739
1854	0.00237257
1866	0.00231739
1878	0.00342091
1890	0.00507619
1902	0.00535207
1914	0.00358644
1926	0.00314503
1938	0.00364162
1950	0.00452443
1962	0.0039175
1974	0.00331056
1986	0.00325538
1998	0.00353126
2010	0.00308986
2022	0.00264845
2034	0.00259327
2046	0.0025381
2058	0.00281398
2070	0.00292433
2082	0.00336574
2094	0.00270362
2106	0.00143458
2118	0.000882816
2130	0.00176563
2142	0.00215186
2154	0.00231739
2166	0.00292433
2178	0.00303468
2190	0.00292433
2202	0.00226222
2214	0.00187598
2226	0.00165528
2238	0.00176563
2250	0.00187598
2262	0.0011587
2274	0.0025381
2286	0.00292433
2298	0.00452443
2310	0.00601418
2322	0.0055176
2334	0.00535207
2346	0.00717288
2358	0.0094351
2370	0.00866263
2382	0.00595901
2394	0.00303468
2406	0.0016001
2418	0.0013794
2430	0.000772464
2442	0.00110352
2454	0.000993168
2466	0.000662112
2478	0.00082764
2490	0.00154493
2502	0.000882816
2514	0.00143458
2526	0.00143458
2538	0.0016001
2550	0.00187598
2562	0.00165528
2574	0.00226222
2586	0.00231739
2598	0.00264845
2610	0.00292433
2622	0.00303468
2634	0.0041382
2646	0.00380714
2658	0.00386232
2670	0.00331056
2682	0.00375197
2694	0.00402785
2706	0.00331056
2718	0.00358644
2730	0.00220704
2742	0.00336574
2754	0.00380714
2766	0.00358644
2778	0.00292433
2790	0.00303468
2802	0.00259327
2814	0.00314503
2826	0.00242774
2838	0.00380714
2850	0.00242774
2862	0.00518654
2874	0.00717288
2886	0.00860746
2898	0.0084971
2910	0.00750394
2922	0.00623489
2934	0.00640042
2946	0.00595901
2958	0.00507619
2970	0.0057383
2982	0.00424855
2994	0.00474514
3006	0.0052969
3018	0.0057383
3030	0.00789017
3042	0.00893851
3054	0.0135181
3066	0.0140699
3078	0.0105938
3090	0.00976615
3102	0.00595901
3114	0.00606936
3126	0.0052969
3138	0.00518654
3150	0.00491066
3162	0.00480031
3174	0.00590383
3186	0.00617971
3198	0.0071177
3210	0.0094351
3222	0.00998686
3234	0.00882816
3246	0.00651077
3258	0.00617971
3270	0.00584866
3282	0.00645559
3294	0.0052969
3306	0.00562795
3318	0.00678665
3330	0.00568313
3342	0.0080557
3354	0.00794534
3366	0.00755911
3378	0.00949027
3390	0.0104283
3402	0.0160562
3414	0.0290226
3426	0.0479479
3438	0.0406647
3450	0.0416579
3462	0.0131319
3474	0.00866263
3486	0.010649
3498	0.0144009
3510	0.0244981
3522	0.0170494
3534	0.0178218
3546	0.0168839
3558	0.00777982
3570	0.00209669
3582	0.00590383
3594	0.00535207
3606	0.00502102
3618	0.00342091
3630	0.000717288
3642	0.00463478
3654	0.00424855
3666	0.00546242
3678	0.000772464
3690	0.00336574
3702	0.00496584
3714	0.00375197
3726	0.00408302
3738	0.00154493
3750	0.00204151
3762	0.00540725
3774	0.006897
3786	0.00645559
3798	0.0084971
3810	0.00651077
3822	0.0052969
3834	0.00673147
3846	0.006897
3858	0.00717288
3870	0.00949027
3882	0.00838675
3894	0.00739358
3906	0.00766946
3918	0.00777982
3930	0.00783499
3942	0.00755911
3954	0.00082764
3966	0.0016001
