Infrared Spectrum: 1,1'-Biphenyl, 4-phenoxy-
Formula: C 18 H 14 O
CAS: 3933-94-6
Origin: Sadtler Research Labs Under US-EPA Contract
1/CM	ABSORBANCE
450	0.0199571
462	0.02925
474	0.0393048
486	0.0383907
498	0.0265079
510	0.0175957
522	0.0112735
534	0.0210235
546	0.0245274
558	0.0150821
570	0.0192715
582	0.00335157
594	0.00396094
606	0.0240704
618	0.0233848
630	0.0279551
642	0.0239942
654	0.0348106
666	0.038086
678	0.0579669
690	0.154324
702	0.109916
714	0.0530157
726	0.0504259
738	0.0621564
750	0.128274
762	0.139014
774	0.0380098
786	0.0390762
798	0.0408282
810	0.0386954
822	0.044713
834	0.0732013
846	0.0831798
858	0.0718302
870	0.168797
882	0.031459
894	0.0266602
906	0.0274219
918	0.0204141
930	0.014168
942	0.0173672
954	0.0226993
966	0.0224707
978	0.0217852
990	0.0223184
1002	0.0450177
1014	0.0493595
1026	0.043418
1038	0.03542
1050	0.0290977
1062	0.0348868
1074	0.0364864
1086	0.0304688
1098	0.0403712
1110	0.0390762
1122	0.0301641
1134	0.0348106
1146	0.0372481
1158	0.0670314
1170	0.172149
1182	0.0815802
1194	0.076629
1206	0.10169
1218	0.198047
1230	0.450938
1242	0.76172
1254	0.352676
1266	0.162018
1278	0.108774
1290	0.0875978
1302	0.0503497
1314	0.0333633
1326	0.0369434
1338	0.0306973
1350	0.0278028
1362	0.0230801
1374	0.0229278
1386	0.0257461
1398	0.0246036
1410	0.0277266
1422	0.0251368
1434	0.0334395
1446	0.0546153
1458	0.0677931
1470	0.112049
1482	0.413919
1494	0.4501
1506	0.132235
1518	0.171996
1530	0.0454747
1542	0.0187383
1554	0.0236895
1566	0.0419708
1578	0.101613
1590	0.21511
1602	0.137643
1614	0.0623087
1626	0.02925
1638	0.0165293
1650	0.0153106
1662	0.0147774
1674	0.0115781
1686	0.0057129
1698	0.00975002
1710	0.0121875
1722	0.0123399
1734	0.00799806
1746	0.0125684
1758	0.0143965
1770	0.017291
1782	0.0159961
1794	0.0134063
1806	0.0118828
1818	0.00936916
1830	0.00944533
1842	0.0108926
1854	0.0123399
1866	0.0142442
1878	0.0169864
1890	0.0169864
1902	0.00997853
1914	0.0104356
1926	0.0148535
1938	0.0200332
1950	0.0188907
1962	0.0133301
1974	0.00845509
1986	0.00944533
1998	0.0112735
2010	0.0121113
2022	0.0140918
2034	0.0134824
2046	0.0103594
2058	0.00822658
2070	0.00975002
2082	0.007084
2094	0.00792189
2106	0.00799806
2118	0.00647462
2130	0.00502735
2142	0.00502735
2154	0.0051797
2166	0.0062461
2178	0.00776954
2190	0.0076172
2202	0.0057129
2214	0.00335157
2226	0.00479884
2238	0.00495118
2250	0.00533204
2262	0.00647462
2274	0.00746486
2286	0.00723634
2298	0.00799806
2310	0.0118067
2322	0.0131778
2334	0.0220899
2346	0.0221661
2358	0.0248321
2370	0.0273457
2382	0.0127207
2394	0.00921681
2406	0.0123399
2418	0.0125684
2430	0.0120352
2442	0.011959
2454	0.0081504
2466	0.0081504
2478	0.00716017
2490	0.00746486
2502	0.00655079
2514	0.00647462
2526	0.007084
2538	0.00609376
2550	0.00677931
2562	0.00464649
2574	0.00670314
2586	0.00670314
2598	0.00837892
2610	0.00754103
2622	0.00677931
2634	0.00563673
2646	0.00540821
2658	0.00662696
2670	0.00578907
2682	0.00746486
2694	0.00533204
2706	0.00601759
2718	0.00487501
2730	0.00495118
2742	0.00540821
2754	0.00609376
2766	0.00731251
2778	0.007084
2790	0.00845509
2802	0.00586524
2814	0.00700782
2826	0.00830275
2838	0.0111973
2850	0.0105117
2862	0.0103594
2874	0.00784572
2886	0.00875978
2898	0.00929298
2910	0.00853126
2922	0.0101309
2934	0.00883595
2946	0.0110449
2958	0.00921681
2970	0.0108926
2982	0.0135586
2994	0.0162246
3006	0.021252
3018	0.0329825
3030	0.0648224
3042	0.0986427
3054	0.0626896
3066	0.0858458
3078	0.0971955
3090	0.0632989
3102	0.0411329
3114	0.0192715
3126	0.012416
3138	0.00997853
3150	0.00830275
3162	0.0108164
3174	0.00860744
3186	0.0118067
3198	0.00906447
3210	0.00997853
3222	0.00655079
3234	0.00929298
3246	0.011502
3258	0.0101309
3270	0.007084
3282	0.00495118
3294	0.00609376
3306	0.00449415
3318	0.00921681
3330	0.00792189
3342	0.00921681
3354	0.00723634
3366	0.00959767
3378	0.0106641
3390	0.0113496
3402	0.012416
3414	0.0105879
3426	0.0135586
3438	0.0102832
3450	0.00906447
3462	0.00685548
3474	0.00914064
3486	0.00731251
3498	0.0076172
3510	0.00845509
3522	0.00639845
3534	0.00746486
3546	0.0051797
3558	0.00997853
3570	0.00868361
3582	0.011502
3594	0.010207
3606	0.00975002
3618	0.00639845
3630	0.00639845
3642	0.0108926
3654	0.0158438
3666	0.00837892
3678	0.00251368
3690	0.00198047
3702	0.000228516
3714	0.000152344
3726	0.000152344
3738	0.000152344
3750	0.000152344
3762	0.000152344
3774	0.000152344
3786	0.000152344
3798	0.000152344
3810	0.000152344
3822	0.000152344
3834	0.000152344
3846	0.000152344
3858	0.000152344
3870	0.000152344
3882	0.000152344
3894	0.000152344
3906	0.000152344
3918	0.000152344
3930	0.000152344
3942	0.000152344
3954	0.000152344
3966	0.000152344
