Infrared Spectrum: Acetic acid, methoxy-, ethyl ester
Formula: C 5 H 10 O 3
CAS: 3938-96-3
Origin: Sadtler Research Labs Under US-EPA Contract
1/CM	ABSORBANCE
450	0.00486548
462	0.00495905
474	0.00720466
486	0.00570759
498	0.00552045
510	0.00327484
522	9.3567e-05
534	0.00252631
546	0.00383625
558	0.00626899
570	0.0150643
582	0.0235789
594	0.0294736
606	0.0261988
618	0.0270409
630	0.0217075
642	0.0200233
654	0.0172163
666	0.0174035
678	0.0207719
690	0.0256374
702	0.0311578
714	0.0325613
726	0.0297543
738	0.0267602
750	0.0229239
762	0.0200233
774	0.0190877
786	0.0175906
798	0.0192748
810	0.0177777
822	0.0152514
834	0.0180584
846	0.030035
858	0.0401402
870	0.0340584
882	0.0224561
894	0.0261052
906	0.0473449
918	0.0673682
930	0.0835553
942	0.0953448
954	0.0712045
966	0.0411695
978	0.0324677
990	0.0420116
1002	0.0557659
1014	0.0993682
1026	0.194152
1038	0.253192
1050	0.204912
1062	0.139134
1074	0.102549
1086	0.124444
1098	0.201263
1110	0.301192
1122	0.53773
1134	0.861471
1146	0.714571
1158	0.4378
1170	0.475882
1182	0.762103
1194	0.920044
1206	0.546151
1218	0.2938
1230	0.251695
1242	0.268912
1254	0.307087
1266	0.358642
1278	0.349473
1290	0.257964
1302	0.191906
1314	0.141099
1326	0.0876723
1338	0.0620349
1350	0.0682103
1362	0.0875787
1374	0.120046
1386	0.115275
1398	0.0657776
1410	0.0525847
1422	0.0532396
1434	0.0678361
1446	0.0888886
1458	0.0995553
1470	0.0883272
1482	0.0629706
1494	0.0366783
1506	0.0276958
1518	0.0169356
1530	0.0114152
1542	0.0132865
1554	0.0124444
1566	0.0103859
1578	0.012538
1590	0.0120701
1602	0.0136608
1614	0.0121637
1626	0.0102924
1638	0.012538
1650	0.0096374
1662	0.0121637
1674	0.0116959
1686	0.0179649
1698	0.0248888
1710	0.0394853
1722	0.0688653
1734	0.162432
1746	0.415344
1758	0.646174
1770	0.698852
1782	0.529496
1794	0.259087
1806	0.111064
1818	0.0587601
1830	0.035649
1842	0.0203976
1854	0.0150643
1866	0.0130994
1878	0.0130994
1890	0.0136608
1902	0.0114152
1914	0.00814033
1926	0.00654969
1938	0.00608185
1950	0.00552045
1962	0.00523975
1974	0.00467835
1986	0.00523975
1998	0.00477192
2010	0.00523975
2022	0.00542689
2034	0.00767249
2046	0.0096374
2058	0.0113216
2070	0.0120701
2082	0.0124444
2094	0.0103859
2106	0.00982453
2118	0.009076
2130	0.00814033
2142	0.00795319
2154	0.00739179
2166	0.00570759
2178	0.00467835
2190	0.00402338
2202	0.00346198
2214	0.00327484
2226	0.00355555
2238	0.00355555
2250	0.00290058
2262	0.00224561
2274	0.00243274
2286	0.00280701
2298	0.00439765
2310	0.00617542
2322	0.00645612
2334	0.00486548
2346	0.00318128
2358	0.00598829
2370	0
2382	0.00196491
2394	0.00383625
2406	0.00439765
2418	0.00271344
2430	0.00187134
2442	0.0014035
2454	0.0014035
2466	0.00149707
2478	0.00168421
2490	0.00168421
2502	0.00102924
2514	0.000561402
2526	0
2538	0
2550	0
2562	0.00093567
2574	0.00149707
2586	0.00093567
2598	0.00149707
2610	0.00168421
2622	0.00168421
2634	0.00271344
2646	0.00271344
2658	0.00411695
2670	0.00364911
2682	0.00364911
2694	0.00318128
2706	0.00411695
2718	0.00523975
2730	0.00664326
2742	0.00776606
2754	0.00888886
2766	0.0100117
2778	0.0135672
2790	0.0186198
2802	0.02938
2814	0.0559531
2826	0.105918
2838	0.128748
2850	0.101894
2862	0.0884208
2874	0.106947
2886	0.146994
2898	0.170666
2910	0.178994
2922	0.196304
2934	0.223719
2946	0.231204
2958	0.212678
2970	0.202666
2982	0.252724
2994	0.29352
3006	0.218666
3018	0.113216
3030	0.0552981
3042	0.0322806
3054	0.0228303
3066	0.0177777
3078	0.01469
3090	0.0126315
3102	0.0106666
3114	0.00916957
3126	0.00814033
3138	0.00739179
3150	0.00626899
3162	0.00542689
3174	0.00514618
3186	0.00430408
3198	0.00449122
3210	0.00364911
3222	0.00355555
3234	0.00327484
3246	0.00233917
3258	0.00215204
3270	0.00168421
3282	0.00243274
3294	0.00252631
3306	0.00215204
3318	0.000748536
3330	0.00177777
3342	0.00102924
3354	0.000280701
3366	0.00093567
3378	0.00130994
3390	0.00177777
3402	0.00130994
3414	0.00177777
3426	0.000280701
3438	0.000374268
3450	0.00093567
3462	0.00271344
3474	0.00383625
3486	0.00748536
3498	0.011228
3510	0.00888886
3522	0.00860816
3534	0.00598829
3546	0.00495905
3558	0.00467835
3570	0.00860816
3582	0.00982453
3594	0.00692396
3606	0.00159064
3618	0.00421051
3630	0.00495905
3642	0.00346198
3654	0.00149707
3666	0.00477192
3678	0.00346198
3690	0.00505262
3702	0.00318128
3714	0.0014035
3726	0.00224561
3738	0.00271344
3750	0.00187134
3762	0.00159064
3774	0.00177777
3786	0.00346198
3798	0.00439765
3810	0.00252631
3822	0.00290058
3834	0.00383625
3846	0.00336841
3858	0.00402338
3870	0.00439765
3882	0.00318128
3894	0.00486548
3906	0.00271344
3918	0.00467835
3930	0.00486548
3942	0.00514618
3954	0.00767249
3966	0.00477192
