Infrared Spectrum: Ethyl 3,4-dihydroxybenzoate
Formula: C 9 H 10 O 4
CAS: 3943-89-3
Origin: Sadtler Research Labs Under US-EPA Contract
1/CM	ABSORBANCE
450	0.0354359
462	0.0189758
474	0.0124349
486	0.00984729
498	0.00675653
510	0.00517522
522	0.00517522
534	0.0065409
546	0.00445644
558	0.00697217
570	0.00869724
582	0.018257
594	0.00711592
606	0.00179695
618	0.00352202
630	0.0143037
642	0.020629
654	0.00503146
666	0.00301888
678	0.00316263
690	0.00194071
702	0.00452831
714	0.00819409
726	0.00970353
738	0.00632526
750	0.0234322
762	0.0973228
774	0.103361
786	0.0421205
798	0.0108536
810	0.0127943
822	0.0211321
834	0.0227134
846	0.0122911
858	0.0153819
870	0.0250854
882	0.0260198
894	0.0275293
906	0.0273855
918	0.0135131
930	0.0350765
942	0.0603056
954	0.0201258
966	0.00876912
978	0.0084816
990	0.0125787
1002	0.0227134
1014	0.0536929
1026	0.0707998
1038	0.0414017
1050	0.0337827
1062	0.0408267
1074	0.0811503
1086	0.209812
1098	0.27558
1110	0.26523
1122	0.118311
1134	0.0641152
1146	0.100198
1158	0.166613
1170	0.154969
1182	0.128518
1194	0.177754
1206	0.297503
1218	0.604206
1230	0.306344
1242	0.0993354
1254	0.0962446
1266	0.183648
1278	0.385194
1290	0.71878
1302	0.337108
1314	0.145409
1326	0.0752563
1338	0.0588681
1350	0.050099
1362	0.0631089
1374	0.0886256
1386	0.0457144
1398	0.0401798
1410	0.0357234
1422	0.0440612
1434	0.101707
1446	0.127368
1458	0.0561367
1470	0.0546273
1482	0.0426237
1494	0.0427674
1506	0.0844567
1518	0.128302
1530	0.0795689
1542	0.0198383
1554	0.0108536
1566	0.0133693
1578	0.0250854
1590	0.0555617
1602	0.103864
1614	0.121761
1626	0.0680685
1638	0.0255167
1650	0.018257
1662	0.0216353
1674	0.0278168
1686	0.0385985
1698	0.0490927
1710	0.0610244
1722	0.107458
1734	0.303756
1746	0.266739
1758	0.0469363
1770	0.0127224
1782	0.0104942
1794	0.00711592
1806	0.00388141
1818	0.00222822
1830	0.000934414
1842	0.000790658
1854	0.00122193
1866	0.00179695
1878	0.00345014
1890	0.00373766
1902	0.00265949
1914	0.00150944
1926	0.00107817
1938	0.00122193
1950	0.00172507
1962	0.00150944
1974	0.00107817
1986	0.00136568
1998	0.000934414
2010	0.000862536
2022	0.00122193
2034	0.00251573
2046	0.00366578
2058	0.00373766
2070	0.00287512
2082	0.00244385
2094	0.00194071
2106	0.0012938
2118	0.000862536
2130	0.00100629
2142	0.000934414
2154	0.00158132
2166	0.00100629
2178	0.00035939
2190	7.1878e-05
2202	0.000143756
2214	0.00035939
2226	0.000790658
2238	0.000862536
2250	0.00071878
2262	0.00071878
2274	0.00122193
2286	0.00150944
2298	0.00237197
2310	0.00265949
2322	0.00416892
2334	0.00531897
2346	0.00481583
2358	0.00546273
2370	0.00582212
2382	0.00388141
2394	0.00287512
2406	0.00222822
2418	0.00179695
2430	0.00179695
2442	0.00194071
2454	0.00215634
2466	0.00244385
2478	0.00258761
2490	0.00280324
2502	0.00323451
2514	0.00301888
2526	0.00280324
2538	0.00330639
2550	0.00265949
2562	0.00251573
2574	0.00208446
2586	0.00237197
2598	0.00201258
2610	0.00237197
2622	0.00316263
2634	0.00280324
2646	0.00251573
2658	0.00258761
2670	0.00258761
2682	0.00309075
2694	0.00309075
2706	0.00273136
2718	0.00287512
2730	0.00309075
2742	0.00330639
2754	0.00345014
2766	0.0035939
2778	0.0042408
2790	0.00460019
2802	0.0048877
2814	0.00503146
2826	0.00639714
2838	0.00776282
2850	0.00955977
2862	0.012938
2874	0.0169632
2886	0.0234322
2898	0.0255886
2910	0.0307638
2922	0.0323451
2934	0.0366578
2946	0.0490927
2958	0.0445644
2970	0.0542679
2982	0.0785627
2994	0.0687872
3006	0.0411142
3018	0.0253011
3030	0.0176101
3042	0.0161007
3054	0.0140881
3066	0.0140881
3078	0.0149506
3090	0.0120036
3102	0.00977541
3114	0.00840973
3126	0.0084816
3138	0.00876912
3150	0.00833785
3162	0.00855348
3174	0.00891287
3186	0.00934414
3198	0.00970353
3210	0.00977541
3222	0.0101348
3234	0.0101348
3246	0.0101348
3258	0.00984729
3270	0.0107098
3282	0.0108536
3294	0.011213
3306	0.011213
3318	0.0108536
3330	0.0114286
3342	0.0117161
3354	0.0120036
3366	0.0119317
3378	0.0119317
3390	0.0116442
3402	0.0112848
3414	0.0105661
3426	0.0107817
3438	0.0103504
3450	0.0105661
3462	0.00963165
3474	0.00812221
3486	0.00725968
3498	0.0065409
3510	0.0065409
3522	0.00539085
3534	0.00531897
3546	0.00539085
3558	0.00431268
3570	0.00840973
3582	0.0345014
3594	0.10947
3606	0.120036
3618	0.0301169
3630	0.00927226
3642	0.0181851
3654	0.0607369
3666	0.0768376
3678	0.0154538
3690	0.00158132
3702	0
3714	0
3726	0
3738	0
3750	0
3762	0
3774	0
3786	0
3798	0
3810	0
3822	0
3834	0
3846	0
3858	0
3870	0
3882	0
3894	0
3906	0
3918	0
3930	0
3942	0
3954	0
3966	0
