Infrared Spectrum: Benzoic acid, 4-hydroxy-3-methoxy-, methyl ester
Formula: C 9 H 10 O 4
CAS: 3943-74-6
Origin: Sadtler Research Labs Under US-EPA Contract
1/CM	ABSORBANCE
450	0
462	0.0513001
474	0.0430436
486	0.0464563
498	0.0299434
510	0.0157423
522	0.0202558
534	0.0197054
546	0.0212466
558	0.0427134
570	0.0365486
582	0.0239987
594	0.0210264
606	0.0236685
618	0.0232281
630	0.0385301
642	0.0444747
654	0.0211365
666	0.0193751
678	0.0181642
690	0.0181642
702	0.0170633
714	0.0208063
726	0.0264206
738	0.0242189
750	0.042273
762	0.14025
774	0.175367
786	0.057575
798	0.0442546
810	0.0347872
822	0.0317048
834	0.044805
846	0.029503
858	0.0250996
870	0.0366586
882	0.0621986
894	0.0568044
906	0.0368788
918	0.0289526
930	0.02565
942	0.0231181
954	0.024329
966	0.0330258
978	0.0570245
990	0.0833351
1002	0.0636297
1014	0.0533917
1026	0.10249
1038	0.131553
1050	0.0724366
1062	0.040952
1074	0.0555934
1086	0.139369
1098	0.235144
1110	0.200467
1122	0.1659
1134	0.084436
1146	0.0564741
1158	0.0776106
1170	0.120544
1182	0.173275
1194	0.280939
1206	0.509478
1218	0.756951
1230	0.404236
1242	0.143662
1254	0.149827
1266	0.285783
1278	0.818489
1290	1.02776
1302	0.339505
1314	0.112728
1326	0.0707853
1338	0.0579052
1350	0.0579052
1362	0.0823443
1374	0.125498
1386	0.0831149
1398	0.0470067
1410	0.0560338
1422	0.10205
1434	0.231401
1446	0.200687
1458	0.109536
1470	0.11482
1482	0.0728769
1494	0.0836654
1506	0.250225
1518	0.280719
1530	0.0713357
1542	0.0348973
1554	0.0323653
1566	0.0372091
1578	0.0566943
1590	0.104251
1602	0.163478
1614	0.15379
1626	0.0659415
1638	0.0314846
1650	0.0266408
1662	0.0270812
1674	0.0253198
1686	0.0306039
1698	0.0367687
1710	0.0510799
1722	0.116251
1734	0.408529
1746	0.503313
1758	0.0989673
1770	0.049869
1782	0.043484
1794	0.033246
1806	0.0232281
1818	0.0183844
1830	0.0172835
1842	0.0162927
1854	0.0188247
1866	0.0194852
1878	0.0201457
1890	0.0211365
1902	0.0211365
1914	0.0176138
1926	0.0173936
1938	0.0178339
1950	0.0172835
1962	0.0177238
1974	0.0190449
1986	0.0194852
1998	0.019155
2010	0.0181642
2022	0.0178339
2034	0.0193751
2046	0.0211365
2058	0.0234483
2070	0.0241088
2082	0.0231181
2094	0.0220172
2106	0.0210264
2118	0.0184944
2130	0.0176138
2142	0.0176138
2154	0.0175037
2166	0.0175037
2178	0.0169532
2190	0.0159625
2202	0.0159625
2214	0.015412
2226	0.0147515
2238	0.015302
2250	0.015412
2262	0.015412
2274	0.0165129
2286	0.0172835
2298	0.0189348
2310	0.0205861
2322	0.0200357
2334	0.0181642
2346	0.019155
2358	0.0181642
2370	0.0183844
2382	0.019155
2394	0.0167331
2406	0.0164028
2418	0.0161826
2430	0.0156322
2442	0.0156322
2454	0.0157423
2466	0.0160726
2478	0.0173936
2490	0.0186045
2502	0.0184944
2514	0.0176138
2526	0.0169532
2538	0.0173936
2550	0.0159625
2562	0.0156322
2574	0.0168432
2586	0.016623
2598	0.0164028
2610	0.0168432
2622	0.016623
2634	0.0171734
2646	0.0190449
2658	0.0200357
2670	0.017944
2682	0.016623
2694	0.0160726
2706	0.0159625
2718	0.0167331
2730	0.0170633
2742	0.0176138
2754	0.0178339
2766	0.0181642
2778	0.0180541
2790	0.0183844
2802	0.0197054
2814	0.0214668
2826	0.0253198
2838	0.0330258
2850	0.0546027
2862	0.0459059
2874	0.0334661
2886	0.0339065
2898	0.0388604
2910	0.0442546
2922	0.0507496
2934	0.0505295
2946	0.0808031
2958	0.15313
2970	0.114049
2982	0.0559237
2994	0.0521808
3006	0.0688037
3018	0.0719962
3030	0.0450252
3042	0.0335762
3054	0.0286224
3066	0.0299434
3078	0.0344569
3090	0.0335762
3102	0.0246593
3114	0.0219071
3126	0.0206962
3138	0.0195953
3150	0.0186045
3162	0.0180541
3174	0.0170633
3186	0.0176138
3198	0.0176138
3210	0.0172835
3222	0.0173936
3234	0.0165129
3246	0.0171734
3258	0.0172835
3270	0.0168432
3282	0.0165129
3294	0.0161826
3306	0.0165129
3318	0.0167331
3330	0.016623
3342	0.0161826
3354	0.016623
3366	0.0165129
3378	0.0155221
3390	0.0158524
3402	0.0155221
3414	0.0156322
3426	0.0159625
3438	0.0164028
3450	0.0171734
3462	0.017944
3474	0.0159625
3486	0.0149717
3498	0.0164028
3510	0.0170633
3522	0.0183844
3534	0.0197054
3546	0.023008
3558	0.0444747
3570	0.156983
3582	0.234043
3594	0.0828948
3606	0.0275215
3618	0.0208063
3630	0.0208063
3642	0.0227878
3654	0.0209163
3666	0.0175037
3678	0.0172835
3690	0.0180541
3702	0.0176138
3714	0.0181642
3726	0.0187146
3738	0.0186045
3750	0.0189348
3762	0.0167331
3774	0.0161826
3786	0.0156322
3798	0.0171734
3810	0.0149717
3822	0.0159625
3834	0.0161826
3846	0.0168432
3858	0.0190449
3870	0.0177238
3882	0.0176138
3894	0.0176138
3906	0.0170633
3918	0.0168432
3930	0.0168432
3942	0.0165129
3954	0.0162927
3966	0.0173936
