Infrared Spectrum: Undecane, 2-bromo-
Formula: C 11 H 23 Br
CAS: 39563-54-7
Origin: Sadtler Research Labs Under US-EPA Contract
1/CM	ABSORBANCE
450	0.013542
462	0.0227879
474	0.0247491
486	0.0136354
498	0.0249359
510	0.0268972
522	0.031847
534	0.0388515
546	0.0462295
558	0.0325942
570	0.0256831
582	0.0296056
594	0.0242822
606	0.027084
618	0.037544
630	0.0390383
642	0.0248425
654	0.0203597
666	0.0217606
678	0.0251227
690	0.0228813
702	0.0254029
714	0.0329677
726	0.0371704
738	0.0353026
750	0.0293254
762	0.0284849
774	0.0275509
786	0.026617
798	0.0247491
810	0.0245624
822	0.0250293
834	0.02615
846	0.0255897
858	0.0256831
870	0.0275509
882	0.0275509
894	0.0281113
906	0.0258699
918	0.0242822
930	0.0221341
942	0.0221341
954	0.0224143
966	0.024002
978	0.0272708
990	0.0316602
1002	0.0346488
1014	0.031847
1026	0.0291386
1038	0.0289518
1050	0.0272708
1062	0.0272708
1074	0.0273641
1086	0.0269906
1098	0.0260566
1110	0.0267104
1122	0.0306329
1134	0.0386647
1146	0.0410929
1158	0.0409995
1170	0.0445485
1182	0.0451088
1194	0.0514595
1206	0.056316
1218	0.0579037
1230	0.0540745
1242	0.0556622
1254	0.0465097
1266	0.043241
1278	0.0392251
1290	0.0381977
1302	0.0397854
1314	0.0351158
1326	0.0299792
1338	0.0317536
1350	0.0395052
1362	0.0422136
1374	0.0474436
1386	0.0761153
1398	0.0310999
1410	0.0246558
1422	0.02615
1434	0.040159
1446	0.0694844
1458	0.101985
1470	0.0947005
1482	0.0395986
1494	0.0217606
1506	0.0174645
1518	0.0165306
1530	0.0148495
1542	0.0126081
1554	0.0119543
1566	0.0117675
1578	0.0122345
1590	0.0111138
1602	0.0121411
1614	0.0110204
1626	0.0102732
1638	0.010927
1650	0.0101798
1662	0.00971287
1674	0.0102732
1686	0.01046
1698	0.0108336
1710	0.00971287
1722	0.00989966
1734	0.00905912
1746	0.00915251
1758	0.00840537
1770	0.00971287
1782	0.00924591
1794	0.0093393
1806	0.00737805
1818	0.00840537
1830	0.00747144
1842	0.00616394
1854	0.00793841
1866	0.00709787
1878	0.00831198
1890	0.00747144
1902	0.00728465
1914	0.00579037
1926	0.00737805
1938	0.00653751
1950	0.00653751
1962	0.00709787
1974	0.00635072
1986	0.00569697
1998	0.0066309
2010	0.00728465
2022	0.00765823
2034	0.00653751
2046	0.00756483
2058	0.00625733
2070	0.00597715
2082	0.00560358
2094	0.00560358
2106	0.00625733
2118	0.00569697
2130	0.00607055
2142	0.0053234
2154	0.00625733
2166	0.00551019
2178	0.00560358
2190	0.00438947
2202	0.00429608
2214	0.00420269
2226	0.0040159
2238	0.00410929
2250	0.00476304
2262	0.00523001
2274	0.00541679
2286	0.00597715
2298	0.00877894
2310	0.0111138
2322	0.0108336
2334	0.00989966
2346	0.0154098
2358	0.00504322
2370	0.00924591
2382	0.00887234
2394	0.00429608
2406	0.00326876
2418	0.00317536
2430	0.00280179
2442	0.00289518
2454	0.00317536
2466	0.00345554
2478	0.00112072
2490	0.002615
2502	0.00196125
2514	0.00177447
2526	0.00224143
2538	0.00429608
2550	0.00289518
2562	0.00336215
2574	0.00438947
2586	0.0053234
2598	0.00560358
2610	0.0066309
2622	0.00719126
2634	0.00737805
2646	0.00700448
2658	0.0080318
2670	0.00775162
2682	0.0105534
2694	0.0115807
2706	0.00989966
2718	0.00924591
2730	0.0120477
2742	0.0141957
2754	0.0125147
2766	0.0120477
2778	0.0121411
2790	0.016157
2802	0.0197993
2814	0.0247491
2826	0.0353959
2838	0.0580904
2850	0.113286
2862	0.321085
2874	0.300819
2886	0.216765
2898	0.186973
2910	0.258605
2922	0.48555
2934	0.93393
2946	0.621437
2958	0.327062
2970	0.394305
2982	0.205932
2994	0.145413
3006	0.0546349
3018	0.0278311
3030	0.0197059
3042	0.013075
3054	0.0117675
3066	0.0113939
3078	0.00999305
3090	0.00747144
3102	0.0080318
3114	0.00588376
3126	0.00831198
3138	0.00793841
3150	0.00485644
3162	0.00588376
3174	0.00494983
3186	0.00644412
3198	0.0080318
3210	0.00541679
3222	0.00616394
3234	0.00448286
3246	0.00569697
3258	0.00504322
3270	0.0040159
3282	0.00373572
3294	0.00607055
3306	0.00607055
3318	0.00308197
3330	0.00719126
3342	0.00457626
3354	0.00747144
3366	0.00392251
3378	0.0040159
3390	0.00485644
3402	0.00476304
3414	0.00597715
3426	0.00625733
3438	0.00149429
3450	0.00373572
3462	0.00635072
3474	0.00345554
3486	0.00317536
3498	0.00466965
3510	0.00373572
3522	0.00644412
3534	0.00504322
3546	0.00681769
3558	0.00625733
3570	0.00625733
3582	0.00635072
3594	0.00625733
3606	0.00410929
3618	0.00709787
3630	0.00896573
3642	0.00765823
3654	0.0115807
3666	0.00102732
3678	0.00868555
3690	0.00831198
3702	0.00616394
3714	0.00728465
3726	0.00719126
3738	0.00644412
3750	0.00896573
3762	0.00625733
3774	0.00887234
3786	0.00719126
3798	0.0101798
3810	0.00429608
3822	0.00541679
3834	0.00625733
3846	0.00989966
3858	0.00840537
3870	0.00952609
3882	0.00494983
3894	0.00476304
3906	0.00354893
3918	0.0111138
3930	0.00112072
3942	0.0080318
3954	0.00186786
3966	0.00877894
