Infrared Spectrum: Benzene, 1-(bromomethyl)-3-nitro-
Formula: C 7 H 6 Br N O 2
CAS: 3958-57-4
Origin: Sadtler Research Labs Under US-EPA Contract
1/CM	ABSORBANCE
450	0.00777154
462	0.0108126
474	0.00450524
486	0.00822206
498	0.00889785
510	0.0109252
522	0.0121641
534	0.0147547
546	0.0097989
558	0.029622
570	0.0181336
582	0.0334514
594	0.00765891
606	0.0112631
618	0.0328883
630	0.0723091
642	0.0751249
654	0.0709575
666	0.0914564
678	0.1828
690	0.329784
702	0.165455
714	0.0685923
726	0.073548
738	0.0734354
750	0.0114884
762	0.00112631
774	0.00394208
786	0.0181336
798	0.104071
810	0.211296
822	0.0870638
834	0.0114884
846	0.000450524
858	0.00450524
870	0.00934837
882	0.00765891
894	0.0236525
906	0.0519229
918	0.0792922
930	0.0339019
942	0.00641997
954	0.00225262
966	0.00247788
978	0.000901048
990	0.000450524
1002	0.00450524
1014	0.00213999
1026	0.00405472
1038	0.00608207
1050	0.0100242
1062	0.0237651
1074	0.0572165
1086	0.0763638
1098	0.107337
1110	0.0450524
1122	0.0152052
1134	0.0217378
1146	0.0796301
1158	0.0407724
1170	0.0331135
1182	0.016782
1194	0.0353661
1206	0.066227
1218	0.0993405
1230	0.2149
1242	0.0770396
1254	0.0275946
1266	0.0265809
1278	0.0366051
1290	0.0751249
1302	0.11646
1314	0.103057
1326	0.0803059
1338	0.234723
1350	0.754966
1362	0.676011
1374	0.228754
1386	0.058906
1398	0.027482
1410	0.0185841
1422	0.0248915
1434	0.0458408
1446	0.0585681
1458	0.035704
1470	0.0497829
1482	0.079067
1494	0.0774901
1506	0.106662
1518	0.121416
1530	0.271666
1542	0.777604
1554	1.10649
1566	0.419888
1578	0.173226
1590	0.161288
1602	0.104972
1614	0.0693807
1626	0.0409977
1638	0.0202736
1650	0.0182462
1662	0.0163315
1674	0.0110378
1686	0.00822206
1698	0.00957364
1710	0.0171199
1722	0.0388577
1734	0.0418987
1746	0.0141915
1758	0.0103621
1770	0.0121641
1782	0.00878522
1794	0.00867259
1806	0.00855996
1818	0.00732102
1830	0.00810943
1842	0.00687049
1854	0.00450524
1866	0.00304104
1878	0.00337893
1890	0.00709575
1902	0.0120515
1914	0.00382945
1926	0.00101368
1938	0.00270314
1950	0.00822206
1962	0.00687049
1974	0.00168947
1986	0.0014642
1998	0.00135157
2010	0.000901048
2022	0.000675786
2034	0.000225262
2046	0.000225262
2058	0
2070	0.000450524
2082	0.000901048
2094	0.00112631
2106	0.000901048
2118	0.000337893
2130	0.000337893
2142	0.000337893
2154	0.000450524
2166	0.000563155
2178	0.000901048
2190	0.000450524
2202	0.000450524
2214	0.000337893
2226	0
2238	0.000225262
2250	0.000901048
2262	0.0014642
2274	0.00270314
2286	0.00416735
2298	0.00529366
2310	0.00664523
2322	0.00585681
2334	0.00574418
2346	0.00765891
2358	0.00664523
2370	0.00484313
2382	0.00585681
2394	0.00259051
2406	0.00202736
2418	0.0014642
2430	0.00191473
2442	0.00304104
2454	0.00371682
2466	0.00315367
2478	0.00202736
2490	0.0014642
2502	0.0014642
2514	0.00123894
2526	0.00157683
2538	0.0014642
2550	0.00123894
2562	0.00191473
2574	0.00168947
2586	0.00236525
2598	0.0018021
2610	0.0018021
2622	0.00202736
2634	0.00259051
2646	0.00349156
2658	0.00518103
2670	0.00461787
2682	0.00427998
2694	0.00506839
2706	0.00630734
2718	0.00698312
2730	0.00664523
2742	0.00394208
2754	0.00315367
2766	0.00292841
2778	0.00382945
2790	0.00585681
2802	0.00833469
2814	0.0104747
2826	0.00991153
2838	0.0103621
2850	0.0101368
2862	0.0112631
2874	0.0154304
2886	0.018922
2898	0.0191473
2910	0.0145294
2922	0.0112631
2934	0.0097989
2946	0.0103621
2958	0.0120515
2970	0.0172325
2982	0.0273693
2994	0.015881
3006	0.00991153
3018	0.0143041
3030	0.015881
3042	0.0171199
3054	0.0150926
3066	0.0242157
3078	0.0553018
3090	0.0391956
3102	0.0251167
3114	0.00664523
3126	0.00259051
3138	0.00168947
3150	0.00135157
3162	0.00123894
3174	0.00135157
3186	0.00123894
3198	0.00202736
3210	0.00191473
3222	0.00168947
3234	0.00157683
3246	0.00157683
3258	0.00101368
3270	0.000788417
3282	0.00112631
3294	0.000225262
3306	0.000788417
3318	0.000675786
3330	0.000450524
3342	0.000675786
3354	0.000337893
3366	0.000563155
3378	0.000337893
3390	0.000337893
3402	0
3414	0.000901048
3426	0.00112631
3438	0.000675786
3450	0.000225262
3462	0.000450524
3474	0.000675786
3486	0.00112631
3498	0.00135157
3510	0.00112631
3522	0.0014642
3534	0.000901048
3546	0.00112631
3558	0.00168947
3570	0.00213999
3582	0.00270314
3594	0.00371682
3606	0.00213999
3618	0.00168947
3630	0.00281577
3642	0.00259051
3654	0.00270314
3666	0.00123894
3678	0.00247788
3690	0.00168947
3702	0.00157683
3714	0.00225262
3726	0.00270314
3738	0.00123894
3750	0.000901048
3762	0.0018021
3774	0.000450524
3786	0.0014642
3798	0.000337893
3810	0.0014642
3822	0.0014642
3834	0.00168947
3846	0.00191473
3858	0.00157683
3870	0.00123894
3882	0.00292841
3894	0.00202736
3906	0.0018021
3918	0.00281577
3930	0.00202736
3942	0.00191473
3954	0.00315367
3966	0.00315367
