Infrared Spectrum: 1,1'-Biphenyl,3,3'-difluoro-
Formula: C 12 H 8 F 2
CAS: 396-64-5
Origin: Sadtler Research Labs Under US-EPA Contract
1/CM	ABSORBANCE
450	0
462	0.0217811
474	0.0253132
486	0.0214447
498	0.014717
510	0.037255
522	0.104785
534	0.0530652
546	0.0241358
558	0.0175763
570	0.0238835
582	0.0195105
594	0.0200992
606	0.0246404
618	0.0592043
630	0.0228744
642	0.0230426
654	0.0243881
666	0.0266587
678	0.0990663
690	0.30729
702	0.137583
714	0.0611385
726	0.0289294
738	0.0290135
750	0.0330501
762	0.0717347
774	0.42511
786	0.443864
798	0.0935159
810	0.0513833
822	0.38693
834	0.338743
846	0.0486922
858	0.120511
870	0.244806
882	0.148095
894	0.0826674
906	0.034648
918	0.0359935
930	0.100916
942	0.122109
954	0.0414598
966	0.0351525
978	0.037255
990	0.0306113
1002	0.04331
1014	0.0265747
1026	0.0245563
1038	0.0308636
1050	0.0370868
1062	0.0312
1074	0.0760237
1086	0.0722393
1098	0.0315364
1110	0.0378436
1122	0.0417121
1134	0.0498695
1146	0.0709779
1158	0.258094
1170	0.194012
1182	0.0723234
1194	0.0592884
1206	0.242872
1218	0.737278
1230	0.206374
1242	0.115129
1254	0.391303
1266	0.276763
1278	0.120595
1290	0.118072
1302	0.194012
1314	0.147674
1326	0.0572701
1338	0.0380118
1350	0.0395256
1362	0.0322932
1374	0.026911
1386	0.0334706
1398	0.0561768
1410	0.195946
1422	0.267933
1434	0.1634
1446	0.0924226
1458	0.154402
1470	0.339584
1482	0.632241
1494	0.1872
1506	0.12295
1518	0.0844334
1530	0.0682027
1542	0.0733326
1554	0.118072
1566	0.22025
1578	0.5965
1590	0.84097
1602	0.517701
1614	0.778486
1626	0.25002
1638	0.0669412
1650	0.0317046
1662	0.0315364
1674	0.0444873
1686	0.0323773
1698	0.0270792
1710	0.0614749
1722	0.0774533
1734	0.0418803
1746	0.0475989
1758	0.0344798
1770	0.0302749
1782	0.0374232
1794	0.0229585
1806	0.0189218
1818	0.0185013
1830	0.0212765
1842	0.0249768
1854	0.0422167
1866	0.0286771
1878	0.0200151
1890	0.0176604
1902	0.0198469
1914	0.0236313
1926	0.0408711
1938	0.0354889
1950	0.0189218
1962	0.0170717
1974	0.0185854
1986	0.021697
1998	0.0195105
2010	0.0178286
2022	0.0166512
2034	0.0175763
2046	0.019931
2058	0.018165
2070	0.0171558
2082	0.0178286
2094	0.0186695
2106	0.0180809
2118	0.0174922
2130	0.0180809
2142	0.0195946
2154	0.0206038
2166	0.0178286
2178	0.0172399
2190	0.017324
2202	0.0168194
2214	0.0158102
2226	0.0151375
2238	0.0159784
2250	0.0169876
2262	0.0158102
2274	0.0160625
2286	0.0176604
2298	0.017324
2310	0.0188377
2322	0.0210243
2334	0.0197628
2346	0.0195946
2358	0.019931
2370	0.0192582
2382	0.0195946
2394	0.0180809
2406	0.0186695
2418	0.0219493
2430	0.0219493
2442	0.0201833
2454	0.0196787
2466	0.0188377
2478	0.0195105
2490	0.0192582
2502	0.0175763
2514	0.0179968
2526	0.0192582
2538	0.0184172
2550	0.0185854
2562	0.0194264
2574	0.0196787
2586	0.0183331
2598	0.017324
2610	0.0176604
2622	0.0175763
2634	0.0174081
2646	0.0177445
2658	0.0177445
2670	0.0179127
2682	0.0184172
2694	0.0187536
2706	0.0185854
2718	0.0188377
2730	0.0183331
2742	0.0183331
2754	0.01909
2766	0.0185013
2778	0.018165
2790	0.0186695
2802	0.0183331
2814	0.0175763
2826	0.0185013
2838	0.0193423
2850	0.0198469
2862	0.0213606
2874	0.0222016
2886	0.0220334
2898	0.0206038
2910	0.020772
2922	0.0214447
2934	0.0205197
2946	0.0211083
2958	0.0216129
2970	0.0241358
2982	0.0235472
2994	0.0227062
3006	0.0222857
3018	0.0237995
3030	0.0331342
3042	0.065007
3054	0.0851903
3066	0.0932636
3078	0.113783
3090	0.118745
3102	0.053738
3114	0.0376755
3126	0.0285089
3138	0.0209402
3150	0.018249
3162	0.0170717
3174	0.0174081
3186	0.0171558
3198	0.0174922
3210	0.0169035
3222	0.0174922
3234	0.0183331
3246	0.0179127
3258	0.0172399
3270	0.0180809
3282	0.0178286
3294	0.0178286
3306	0.0179127
3318	0.0179968
3330	0.0177445
3342	0.0179127
3354	0.0176604
3366	0.0174081
3378	0.0179127
3390	0.0178286
3402	0.0179968
3414	0.0174081
3426	0.0180809
3438	0.0177445
3450	0.0179127
3462	0.0183331
3474	0.0178286
3486	0.0174922
3498	0.018165
3510	0.0185013
3522	0.0185013
3534	0.0187536
3546	0.0177445
3558	0.0185854
3570	0.0175763
3582	0.0192582
3594	0.0172399
3606	0.0195946
3618	0.0175763
3630	0.0153898
3642	0.0180809
3654	0.0166512
3666	0.0216129
3678	0.0149693
3690	0.0196787
3702	0.0183331
3714	0.0183331
3726	0.018249
3738	0.0190059
3750	0.0189218
3762	0.0192582
3774	0.0195946
3786	0.0204356
3798	0.0204356
3810	0.0200992
3822	0.016483
3834	0.0183331
3846	0.0185854
3858	0.0169035
3870	0.0195105
3882	0.0184172
3894	0.0197628
3906	0.0185013
3918	0.0194264
3930	0.0197628
3942	0.0202674
3954	0.0214447
3966	0.0205197
