Infrared Spectrum: 2-Azetidinone, 1,4-diphenyl-3-ethyl-,
Formula: C 17 H 17 N O
CAS: 39629-27-1
Origin: Sadtler Research Labs Under US-EPA Contract
1/CM	ABSORBANCE
450	0.0209257
462	0.00604521
474	0.00651022
486	0.00453391
498	0.029296
510	0.044874
522	0.00744026
534	0.00337137
546	0.00395264
558	0.00395264
570	0.00372013
582	0.0102304
594	0.00244133
606	0.000465016
618	0.00406889
630	0.00837029
642	0.00651022
654	0.0145317
666	0.0194144
678	0.029761
690	0.143457
702	0.12195
714	0.0433627
726	0.0337137
738	0.0978859
750	0.24239
762	0.0476641
774	0.0187169
786	0.0168568
798	0.014648
810	0.00918407
822	0.00383638
834	0.00639397
846	0.0188331
858	0.0088353
870	0.00476641
882	0.00616146
894	0.020577
906	0.00639397
918	0.00244133
930	0.0103466
942	0.00964908
954	0.00267384
966	0.0043014
978	0.00802153
990	0.00813778
1002	0.00651022
1014	0.00964908
1026	0.0332486
1038	0.0175544
1050	0.0247621
1062	0.0391776
1074	0.0491754
1086	0.0492917
1098	0.0610334
1110	0.132762
1122	0.0985834
1134	0.117765
1146	0.112534
1158	0.0354575
1170	0.0201119
1182	0.0390613
1194	0.0242971
1206	0.0239483
1218	0.0306911
1230	0.0324349
1242	0.014648
1254	0.0187169
1266	0.0240646
1278	0.0339462
1290	0.044874
1302	0.064986
1314	0.0692874
1326	0.127647
1338	0.25355
1350	0.312374
1362	0.251341
1374	0.439673
1386	0.210652
1398	0.0690549
1410	0.0363875
1422	0.0241808
1434	0.0238321
1446	0.0359225
1458	0.104396
1470	0.059522
1482	0.093352
1494	0.206932
1506	0.370153
1518	0.0368525
1530	0.0183681
1542	0.0191819
1554	0.0127879
1566	0.0162756
1578	0.0406889
1590	0.0986996
1602	0.21042
1614	0.065916
1626	0.0244133
1638	0.0163918
1650	0.0176706
1662	0.0105791
1674	0.013718
1686	0.0173218
1698	0.0230183
1710	0.0263897
1722	0.0413864
1734	0.078704
1746	0.126252
1758	0.180077
1770	0.428512
1782	1.16254
1794	0.372827
1806	0.0778902
1818	0.0324349
1830	0.0226695
1842	0.0186006
1854	0.0161593
1866	0.0139505
1878	0.0086028
1890	0.00662648
1902	0.00418514
1914	0.00488267
1926	0.00778902
1938	0.0109279
1950	0.0108116
1962	0.00639397
1974	0.00232508
1986	0.00139505
1998	0.00127879
2010	0.00127879
2022	0.00209257
2034	0.0015113
2046	0.00209257
2058	0.00116254
2070	0.00127879
2082	0.00116254
2094	0.00127879
2106	0.00139505
2118	0.00174381
2130	0.0015113
2142	0.00139505
2154	0.0015113
2166	0.00209257
2178	0.00162756
2190	0.00162756
2202	0.0015113
2214	0.00139505
2226	0.00139505
2238	0.00197632
2250	0.0043014
2262	0.00674273
2274	0.00895156
2286	0.00988159
2298	0.00744026
2310	0.00639397
2322	0.00395264
2334	0.00232508
2346	0.00476641
2358	0.00395264
2370	0.00523143
2382	0.00441765
2394	0.00139505
2406	0.00139505
2418	0.000930032
2430	0.000348762
2442	0.000348762
2454	0.000232508
2466	0.000465016
2478	0.000697524
2490	0.000465016
2502	0.000465016
2514	0.000116254
2526	0
2538	0.000232508
2550	0.000348762
2562	0.00104629
2574	0.00127879
2586	0.00139505
2598	0.00104629
2610	0.0015113
2622	0.00174381
2634	0.00186006
2646	0.000930032
2658	0.000813778
2670	0.00116254
2682	0.00162756
2694	0.00139505
2706	0.00139505
2718	0.00116254
2730	0.000930032
2742	0.00174381
2754	0.00267384
2766	0.00244133
2778	0.00209257
2790	0.00232508
2802	0.00337137
2814	0.00337137
2826	0.00453391
2838	0.00616146
2850	0.00930032
2862	0.0192982
2874	0.0360387
2886	0.0453391
2898	0.0462691
2910	0.0691711
2922	0.0655673
2934	0.0689386
2946	0.10893
2958	0.0527793
2970	0.117765
2982	0.0867255
2994	0.0267384
3006	0.0169731
3018	0.022437
3030	0.0578945
3042	0.0795177
3054	0.0608008
3066	0.0748676
3078	0.115324
3090	0.049873
3102	0.0333649
3114	0.0174381
3126	0.00767276
3138	0.00395264
3150	0.0027901
3162	0.00232508
3174	0.00232508
3186	0.00162756
3198	0.00127879
3210	0.00127879
3222	0.000930032
3234	0.0015113
3246	0.000813778
3258	0.000930032
3270	0.00104629
3282	0.000697524
3294	0.00058127
3306	0.000116254
3318	0.000465016
3330	0.000465016
3342	0.00058127
3354	0.000116254
3366	0.000930032
3378	0.00058127
3390	0.0015113
3402	0.000697524
3414	0.000813778
3426	0.000930032
3438	0.000813778
3450	0.000813778
3462	0.000930032
3474	0.00058127
3486	0.00127879
3498	0.00104629
3510	0.00104629
3522	0.00209257
3534	0.0043014
3546	0.00488267
3558	0.00244133
3570	0.00127879
3582	0.00116254
3594	0.00162756
3606	0.00127879
3618	0.00162756
3630	0.00209257
3642	0.00209257
3654	0.00232508
3666	0.00232508
3678	0.00220883
3690	0.00244133
3702	0.00174381
3714	0.00255759
3726	0.00174381
3738	0.00186006
3750	0.00186006
3762	0.00162756
3774	0.00127879
3786	0.00116254
3798	0.00255759
3810	0.000697524
3822	0.00162756
3834	0.00116254
3846	0.00209257
3858	0.00244133
3870	0.0015113
3882	0.00127879
3894	0.00116254
3906	0.00232508
3918	0.00139505
3930	0.00139505
3942	0.00209257
3954	0.00186006
3966	0.00255759
