Infrared Spectrum: Phenol, 4-bromo-2-chloro-
Formula: C 6 H 4 Br Cl O
CAS: 3964-56-5
Origin: Sadtler Research Labs Under US-EPA Contract
1/CM	ABSORBANCE
450	0.0107282
462	0.0207919
474	0.00650339
486	0.0149056
498	0.0197475
510	0.0348904
522	0.0289567
534	0.0101586
546	0.0414413
558	0.022121
570	0.0099687
582	0.00104434
594	0.0130068
606	0.0175639
618	0.0389729
630	0.0657459
642	0.0176588
654	0.00973135
666	0.0187981
678	0.0137663
690	0.0323745
702	0.0882942
714	0.128264
726	0.0185133
738	0.00621857
750	0.0135764
762	0.0158075
774	0.0154752
786	0.00783255
798	0.0313777
810	0.0785154
822	0.0702081
834	0.036457
846	0.0407767
858	0.0333239
870	0.0422483
882	0.0162347
894	0.0115827
906	0.00484194
918	0.00911424
930	0.00840219
942	0.00830725
954	0.00498435
966	0.00716797
978	0.00745279
990	0.00493688
1002	0.00897183
1014	0.0117726
1026	0.0201747
1038	0.0384507
1050	0.0617585
1062	0.0494637
1074	0.0526917
1086	0.0534987
1098	0.0436724
1110	0.0230704
1122	0.0245895
1134	0.0263459
1146	0.0250167
1158	0.0212191
1170	0.0637997
1182	0.205213
1194	0.303476
1206	0.103105
1218	0.0404444
1230	0.0325169
1242	0.0579134
1254	0.0777559
1266	0.156319
1278	0.282921
1290	0.0343208
1302	0.0278174
1314	0.0316625
1326	0.0689264
1338	0.0439097
1350	0.0155227
1362	0.0161398
1374	0.0114403
1386	0.0163297
1398	0.0309979
1410	0.0357924
1422	0.0231179
1434	0.0192253
1446	0.026061
1458	0.0800819
1470	0.315391
1482	0.437151
1494	0.161445
1506	0.0322321
1518	0.00844966
1530	0.00797496
1542	0.0117251
1554	0.0135764
1566	0.0220261
1578	0.0422008
1590	0.0372639
1602	0.0194627
1614	0.00479447
1626	0.00958894
1638	0.00825978
1650	0.00398748
1662	0.00583881
1674	0.00180386
1686	0.00436724
1698	0.00431977
1710	0.00531664
1722	0.00797496
1734	0.0099687
1746	0.00650339
1758	0.00503182
1770	0.00351278
1782	0.00270579
1794	0.00246844
1806	0.00365519
1818	0.00327543
1830	0.00109181
1842	0.00384507
1854	0.00289567
1866	0.00465206
1878	0.00783255
1890	0.00488941
1902	0.00218362
1914	0.0023735
1926	0.00185133
1938	0.00137663
1950	0.0018988
1962	0.0023735
1974	0.00256338
1986	0.00265832
1998	0.00170892
2010	0.00151904
2022	0.00223109
2034	0.00161398
2046	0.00166145
2058	0.00147157
2070	0.00147157
2082	0.0018988
2094	0.00194627
2106	0.00251591
2118	0.0028482
2130	0.00185133
2142	0.00151904
2154	0.00161398
2166	0.0014241
2178	0.00156651
2190	0.00213615
2202	0.00175639
2214	0.00161398
2226	0.00161398
2238	0.00223109
2250	0.00232603
2262	0.00232603
2274	0.00256338
2286	0.00389254
2298	0.00536411
2310	0.00607616
2322	0.00398748
2334	0.00265832
2346	0
2358	0.00417736
2370	0.00147157
2382	0.00408242
2394	0.00227856
2406	0.00208868
2418	0.00227856
2430	0.00261085
2442	0.00246844
2454	0.00337037
2466	0.00422483
2478	0.00299061
2490	0.00194627
2502	0.00232603
2514	0.00308555
2526	0.00246844
2538	0.00213615
2550	0.00213615
2562	0.00151904
2574	0.00118675
2586	0.00161398
2598	0.0014241
2610	0.0009494
2622	0.00071205
2634	0.00080699
2646	0.00147157
2658	0.00199374
2670	0.0014241
2682	0.00123422
2694	0.00056964
2706	0.00090193
2718	0.00123422
2730	0.0014241
2742	0.00161398
2754	0.00199374
2766	0.00170892
2778	0.00166145
2790	0.00175639
2802	0.00213615
2814	0.00194627
2826	0.00218362
2838	0.00251591
2850	0.0033229
2862	0.00351278
2874	0.00308555
2886	0.00341784
2898	0.00384507
2910	0.00412989
2922	0.00412989
2934	0.00394001
2946	0.00465206
2958	0.00579134
2970	0.00792749
2982	0.00417736
2994	0.00341784
3006	0.00275326
3018	0.00370266
3030	0.00394001
3042	0.00455712
3054	0.00517423
3066	0.00640845
3078	0.00954147
3090	0.00769014
3102	0.00441471
3114	0.00327543
3126	0.00318049
3138	0.00313302
3150	0.00384507
3162	0.00375013
3174	0.00389254
3186	0.00346531
3198	0.0037976
3210	0.00327543
3222	0.00313302
3234	0.00199374
3246	0.00270579
3258	0.00265832
3270	0.00218362
3282	0.00294314
3294	0.00232603
3306	0.00246844
3318	0.00246844
3330	0.00242097
3342	0.00156651
3354	0.00204121
3366	0.0014241
3378	0.00204121
3390	0.00170892
3402	0.00185133
3414	0.00261085
3426	0.00208868
3438	0.00137663
3450	0.00156651
3462	0.00256338
3474	0.00128169
3486	0.00232603
3498	0.00066458
3510	0.00465206
3522	0.00484194
3534	0.00602869
3546	0.0148581
3558	0.0615211
3570	0.0967439
3582	0.208583
3594	0.0378336
3606	0.00740532
3618	0.00911424
3630	0.00716797
3642	0.0125796
3654	0.0176114
3666	0.00612363
3678	0.0128644
3690	0.00764267
3702	0.00583881
3714	0.00498435
3726	0.0105858
3738	0.0125321
3750	0.00123422
3762	0.00626604
3774	0.00503182
3786	0.00583881
3798	0.00503182
3810	0.00498435
3822	0.00579134
3834	0.00465206
3846	0.00246844
3858	0.00769014
3870	0.00797496
3882	0.00764267
3894	0.00702556
3906	0.00541158
3918	0.00541158
3930	0.00688315
3942	0.00583881
3954	0.00484194
3966	0.00327543
