Infrared Spectrum: 3-Chloro-4-hydroxybenzoic acid
Formula: C 7 H 5 Cl O 3
CAS: 3964-58-7
Origin: Sadtler Research Labs Under US-EPA Contract
1/CM	ABSORBANCE
450	0
462	0.0420623
474	0.0107938
486	0.0356083
498	0.0379451
510	0.0921365
522	0.134199
534	0.0835683
546	0.0512982
558	0.0450668
570	0.0777819
582	0.107493
594	0.110497
606	0.224778
618	0.147441
630	0.0237018
642	0.0152448
654	0.0102374
666	0.0127967
678	0.0862389
690	0.187166
702	0.0445104
714	0.027819
726	0.00756677
738	0.0285979
750	0.0864615
762	0.194177
774	0.129859
786	0.0416172
798	0.0231454
810	0.0151335
822	0.031046
834	0.0595327
846	0.0378338
858	0.0238131
870	0.0526335
882	0.0426187
894	0.0289318
906	0.036276
918	0.0152448
930	0.00656528
942	0.0083457
954	0.00478487
966	0.00244807
978	0.0027819
990	0.00500742
1002	0.00968101
1014	0.012908
1026	0.0204748
1038	0.0308235
1050	0.0670994
1062	0.0990356
1074	0.224221
1086	0.288761
1098	0.25204
1110	0.0991469
1122	0.0935831
1134	0.191395
1146	0.193286
1158	0.249147
1170	0.618472
1182	0.822441
1194	0.331825
1206	0.228227
1218	0.132418
1230	0.0632048
1242	0.0699926
1254	0.124629
1266	0.147663
1278	0.273962
1290	0.448999
1302	0.239243
1314	0.109162
1326	0.205415
1338	0.324036
1350	0.178487
1362	0.18661
1374	0.196513
1386	0.0539689
1398	0.0467359
1410	0.078227
1422	0.131083
1434	0.056862
1446	0.016135
1458	0.0228116
1470	0.033049
1482	0.077003
1494	0.212648
1506	0.252151
1518	0.057641
1530	0.0284867
1542	0.03227
1554	0.0253709
1566	0.0401706
1578	0.0953635
1590	0.155786
1602	0.258494
1614	0.192953
1626	0.0468472
1638	0.0216988
1650	0.021365
1662	0.0144659
1674	0.0222552
1686	0.0240356
1698	0.0373887
1710	0.0509644
1722	0.0477374
1734	0.0686573
1746	0.267285
1758	1.06714
1770	0.730527
1782	0.0882419
1794	0.0390579
1806	0.0388353
1818	0.0469585
1830	0.0219214
1842	0.0083457
1854	0.00489614
1866	0.00578635
1878	0.00311573
1890	0.00567508
1902	0.0083457
1914	0.0132418
1926	0.0113502
1938	0.00645401
1950	0.00289318
1962	0.00178042
1974	0.00189169
1986	0.000333828
1998	0.000222552
2010	0.00111276
2022	0.00200297
2034	0.00300445
2046	0.00467359
2058	0.00222552
2070	0.00166914
2082	0.000778932
2094	0.00189169
2106	0.00244807
2118	0.00166914
2130	0.000445104
2142	0.00200297
2154	0.00200297
2166	0.00178042
2178	0.00155786
2190	0.000778932
2202	0.000445104
2214	0.000778932
2226	0.00122404
2238	0.00211424
2250	0.00344956
2262	0.0027819
2274	0.00267062
2286	0.00311573
2298	0.00567508
2310	0.00734422
2322	0.00701039
2334	0.00634273
2346	0.0123516
2358	0.00500742
2370	0.00990356
2382	0.0104599
2394	0.00244807
2406	0.00211424
2418	0.00311573
2430	0.00311573
2442	0.003227
2454	0.00378338
2466	0.00545252
2478	0.00656528
2490	0.00745549
2502	0.00734422
2514	0.00522997
2526	0.00433976
2538	0.00678784
2550	0.00522997
2562	0.00289318
2574	0.0027819
2586	0.0027819
2598	0.0023368
2610	0.003227
2622	0.00333828
2634	0.00489614
2646	0.00400594
2658	0.00367211
2670	0.00456232
2682	0.00545252
2694	0.00522997
2706	0.00522997
2718	0.00489614
2730	0.00478487
2742	0.00422849
2754	0.00467359
2766	0.00422849
2778	0.00489614
2790	0.00389466
2802	0.00400594
2814	0.00344956
2826	0.00389466
2838	0.00467359
2850	0.00456232
2862	0.00500742
2874	0.00456232
2886	0.00389466
2898	0.00422849
2910	0.00411721
2922	0.00589763
2934	0.00745549
2946	0.00656528
2958	0.00567508
2970	0.00612018
2982	0.00634273
2994	0.00623146
3006	0.00522997
3018	0.00500742
3030	0.0055638
3042	0.00589763
3054	0.00612018
3066	0.00856825
3078	0.0165801
3090	0.016135
3102	0.00823442
3114	0.00545252
3126	0.00623146
3138	0.00667656
3150	0.00522997
3162	0.00612018
3174	0.00612018
3186	0.00667656
3198	0.00589763
3210	0.00478487
3222	0.00623146
3234	0.0055638
3246	0.0051187
3258	0.0051187
3270	0.00534125
3282	0.00467359
3294	0.00545252
3306	0.00645401
3318	0.00612018
3330	0.00433976
3342	0.00367211
3354	0.00445104
3366	0.00467359
3378	0.00623146
3390	0.00422849
3402	0.00367211
3414	0.000890208
3426	0.00545252
3438	0.0055638
3450	0.00445104
3462	0.00367211
3474	0.00211424
3486	0.003227
3498	0.00778932
3510	0.00656528
3522	0.00289318
3534	0.00267062
3546	0.0122404
3558	0.145104
3570	0.407938
3582	0.413613
3594	0.264058
3606	0.0162463
3618	0.00433976
3630	0.00634273
3642	0.0194733
3654	0.0170252
3666	0.00634273
3678	0.00300445
3690	0.00155786
3702	0.00767804
3714	0.0060089
3726	0.00689911
3738	0.0180267
3750	0.0164688
3762	0.0171365
3774	0.00545252
3786	0.00489614
3798	0.0027819
3810	0.00712166
3822	0.00567508
3834	0.00478487
3846	0.00890208
3858	0.00578635
3870	0.00645401
3882	0.00623146
3894	0.00756677
3906	0.00823442
3918	0.00589763
3930	0.00222552
3942	0.00645401
3954	0.00500742
3966	0.019362
