Infrared Spectrum: 3-Pentanol, 2,2-dimethyl-
Formula: C 7 H 16 O
CAS: 3970-62-5
Origin: Sadtler Research Labs Under US-EPA Contract
1/CM	ABSORBANCE
450	0.0136344
462	0.013211
474	0.0133804
486	0.0153282
498	0.0135498
510	0.00948483
522	0.00643614
534	0.00711362
546	0.0151588
558	0.0162597
570	0.0119407
582	0.00592802
594	0.00160903
606	0.00448836
618	0.00431899
630	0.00609739
642	0.00508116
654	0.00270995
666	0.00152435
678	0.00228652
690	0.00508116
702	0.0042343
714	0.00228652
726	0.00389556
738	0.00211715
750	0.00474242
762	0.00499647
774	0.00618208
786	0.00770643
798	0.00685957
810	0.00389556
822	0.00414961
834	0.00414961
846	0.00762174
858	0.0122795
870	0.0120254
882	0.00897672
894	0.00855329
906	0.0144813
918	0.0347213
930	0.0570784
942	0.0591955
954	0.0805364
966	0.167932
978	0.191306
990	0.0961186
1002	0.039379
1014	0.0306563
1026	0.0310798
1038	0.0399718
1050	0.0584333
1062	0.0613127
1074	0.0589415
1086	0.0849401
1098	0.131348
1110	0.122117
1122	0.0559774
1134	0.0282851
1146	0.0278617
1158	0.0369231
1170	0.0481863
1182	0.0543684
1194	0.0579252
1206	0.0591108
1218	0.0591955
1230	0.0623289
1242	0.0568243
1254	0.0464926
1266	0.0426817
1278	0.0442061
1290	0.048017
1302	0.0445448
1314	0.0338744
1326	0.0247283
1338	0.0255752
1350	0.0443755
1362	0.104164
1374	0.136937
1386	0.0952717
1398	0.0866338
1410	0.0559774
1422	0.0214256
1434	0.0222724
1446	0.0422583
1458	0.0831617
1470	0.116189
1482	0.114072
1494	0.0642767
1506	0.0188003
1518	0.00931546
1530	0.00702894
1542	0.00669019
1554	0.00575865
1566	0.00381087
1578	0.00347213
1590	0.00186309
1602	0.00203246
1614	0.00237121
1626	0.00270995
1638	0.00262527
1650	0.00245589
1662	0.00270995
1674	0.00194778
1686	0.00287932
1698	0.00237121
1710	0.00177841
1722	0.00245589
1734	0.00254058
1746	0.00245589
1758	0.00160903
1770	0.00169372
1782	0.00143966
1794	0.00169372
1806	0.0011856
1818	0.00084686
1830	0.000592802
1842	0.000592802
1854	0.00084686
1866	0.000762174
1878	0.00084686
1890	0.000762174
1902	0.000677488
1914	0.000169372
1926	0.000762174
1938	0.0011856
1950	0.00152435
1962	0.00127029
1974	0.000762174
1986	0.000677488
1998	0.000677488
2010	0.000677488
2022	0.000592802
2034	0.000592802
2046	0.000592802
2058	0.000677488
2070	8.4686e-05
2082	0.000592802
2094	0.000254058
2106	0.000592802
2118	0.000592802
2130	0.000592802
2142	0.00101623
2154	0.000592802
2166	0.000254058
2178	0.000592802
2190	0.000508116
2202	0.000508116
2214	0.000338744
2226	0.00042343
2238	0.00042343
2250	8.4686e-05
2262	0.000508116
2274	0.000508116
2286	0.0011856
2298	0.00211715
2310	0.00254058
2322	0.00152435
2334	0.00101623
2346	0.00101623
2358	0.00152435
2370	0.00135498
2382	0.0011856
2394	0.00177841
2406	0.00186309
2418	0.00228652
2430	0.00186309
2442	0.000762174
2454	0.000338744
2466	0.000254058
2478	0.00042343
2490	0.00084686
2502	0.00042343
2514	0.000762174
2526	0.000677488
2538	0.000931546
2550	0.00160903
2562	0.00127029
2574	0.00228652
2586	0.00372618
2598	0.00406493
2610	0.00457304
2622	0.00457304
2634	0.00474242
2646	0.00618208
2658	0.00804517
2670	0.00812986
2682	0.00863797
2694	0.00812986
2706	0.00863797
2718	0.0104164
2730	0.012957
2742	0.0143966
2754	0.0154129
2766	0.014566
2778	0.0134651
2790	0.0154129
2802	0.0182075
2814	0.0237968
2826	0.0354834
2838	0.0636839
2850	0.112463
2862	0.169626
2874	0.247029
2886	0.293183
2898	0.240254
2910	0.211969
2922	0.236867
2934	0.311475
2946	0.445194
2958	0.652844
2970	0.84686
2982	0.568243
2994	0.208497
3006	0.0606352
3018	0.0263373
3030	0.0190543
3042	0.0181228
3054	0.0167678
3066	0.0136344
3078	0.00982358
3090	0.00812986
3102	0.00736768
3114	0.00685957
3126	0.00677488
3138	0.007283
3150	0.007283
3162	0.00863797
3174	0.00872266
3186	0.00863797
3198	0.00753705
3210	0.00677488
3222	0.00516585
3234	0.00381087
3246	0.00296401
3258	0.00220184
3270	0.00220184
3282	0.00169372
3294	0.00127029
3306	0.000931546
3318	0.00127029
3330	0.0011856
3342	0.000677488
3354	0.0011856
3366	0.000592802
3378	0.00110092
3390	0.000338744
3402	0
3414	0.00237121
3426	0.00160903
3438	0.00160903
3450	0.00237121
3462	0.0030487
3474	0.00143966
3486	0.00110092
3498	0.00160903
3510	0.0011856
3522	0.00110092
3534	0.00042343
3546	0.000931546
3558	0.00042343
3570	0.00169372
3582	8.4686e-05
3594	0.000931546
3606	0.00160903
3618	0.00338744
3630	0.00956952
3642	0.0171066
3654	0.0315032
3666	0.0485251
3678	0.0354834
3690	0.0124488
3702	0.00440367
3714	0.000762174
3726	0.000677488
3738	0.000931546
3750	0.000677488
3762	8.4686e-05
3774	8.4686e-05
3786	0.00042343
3798	0.00042343
3810	0.00177841
3822	0.0011856
3834	0.00169372
3846	0.00177841
3858	0.00186309
3870	0.00160903
3882	0.00169372
3894	0.00228652
3906	0.00135498
3918	0.000254058
3930	8.4686e-05
3942	8.4686e-05
3954	8.4686e-05
3966	8.4686e-05
