Infrared Spectrum: Pyridine, 4-(1,1-dimethylethyl)-
Formula: C 9 H 13 N
CAS: 3978-81-2
Origin: Sadtler Research Labs Under US-EPA Contract
1/CM	ABSORBANCE
450	0.00410976
462	5.708e-05
474	0.0048518
486	0.00690668
498	0.00131284
510	0.00816244
522	0.0126147
534	0.0214621
546	0.0302524
558	0.070608
570	0.0823094
582	0.0336772
594	0.0160966
606	0.00188364
618	0.00176948
630	0.00376728
642	0.00547968
654	0.0037102
666	0.00582216
678	0.00365312
690	0.0051372
702	0.0304236
714	0.0339055
726	0.00359604
738	0.00576508
750	0.00804828
762	0.00702084
774	0.00525136
786	0.0101032
798	0.0325927
810	0.0823664
822	0.0950953
834	0.0702655
846	0.0457211
858	0.00953236
870	0.00787704
882	0.00622172
894	0.00462348
906	0.00410976
918	0.00593632
930	0.0100461
942	0.00764872
954	0.00565092
966	0.00576508
978	0.00605048
990	0.0327639
1002	0.0319648
1014	0.0034248
1026	0.00376728
1038	0.00450932
1050	0.00559384
1062	0.0115302
1074	0.0295674
1086	0.0223754
1098	0.00747748
1110	0.00753456
1122	0.0088474
1134	0.00690668
1146	0.00605048
1158	0.00547968
1170	0.00787704
1182	0.0105598
1194	0.0198638
1206	0.019978
1218	0.0175806
1230	0.0230603
1242	0.0166674
1254	0.019236
1266	0.0708934
1278	0.086362
1290	0.0195214
1302	0.00679252
1314	0.00730624
1326	0.00633588
1338	0.00936112
1350	0.0160966
1362	0.0500021
1374	0.0768868
1386	0.0515432
1398	0.0785421
1410	0.0851634
1422	0.0512008
1434	0.0243732
1446	0.023574
1458	0.042068
1470	0.054911
1482	0.0609614
1494	0.0658132
1506	0.0282546
1518	0.0151833
1530	0.0243732
1542	0.039271
1554	0.0505729
1566	0.0460065
1578	0.0579362
1590	0.243047
1602	0.258173
1614	0.0388715
1626	0.0143271
1638	0.0150691
1650	0.0123293
1662	0.0115302
1674	0.0123293
1686	0.0115872
1698	0.00896156
1710	0.00753456
1722	0.00639296
1734	0.00696376
1746	0.00559384
1758	0.00547968
1770	0.00730624
1782	0.0051372
1794	0.0039956
1806	0.0034248
1818	0.0039956
1830	0.0062788
1842	0.00645004
1854	0.00291108
1866	0.00239736
1878	0.00234028
1890	0.00308232
1902	0.00445224
1914	0.00679252
1926	0.0113018
1938	0.0112448
1950	0.00702084
1962	0.00433808
1974	0.00325356
1986	0.00273984
1998	0.00234028
2010	0.00182656
2022	0.0022832
2034	0.00222612
2046	0.0019978
2058	0.0017124
2070	0.00216904
2082	0.00222612
2094	0.00222612
2106	0.0022832
2118	0.00165532
2130	0.00165532
2142	0.00159824
2154	0.00159824
2166	0.00159824
2178	0.00211196
2190	0.00205488
2202	0.00273984
2214	0.00302524
2226	0.00245444
2238	0.00159824
2250	0.00148408
2262	0.00165532
2274	0.001427
2286	0.00205488
2298	0.00245444
2310	0.00102744
2322	5.708e-05
2334	5.708e-05
2346	5.708e-05
2358	5.708e-05
2370	5.708e-05
2382	0.00091328
2394	0.00336772
2406	0.00331064
2418	0.00336772
2430	0.00331064
2442	0.00331064
2454	0.00279692
2466	0.00331064
2478	0.0019978
2490	0.00165532
2502	0.0017124
2514	0.00165532
2526	0.00165532
2538	0.00159824
2550	0.00211196
2562	0.0025686
2574	0.00262568
2586	0.0025686
2598	0.00251152
2610	0.0019978
2622	0.0019978
2634	0.00245444
2646	0.00268276
2658	0.00331064
2670	0.0034248
2682	0.002854
2694	0.00291108
2706	0.00279692
2718	0.00422392
2730	0.0054226
2742	0.0048518
2754	0.0048518
2766	0.00479472
2778	0.00376728
2790	0.00473764
2802	0.00576508
2814	0.00753456
2826	0.00816244
2838	0.0106169
2850	0.0153545
2862	0.0344763
2874	0.0837934
2886	0.102744
2898	0.090643
2910	0.107425
2922	0.120496
2934	0.11513
2946	0.1298
2958	0.257602
2970	0.548767
2982	0.427472
2994	0.124948
3006	0.0478901
3018	0.056395
3030	0.090643
3042	0.0695805
3054	0.0476618
3066	0.0567375
3078	0.0815673
3090	0.0793983
3102	0.0405268
3114	0.013528
3126	0.00565092
3138	0.00365312
3150	0.00365312
3162	0.00319648
3174	0.00416684
3186	0.00525136
3198	0.00519428
3210	0.00502304
3222	0.00462348
3234	0.00445224
3246	0.00376728
3258	0.0031394
3270	0.00302524
3282	0.0034248
3294	0.00331064
3306	0.00188364
3318	0.001427
3330	0.00188364
3342	0.0008562
3354	0.00125576
3366	0.00188364
3378	0.00182656
3390	0.00131284
3402	0.00125576
3414	0.00148408
3426	0.00131284
3438	0.00119868
3450	0.00079912
3462	0.00074204
3474	0.00068496
3486	0.0011416
3498	0.0017124
3510	0.0017124
3522	0.00079912
3534	0.00062788
3546	0.00211196
3558	0.0005708
3570	0.00154116
3582	0.00051372
3594	0.00097036
3606	0.00091328
3618	0.00136992
3630	0.00188364
3642	0.00125576
3654	0.00091328
3666	0.00039956
3678	0.00136992
3690	0.00176948
3702	0.00131284
3714	0.00188364
3726	0.00131284
3738	0.00262568
3750	0.00279692
3762	0.00119868
3774	0.00136992
3786	0.00119868
3798	0.0011416
3810	0.00119868
3822	0.00125576
3834	0.0017124
3846	0.00108452
3858	0.00176948
3870	0.00159824
3882	0.0017124
3894	0.00239736
3906	0.00205488
3918	0.00194072
3930	0.001427
3942	0.001427
3954	0
3966	5.708e-05
