Infrared Spectrum: Benzenamine, 4-(hexyloxy)-
Formula: C 12 H 19 N O
CAS: 39905-57-2
Origin: Sadtler Research Labs Under US-EPA Contract
1/CM	ABSORBANCE
450	0.0591979
462	0.0739974
474	0.077892
486	0.0702975
498	0.0716606
510	0.0701028
522	0.0447879
534	0.0247307
546	0.0225887
558	0.0200572
570	0.0134364
582	0.010126
594	0.0138258
606	0.0208361
618	0.0313515
630	0.0510193
642	0.113722
654	0.18032
666	0.121122
678	0.0887969
690	0.09016
702	0.0870443
714	0.0866549
726	0.0784762
738	0.0627031
750	0.0480983
762	0.0403091
774	0.0375829
786	0.0307673
798	0.0580295
810	0.153642
822	0.234065
834	0.119954
846	0.0521876
858	0.0290148
870	0.0118785
882	0.00272622
894	0
906	0.00136311
918	0.00954177
930	0.0315463
942	0.0408933
954	0.0239518
966	0.0221992
978	0.0262886
990	0.0354409
1002	0.0724396
1014	0.163573
1026	0.210308
1038	0.206609
1050	0.19473
1062	0.152474
1074	0.114501
1086	0.0928862
1098	0.0549139
1110	0.0554981
1122	0.0724396
1134	0.0430353
1146	0.0210308
1158	0.0290148
1170	0.0767236
1182	0.0502403
1194	0.136116
1206	0.269117
1218	0.528497
1230	1.09205
1242	1.29924
1254	0.473194
1266	0.310789
1278	0.165131
1290	0.140595
1302	0.112359
1314	0.0739974
1326	0.0615347
1338	0.0342725
1350	0.0332988
1362	0.0280411
1374	0.0479036
1386	0.128911
1398	0.0603663
1410	0.0307673
1422	0.031741
1434	0.0426459
1446	0.0738027
1458	0.0985334
1470	0.199598
1482	0.217319
1494	0.23426
1506	1.19895
1518	1.25367
1530	0.212645
1542	0.0395302
1554	0.0276517
1566	0.0284306
1578	0.0356356
1590	0.056277
1602	0.0893811
1614	0.199014
1626	0.184994
1638	0.0907442
1650	0.0282358
1662	0.0243413
1674	0.00720501
1686	0.00116838
1698	0
1710	0.0147995
1722	0.0175257
1734	0.00642609
1746	0.00662082
1758	0.00876285
1770	0.00603663
1782	0.00817866
1794	0.00701028
1806	0.0142153
1818	0.0163573
1830	0.0124627
1842	0.0175257
1854	0.0227834
1866	0.0153837
1878	0.0130469
1890	0.00856812
1902	0.0109049
1914	0.0105154
1926	0.0114891
1938	0.012268
1950	0.0126575
1962	0.0138258
1974	0.0140206
1986	0.0146047
1998	0.0140206
2010	0.0138258
2022	0.0124627
2034	0.0134364
2046	0.0128522
2058	0.0134364
2070	0.0128522
2082	0.0120733
2094	0.00915231
2106	0.00681555
2118	0.00428406
2130	0.00272622
2142	0.00214203
2154	0.0019473
2166	0.00136311
2178	0.00116838
2190	0.00038946
2202	0.00019473
2214	0
2226	0.00058419
2238	0.00136311
2250	0.00253149
2262	0.00331041
2274	0.00486825
2286	0.00564717
2298	0.0058419
2310	0.00623136
2322	0.00408933
2334	0.00233676
2346	0.00739974
2358	0.00428406
2370	0.00662082
2382	0.00681555
2394	0.00525771
2406	0.00486825
2418	0.00331041
2430	0.00369987
2442	0.00545244
2454	0.00720501
2466	0.00915231
2478	0.00798393
2490	0.00642609
2502	0.00681555
2514	0.00817866
2526	0.00856812
2538	0.00720501
2550	0.00545244
2562	0.00486825
2574	0.00564717
2586	0.00642609
2598	0.00759447
2610	0.00701028
2622	0.00701028
2634	0.00759447
2646	0.00817866
2658	0.00954177
2670	0.0110996
2682	0.0126575
2694	0.0130469
2706	0.0140206
2718	0.0153837
2730	0.0190835
2742	0.0239518
2754	0.0243413
2766	0.0214203
2778	0.0212256
2790	0.0241465
2802	0.0290148
2814	0.036804
2826	0.0504351
2838	0.07575
2850	0.14449
2862	0.2919
2874	0.375439
2886	0.356551
2898	0.305726
2910	0.381476
2922	0.512529
2934	0.719722
2946	0.741142
2958	0.590616
2970	0.550502
2982	0.245165
2994	0.119369
3006	0.116449
3018	0.129106
3030	0.128717
3042	0.184604
3054	0.0813971
3066	0.0607558
3078	0.0566664
3090	0.0414775
3102	0.0371934
3114	0.031741
3126	0.0233676
3138	0.0169415
3150	0.012268
3162	0.010126
3174	0.00934704
3186	0.00876285
3198	0.00915231
3210	0.0103207
3222	0.00798393
3234	0.00759447
3246	0.00662082
3258	0.00720501
3270	0.00720501
3282	0.00486825
3294	0.00428406
3306	0.00311568
3318	0.00331041
3330	0.00272622
3342	0.00292095
3354	0.00331041
3366	0.0058419
3378	0.00954177
3390	0.0186941
3402	0.0397249
3414	0.019473
3426	0.00954177
3438	0.00895758
3450	0.0105154
3462	0.016552
3474	0.0247307
3486	0.0278464
3498	0.0163573
3510	0.0077892
3522	0.0038946
3534	0.00311568
3546	0.00350514
3558	0.00214203
3570	0.0019473
3582	0.00136311
3594	0.00272622
3606	0.00038946
3618	0.00077892
3630	0.00214203
3642	0.0019473
3654	0.00272622
3666	0.00097365
3678	0.00233676
3690	0.00136311
3702	0.0019473
3714	0.0019473
3726	0.00155784
3738	0.0019473
3750	0
3762	0.00038946
3774	0.00116838
3786	0.00058419
3798	0.00058419
3810	0.00019473
3822	0
3834	0.00038946
3846	0.00116838
3858	0.00155784
3870	0.00155784
3882	0.00253149
3894	0.00467352
3906	0.00408933
3918	0.00155784
3930	0.00331041
3942	0.00272622
3954	0.00214203
3966	0.00214203
