Infrared Spectrum: Ethyl 3-pyridylacetate
Formula: C 9 H 11 N O 2
CAS: 39931-77-6
Origin: Sadtler Research Labs Under US-EPA Contract
1/CM	ABSORBANCE
450	0.0194422
462	0.0303416
474	0.0183621
486	0.00598977
498	0.00441869
510	0.00667712
522	0.0134524
534	0.0312254
546	0.0365278
558	0.0113904
570	0.0365278
582	0.0378043
594	0.0312254
606	0.0414374
618	0.0556754
630	0.0523369
642	0.0822857
654	0.0560682
666	0.0406519
678	0.0532206
690	0.0759032
702	0.166044
714	0.190691
726	0.11086
738	0.0904358
750	0.0836604
762	0.070699
774	0.0841514
786	0.110565
798	0.0870972
810	0.0718773
822	0.0495875
834	0.0506676
846	0.0504712
858	0.042714
870	0.0392772
882	0.0476236
894	0.036626
906	0.050864
918	0.0693243
930	0.0756086
942	0.0645128
954	0.0491947
966	0.0413393
978	0.03967
990	0.0430085
1002	0.067655
1014	0.140416
1026	0.351826
1038	0.373526
1050	0.188531
1062	0.0820893
1074	0.0771797
1086	0.104379
1098	0.165062
1110	0.197859
1122	0.320797
1134	0.520423
1146	0.647288
1158	0.625293
1170	0.509818
1182	0.430085
1194	0.376472
1206	0.324626
1218	0.316771
1230	0.412312
1242	0.483208
1254	0.57168
1266	0.472996
1278	0.266201
1290	0.204732
1302	0.253927
1314	0.252847
1326	0.238609
1338	0.21141
1350	0.118028
1362	0.104674
1374	0.153377
1386	0.0940689
1398	0.0899448
1410	0.117537
1422	0.243519
1434	0.242929
1446	0.112136
1458	0.0853297
1470	0.123821
1482	0.171641
1494	0.0588176
1506	0.0306362
1518	0.0275922
1530	0.024941
1542	0.0210133
1554	0.0379025
1566	0.0648074
1578	0.0847406
1590	0.0611742
1602	0.0375097
1614	0.0219952
1626	0.0179693
1638	0.0169874
1650	0.0187549
1662	0.0237627
1674	0.0248428
1686	0.0263157
1698	0.0419284
1710	0.0668694
1722	0.105067
1734	0.234779
1746	0.654751
1758	0.98193
1770	0.621463
1782	0.199332
1794	0.0709935
1806	0.0397682
1818	0.0312254
1830	0.0244501
1842	0.0248428
1854	0.0236645
1866	0.0214061
1878	0.025432
1890	0.0250392
1902	0.0252356
1914	0.0209151
1926	0.0175765
1938	0.0171838
1950	0.0188531
1962	0.0161037
1974	0.0121759
1986	0.0123723
1998	0.00923014
2010	0.00942653
2022	0.00903376
2034	0.0083464
2046	0.00854279
2058	0.00903376
2070	0.00873918
2082	0.00932834
2094	0.00903376
2106	0.00677532
2118	0.00648074
2130	0.00490965
2142	0.00412411
2154	0.00402591
2166	0.00265121
2178	0.00255302
2190	0.00176747
2202	0.000589158
2214	0.00245482
2226	0.00255302
2238	0.00333856
2250	0.00412411
2262	0.00432049
2274	0.00363314
2286	0.00461507
2298	0.00736447
2310	0.0127651
2322	0.0140416
2334	0.00932834
2346	0.0042223
2358	0.0113904
2370	0.000490965
2382	0.00117832
2394	0.00638254
2406	0.00520423
2418	0.00598977
2430	0.0042223
2442	0.00490965
2454	0.00520423
2466	0.00451688
2478	0.00353495
2490	0.0028476
2502	0.00245482
2514	0.00206205
2526	0.00245482
2538	0.0013747
2550	0.00324037
2562	0.00255302
2574	0.00245482
2586	0.00186567
2598	0.00333856
2610	0.00353495
2622	0.00451688
2634	0.00392772
2646	0.00314218
2658	0.00196386
2670	0.00392772
2682	0.00235663
2694	0.00343676
2706	0.00451688
2718	0.00432049
2730	0.00540062
2742	0.0070699
2754	0.0042223
2766	0.00618616
2778	0.0084446
2790	0.00815002
2802	0.0100157
2814	0.011194
2826	0.0126669
2838	0.014238
2850	0.0162018
2862	0.0187549
2874	0.0296543
2886	0.044285
2898	0.0495875
2910	0.0656911
2922	0.0825803
2934	0.103594
2946	0.140612
2958	0.116555
2970	0.135114
2982	0.233208
2994	0.260604
3006	0.182835
3018	0.132757
3030	0.134132
3042	0.146013
3054	0.126767
3066	0.119992
3078	0.0577375
3090	0.0747249
3102	0.0416338
3114	0.0155145
3126	0.0129615
3138	0.0128633
3150	0.0127651
3162	0.0140416
3174	0.0070699
3186	0.0101139
3198	0.0108012
3210	0.00716809
3222	0.00608797
3234	0.00608797
3246	0.00333856
3258	0.00785544
3270	0.00785544
3282	0.00255302
3294	0.00873918
3306	0.00657893
3318	0.00530242
3330	0.00736447
3342	0.00373133
3354	0.00608797
3366	0.00481146
3378	0.00530242
3390	0.0083464
3402	0.0108012
3414	0.00893556
3426	0.00795363
3438	0.00775725
3450	0.0084446
3462	0.00824821
3474	0.00991749
3486	0.0150235
3498	0.0156127
3510	0.0128633
3522	0.011685
3534	0.00893556
3546	0.0121759
3558	0.0098193
3570	0.00903376
3582	0.00716809
3594	0.00775725
3606	0.00775725
3618	0.00785544
3630	0.00432049
3642	0.00638254
3654	0.00608797
3666	0.00923014
3678	0.00108012
3690	0.00353495
3702	0.00461507
3714	0.000883737
3726	0.0084446
3738	0.00687351
3750	0.00225844
3762	0.00441869
3774	0.00412411
3786	0.00549881
3798	0.00304398
3810	0.00176747
3822	0.000589158
3834	0.000490965
3846	0.00216025
3858	0.000589158
3870	0.00166928
3882	0.00461507
3894	0.000883737
3906	0.00549881
3918	0.00373133
3930	0.000589158
3942	0.00363314
3954	0.000294579
3966	0.000490965
