Infrared Spectrum: 2-Fluoro-5-nitrobenzotrifluoride
Formula: C 7 H 3 F 4 N O 2
CAS: 400-74-8
Origin: Sadtler Research Labs Under US-EPA Contract
1/CM	ABSORBANCE
450	0
462	0.0356231
474	0.0539477
486	0.0274136
498	0.0192042
510	0.0274136
522	0.0246283
534	0.0164189
546	0.0104084
558	0.0167121
570	0.0247749
582	0.0406074
594	0.0428063
606	0.0222827
618	0.0227225
630	0.0759372
642	0.0788692
654	0.0212566
666	0.0420733
678	0.221068
690	0.167121
702	0.0362095
714	0.0335707
726	0.0614241
738	0.0618639
750	0.101738
762	0.0529215
774	0.0623037
786	0.0246283
798	0.018178
810	0.028
822	0.0303456
834	0.0851729
846	0.103937
858	0.0237487
870	0.0175916
882	0.0206702
894	0.0941153
906	0.0895708
918	0.101152
930	0.0842933
942	0.0208168
954	0.0177382
966	0.0153927
978	0.0143665
990	0.0183246
1002	0.017445
1014	0.0170053
1026	0.0200838
1038	0.0442723
1050	0.168733
1062	0.188524
1074	0.0511624
1086	0.0345969
1098	0.0489634
1110	0.216231
1122	0.629781
1134	0.195121
1146	0.174597
1158	0.419561
1170	1.03483
1182	1.09376
1194	0.260063
1206	0.108628
1218	0.0587854
1230	0.0536545
1242	0.142785
1254	0.181194
1266	0.428503
1278	0.399037
1290	1.00829
1302	0.533906
1314	0.647372
1326	0.637844
1338	0.23045
1350	0.439058
1362	0.628461
1374	0.0938221
1386	0.0384084
1398	0.0353299
1410	0.0573194
1422	0.157005
1434	0.365906
1446	0.188231
1458	0.0655289
1470	0.0832671
1482	0.195267
1494	0.394053
1506	0.386723
1518	0.105403
1530	0.0646493
1542	0.179728
1554	0.702639
1566	0.295833
1578	0.113319
1590	0.189257
1602	0.379686
1614	0.172838
1626	0.164189
1638	0.29554
1650	0.125927
1662	0.0382618
1674	0.0325445
1686	0.0256545
1698	0.0171518
1710	0.0148063
1722	0.0134869
1734	0.0131937
1746	0.0140733
1758	0.0140733
1770	0.0134869
1782	0.0127539
1794	0.0162723
1806	0.017445
1818	0.0133403
1830	0.0158325
1842	0.0184712
1854	0.0155393
1866	0.0130471
1878	0.0111414
1890	0.0130471
1902	0.0140733
1914	0.0178848
1926	0.0206702
1938	0.0143665
1950	0.0127539
1962	0.0095288
1974	0.0104084
1986	0.0107016
1998	0.0102618
2010	0.0111414
2022	0.0133403
2034	0.010555
2046	0.0107016
2058	0.0136335
2070	0.0139267
2082	0.0137801
2094	0.0121676
2106	0.0114346
2118	0.0111414
2130	0.009822
2142	0.009822
2154	0.0109948
2166	0.0108482
2178	0.0109948
2190	0.011288
2202	0.0109948
2214	0.0111414
2226	0.0130471
2238	0.0142199
2250	0.0130471
2262	0.0118744
2274	0.0104084
2286	0.0118744
2298	0.0123141
2310	0.0124607
2322	0.0123141
2334	0.0149529
2346	0.0148063
2358	0.0126073
2370	0.0133403
2382	0.0115812
2394	0.0117278
2406	0.0124607
2418	0.0126073
2430	0.0118744
2442	0.0123141
2454	0.0133403
2466	0.0153927
2478	0.0149529
2490	0.0142199
2502	0.0149529
2514	0.0140733
2526	0.0127539
2538	0.0126073
2550	0.0134869
2562	0.0127539
2574	0.0117278
2586	0.0117278
2598	0.0121676
2610	0.0130471
2622	0.0131937
2634	0.0126073
2646	0.0129005
2658	0.0126073
2670	0.0126073
2682	0.0134869
2694	0.0133403
2706	0.0152461
2718	0.0148063
2730	0.0129005
2742	0.0140733
2754	0.0158325
2766	0.0143665
2778	0.0134869
2790	0.0139267
2802	0.0131937
2814	0.0133403
2826	0.0130471
2838	0.0137801
2850	0.0152461
2862	0.0159791
2874	0.0170053
2886	0.0197906
2898	0.0266807
2910	0.0240419
2922	0.0172984
2934	0.0170053
2946	0.0172984
2958	0.0164189
2970	0.0145131
2982	0.0139267
2994	0.0136335
3006	0.0130471
3018	0.0129005
3030	0.0130471
3042	0.0133403
3054	0.0133403
3066	0.0142199
3078	0.0153927
3090	0.0259477
3102	0.0548273
3114	0.0384084
3126	0.0186178
3138	0.0164189
3150	0.0146597
3162	0.0127539
3174	0.0118744
3186	0.0115812
3198	0.0124607
3210	0.0126073
3222	0.0118744
3234	0.0121676
3246	0.0127539
3258	0.0124607
3270	0.0121676
3282	0.0118744
3294	0.0123141
3306	0.0123141
3318	0.0118744
3330	0.0118744
3342	0.0129005
3354	0.0124607
3366	0.0118744
3378	0.0126073
3390	0.0121676
3402	0.0127539
3414	0.0131937
3426	0.0130471
3438	0.0115812
3450	0.0133403
3462	0.0126073
3474	0.0130471
3486	0.0117278
3498	0.0134869
3510	0.0123141
3522	0.0134869
3534	0.0136335
3546	0.0124607
3558	0.0127539
3570	0.0121676
3582	0.012021
3594	0.0127539
3606	0.0118744
3618	0.0127539
3630	0.0145131
3642	0.0109948
3654	0.0148063
3666	0.0114346
3678	0.0127539
3690	0.0129005
3702	0.0117278
3714	0.0134869
3726	0.0115812
3738	0.0129005
3750	0.0162723
3762	0.0129005
3774	0.0123141
3786	0.0127539
3798	0.0150995
3810	0.0129005
3822	0.0145131
3834	0.0142199
3846	0.0150995
3858	0.0149529
3870	0.0171518
3882	0.0148063
3894	0.0126073
3906	0.0164189
3918	0.0162723
3930	0.0149529
3942	0.0142199
3954	0.0156859
3966	0.0161257
