Infrared Spectrum: 4-Amino-3-nitrobenzotrifluoride
Formula: C 7 H 5 F 3 N 2 O 2
CAS: 400-98-6
Origin: Sadtler Research Labs Under US-EPA Contract
1/CM	ABSORBANCE
450	0.0325397
462	0.0242997
474	0.00521308
486	0.0281675
498	0.000546533
510	0.0237111
522	0.0101739
534	0.0254768
546	0.0137894
558	0.00357348
570	0.00105102
582	0.0110988
594	0.0113931
606	0.0220295
618	0.0452361
630	0.034852
642	0.0128225
654	0.0100898
666	0.00159756
678	0.00941718
690	0.032792
702	0.0405696
714	0.0180776
726	0.0146723
738	0.00987963
750	0.00836616
762	0.0179935
774	0.0177413
786	0.0118556
798	0.0216511
810	0.0427557
822	0.0549055
834	0.0248462
846	0.0124862
858	0.0118135
870	0.0124021
882	0.0124862
894	0.0147143
906	0.0244258
918	0.0242997
930	0.0147143
942	0.00697881
954	0.00887065
966	0.00891269
978	0.0065584
990	0.00428818
1002	0.0131168
1014	0.0179935
1026	0.0226181
1038	0.0295128
1050	0.0353565
1062	0.0346418
1074	0.047212
1086	0.0527615
1098	0.0567974
1110	0.0746648
1122	0.0741183
1134	0.111451
1146	0.239213
1158	0.155762
1170	0.129192
1182	0.0934151
1194	0.0261495
1206	0.0141258
1218	0.0142939
1230	0.0132429
1242	0.0180356
1254	0.0426296
1266	0.127721
1278	0.0850069
1290	0.0879077
1302	0.0720583
1314	0.155594
1326	0.42041
1338	0.158495
1350	0.0836616
1362	0.0375426
1374	0.0180776
1386	0.0126543
1398	0.0118556
1410	0.011309
1422	0.0129486
1434	0.0121078
1446	0.0100898
1458	0.00845024
1470	0.00962739
1482	0.0171948
1494	0.0373324
1506	0.039014
1518	0.023543
1530	0.0599084
1542	0.121498
1554	0.0567974
1566	0.039981
1578	0.0570076
1590	0.0427977
1602	0.0316148
1614	0.0315307
1626	0.0698721
1638	0.153239
1650	0.104304
1662	0.0226601
1674	0.012276
1686	0.00412002
1698	0.00361553
1710	0.00517104
1722	0.00458247
1734	0.00395185
1746	0.00580166
1758	0.00445635
1770	0.00504492
1782	0.00399389
1794	0.00323716
1806	0.00206001
1818	0.00273267
1830	0.00374165
1842	0.00134531
1854	0.000882861
1866	0.0018498
1878	0.00142939
1890	0.00142939
1902	0.00168164
1914	0.00264858
1926	0.00201797
1938	0.00155552
1950	0.00155552
1962	0.000882861
1974	0.00084082
1986	0.000798779
1998	0.000210205
2010	8.4082e-05
2022	0.000336328
2034	0.000630615
2046	0.000630615
2058	0.000210205
2070	0.000252246
2082	0.000798779
2094	0.000630615
2106	0.000924902
2118	0.000630615
2130	0.000756738
2142	0.000924902
2154	0.000588574
2166	0.000882861
2178	0.00105102
2190	0.00155552
2202	0.00138735
2214	0.00138735
2226	0.0016396
2238	0.0018498
2250	0.00201797
2262	0.00201797
2274	0.00260654
2286	0.00302695
2298	0.005129
2310	0.00664248
2322	0.00504492
2334	0.00412002
2346	0.00920698
2358	0.00412002
2370	0.00470859
2382	0.0049188
2394	0.00159756
2406	0.00155552
2418	0.00113511
2430	0.00147143
2442	0.00117715
2454	0.00109307
2466	0.00130327
2478	0.00117715
2490	0.000546533
2502	0.000546533
2514	0.00042041
2526	0.000546533
2538	0.000924902
2550	0.000756738
2562	0.00109307
2574	0.000924902
2586	0.00121919
2598	0.00105102
2610	0.00126123
2622	0.00113511
2634	0.0018498
2646	0.00269062
2658	0.0023543
2670	0.00197593
2682	0.00222817
2694	0.00222817
2706	0.00172368
2718	0.00168164
2730	0.00201797
2742	0.00210205
2754	0.00206001
2766	0.00243838
2778	0.00260654
2790	0.00340532
2802	0.00315307
2814	0.00374165
2826	0.00386777
2838	0.0042041
2850	0.00412002
2862	0.00458247
2874	0.0049188
2886	0.005129
2898	0.00533921
2910	0.00596982
2922	0.00575962
2934	0.00630615
2946	0.00643227
2958	0.0084082
2970	0.0107625
2982	0.00664248
2994	0.00521308
3006	0.00517104
3018	0.00550737
3030	0.00622207
3042	0.00643227
3054	0.00781963
3066	0.00752534
3078	0.0076935
3090	0.00874453
3102	0.00878657
3114	0.00550737
3126	0.00458247
3138	0.00504492
3150	0.00441431
3162	0.00416206
3174	0.00445635
3186	0.00487676
3198	0.00500288
3210	0.00470859
3222	0.00449839
3234	0.00428818
3246	0.00369961
3258	0.00340532
3270	0.00344736
3282	0.00315307
3294	0.00290083
3306	0.00315307
3318	0.00340532
3330	0.00416206
3342	0.00319512
3354	0.00449839
3366	0.00369961
3378	0.00517104
3390	0.0115613
3402	0.0339691
3414	0.0521729
3426	0.0179515
3438	0.00613799
3450	0.00395185
3462	0.0058437
3474	0.00554941
3486	0.00756738
3498	0.00849228
3510	0.0137474
3522	0.0226181
3534	0.029765
3546	0.0254348
3558	0.00929106
3570	0.00807187
3582	0.0058437
3594	0.00714697
3606	0.00613799
3618	0.00466655
3630	0.00672656
3642	0.00479267
3654	0.00815595
3666	0.00554941
3678	0.000924902
3690	0.00559145
3702	0.00735717
3714	0.00752534
3726	0.00483471
3738	0.00441431
3750	0.0103841
3762	0.00588574
3774	0.00504492
3786	0.00533921
3798	0.0101739
3810	0.00639023
3822	0.00487676
3834	0.00441431
3846	0.011267
3858	0.00399389
3870	0.00559145
3882	0.00908086
3894	0.00109307
3906	0.00765146
3918	0.0100898
3930	0.0058437
3942	0.00735717
3954	0.010258
3966	0.00786167
