Infrared Spectrum: Benzene, 1-iodo-3-(trifluoromethyl)-
Formula: C 7 H 4 F 3 I
CAS: 401-81-0
Origin: Sadtler Research Labs Under US-EPA Contract
1/CM	ABSORBANCE
450	0
462	0.0528218
474	0.0432592
486	0.0586276
498	0.0495204
510	0.0454222
522	0.0517972
534	0.0486097
546	0.0479266
558	0.0508865
570	0.0424623
582	0.0474713
594	0.049065
606	0.0425762
618	0.0496342
630	0.0546432
642	0.0613598
654	0.0550986
666	0.0507726
678	0.102456
690	0.28312
702	0.107806
714	0.0522526
726	0.0595383
738	0.0489512
750	0.0491789
762	0.0665964
774	0.0617013
786	0.160173
798	0.124313
810	0.0508865
822	0.0470159
834	0.0481543
846	0.046219
858	0.0453083
870	0.0469021
882	0.053391
894	0.0750206
906	0.0587414
918	0.0550986
930	0.0491789
942	0.0459914
954	0.047699
966	0.0454222
978	0.0470159
990	0.0541878
1002	0.0663687
1014	0.0655718
1026	0.0546432
1038	0.0613598
1050	0.0769558
1062	0.159376
1074	0.172354
1086	0.19774
1098	0.130461
1110	0.081851
1122	0.0883398
1134	0.166776
1146	0.536073
1158	0.779918
1170	0.355522
1182	0.534365
1194	0.31454
1206	0.114637
1218	0.0737683
1230	0.0561231
1242	0.0548709
1254	0.0724022
1266	0.17372
1278	0.0859492
1290	0.183055
1302	0.393773
1314	0.568289
1326	1.05735
1338	0.142983
1350	0.0721746
1362	0.0531633
1374	0.0523664
1386	0.0527079
1398	0.0722884
1410	0.0868599
1422	0.168483
1434	0.0998377
1446	0.0579446
1458	0.0492927
1470	0.0602214
1482	0.0651165
1494	0.0484958
1506	0.0459914
1518	0.045536
1530	0.0450806
1542	0.0465606
1554	0.0499758
1566	0.0638642
1578	0.093235
1590	0.0653442
1602	0.0520249
1614	0.0457637
1626	0.0440561
1638	0.0447391
1650	0.0482682
1662	0.049065
1674	0.048382
1686	0.0467882
1698	0.0479266
1710	0.0502034
1722	0.0439422
1734	0.0438284
1746	0.0450806
1758	0.0467882
1770	0.0467882
1782	0.0481543
1794	0.0454222
1806	0.0450806
1818	0.0449668
1830	0.0450806
1842	0.0436007
1854	0.04269
1866	0.0447391
1878	0.0434869
1890	0.0497481
1902	0.0429177
1914	0.0424623
1926	0.0432592
1938	0.0449668
1950	0.0466744
1962	0.0441699
1974	0.0418931
1986	0.0409824
1998	0.0415516
2010	0.0408686
2022	0.0406409
2034	0.0404132
2046	0.040527
2058	0.0428038
2070	0.0401855
2082	0.0393886
2094	0.042007
2106	0.0431454
2118	0.0436007
2130	0.042007
2142	0.0414378
2154	0.0412101
2166	0.0416654
2178	0.0409824
2190	0.0409824
2202	0.0413239
2214	0.0412101
2226	0.0417793
2238	0.0418931
2250	0.0417793
2262	0.0418931
2274	0.0421208
2286	0.0424623
2298	0.0440561
2310	0.0443976
2322	0.044853
2334	0.0421208
2346	0.0407547
2358	0.0437146
2370	0.0358596
2382	0.0388194
2394	0.0401855
2406	0.040527
2418	0.0401855
2430	0.039161
2442	0.0396163
2454	0.0393886
2466	0.0395025
2478	0.0395025
2490	0.0388194
2502	0.0392748
2514	0.0390471
2526	0.0380226
2538	0.0388194
2550	0.0385918
2562	0.0380226
2574	0.0380226
2586	0.0393886
2598	0.0388194
2610	0.0393886
2622	0.0393886
2634	0.0393886
2646	0.0392748
2658	0.0399578
2670	0.0365426
2682	0.0371118
2694	0.0392748
2706	0.037681
2718	0.0374534
2730	0.0368842
2742	0.0371118
2754	0.0373395
2766	0.0371118
2778	0.0367703
2790	0.0373395
2802	0.0366565
2814	0.036998
2826	0.0377949
2838	0.036998
2850	0.0372257
2862	0.0375672
2874	0.0373395
2886	0.0375672
2898	0.0383641
2910	0.0387056
2922	0.0393886
2934	0.0383641
2946	0.0383641
2958	0.0379087
2970	0.0382502
2982	0.0377949
2994	0.0383641
3006	0.0381364
3018	0.0375672
3030	0.0395025
3042	0.0388194
3054	0.0392748
3066	0.0446253
3078	0.0572615
3090	0.0517972
3102	0.0414378
3114	0.0383641
3126	0.0382502
3138	0.0379087
3150	0.0393886
3162	0.0384779
3174	0.0384779
3186	0.0388194
3198	0.0381364
3210	0.0385918
3222	0.037681
3234	0.0380226
3246	0.0384779
3258	0.0382502
3270	0.0381364
3282	0.037681
3294	0.0384779
3306	0.0377949
3318	0.0374534
3330	0.0359734
3342	0.0377949
3354	0.0384779
3366	0.0385918
3378	0.0372257
3390	0.0381364
3402	0.0382502
3414	0.0382502
3426	0.037681
3438	0.039161
3450	0.0379087
3462	0.0375672
3474	0.0390471
3486	0.0377949
3498	0.0383641
3510	0.0390471
3522	0.0384779
3534	0.0373395
3546	0.0383641
3558	0.0387056
3570	0.0366565
3582	0.0397302
3594	0.0379087
3606	0.0379087
3618	0.037681
3630	0.0393886
3642	0.0383641
3654	0.0388194
3666	0.0397302
3678	0.0392748
3690	0.039161
3702	0.039161
3714	0.0397302
3726	0.0404132
3738	0.039844
3750	0.039844
3762	0.0404132
3774	0.0400717
3786	0.0400717
3798	0.0415516
3810	0.0392748
3822	0.0392748
3834	0.0368842
3846	0.0383641
3858	0.0402994
3870	0.0396163
3882	0.0380226
3894	0.0375672
3906	0.040527
3918	0.0399578
3930	0.0371118
3942	0.0390471
3954	0.0416654
3966	0.0404132
