Infrared Spectrum: Isonicotinic acid, 2-chloro-3-cyano-6-methyl-, ethyl ester
Formula: C 10 H 9 Cl N 2 O 2
CAS: 40108-12-1
Origin: Sadtler Research Labs Under US-EPA Contract
1/CM	ABSORBANCE
450	0.000644312
462	0.0394641
474	0.038256
486	0.0101479
498	0.0295578
510	0.0295578
522	0.0208596
534	0.0142554
546	0.00604042
558	0.0172353
570	0.00265779
582	0.00885929
594	0.0316518
606	0.0165105
618	0.018524
630	0.022712
642	0.0229536
654	0.0107922
666	0.0265779
678	0.0254503
690	0.0285913
702	0.0156246
714	0.0282692
726	0.093989
738	0.185642
750	0.096083
762	0.0353566
774	0.0385782
786	0.0505785
798	0.0558941
810	0.036162
822	0.0271416
834	0.0181213
846	0.036162
858	0.0697468
870	0.0777201
882	0.122903
894	0.123144
906	0.0409944
918	0.0225509
930	0.0407527
942	0.0332626
954	0.0159467
966	0.0169937
978	0.023759
990	0.0431689
1002	0.0842438
1014	0.188059
1026	0.180005
1038	0.0700689
1050	0.0381755
1062	0.0389809
1074	0.0635453
1086	0.0793309
1098	0.165185
1110	0.183629
1122	0.0808612
1134	0.0518671
1146	0.0450213
1158	0.0530752
1170	0.0782034
1182	0.120325
1194	0.264007
1206	0.413085
1218	0.496362
1230	0.547343
1242	0.360412
1254	0.320626
1266	0.668957
1278	0.731294
1290	0.411876
1302	0.215361
1314	0.139494
1326	0.116218
1338	0.153991
1350	0.295175
1362	0.314505
1374	0.315954
1386	0.372815
1398	0.240087
1410	0.161561
1422	0.16293
1434	0.175817
1446	0.121614
1458	0.119681
1470	0.127896
1482	0.148675
1494	0.124111
1506	0.119439
1518	0.119198
1530	0.177588
1542	0.204327
1554	0.129909
1566	0.156004
1578	0.271336
1590	0.34664
1602	0.155279
1614	0.0640285
1626	0.0546054
1638	0.0435716
1650	0.0362425
1662	0.0469542
1674	0.0489677
1686	0.0673306
1698	0.0876264
1710	0.101157
1722	0.126205
1734	0.26006
1746	0.573599
1758	0.37652
1770	0.20771
1782	0.0924588
1794	0.0370479
1806	0.01643
1818	0.00974522
1830	0.00708743
1842	0.00829552
1854	0.00636258
1866	0.00499342
1878	0.00539611
1890	0.00370479
1902	0.00217455
1914	0.00177186
1926	0.00120809
1938	0.00128862
1950	0.00201347
1962	0.00201347
1974	0.00161078
1986	0.000724851
1998	0.000644312
2010	0.000483234
2022	0.000724851
2034	0
2046	0.00104701
2058	0.00080539
2070	0.00193294
2082	0.00257725
2094	0.00249671
2106	0.00217455
2118	0.00120809
2130	0.0014497
2142	0.00128862
2154	0.00161078
2166	0.000966468
2178	0.000885929
2190	0.000322156
2202	0.00104701
2214	0.00193294
2226	0.0062015
2238	0.0120003
2250	0.00434911
2262	0.00338264
2274	0.00491288
2286	0.00386587
2298	0.00346318
2310	0.00338264
2322	0.00410749
2334	0.00241617
2346	0
2358	0.00322156
2370	0.00136916
2382	0.00233563
2394	0.000644312
2406	0.00080539
2418	0.00193294
2430	0.00161078
2442	0.0014497
2454	0.0014497
2466	0.00217455
2478	0.00297994
2490	0.00306048
2502	0.00249671
2514	0.00169132
2526	0.00120809
2538	0.000241617
2550	8.0539e-05
2562	8.0539e-05
2574	0
2586	0.000322156
2598	0.00104701
2610	0.00201347
2622	0.00314102
2634	0.00265779
2646	0.00209401
2658	0.00177186
2670	0.00161078
2682	0.00161078
2694	0.00241617
2706	0.00297994
2718	0.00257725
2730	0.00402695
2742	0.00410749
2754	0.00491288
2766	0.00451018
2778	0.00547665
2790	0.0066042
2802	0.00749013
2814	0.00829552
2826	0.00958414
2838	0.0115976
2850	0.0131279
2862	0.0190877
2874	0.0240006
2886	0.0311686
2898	0.0327794
2910	0.0396252
2922	0.0461488
2934	0.0642701
2946	0.0952776
2958	0.0736126
2970	0.0766731
2982	0.10607
2994	0.141265
3006	0.0831162
3018	0.0549276
3030	0.0378533
3042	0.0293967
3054	0.0262557
3066	0.0235979
3078	0.0244839
3090	0.0186045
3102	0.015544
3114	0.01345
3126	0.010309
3138	0.00829552
3150	0.0080539
3162	0.00684581
3174	0.00732905
3186	0.00684581
3198	0.00668474
3210	0.00628204
3222	0.00636258
3234	0.00579881
3246	0.00612096
3258	0.0062015
3270	0.00595989
3282	0.00595989
3294	0.00692635
3306	0.00595989
3318	0.0066042
3330	0.00700689
3342	0.00732905
3354	0.00716797
3366	0.0062015
3378	0.00684581
3390	0.00628204
3402	0.00467126
3414	0.00483234
3426	0.00322156
3438	0.00314102
3450	0.00346318
3462	0.00563773
3474	0.00749013
3486	0.00692635
3498	0.00636258
3510	0.00773174
3522	0.00636258
3534	0.00595989
3546	0.00724851
3558	0.00934252
3570	0.00918145
3582	0.0095036
3594	0.00797336
3606	0.00789282
3618	0.00789282
3630	0.0033021
3642	0.0102285
3654	0.0047518
3666	0.00708743
3678	0.00926199
3690	0.00595989
3702	0.00789282
3714	0.00612096
3726	0.0131279
3738	0.0110338
3750	0.000161078
3762	0.00861767
3774	0.0105506
3786	0.00982576
3798	0.00708743
3810	0.0076512
3822	0.00732905
3834	0.00595989
3846	0.0051545
3858	0.00942306
3870	0.00813444
3882	0.0076512
3894	0.00885929
3906	0.0095036
3918	0.00595989
3930	0.0104701
3942	0.00974522
3954	0.00451018
3966	0.00378533
