Infrared Spectrum: Oxirane, [(1-methylethoxy)methyl]-
Formula: C 6 H 12 O 2
CAS: 4016-14-2
Origin: Sadtler Research Labs Under US-EPA Contract
1/CM	ABSORBANCE
450	0.0313634
462	0.0351746
474	0.0269963
486	0.0211207
498	0.0081783
510	0.0080195
522	0.0200885
534	0.0108779
546	0.0173888
558	0.0125454
570	0.0224705
582	0.0181828
594	0.0142922
606	0.0102427
618	0.0214383
630	0.0177858
642	0.0177064
654	0.0125454
666	0.0108779
678	0.00849591
690	0.00913111
702	0.0102427
714	0.00992512
726	0.0125454
738	0.0207237
750	0.0381919
762	0.0640766
774	0.0704287
786	0.0554219
798	0.0667762
810	0.0819418
822	0.114973
834	0.1723
846	0.211762
858	0.163645
870	0.079004
882	0.0581215
894	0.0838475
906	0.130297
918	0.170474
930	0.169442
942	0.111638
954	0.0648706
966	0.0623298
978	0.0858325
990	0.098616
1002	0.0720961
1014	0.0534369
1026	0.0747163
1038	0.0877381
1050	0.0859119
1062	0.127121
1074	0.274727
1086	0.570179
1098	0.626474
1110	0.387953
1122	0.476168
1134	0.571608
1146	0.5647
1158	0.516504
1170	0.421064
1182	0.239712
1194	0.114258
1206	0.064553
1218	0.064156
1230	0.0784482
1242	0.0920258
1254	0.105365
1266	0.0963928
1278	0.0723343
1290	0.0538339
1302	0.0451792
1314	0.0736841
1326	0.200011
1338	0.250193
1350	0.13792
1362	0.152529
1374	0.23733
1386	0.303153
1398	0.144827
1410	0.066538
1422	0.0513724
1434	0.0476406
1446	0.0602654
1458	0.0867853
1470	0.100283
1482	0.0844827
1494	0.0478788
1506	0.0250113
1518	0.0179446
1530	0.0146892
1542	0.014054
1554	0.0123866
1566	0.0111161
1578	0.00984572
1590	0.0102427
1602	0.00984572
1614	0.0111955
1626	0.0123072
1638	0.0119896
1650	0.013657
1662	0.0115925
1674	0.0111955
1686	0.0113543
1698	0.014848
1710	0.018421
1722	0.019215
1734	0.0258847
1746	0.0354922
1758	0.0375567
1770	0.0278698
1782	0.0187386
1794	0.0131012
1806	0.00928992
1818	0.00690789
1830	0.00635208
1842	0.00563747
1854	0.00547867
1866	0.00595507
1878	0.00643148
1890	0.00706669
1902	0.00690789
1914	0.00643148
1926	0.00682849
1938	0.00682849
1950	0.00635208
1962	0.00698729
1974	0.0081783
1986	0.00889291
1998	0.00857531
2010	0.0080195
2022	0.0078607
2034	0.00746369
2046	0.00722549
2058	0.00674908
2070	0.00666968
2082	0.00555807
2094	0.00476406
2106	0.00412885
2118	0.00420825
2130	0.00389065
2142	0.00492286
2154	0.00682849
2166	0.0082577
2178	0.0076225
2190	0.00627268
2202	0.00595507
2214	0.00563747
2226	0.00587567
2238	0.00722549
2250	0.00936932
2262	0.00944872
2274	0.00841651
2286	0.00921052
2298	0.00936932
2310	0.00889291
2322	0.00579627
2334	0.00293784
2346	0.00222323
2358	0.00389065
2370	0.00182622
2382	0.00254083
2394	0.00142922
2406	0.00142922
2418	0.000714609
2430	0.000476406
2442	0.000635208
2454	0.000317604
2466	0.00079401
2478	0.000952812
2490	0.00142922
2502	0.00254083
2514	0.00198502
2526	0.00174682
2538	0.00134982
2550	0.00182622
2562	0.00198502
2574	0.00214383
2586	0.00277904
2598	0.00444646
2610	0.00730489
2622	0.0112749
2634	0.0150862
2646	0.0154038
2658	0.0115131
2670	0.0083371
2682	0.00738429
2694	0.00857531
2706	0.0106397
2718	0.0137364
2730	0.0185798
2742	0.0227881
2754	0.0235027
2766	0.0249319
2778	0.028505
2790	0.0325544
2802	0.0387477
2814	0.0517695
2826	0.0713021
2838	0.09544
2850	0.142207
2862	0.229548
2874	0.315381
2886	0.31554
2898	0.27441
2910	0.262023
2922	0.289734
2934	0.336819
2946	0.322527
2958	0.265835
2970	0.452824
2982	0.79401
2994	0.566129
3006	0.29823
3018	0.172618
3030	0.097425
3042	0.118069
3054	0.154832
3066	0.103301
3078	0.0497844
3090	0.0187386
3102	0.0112749
3114	0.00960752
3126	0.00722549
3138	0.00603448
3150	0.00603448
3162	0.00690789
3174	0.0079401
3186	0.0078607
3198	0.00730489
3210	0.00635208
3222	0.00524047
3234	0.00238203
3246	0.00158802
3258	0.000555807
3270	0.000635208
3282	0.000952812
3294	0.000873411
3306	0.000873411
3318	0.000238203
3330	0.00127042
3342	0.000952812
3354	0.00190562
3366	0.00134982
3378	0.00182622
3390	0.000873411
3402	0.000952812
3414	0.00214383
3426	0.00214383
3438	0.000555807
3450	0.00158802
3462	0.00079401
3474	0.00079401
3486	0.00119101
3498	0.000158802
3510	0.000476406
3522	0.00111161
3534	0.00127042
3546	0.00079401
3558	0.00230263
3570	0.00277904
3582	0.00214383
3594	0.00222323
3606	0.00341424
3618	0.00325544
3630	0.00365245
3642	0.00246143
3654	0.00182622
3666	0.00214383
3678	0.00222323
3690	0.000635208
3702	0.00150862
3714	0.00127042
3726	0.000714609
3738	0.00254083
3750	0.00158802
3762	0.00333484
3774	0.00309664
3786	0.00500226
3798	0.00412885
3810	0.00269963
3822	0.00444646
3834	0.00301724
3846	0.00246143
3858	0.00254083
3870	7.9401e-05
3882	0
3894	0.000397005
3906	0
3918	0.00222323
3930	0.000952812
3942	0
3954	0.00079401
3966	7.9401e-05
