Infrared Spectrum: Benzene, 1-bromo-4-(trifluoromethyl)-
Formula: C 7 H 4 Br F 3
CAS: 402-43-7
Origin: Sadtler Research Labs Under US-EPA Contract
1/CM	ABSORBANCE
450	0
462	0.0116106
474	0.0174159
486	0.0204122
498	0.0192886
510	0.0119852
522	0.00730345
534	0.00767799
546	0.0108615
558	0.0114233
570	0.0159178
582	0.0252812
594	0.0301501
606	0.0215358
618	0.013296
630	0.0116106
642	0.00823979
654	0.010487
666	0.00823979
678	0.0088016
690	0.0147942
702	0.00767799
714	0.0127342
726	0.0147942
738	0.0116106
750	0.00917613
762	0.0112361
774	0.0702255
786	0.013296
798	0.0123597
810	0.0320228
822	0.107866
834	0.174347
846	0.0844579
858	0.0192886
870	0.00842706
882	0.00823979
894	0.00786526
906	0.00767799
918	0.00786526
930	0.00711618
942	0.00917613
954	0.0102997
966	0.0099252
978	0.00842706
990	0.0102997
1002	0.0331464
1014	0.369105
1026	0.0417608
1038	0.0168541
1050	0.0174159
1062	0.183148
1074	0.610119
1086	0.199253
1098	0.0876414
1110	0.122661
1122	0.115357
1134	0.214047
1146	0.561991
1158	0.886152
1170	0.652442
1182	0.565924
1194	0.154683
1206	0.0569295
1218	0.0554313
1230	0.0376409
1242	0.0183523
1254	0.0198504
1266	0.0295883
1278	0.03427
1290	0.0434462
1302	0.0619857
1314	0.232212
1326	1.64365
1338	0.323599
1350	0.0352064
1362	0.0402626
1374	0.03633
1386	0.0470043
1398	0.0897014
1410	0.07266
1422	0.0357682
1434	0.023034
1446	0.0117979
1458	0.0280902
1470	0.0179777
1482	0.0219104
1494	0.0702255
1506	0.041948
1518	0.0344573
1530	0.0234085
1542	0.0382027
1554	0.0294011
1566	0.0194759
1578	0.0260303
1590	0.0402626
1602	0.225845
1614	0.108054
1626	0.0205995
1638	0.0211613
1650	0.0329592
1662	0.0205995
1674	0.0234085
1686	0.023783
1698	0.0250939
1710	0.0102997
1722	0.0134833
1734	0.0273411
1746	0.0207867
1758	0.020974
1770	0.0239703
1782	0.0243448
1794	0.0191013
1806	0.00861433
1818	0.00749072
1830	0.0138578
1842	0.0114233
1854	0.00617984
1866	0.0093634
1878	0.00636711
1890	0.0112361
1902	0.0147942
1914	0.0187268
1926	0.013296
1938	0.00805252
1950	0.00749072
1962	0.00692892
1974	0.00636711
1986	0.00561804
1998	0.00561804
2010	0.00505624
2022	0.00561804
2034	0.00505624
2046	0.00580531
2058	0.00505624
2070	0.0052435
2082	0.00543077
2094	0.00767799
2106	0.010487
2118	0.00543077
2130	0.00543077
2142	0.00505624
2154	0.00543077
2166	0.00599258
2178	0.00561804
2190	0.0052435
2202	0.00617984
2214	0.00674165
2226	0.00692892
2238	0.00692892
2250	0.00655438
2262	0.00674165
2274	0.00823979
2286	0.010487
2298	0.00955067
2310	0.00917613
2322	0.00955067
2334	0.00898886
2346	0.00955067
2358	0.00786526
2370	0.0108615
2382	0.0099252
2394	0.00655438
2406	0.00561804
2418	0.00505624
2430	0.0052435
2442	0.00543077
2454	0.00561804
2466	0.00636711
2478	0.00655438
2490	0.00636711
2502	0.00655438
2514	0.00580531
2526	0.00543077
2538	0.00543077
2550	0.00749072
2562	0.00786526
2574	0.00599258
2586	0.00636711
2598	0.00636711
2610	0.00580531
2622	0.00580531
2634	0.00561804
2646	0.00711618
2658	0.00674165
2670	0.0052435
2682	0.00580531
2694	0.00543077
2706	0.00505624
2718	0.00505624
2730	0.0052435
2742	0.0052435
2754	0.0052435
2766	0.0052435
2778	0.00543077
2790	0.00543077
2802	0.0052435
2814	0.00561804
2826	0.00561804
2838	0.00543077
2850	0.00543077
2862	0.00561804
2874	0.00580531
2886	0.00580531
2898	0.00561804
2910	0.00599258
2922	0.00786526
2934	0.00898886
2946	0.00599258
2958	0.00543077
2970	0.00561804
2982	0.00543077
2994	0.00561804
3006	0.00561804
3018	0.0052435
3030	0.00580531
3042	0.00636711
3054	0.00767799
3066	0.00805252
3078	0.00805252
3090	0.00898886
3102	0.0102997
3114	0.0093634
3126	0.00674165
3138	0.00543077
3150	0.00599258
3162	0.00599258
3174	0.00599258
3186	0.0052435
3198	0.00505624
3210	0.00543077
3222	0.00561804
3234	0.00599258
3246	0.00580531
3258	0.00543077
3270	0.00599258
3282	0.00580531
3294	0.00599258
3306	0.00561804
3318	0.00636711
3330	0.00580531
3342	0.00580531
3354	0.00617984
3366	0.00580531
3378	0.00636711
3390	0.00599258
3402	0.00599258
3414	0.00617984
3426	0.00580531
3438	0.00617984
3450	0.00617984
3462	0.00599258
3474	0.00599258
3486	0.00617984
3498	0.00599258
3510	0.00599258
3522	0.00580531
3534	0.00617984
3546	0.00580531
3558	0.00617984
3570	0.00599258
3582	0.00599258
3594	0.00655438
3606	0.00636711
3618	0.00636711
3630	0.00580531
3642	0.00617984
3654	0.00617984
3666	0.00711618
3678	0.00599258
3690	0.00711618
3702	0.00692892
3714	0.00617984
3726	0.00692892
3738	0.00692892
3750	0.00674165
3762	0.00674165
3774	0.00617984
3786	0.00692892
3798	0.00655438
3810	0.00692892
3822	0.00655438
3834	0.00636711
3846	0.00655438
3858	0.00674165
3870	0.00767799
3882	0.00711618
3894	0.00786526
3906	0.00711618
3918	0.00692892
3930	0.00617984
3942	0.00674165
3954	0.00730345
3966	0.00674165
