Infrared Spectrum: Benzene, 1,3-bis(trifluoromethyl)-
Formula: C 8 H 4 F 6
CAS: 402-31-3
Origin: Sadtler Research Labs Under US-EPA Contract
1/CM	ABSORBANCE
450	0
462	0.0302006
474	0.0231636
486	0.0252161
498	0.0302006
510	0.027855
522	0.034892
534	0.0208179
546	0.0219907
558	0.0366513
570	0.0216975
582	0.0263889
594	0.0252161
606	0.0199383
618	0.0269753
630	0.0228704
642	0.0451543
654	0.0524846
666	0.0269753
678	0.321945
690	0.121389
702	0.20554
714	0.0706636
726	0.0234568
738	0.0243364
750	0.0331327
762	0.0252161
774	0.0234568
786	0.0284414
798	0.0844445
810	0.180911
822	0.0826852
834	0.137222
846	0.0700772
858	0.0316667
870	0.022284
882	0.0219907
894	0.0299074
906	0.0841513
918	0.112593
930	0.0360648
942	0.0243364
954	0.0284414
966	0.0246296
978	0.02375
990	0.0269753
1002	0.0331327
1014	0.0366513
1026	0.0366513
1038	0.0375309
1050	0.0395834
1062	0.137222
1074	0.456235
1086	0.444506
1098	0.0806328
1110	0.082392
1122	0.0967593
1134	0.188827
1146	0.940618
1158	2.52307
1170	1.0321
1182	1.23911
1194	1.19102
1206	0.287932
1218	0.127546
1230	0.0826852
1242	0.0606945
1254	0.108781
1266	0.287932
1278	2.24951
1290	0.917161
1302	0.795186
1314	0.494645
1326	0.182377
1338	0.224306
1350	0.711914
1362	0.489954
1374	0.0985186
1386	0.0392901
1398	0.0381173
1410	0.0343056
1422	0.0337192
1434	0.0343056
1446	0.0322531
1458	0.0407562
1470	0.0284414
1482	0.0243364
1494	0.0260957
1506	0.0284414
1518	0.0252161
1530	0.0216975
1542	0.0243364
1554	0.0228704
1566	0.0228704
1578	0.027855
1590	0.0287346
1602	0.034892
1614	0.0431019
1626	0.082392
1638	0.0433951
1650	0.0269753
1662	0.0249229
1674	0.02375
1686	0.0249229
1698	0.0272685
1710	0.0231636
1722	0.0228704
1734	0.034892
1746	0.0263889
1758	0.022284
1770	0.0219907
1782	0.02375
1794	0.022284
1806	0.022284
1818	0.029321
1830	0.027855
1842	0.0216975
1854	0.0216975
1866	0.0202315
1878	0.0190586
1890	0.0199383
1902	0.0263889
1914	0.0316667
1926	0.0214043
1938	0.0216975
1950	0.0208179
1962	0.0234568
1974	0.0228704
1986	0.0208179
1998	0.0202315
2010	0.0202315
2022	0.0214043
2034	0.0214043
2046	0.0199383
2058	0.0199383
2070	0.0172994
2082	0.0175926
2094	0.0187654
2106	0.0187654
2118	0.0178858
2130	0.0178858
2142	0.0184722
2154	0.0187654
2166	0.0178858
2178	0.0205247
2190	0.0214043
2202	0.0178858
2214	0.0187654
2226	0.0208179
2238	0.0214043
2250	0.0219907
2262	0.0246296
2274	0.0243364
2286	0.0252161
2298	0.0272685
2310	0.0249229
2322	0.0228704
2334	0.0231636
2346	0.0246296
2358	0.0234568
2370	0.0307871
2382	0.0275617
2394	0.0216975
2406	0.0205247
2418	0.0216975
2430	0.0219907
2442	0.0208179
2454	0.0214043
2466	0.0219907
2478	0.0216975
2490	0.022284
2502	0.0231636
2514	0.0231636
2526	0.0219907
2538	0.022284
2550	0.0228704
2562	0.022284
2574	0.0216975
2586	0.0208179
2598	0.0216975
2610	0.0228704
2622	0.02375
2634	0.02375
2646	0.022284
2658	0.0243364
2670	0.0219907
2682	0.0208179
2694	0.0219907
2706	0.0219907
2718	0.0214043
2730	0.0231636
2742	0.02375
2754	0.0231636
2766	0.0231636
2778	0.0228704
2790	0.022284
2802	0.0243364
2814	0.02375
2826	0.0243364
2838	0.022284
2850	0.0249229
2862	0.0249229
2874	0.0252161
2886	0.0243364
2898	0.0234568
2910	0.02375
2922	0.02375
2934	0.0263889
2946	0.0252161
2958	0.0263889
2970	0.0287346
2982	0.0287346
2994	0.0260957
3006	0.0258025
3018	0.0234568
3030	0.0249229
3042	0.0263889
3054	0.0263889
3066	0.0302006
3078	0.036358
3090	0.0463272
3102	0.034892
3114	0.0260957
3126	0.02375
3138	0.0269753
3150	0.0231636
3162	0.0249229
3174	0.0231636
3186	0.0219907
3198	0.022284
3210	0.0246296
3222	0.0269753
3234	0.0246296
3246	0.02375
3258	0.022284
3270	0.0219907
3282	0.0234568
3294	0.02375
3306	0.0228704
3318	0.02375
3330	0.0216975
3342	0.022284
3354	0.0231636
3366	0.0231636
3378	0.0228704
3390	0.0216975
3402	0.022284
3414	0.0228704
3426	0.0216975
3438	0.0214043
3450	0.0231636
3462	0.022284
3474	0.0216975
3486	0.0234568
3498	0.0234568
3510	0.0205247
3522	0.0216975
3534	0.0216975
3546	0.022284
3558	0.0205247
3570	0.0208179
3582	0.02375
3594	0.0231636
3606	0.0208179
3618	0.0228704
3630	0.0249229
3642	0.0205247
3654	0.0214043
3666	0.0246296
3678	0.0202315
3690	0.0231636
3702	0.0214043
3714	0.0228704
3726	0.022284
3738	0.0252161
3750	0.0260957
3762	0.0252161
3774	0.0231636
3786	0.0258025
3798	0.0252161
3810	0.0243364
3822	0.0214043
3834	0.022284
3846	0.0219907
3858	0.0231636
3870	0.0263889
3882	0.0231636
3894	0.0272685
3906	0.02375
3918	0.0246296
3930	0.0275617
3942	0.0258025
3954	0.0263889
3966	0.0275617
