Infrared Spectrum: Benzene, 1-fluoro-4-(trifluoromethyl)-
Formula: C 7 H 4 F 4
CAS: 402-44-8
Origin: Sadtler Research Labs Under US-EPA Contract
1/CM	ABSORBANCE
450	0.0183224
462	0.00863361
474	0.00518017
486	0.012183
498	0.0126626
510	0.0217759
522	0.00997662
534	0.00565981
546	0.0113196
558	0.0127586
570	0.017555
582	0.0447029
594	0.171233
606	0.0231189
618	0.0139097
630	0.00537202
642	0.00518017
654	0.00470052
666	0.00393309
678	0.00796211
690	0.000767432
702	0.00402902
714	0.00565981
726	0.0059476
738	0.00748246
750	0.00518017
762	0.00585167
774	0.00556388
786	0.00441273
798	0.00786618
810	0.0171713
822	0.0409617
834	0.122693
846	0.183416
858	0.0900773
870	0.0212962
882	0.0112237
894	0.00786618
906	0.00824989
918	0.00796211
930	0.00633131
942	0.00805804
954	0.00537202
966	0.00422088
978	0.00518017
990	0.00402902
1002	0.00652317
1014	0.044607
1026	0.0340548
1038	0.0113196
1050	0.0191858
1062	0.191666
1074	0.35724
1086	0.0516098
1098	0.0698363
1110	0.0749205
1122	0.0807722
1134	0.181785
1146	0.540272
1158	0.67275
1170	0.607039
1182	0.3087
1194	0.0833623
1206	0.029738
1218	0.0218718
1230	0.044607
1242	0.262845
1254	0.26438
1266	0.0295461
1278	0.0312729
1290	0.0383716
1302	0.0721386
1314	0.346975
1326	0.95929
1338	0.351196
1350	0.1461
1362	0.0448948
1374	0.033767
1386	0.0166916
1398	0.020241
1410	0.0238863
1422	0.0241741
1434	0.0191858
1446	0.0115115
1458	0.0153486
1470	0.0117033
1482	0.0106481
1494	0.010744
1506	0.0276276
1518	0.138521
1530	0.0906529
1542	0.0273398
1554	0.0142934
1566	0.0116074
1578	0.0134301
1590	0.0320403
1602	0.095929
1614	0.176222
1626	0.108688
1638	0.037796
1650	0.021584
1662	0.024366
1674	0.0210085
1686	0.0126626
1698	0.0127586
1710	0.0089214
1722	0.00920918
1734	0.0126626
1746	0.0101685
1758	0.0118952
1770	0.0166916
1782	0.01084
1794	0.00978476
1806	0.00700282
1818	0.00709875
1830	0.0089214
1842	0.00815396
1854	0.00613946
1866	0.00700282
1878	0.00786618
1890	0.0133341
1902	0.0158283
1914	0.0129504
1926	0.00796211
1938	0.00681096
1950	0.00604353
1962	0.00537202
1974	0.00671503
1986	0.00633131
1998	0.00604353
2010	0.00383716
2022	0.00345344
2034	0.00412495
2046	0.00287787
2058	0.00518017
2070	0.0102644
2082	0.010744
2094	0.00681096
2106	0.00518017
2118	0.00537202
2130	0.00556388
2142	0.00527609
2154	0.00623538
2166	0.0059476
2178	0.0059476
2190	0.00575574
2202	0.00585167
2214	0.0066191
2226	0.00575574
2238	0.00642724
2250	0.00585167
2262	0.00565981
2274	0.00623538
2286	0.00441273
2298	0.00191858
2310	0.000287787
2322	0.00239822
2334	0.000383716
2346	0.000191858
2358	0.0023023
2370	0.000191858
2382	0.000191858
2394	0.00422088
2406	0.00518017
2418	0.00479645
2430	0.00441273
2442	0.0043168
2454	0.00489238
2466	0.0043168
2478	0.00565981
2490	0.00642724
2502	0.00393309
2514	0.00287787
2526	0.0029738
2538	0.0023023
2550	0.00278194
2562	0.00287787
2574	0.00316566
2586	0.00402902
2598	0.00412495
2610	0.00211044
2622	0.00220637
2634	0.00354937
2646	0.00460459
2658	0.0036453
2670	0.00565981
2682	0.00700282
2694	0.00354937
2706	0.00115115
2718	0.00163079
2730	0.00134301
2742	0.00115115
2754	0.00172672
2766	0.00172672
2778	0.00124708
2790	0.000575574
2802	0.00115115
2814	0.00201451
2826	0.00191858
2838	0.00134301
2850	0.00191858
2862	0.00124708
2874	0.00095929
2886	0.00143893
2898	0.00163079
2910	0.00115115
2922	0.00134301
2934	0.00278194
2946	0.00259008
2958	0.00143893
2970	0.00153486
2982	0.00172672
2994	0.00134301
3006	0.00095929
3018	0.000671503
3030	0.00105522
3042	0.000863361
3054	0.00163079
3066	0.00422088
3078	0.00402902
3090	0.00546795
3102	0.0043168
3114	0.00163079
3126	0.00172672
3138	0.00201451
3150	0.00306973
3162	0.000191858
3174	0.00172672
3186	0.00095929
3198	0.00172672
3210	0.00211044
3222	0.00211044
3234	0.00163079
3246	0.0023023
3258	0.00172672
3270	0.00239822
3282	0.00191858
3294	0.00220637
3306	0.00211044
3318	0.0023023
3330	0.00191858
3342	0.00211044
3354	0.00239822
3366	0.00249415
3378	0.00211044
3390	0.00249415
3402	0.00220637
3414	0.00134301
3426	0.00201451
3438	0.00489238
3450	0.0036453
3462	0.00393309
3474	0.00239822
3486	0.00239822
3498	0.00335751
3510	0.00220637
3522	0.00211044
3534	0.00278194
3546	0.000863361
3558	0.00249415
3570	0.00287787
3582	0.00422088
3594	0.00393309
3606	0.00479645
3618	0.00278194
3630	0.00393309
3642	0.0029738
3654	0.00143893
3666	0.00191858
3678	0.00259008
3690	0.0036453
3702	0.00153486
3714	0.00163079
3726	0.00134301
3738	0.000479645
3750	0.000671503
3762	0.0023023
3774	0.000479645
3786	0.0043168
3798	0.00259008
3810	0.000671503
3822	0.00259008
3834	0.00268601
3846	0.00249415
3858	0.00124708
3870	0.00354937
3882	0.00191858
3894	0.00153486
3906	0.0036453
3918	0.0023023
3930	0.00489238
3942	0.00613946
3954	0.00757839
3966	0.00268601
