Infrared Spectrum: 4-Fluoro-.alpha.,.alpha.,.alpha.-trichlorotoluene
Formula: C 7 H 4 Cl 3 F
CAS: 402-42-6
Origin: Sadtler Research Labs Under US-EPA Contract
1/CM	ABSORBANCE
450	0.011064
462	0.00678669
474	0.000741403
486	0.00456248
498	0.00444842
510	0.0185921
522	0.0277741
534	0.0177937
546	0.0388951
558	0.234854
570	0.00741403
582	0.00935308
594	0.00929605
606	0.0064445
618	0.0127749
630	0.0192194
642	0.0179648
654	0.0138015
666	0.0174515
678	0.0326788
690	0.0799004
702	0.120621
714	0.0671255
726	0.033135
738	0.0630193
750	0.184895
762	0.43777
774	0.437998
786	0.212726
798	0.322852
810	0.299185
822	0.187746
834	0.0844629
846	0.0656427
858	0.0614224
870	0.140638
882	0.237705
894	0.0248655
906	0.0150562
918	0.0142578
930	0.014657
942	0.0155695
954	0.0124898
966	0.0104367
978	0.00781325
990	0.00621638
1002	0.00724294
1014	0.0321085
1026	0.0102085
1038	0.00832653
1050	0.0192194
1062	0.00752809
1074	0.00941012
1086	0.0104937
1098	0.0122617
1110	0.0139726
1122	0.0118054
1134	0.00929605
1146	0.00855465
1158	0.0691216
1170	0.274319
1182	0.192708
1194	0.125012
1206	0.0326217
1218	0.0466514
1230	0.0568599
1242	0.323366
1254	0.418037
1266	0.0544076
1278	0.0379826
1290	0.0288577
1302	0.0270897
1314	0.0218999
1326	0.0173945
1338	0.0156835
1350	0.0123187
1362	0.0136874
1374	0.0113492
1386	0.00918199
1398	0.0192194
1410	0.0298842
1422	0.0266905
1434	0.0179648
1446	0.0130601
1458	0.0252647
1470	0.0245804
1482	0.0111781
1494	0.0356444
1506	0.462921
1518	0.227725
1530	0.033135
1542	0.033192
1554	0.022014
1566	0.0231546
1578	0.0313671
1590	0.0672395
1602	0.267133
1614	0.11526
1626	0.0501302
1638	0.0380967
1650	0.0200179
1662	0.0133453
1674	0.0104937
1686	0.0111781
1698	0.0097523
1710	0.0057031
1722	0.00718591
1734	0.00980933
1746	0.00952418
1758	0.0234968
1770	0.0153413
1782	0.00815543
1794	0.00832653
1806	0.00621638
1818	0.00473357
1830	0.00433436
1842	0.00393514
1854	0.00313671
1866	0.00416326
1878	0.00729997
1890	0.0144859
1902	0.0130031
1914	0.00598826
1926	0.00302264
1938	0.00296561
1950	0.00347889
1962	0.00439139
1974	0.00490467
1986	0.00342186
1998	0.00273749
2010	0.00285155
2022	0.0033078
2034	0.00690075
2046	0.00992339
2058	0.00866871
2070	0.00536091
2082	0.00319374
2094	0.00273749
2106	0.00273749
2118	0.00273749
2130	0.00313671
2142	0.00262343
2154	0.00262343
2166	0.00262343
2178	0.00256639
2190	0.00250936
2202	0.00250936
2214	0.00250936
2226	0.00245233
2238	0.00250936
2250	0.00193905
2262	0.00245233
2274	0.00285155
2286	0.00290858
2298	0.0033078
2310	0.00393514
2322	0.00416326
2334	0.0047906
2346	0.00422029
2358	0.00621638
2370	0.00895387
2382	0.0033078
2394	0.00273749
2406	0.00461951
2418	0.00490467
2430	0.00216718
2442	0.00205312
2454	0.00205312
2466	0.00250936
2478	0.00484764
2490	0.00598826
2502	0.00256639
2514	0.00193905
2526	0.00199609
2538	0.00171093
2550	0.00176796
2562	0.00233827
2574	0.00382108
2586	0.00262343
2598	0.00131171
2610	0.00125468
2622	0.00131171
2634	0.000741403
2646	0.000399217
2658	0.000798434
2670	0.000684372
2682	0.00171093
2694	0.00216718
2706	0.00136874
2718	0.000627341
2730	0.000627341
2742	0.000627341
2754	0.0016539
2766	0.00171093
2778	0.00176796
2790	0.00273749
2802	0.00176796
2814	0.00131171
2826	0.000912496
2838	0.000969527
2850	0.00102656
2862	0.000741403
2874	0.00102656
2886	0.00159687
2898	0.00119765
2910	0.000912496
2922	0.000969527
2934	0.00131171
2946	0.000855465
2958	0.000855465
2970	0.000627341
2982	0.00102656
2994	0.000513279
3006	0.00108359
3018	0.00119765
3030	0.00119765
3042	0.00153984
3054	0.00313671
3066	0.00655857
3078	0.00501873
3090	0.0122617
3102	0.00461951
3114	0.00285155
3126	0.00273749
3138	0.00153984
3150	0.000969527
3162	0.00102656
3174	0.00114062
3186	0.00171093
3198	0.00182499
3210	0.00125468
3222	0.00131171
3234	0.00136874
3246	0.000912496
3258	0.000912496
3270	0.000513279
3282	5.7031e-05
3294	0.000912496
3306	0.000798434
3318	0.00057031
3330	0.000171093
3342	0.000285155
3354	0.000741403
3366	0.000741403
3378	0.000798434
3390	0.00119765
3402	0.00114062
3414	0.000855465
3426	0.00148281
3438	0.000969527
3450	0.000513279
3462	0.00114062
3474	0.00125468
3486	0.00119765
3498	0.00125468
3510	0.000969527
3522	0.000741403
3534	0.00131171
3546	0.00193905
3558	0.00193905
3570	0.00256639
3582	0.00353592
3594	0.00399217
3606	0.00153984
3618	0.00273749
3630	0.00439139
3642	0.00216718
3654	0.00268046
3666	0.0023953
3678	0.00393514
3690	0.00422029
3702	0.00193905
3714	0.00325077
3726	0.00302264
3738	0.00450545
3750	0.00490467
3762	0.00256639
3774	0.00159687
3786	0.00216718
3798	0.00353592
3810	0.0033078
3822	0.00427733
3834	0.00382108
3846	0.0033078
3858	0.00416326
3870	0.00444842
3882	0.00393514
3894	0.00342186
3906	0.00325077
3918	0.00313671
3930	0.00359295
3942	0.00325077
3954	0
3966	0.000342186
