Infrared Spectrum: Benzene, 1-(dichloromethyl)-3-fluoro-
Formula: C 7 H 5 Cl 2 F
CAS: 402-64-2
Origin: Sadtler Research Labs Under US-EPA Contract
1/CM	ABSORBANCE
450	0.0184205
462	0.00806392
474	0.00296467
486	0.00924979
498	0.000316232
510	0.0137561
522	0.021069
534	0.0167998
546	0.0137561
558	0.0160883
570	0.0167998
582	0.0432843
594	0.0487393
606	0.0609932
618	0.0268797
630	0.0778326
642	0.0832481
654	0.0192506
666	0.0118982
678	0.027275
690	0.0400824
702	0.0473953
714	0.0860942
726	0.157958
738	0.295005
750	0.388491
762	0.368647
774	0.212547
786	0.180055
798	0.107598
810	0.112855
822	0.0719033
834	0.0164836
846	0.0165627
858	0.0386594
870	0.0686619
882	0.0534432
894	0.0280656
906	0.0134399
918	0.00723381
930	0.00834062
942	0.0162069
954	0.0450631
966	0.0503204
978	0.0134003
990	0.00426913
1002	0.00747098
1014	0.00687805
1026	0.00454583
1038	0.00814297
1050	0.0461303
1062	0.047079
1074	0.0182229
1086	0.0137166
1098	0.0149815
1110	0.0566451
1122	0.0730101
1134	0.0494113
1146	0.0863709
1158	0.0921421
1170	0.0439958
1182	0.0181438
1194	0.0214247
1206	0.0685433
1218	0.106452
1230	0.0946324
1242	0.13175
1254	0.150803
1266	0.363509
1278	0.297258
1290	0.156693
1302	0.108112
1314	0.0431261
1326	0.0106728
1338	0.00853826
1350	0.00889402
1362	0.00731286
1374	0.00810345
1386	0.0110681
1398	0.0196064
1410	0.0606375
1422	0.0907586
1434	0.0896122
1446	0.149775
1458	0.170291
1470	0.244764
1482	0.308721
1494	0.240732
1506	0.071508
1518	0.0316232
1530	0.0217805
1542	0.0160092
1554	0.015693
1566	0.0298444
1578	0.078386
1590	0.175311
1602	0.200926
1614	0.157325
1626	0.06546
1638	0.0151001
1650	0.00739192
1662	0.0076291
1674	0.00814297
1686	0.00948696
1698	0.00541547
1710	0.0036762
1722	0.0064037
1734	0.0113844
1746	0.0119378
1758	0.0132422
1770	0.00838015
1782	0.00616652
1794	0.00533641
1806	0.00320185
1818	0.00130446
1830	0.00181833
1842	0.00292515
1854	0.00592935
1866	0.00869638
1878	0.00778721
1890	0.00383431
1902	0.00249033
1914	0.00355761
1926	0.00537594
1938	0.00470395
1950	0.00225315
1962	0.000988225
1974	0.000711522
1986	0.000988225
1998	0.000830109
2010	0.0015021
2022	0.00213457
2034	0.00260891
2046	0.00169975
2058	0.00134399
2070	0.000948696
2082	0.00162069
2094	0.00201598
2106	0.00154163
2118	0.0012254
2130	0.000513877
2142	3.9529e-05
2154	3.9529e-05
2166	0.000434819
2178	0.000632464
2190	0.00106728
2202	0.00166022
2214	0.00142304
2226	0.00134399
2238	0.00162069
2250	0.00106728
2262	0.000909167
2274	0.00138352
2286	0.00229268
2298	0.00233221
2310	0.00280656
2322	0.00197645
2334	0.000276703
2346	0.000355761
2358	0.00118587
2370	0.000553406
2382	0.00197645
2394	0.00118587
2406	0.00241127
2418	0.0024508
2430	0.00304373
2442	0.00229268
2454	0.00126493
2466	0.00162069
2478	0.00154163
2490	0.00185786
2502	0.00221362
2514	0.0021741
2526	0.00264844
2538	0.0021741
2550	0.00225315
2562	0.00166022
2574	0.00193692
2586	0.00138352
2598	0.00106728
2610	0.00106728
2622	0.000830109
2634	0.000355761
2646	0.000751051
2658	0.000553406
2670	0.000474348
2682	0.000909167
2694	0.000474348
2706	0.000988225
2718	0.00221362
2730	0.00201598
2742	0.00173928
2754	0.00130446
2766	0.000751051
2778	0.000434819
2790	0.000553406
2802	0.000592935
2814	0.000592935
2826	0.000909167
2838	0.00138352
2850	0.00185786
2862	0.00177881
2874	0.00241127
2886	0.00324138
2898	0.00252986
2910	0.00185786
2922	0.000909167
2934	0.00110681
2946	0.00320185
2958	0.00458536
2970	0.00944743
2982	0.0157325
2994	0.00988225
3006	0.00711522
3018	0.00486207
3030	0.00521783
3042	0.0103961
3054	0.0168394
3066	0.0173928
3078	0.0260891
3090	0.025931
3102	0.0120168
3114	0.00604794
3126	0.00288562
3138	0.0015021
3150	0.00079058
3162	0.000948696
3174	0.000948696
3186	0.00110681
3198	0.00106728
3210	0.00142304
3222	0.00114634
3234	0.00106728
3246	0.000909167
3258	0.0012254
3270	0.000751051
3282	0.00146257
3294	0.00154163
3306	0.000909167
3318	0.000988225
3330	0.00110681
3342	0.00154163
3354	0.00138352
3366	0.00154163
3378	0.00146257
3390	0.00106728
3402	0.00213457
3414	0.000632464
3426	0.00288562
3438	0.00142304
3450	0.00146257
3462	0.00158116
3474	0.00193692
3486	0.00205551
3498	0.00146257
3510	0.00225315
3522	0.00264844
3534	0.00205551
3546	0.00213457
3558	0.00197645
3570	0.00324138
3582	0.00339949
3594	0.00264844
3606	0.00209504
3618	0.000869638
3630	0.00142304
3642	0.00193692
3654	0.00280656
3666	0.00260891
3678	0.00185786
3690	0.00039529
3702	0.00312279
3714	0.00181833
3726	0.00256938
3738	0.00166022
3750	0.00241127
3762	0.000711522
3774	0.00375525
3786	0.00126493
3798	0.00324138
3810	0.00142304
3822	0.0027275
3834	0.00505971
3846	0.0030042
3858	0.000592935
3870	0.00106728
3882	0.00316232
3894	0.00256938
3906	0.00229268
3918	0.00284609
3930	0.00249033
3942	0.00106728
3954	0.00304373
3966	0.00343902
