Infrared Spectrum: Ethyl o-tolylacetate
Formula: C 11 H 14 O 2
CAS: 40291-39-2
Origin: Sadtler Research Labs Under US-EPA Contract
1/CM	ABSORBANCE
450	0.00741657
462	0.0247925
474	0.00911179
486	0.0112308
498	0.0252163
510	0.0404733
522	0.0866679
534	0.0853965
546	0.0235211
558	0.0716229
570	0.0330567
582	0.0307258
594	0.0336924
606	0.030302
618	0.0186474
630	0.0139855
642	0.0127141
654	0.0444994
666	0.0360233
678	0.0152569
690	0.0156807
702	0.0417447
714	0.0533993
726	0.0718348
738	0.196857
750	0.146
762	0.0733181
774	0.106375
786	0.0580611
798	0.0192831
810	0.0226735
822	0.0493732
834	0.0548826
846	0.0347519
858	0.0275473
870	0.0186474
882	0.0296663
894	0.0690801
906	0.177786
918	0.0870917
930	0.0470422
942	0.0555183
954	0.0214021
966	0.0186474
978	0.0311496
990	0.0576373
1002	0.123115
1014	0.140067
1026	0.0656896
1038	0.0764966
1050	0.143034
1062	0.0745895
1074	0.0695039
1086	0.0701396
1098	0.113579
1110	0.305563
1122	0.242416
1134	0.0667491
1146	0.0705634
1158	0.164648
1170	0.790606
1182	1.05421
1194	0.831292
1206	1.63355
1218	1.59266
1230	0.50687
1242	0.1638
1254	0.110825
1266	0.0603921
1278	0.0383543
1290	0.0332686
1302	0.028183
1314	0.0192831
1326	0.0243687
1338	0.0197069
1350	0.0368709
1362	0.157655
1374	0.33205
1386	0.144941
1398	0.0425923
1410	0.0271235
1422	0.0349638
1434	0.056154
1446	0.0889988
1458	0.100018
1470	0.0824299
1482	0.151298
1494	0.229914
1506	0.147484
1518	0.0570016
1530	0.025852
1542	0.0184355
1554	0.0197069
1566	0.0254282
1578	0.0428042
1590	0.0654777
1602	0.0322091
1614	0.0135617
1626	0.00699277
1638	0.00572135
1650	0.00699277
1662	0.00529755
1674	0.010807
1686	0.0135617
1698	0.0135617
1710	0.0161046
1722	0.0305139
1734	0.0629349
1746	0.0875155
1758	0.132651
1770	0.378881
1782	0.739326
1794	0.496063
1806	0.187745
1818	0.105315
1830	0.0514922
1842	0.0239449
1854	0.0148331
1866	0.0101713
1878	0.00889988
1890	0.00847608
1902	0.0116546
1914	0.0105951
1926	0.00847608
1938	0.0120784
1950	0.00784037
1962	0.00381424
1974	0.00233092
1986	0.00317853
1998	0.00635706
2010	0.00635706
2022	0.00635706
2034	0.00911179
2046	0.00741657
2058	0.00444994
2070	0.00402614
2082	0.00444994
2094	0.00529755
2106	0.00826418
2118	0.00889988
2130	0.00508565
2142	0.00423804
2154	0.00423804
2166	0.00360233
2178	0.00381424
2190	0.00423804
2202	0.00487375
2214	0.00508565
2226	0.00550945
2238	0.00466184
2250	0.00466184
2262	0.00614516
2274	0.00656896
2286	0.00572135
2298	0.00466184
2310	0.00466184
2322	0.00635706
2334	0.00572135
2346	0.00656896
2358	0.00529755
2370	0.00678086
2382	0.00572135
2394	0.00656896
2406	0.00784037
2418	0.00614516
2430	0.00572135
2442	0.00508565
2454	0.00444994
2466	0.00296663
2478	0.00233092
2490	0.00254282
2502	0.00211902
2514	0.00148331
2526	0.00169522
2538	0.00105951
2550	0.00169522
2562	0.00317853
2574	0.00339043
2586	0.00296663
2598	0.00169522
2610	0.00105951
2622	0.000635706
2634	0.000211902
2646	0
2658	0.000635706
2670	0.000847608
2682	0.00105951
2694	0.00148331
2706	0.00148331
2718	0.00169522
2730	0.00275473
2742	0.00381424
2754	0.00402614
2766	0.00233092
2778	0.00254282
2790	0.00254282
2802	0.00317853
2814	0.00339043
2826	0.00466184
2838	0.00614516
2850	0.0110189
2862	0.0222497
2874	0.032421
2886	0.0328448
2898	0.0286068
2910	0.0311496
2922	0.0449232
2934	0.0731062
2946	0.0817942
2958	0.0614516
2970	0.0563659
2982	0.0595445
2994	0.0527636
3006	0.032421
3018	0.0383543
3030	0.0775561
3042	0.101501
3054	0.0817942
3066	0.0860322
3078	0.106375
3090	0.0856084
3102	0.0370829
3114	0.0171641
3126	0.0114427
3138	0.00720467
3150	0.00550945
3162	0.00444994
3174	0.00381424
3186	0.00317853
3198	0.00296663
3210	0.00296663
3222	0.00254282
3234	0.00211902
3246	0.00233092
3258	0.00211902
3270	0.00169522
3282	0.00233092
3294	0.00254282
3306	0.00127141
3318	0.00211902
3330	0.00169522
3342	0.00127141
3354	0.00233092
3366	0.000211902
3378	0.00254282
3390	0.00169522
3402	0.00127141
3414	0.00169522
3426	0.00127141
3438	0.00169522
3450	0.00127141
3462	0.00105951
3474	0.00169522
3486	0.00254282
3498	0.00233092
3510	0.00381424
3522	0.00339043
3534	0.00741657
3546	0.0105951
3558	0.00868798
3570	0.00572135
3582	0.00572135
3594	0.00360233
3606	0.00381424
3618	0.00381424
3630	0.00360233
3642	0.00402614
3654	0.00720467
3666	0.00572135
3678	0.00529755
3690	0.00572135
3702	0.00423804
3714	0.00402614
3726	0.00487375
3738	0.00444994
3750	0.00572135
3762	0.00254282
3774	0.00466184
3786	0.00211902
3798	0.00529755
3810	0.00317853
3822	0.00444994
3834	0.00762847
3846	0.00635706
3858	0.00889988
3870	0.00466184
3882	0.00741657
3894	0.00889988
3906	0.00720467
3918	0.00487375
3930	0.00487375
3942	0.00339043
3954	0.00211902
3966	0.00423804
