Infrared Spectrum: 4-Fluorophenylmethylcarbinol
Formula: C 8 H 9 F O
CAS: 403-41-8
Origin: Sadtler Research Labs Under US-EPA Contract
1/CM	ABSORBANCE
450	0.0263265
462	0.0429467
474	0.0320438
486	0.0190136
498	0.010637
510	0.0215398
522	0.0553122
534	0.104508
546	0.144796
558	0.151178
570	0.145062
582	0.0682095
594	0.0222047
606	0.00970623
618	0.00797772
630	0.00970623
642	0.00784476
654	0.00478663
666	0.000930734
678	0.00744587
690	0.0168862
702	0.0167532
714	0.0380271
726	0.0482652
738	0.0248639
750	0.0168862
762	0.0144929
774	0.0107699
786	0.0111688
798	0.0281879
810	0.10145
822	0.269514
834	0.569476
846	0.397955
858	0.103179
870	0.0429467
882	0.0581044
894	0.1432
906	0.153704
918	0.0598329
930	0.0287198
942	0.0235343
954	0.0276561
966	0.0329746
978	0.0465367
990	0.101184
1002	0.180562
1014	0.204496
1026	0.110757
1038	0.0831013
1050	0.128973
1062	0.203033
1074	0.304882
1086	0.424282
1098	0.277492
1110	0.151444
1122	0.0719324
1134	0.0499937
1146	0.0809739
1158	0.286134
1170	0.161017
1182	0.105705
1194	0.0958656
1206	0.112353
1218	0.242922
1230	0.863854
1242	1.32297
1254	0.391706
1266	0.256085
1278	0.1553
1290	0.144663
1302	0.130569
1314	0.0941371
1326	0.100785
1338	0.132031
1350	0.177504
1362	0.18628
1374	0.181094
1386	0.177903
1398	0.103976
1410	0.0785805
1422	0.0711347
1434	0.0599659
1446	0.0717995
1458	0.0647525
1470	0.0672788
1482	0.0695391
1494	0.119533
1506	0.632766
1518	0.941238
1530	0.160485
1542	0.0163543
1554	0.0166202
1566	0.0195454
1578	0.0295176
1590	0.0941371
1602	0.317247
1614	0.313524
1626	0.0973282
1638	0.0409523
1650	0.0253957
1662	0.0192795
1674	0.00452071
1686	0.00332405
1698	0.0170191
1710	0.0360327
1722	0.0207421
1734	0.00412182
1746	0.00518552
1758	0.0182158
1770	0.0147588
1782	0.00518552
1794	0.00199443
1806	0.00651514
1818	0.00678106
1830	0.00159554
1842	0.00345701
1854	0.00957326
1866	0.0130303
1878	0.0281879
1890	0.0307142
1902	0.0220717
1914	0.0123655
1926	0.00797772
1938	0.00744587
1950	0.00904142
1962	0.00890845
1974	0.00744587
1986	0.00864253
1998	0.00864253
2010	0.00571737
2022	0.0055844
2034	0.00824364
2046	0.0110358
2058	0.0146258
2070	0.0146258
2082	0.0124984
2094	0.00638218
2106	0.00398886
2118	0.00319109
2130	0.00239332
2142	0.00226035
2154	0.00305813
2166	0.00358997
2178	0.00372294
2190	0.00372294
2202	0.0038559
2214	0.00372294
2226	0.00465367
2238	0.00491959
2250	0.00531848
2262	0.00678106
2274	0.0066481
2286	0.00505256
2298	0.00358997
2310	0.00226035
2322	0
2334	0.00132962
2346	0.00598329
2358	0
2370	0.00850957
2382	0.0110358
2394	0.0111688
2406	0.00850957
2418	0.00797772
2430	0.0101051
2442	0.0110358
2454	0.0134292
2466	0.0148917
2478	0.0115677
2490	0.00877549
2502	0.00757883
2514	0.00797772
2526	0.00864253
2538	0.00890845
2550	0.00930734
2562	0.010504
2574	0.0120995
2586	0.0117007
2598	0.0114347
2610	0.00864253
2622	0.00704699
2634	0.00850957
2646	0.00598329
2658	0.00704699
2670	0.0120995
2682	0.010637
2694	0.0115677
2706	0.0127644
2718	0.0134292
2730	0.0143599
2742	0.0151577
2754	0.0150247
2766	0.0143599
2778	0.0146258
2790	0.0162214
2802	0.0179499
2814	0.0207421
2826	0.0240661
2838	0.0288528
2850	0.0382931
2862	0.0634229
2874	0.122325
2886	0.169394
2898	0.159554
2910	0.119001
2922	0.0973282
2934	0.11448
2946	0.102248
2958	0.080442
2970	0.164607
2982	0.34251
2994	0.276827
3006	0.0719324
3018	0.0507915
3030	0.0499937
3042	0.0760543
3054	0.0784476
3066	0.055844
3078	0.0610296
3090	0.0481322
3102	0.024465
3114	0.0248639
3126	0.0228695
3138	0.0142269
3150	0.00864253
3162	0.00704699
3174	0.00717995
3186	0.00811068
3198	0.00811068
3210	0.00731291
3222	0.00864253
3234	0.00890845
3246	0.00717995
3258	0.00505256
3270	0.00372294
3282	0.00505256
3294	0.00638218
3306	0.00345701
3318	0.00465367
3330	0.00452071
3342	0.00598329
3354	0.00585033
3366	0.00531848
3378	0.00571737
3390	0.00585033
3402	0.00717995
3414	0.00505256
3426	0.00412182
3438	0.0066481
3450	0.0066481
3462	0.00438775
3474	0.00505256
3486	0.0027922
3498	0.00212739
3510	0.00345701
3522	0.0038559
3534	0.00305813
3546	0.000930734
3558	0.00319109
3570	0.00478663
3582	0.00159554
3594	0.000930734
3606	0.00731291
3618	0.0120995
3630	0.0327087
3642	0.0865583
3654	0.125383
3666	0.0711347
3678	0.0240661
3690	0.0147588
3702	0.00983919
3714	0.00784476
3726	0.00465367
3738	0.00691402
3750	0.00332405
3762	0.00292516
3774	0.00638218
3786	0.00545144
3798	0.00545144
3810	0.00412182
3822	0.00585033
3834	0.00425478
3846	0.00691402
3858	0.00864253
3870	0.00904142
3882	0.00864253
3894	0.00704699
3906	0.00651514
3918	0.00358997
3930	0.00691402
3942	0.00731291
3954	0.00784476
3966	0.00904142
