Infrared Spectrum: Bromo-4-fluoroacetophenone
Formula: C 8 H 6 Br F O
CAS: 403-29-2
Origin: Sadtler Research Labs Under US-EPA Contract
1/CM	ABSORBANCE
450	0.00603342
462	0.00777641
474	0.0047597
486	0.0128713
498	0.0197092
510	0.0349938
522	0.0496081
534	0.0195751
546	0.0309045
558	0.0587923
570	0.086412
582	0.147618
594	0.157137
606	0.0258767
618	0.010525
630	0.010592
642	0.00583231
654	0.00831271
666	0.0166254
678	0.0255415
690	0.0280219
702	0.0162902
714	0.00770937
726	0.0108602
738	0.0183014
750	0.0220555
762	0.0292286
774	0.0160891
786	0.0165584
798	0.0293626
810	0.0696525
822	0.0867472
834	0.206544
846	0.209092
858	0.0640883
870	0.012402
882	0.0109942
894	0.00757529
906	0.00241337
918	0.00294967
930	0.00422339
942	0.012268
954	0.0222566
966	0.021184
978	0.0312397
990	0.0500103
1002	0.0746803
1014	0.156064
1026	0.0664347
1038	0.0359994
1050	0.0220555
1062	0.0218544
1074	0.0245359
1086	0.0313067
1098	0.0433065
1110	0.0531611
1122	0.0443792
1134	0.026413
1146	0.0597979
1158	0.351413
1170	0.088155
1182	0.0833953
1194	0.108333
1206	0.103641
1218	0.0939873
1230	0.218611
1242	0.638738
1254	0.47054
1266	0.541265
1278	0.455657
1290	0.200377
1302	0.109205
1314	0.0638872
1326	0.0315749
1338	0.0357983
1350	0.0408261
1362	0.0483344
1374	0.0285582
1386	0.0190388
1398	0.0385469
1410	0.0681776
1422	0.0860768
1434	0.125361
1446	0.0416306
1458	0.0259437
1470	0.0195081
1482	0.0227259
1494	0.0572505
1506	0.246767
1518	0.150634
1530	0.0195751
1542	0.0139439
1554	0.0226588
1566	0.0362676
1578	0.095328
1590	0.331034
1602	0.556214
1614	0.225985
1626	0.0562449
1638	0.02286
1650	0.0254074
1662	0.033586
1674	0.0463233
1686	0.174768
1698	0.503522
1710	0.409468
1722	0.146076
1734	0.0721999
1746	0.0429043
1758	0.0291615
1770	0.0248041
1782	0.0197762
1794	0.02829
1806	0.0560438
1818	0.0400887
1830	0.0107931
1842	0.00362005
1854	0.00328486
1866	0.00308375
1878	0.00703899
1890	0.00844679
1902	0.0081116
1914	0.00737418
1926	0.00750826
1938	0.00677084
1950	0.00516193
1962	0.00301671
1974	0.00301671
1986	0.00429043
1998	0.00509489
2010	0.00234633
2022	0.00201114
2034	0.00321782
2046	0.00328486
2058	0.00408932
2070	0.00569823
2082	0.00569823
2094	0.00294967
2106	0.00308375
2118	0.0014078
2130	0.00113965
2142	0
2154	0.0014078
2166	0.00181003
2178	0.00113965
2190	0.00214522
2202	0.00181003
2214	0.00127372
2226	0.00294967
2238	0.00308375
2250	0.00248041
2262	0.00415636
2274	0.0047597
2286	0.00522896
2298	0.00797752
2310	0.0116646
2322	0.00992162
2334	0.00730714
2346	0.00978755
2358	0.00777641
2370	0.00543008
2382	0.0086479
2394	0.00522896
2406	0.00536304
2418	0.00435747
2430	0.00623453
2442	0.00516193
2454	0.00362005
2466	0.00549712
2478	0.0061675
2490	0.00663676
2502	0.00294967
2514	0.00234633
2526	0.00489377
2538	0.00355301
2550	0.00395524
2562	0.00636861
2574	0.00710603
2586	0.00844679
2598	0.00744122
2610	0.00522896
2622	0.00362005
2634	0.00402228
2646	0.00301671
2658	0.0019441
2670	0.00341894
2682	0.00248041
2694	0.00362005
2706	0.00362005
2718	0.00449155
2730	0.00415636
2742	0.00509489
2754	0.00563119
2766	0.00415636
2778	0.00375413
2790	0.00382117
2802	0.00543008
2814	0.00489377
2826	0.0061675
2838	0.00603342
2850	0.00844679
2862	0.0100557
2874	0.010659
2886	0.0101227
2898	0.010592
2910	0.0107261
2922	0.0142791
2934	0.0190388
2946	0.0239996
2958	0.02467
2970	0.0253404
2982	0.0332508
2994	0.0200444
3006	0.0164913
3018	0.0152176
3030	0.0132735
3042	0.0155528
3054	0.0185025
3066	0.0258096
3078	0.0289604
3090	0.026413
3102	0.0119328
3114	0.0129383
3126	0.00931828
3138	0.00623453
3150	0.00549712
3162	0.0033519
3174	0.00382117
3186	0.00395524
3198	0.00382117
3210	0.00422339
3222	0.00368709
3234	0.00509489
3246	0.00308375
3258	0.00328486
3270	0.00368709
3282	0.00355301
3294	0.00395524
3306	0.00455858
3318	0.00496081
3330	0.00683788
3342	0.00321782
3354	0.00502785
3366	0.00770937
3378	0.0114635
3390	0.0111283
3402	0.0072401
3414	0.00368709
3426	0.00502785
3438	0.00522896
3450	0.00321782
3462	0.00502785
3474	0.00576527
3486	0.00496081
3498	0.00522896
3510	0.00435747
3522	0.00469266
3534	0.00543008
3546	0.00509489
3558	0.00502785
3570	0.00837975
3582	0.0102568
3594	0.00918421
3606	0.00831271
3618	0.00455858
3630	0.00703899
3642	0.00730714
3654	0.00643565
3666	0.00650269
3678	0.00878198
3690	0.00905013
3702	0.00784345
3714	0.00730714
3726	0.00744122
3738	0.0112624
3750	0.00656972
3762	0.00610046
3774	0.00710603
3786	0.00469266
3798	0.00623453
3810	0.0038882
3822	0.00596638
3834	0.00630157
3846	0.005296
3858	0.00402228
3870	0.00656972
3882	0.00656972
3894	0.00703899
3906	0.00603342
3918	0.00522896
3930	0.00636861
3942	0.00703899
3954	0.00556415
3966	0.005296
