Infrared Spectrum: Heptane, 3,3-dimethyl-
Formula: C 9 H 20
CAS: 4032-86-4
Origin: Sadtler Research Labs Under US-EPA Contract
1/CM	ABSORBANCE
450	0.00238191
462	0.00549672
474	0.00421415
486	0.00604639
498	0.00348126
510	0.0045806
522	0.00494705
534	0.0053135
546	0.00366448
558	0.00329803
570	0.000732896
582	0.00421415
594	0.00421415
606	0.00219869
618	0.00348126
630	0.00256514
642	0.00366448
654	0.0038477
666	0.00311481
678	0.00348126
690	0.00366448
702	0.0045806
714	0.00897798
726	0.0135586
738	0.0146579
750	0.0137418
762	0.013925
774	0.0190553
786	0.0280333
798	0.0159405
810	0.00732896
822	0.00513027
834	0.00494705
846	0.00476382
858	0.00604639
870	0.00897798
882	0.0109934
894	0.0146579
906	0.0141082
918	0.012276
930	0.0104438
942	0.0108102
954	0.0091612
966	0.00641284
978	0.00787863
990	0.0120928
1002	0.026201
1014	0.0390267
1026	0.0267507
1038	0.0150244
1050	0.0174063
1062	0.0144747
1074	0.00971087
1086	0.010627
1098	0.0150244
1110	0.0119096
1122	0.00622962
1134	0.00476382
1146	0.0053135
1158	0.00806186
1170	0.0152076
1182	0.0305984
1194	0.035179
1206	0.0311481
1218	0.0309649
1230	0.0227198
1242	0.0181392
1254	0.0168566
1266	0.0168566
1278	0.0142915
1290	0.0197882
1302	0.0236359
1314	0.0227198
1326	0.0243688
1338	0.0379274
1350	0.0467221
1362	0.0894133
1374	0.155924
1386	0.18359
1398	0.103338
1410	0.0315145
1422	0.0256514
1434	0.0360951
1446	0.0709077
1458	0.171498
1470	0.269889
1482	0.177544
1494	0.0525853
1506	0.0208875
1518	0.0133754
1530	0.0104438
1542	0.00806186
1554	0.0084283
1566	0.00732896
1578	0.0084283
1590	0.00659606
1602	0.00604639
1614	0.00567994
1626	0.00567994
1638	0.0038477
1650	0.0045806
1662	0.00366448
1674	0.00366448
1686	0.00366448
1698	0.00293158
1710	0.00366448
1722	0.00329803
1734	0.00256514
1746	0.00219869
1758	0.00164902
1770	0.00219869
1782	0.00183224
1794	0.00238191
1806	0.00219869
1818	0.00219869
1830	0.00146579
1842	0.00128257
1854	0.00183224
1866	0.00146579
1878	0.00183224
1890	0.00164902
1902	0.00128257
1914	0.00146579
1926	0.00201546
1938	0.00109934
1950	0.00109934
1962	0.00109934
1974	0.00128257
1986	0.00128257
1998	0.00109934
2010	0.00146579
2022	0.00164902
2034	0.00219869
2046	0.00201546
2058	0.00164902
2070	0.00164902
2082	0.00146579
2094	0.00128257
2106	0.00183224
2118	0.00183224
2130	0.00164902
2142	0.00128257
2154	0.00146579
2166	0.00146579
2178	0.00146579
2190	0.00164902
2202	0.00128257
2214	0.00128257
2226	0.00183224
2238	0.00201546
2250	0.00219869
2262	0.00201546
2274	0.00164902
2286	0.00128257
2298	0.00091612
2310	0.000366448
2322	0.000732896
2334	0.000366448
2346	0.000366448
2358	0.000183224
2370	0.00109934
2382	0.00293158
2394	0.00403093
2406	0.00403093
2418	0.00311481
2430	0.00256514
2442	0.00293158
2454	0.00274836
2466	0.00219869
2478	0.00238191
2490	0.00201546
2502	0.00238191
2514	0.00238191
2526	0.00274836
2538	0.0038477
2550	0.00421415
2562	0.00549672
2574	0.00622962
2586	0.00604639
2598	0.00696251
2610	0.00787863
2622	0.0104438
2634	0.0117263
2646	0.012276
2658	0.0146579
2670	0.0161237
2682	0.0153908
2694	0.0142915
2706	0.015574
2718	0.0185056
2730	0.022903
2742	0.0269339
2754	0.0247352
2766	0.0236359
2778	0.0271172
2790	0.0331635
2802	0.0426912
2814	0.0551504
2826	0.0692587
2838	0.108652
2850	0.215655
2862	0.430943
2874	0.627909
2886	0.689655
2898	0.638536
2910	0.738393
2922	0.890469
2934	1.20873
2946	1.28275
2958	1.38975
2970	1.83224
2982	0.940306
2994	0.233611
3006	0.106636
3018	0.0747554
3030	0.0584485
3042	0.0447067
3054	0.0366448
3066	0.0333468
3078	0.0311481
3090	0.02785
3102	0.0247352
3114	0.021254
3126	0.0186888
3138	0.0170398
3150	0.0159405
3162	0.0164902
3174	0.0174063
3186	0.0174063
3198	0.0164902
3210	0.0144747
3222	0.0117263
3234	0.0102605
3246	0.00787863
3258	0.00659606
3270	0.00567994
3282	0.00494705
3294	0.0045806
3306	0.0045806
3318	0.00494705
3330	0.0053135
3342	0.0045806
3354	0.00513027
3366	0.0045806
3378	0.00421415
3390	0.00421415
3402	0.00403093
3414	0.00329803
3426	0.00293158
3438	0.00293158
3450	0.00293158
3462	0.00219869
3474	0.00201546
3486	0.00128257
3498	0.00146579
3510	0.00146579
3522	0.00219869
3534	0.00091612
3546	0
3558	0.00109934
3570	0.00146579
3582	0.00146579
3594	0.00164902
3606	0.00219869
3618	0.00256514
3630	0.00311481
3642	0.00238191
3654	0.00201546
3666	0.0045806
3678	0.00183224
3690	0.00274836
3702	0.00293158
3714	0.00183224
3726	0.00329803
3738	0.00146579
3750	0.00366448
3762	0.00274836
3774	0.00183224
3786	0.00311481
3798	0.00109934
3810	0.00476382
3822	0.00201546
3834	0.00256514
3846	0.00238191
3858	0.00256514
3870	0.00256514
3882	0.00091612
3894	0.00366448
3906	0.00201546
3918	0.00164902
3930	0.00238191
3942	0.00366448
3954	0.00293158
3966	0.00403093
