Infrared Spectrum: 3-Fluorophenyl isocyanate
Formula: C 7 H 4 F N O
CAS: 404-71-7
Origin: Sadtler Research Labs Under US-EPA Contract
1/CM	ABSORBANCE
450	0
462	0.00357122
474	0.00431523
486	0.00342242
498	0.00297602
510	0.00505923
522	0.0113089
534	0.00580324
546	0.000892806
558	0.00431523
570	0.0130945
582	0.0129457
594	0.0101185
606	0.0180049
618	0.0235106
630	0.0171121
642	0.0244034
654	0.0331826
666	0.0404739
678	0.0569908
690	0.0376467
702	0.0154753
714	0.00699365
726	0.0114577
738	0.00922566
750	0.00714245
762	0.0238082
774	0.060562
786	0.0340754
798	0.00788645
810	0.00357122
822	0.00401763
834	0.00401763
846	0.0147313
858	0.0394323
870	0.0340754
882	0.0126481
894	0.00744005
906	0.0260402
918	0.100441
930	0.0633892
942	0.00833286
954	0.00312482
966	0.00238082
978	0.00119041
990	0.000892806
1002	0.00163681
1014	0.00104161
1026	0.00163681
1038	0.00565444
1050	0.00610084
1062	0.0145825
1074	0.0199393
1086	0.0327362
1098	0.05833
1110	0.0153265
1122	0.00431523
1134	0.00580324
1146	0.0127969
1158	0.0104161
1170	0.00595204
1182	0.00491043
1194	0.00565444
1206	0.0117553
1218	0.0309506
1230	0.0584788
1242	0.053866
1254	0.0275282
1266	0.0412179
1278	0.0266354
1290	0.00669605
1302	0.00565444
1314	0.00342242
1326	0.00327362
1338	0.00148801
1350	0.00223201
1362	0.00223201
1374	0.00312482
1386	0.00327362
1398	0.00223201
1410	0.00267842
1422	0.00401763
1434	0.00535684
1446	0.0221713
1458	0.0421107
1470	0.0455331
1482	0.0389859
1494	0.0372002
1506	0.0681509
1518	0.0708293
1530	0.0297602
1542	0.0184513
1554	0.0227666
1566	0.0235106
1578	0.0563956
1590	0.126034
1602	0.159068
1614	0.173502
1626	0.132582
1638	0.0449379
1650	0.0117553
1662	0.00550564
1674	0.00163681
1686	0.00386883
1698	0.00297602
1710	0.00282722
1722	0.00342242
1734	0.00565444
1746	0.00535684
1758	0.00967207
1770	0.00937446
1782	0.00431523
1794	0.00282722
1806	0.00178561
1818	0.00252962
1830	0.00267842
1842	0.00297602
1854	0.00208321
1866	0.000744005
1878	0.00104161
1890	0.00119041
1902	0.00148801
1914	0.00238082
1926	0.00431523
1938	0.00282722
1950	0.00178561
1962	0.00133921
1974	0.00148801
1986	0.00163681
1998	0.00163681
2010	0.00163681
2022	0.00119041
2034	0.00193441
2046	0.00223201
2058	0.00282722
2070	0.00372003
2082	0.00505923
2094	0.00476163
2106	0.00491043
2118	0.00758885
2130	0.0113089
2142	0.0165169
2154	0.0248498
2166	0.0330338
2178	0.0367538
2190	0.0431523
2202	0.0593716
2214	0.0858582
2226	0.132582
2238	0.193144
2250	0.223201
2262	0.421107
2274	1.29189
2286	1.25677
2298	0.335993
2310	0.215464
2322	0.202072
2334	0.198054
2346	0.210851
2358	0.264122
2370	0.214571
2382	0.112196
2394	0.0208321
2406	0.00922566
2418	0.00773765
2430	0.00937446
2442	0.00996967
2454	0.00699365
2466	0.00505923
2478	0.00386883
2490	0.00282722
2502	0.00208321
2514	0.00178561
2526	0.00163681
2538	0.00148801
2550	0.00148801
2562	0.00148801
2574	0.00163681
2586	0.00148801
2598	0.00148801
2610	0.00178561
2622	0.00104161
2634	0.000744005
2646	0.000892806
2658	0.00133921
2670	0.00119041
2682	0.00163681
2694	0.00178561
2706	0.00282722
2718	0.00372003
2730	0.00372003
2742	0.00238082
2754	0.00193441
2766	0.00178561
2778	0.00133921
2790	0.00163681
2802	0.00133921
2814	0.00148801
2826	0.00163681
2838	0.00178561
2850	0.00148801
2862	0.00178561
2874	0.00193441
2886	0.00238082
2898	0.00238082
2910	0.00238082
2922	0.00297602
2934	0.00357122
2946	0.00342242
2958	0.00327362
2970	0.00327362
2982	0.00416643
2994	0.00624964
3006	0.00684485
3018	0.00520803
3030	0.00357122
3042	0.00401763
3054	0.00476163
3066	0.00699365
3078	0.00907686
3090	0.00877926
3102	0.00520803
3114	0.00267842
3126	0.00223201
3138	0.00193441
3150	0.00163681
3162	0.00163681
3174	0.00208321
3186	0.00342242
3198	0.00580324
3210	0.00416643
3222	0.00178561
3234	0.00163681
3246	0.00148801
3258	0.00178561
3270	0.00163681
3282	0.00223201
3294	0.00193441
3306	0.00193441
3318	0.00193441
3330	0.00193441
3342	0.00312482
3354	0.00357122
3366	0.00565444
3378	0.00595204
3390	0.00372003
3402	0.00357122
3414	0.00238082
3426	0.00238082
3438	0.00223201
3450	0.00178561
3462	0.00223201
3474	0.00238082
3486	0.00252962
3498	0.00416643
3510	0.00491043
3522	0.00401763
3534	0.00223201
3546	0.00104161
3558	0.00133921
3570	0.00148801
3582	0.00238082
3594	0.00178561
3606	0.00193441
3618	0.00193441
3630	0.00476163
3642	0.00342242
3654	0.00342242
3666	0.00416643
3678	0.00714245
3690	0.00803525
3702	0.00610084
3714	0.00520803
3726	0.00327362
3738	0.00476163
3750	0.00535684
3762	0.00372003
3774	0.00446403
3786	0.00491043
3798	0.00505923
3810	0.00491043
3822	0.00476163
3834	0.00342242
3846	0.00327362
3858	0.00357122
3870	0.00357122
3882	0.00267842
3894	0.00357122
3906	0.00238082
3918	0.00357122
3930	0.00312482
3942	0.00297602
3954	0.00282722
3966	0.00312482
