Infrared Spectrum: 1,4-Piperazinediacetic acid, diethyl ester
Formula: C 12 H 22 N 2 O 4
CAS: 40479-48-9
Origin: Sadtler Research Labs Under US-EPA Contract
1/CM	ABSORBANCE
450	0
462	0.0199133
474	0.0230443
486	0.0216667
498	0.02079
510	0.0199133
522	0.0201638
534	0.0170328
546	0.0185357
558	0.0235453
570	0.0299326
582	0.0351927
594	0.0374471
606	0.0378228
618	0.0333141
630	0.0293064
642	0.0251734
654	0.0269268
666	0.0314355
678	0.0333141
690	0.0378228
702	0.0477168
714	0.0404528
726	0.0467149
738	0.0512236
750	0.0557322
762	0.0539789
774	0.0522255
786	0.0492197
798	0.048844
810	0.0515993
822	0.0626205
834	0.0735165
846	0.0646244
858	0.0591138
870	0.0484683
882	0.0351927
894	0.0363199
906	0.0619943
918	0.0722641
930	0.0715126
942	0.0609924
954	0.0425819
966	0.0329384
978	0.0378228
990	0.0492197
1002	0.0819076
1014	0.336648
1026	0.338526
1038	0.495203
1050	0.270896
1062	0.137515
1074	0.0981889
1086	0.111339
1098	0.185732
1110	0.228189
1122	0.361571
1134	0.496455
1146	0.644365
1158	1.06267
1170	1.19593
1182	0.832978
1194	0.563334
1206	0.429201
1218	0.366079
1230	0.356185
1242	0.403527
1254	0.422187
1266	0.3379
1278	0.261253
1290	0.26526
1302	0.292688
1314	0.237833
1326	0.20264
1338	0.140145
1350	0.112341
1362	0.101821
1374	0.140646
1386	0.166946
1398	0.118854
1410	0.0965608
1422	0.102447
1434	0.107582
1446	0.112967
1458	0.202014
1470	0.123863
1482	0.0670039
1494	0.0429577
1506	0.0255492
1518	0.0182852
1530	0.0160308
1542	0.014027
1554	0.0174085
1566	0.0215415
1578	0.024923
1590	0.027553
1602	0.0224181
1614	0.0191619
1626	0.0179095
1638	0.0181599
1650	0.0169075
1662	0.0227939
1674	0.0266763
1686	0.0324374
1698	0.0484683
1710	0.100819
1722	0.144779
1734	0.313228
1746	0.731282
1758	0.783257
1770	0.647621
1782	0.251359
1794	0.0914259
1806	0.0603662
1818	0.0527265
1830	0.0313102
1842	0.0229191
1854	0.02079
1866	0.0194124
1878	0.0204143
1890	0.0195376
1902	0.0186609
1914	0.0170328
1926	0.0165318
1938	0.0167823
1950	0.0172833
1962	0.017659
1974	0.0179095
1986	0.0184104
1998	0.0175337
2010	0.0172833
2022	0.0172833
2034	0.0180347
2046	0.0180347
2058	0.0180347
2070	0.017659
2082	0.017659
2094	0.0174085
2106	0.0169075
2118	0.0157804
2130	0.0152794
2142	0.0146532
2154	0.014528
2166	0.0142775
2178	0.0142775
2190	0.0144027
2202	0.0144027
2214	0.0149037
2226	0.0142775
2238	0.0137765
2250	0.0146532
2262	0.0156551
2274	0.0165318
2286	0.0175337
2298	0.0199133
2310	0.021291
2322	0.0200386
2334	0.0175337
2346	0.0190366
2358	0.0167823
2370	0.0167823
2382	0.0182852
2394	0.0157804
2406	0.0159056
2418	0.0154046
2430	0.0154046
2442	0.0154046
2454	0.0159056
2466	0.0164066
2478	0.0164066
2490	0.0159056
2502	0.0160308
2514	0.0159056
2526	0.0165318
2538	0.0170328
2550	0.017659
2562	0.0180347
2574	0.0180347
2586	0.0179095
2598	0.0181599
2610	0.0186609
2622	0.0200386
2634	0.0227939
2646	0.0264259
2658	0.0310598
2670	0.0373218
2682	0.0425819
2694	0.0489692
2706	0.0574856
2718	0.0544798
2730	0.0586128
2742	0.0722641
2754	0.090925
2766	0.110087
2778	0.12449
2790	0.145655
2802	0.211156
2814	0.360444
2826	0.339654
2838	0.231946
2850	0.190116
2862	0.155925
2874	0.143276
2886	0.167071
2898	0.178218
2910	0.216166
2922	0.265887
2934	0.3379
2946	0.479798
2958	0.281792
2970	0.246975
2982	0.316985
2994	0.264634
3006	0.15843
3018	0.0918017
3030	0.0624953
3042	0.0473411
3054	0.0373218
3066	0.0369461
3078	0.0346918
3090	0.0300578
3102	0.0261754
3114	0.0245472
3126	0.0231696
3138	0.0219172
3150	0.021291
3162	0.0209152
3174	0.02079
3186	0.0200386
3198	0.0187862
3210	0.0186609
3222	0.0185357
3234	0.0181599
3246	0.0170328
3258	0.0170328
3270	0.0162813
3282	0.0164066
3294	0.0166571
3306	0.0162813
3318	0.0160308
3330	0.0164066
3342	0.0162813
3354	0.0159056
3366	0.0159056
3378	0.0165318
3390	0.0157804
3402	0.0157804
3414	0.0161561
3426	0.0157804
3438	0.0164066
3450	0.0164066
3462	0.0174085
3474	0.0194124
3486	0.0204143
3498	0.0185357
3510	0.0170328
3522	0.0170328
3534	0.0156551
3546	0.0144027
3558	0.0142775
3570	0.0155299
3582	0.0152794
3594	0.0149037
3606	0.0147784
3618	0.0151542
3630	0.0159056
3642	0.0156551
3654	0.0151542
3666	0.0151542
3678	0.0149037
3690	0.0164066
3702	0.0164066
3714	0.0151542
3726	0.0161561
3738	0.0159056
3750	0.0159056
3762	0.0152794
3774	0.0156551
3786	0.0154046
3798	0.0160308
3810	0.0154046
3822	0.0162813
3834	0.0159056
3846	0.0162813
3858	0.0162813
3870	0.0164066
3882	0.0142775
3894	0.0154046
3906	0.0166571
3918	0.0146532
3930	0.0154046
3942	0.0149037
3954	0.0170328
3966	0.0151542
