Infrared Spectrum: Benzoic acid, 3,5-dibromo-4-nitro-, ethyl ester
Formula: C 9 H 7 Br 2 N O 4
CAS: 40587-64-2
Origin: Sadtler Research Labs Under US-EPA Contract
1/CM	ABSORBANCE
450	0.00656393
462	0.00375082
474	0.0048448
486	0.00843934
498	0.0157847
510	0.026412
522	0.0206295
534	0.0200044
546	0.0131279
558	0.00578251
570	0.00218798
582	0.00187541
594	0.00265683
606	0.000468852
618	0.00171912
630	0.000625136
642	0.00187541
654	0.00218798
666	0.00312568
678	0.00750163
690	0.00609508
702	0.00421967
714	0.0139093
726	0.0678273
738	0.052824
750	0.0500109
762	0.237239
774	0.0573562
786	0.0223486
798	0.0196918
810	0.0187541
822	0.024224
834	0.0790797
846	0.0634513
858	0.0182852
870	0.0187541
882	0.017035
894	0.0473541
906	0.0975212
918	0.024224
930	0.0112524
942	0.00562622
954	0.00672021
966	0.00843934
978	0.0109399
990	0.0176601
1002	0.0395399
1014	0.105804
1026	0.107836
1038	0.0384459
1050	0.022036
1062	0.0171912
1074	0.0198481
1086	0.0353202
1098	0.0597005
1110	0.105961
1122	0.310067
1134	0.209733
1146	0.0701715
1158	0.0664207
1170	0.127371
1182	0.0750163
1194	0.0679835
1206	0.041259
1218	0.0448535
1230	0.0753289
1242	0.175663
1254	0.69687
1266	1.56284
1278	0.47776
1290	0.147532
1302	0.115494
1314	0.0709529
1326	0.0575125
1338	0.0684524
1350	0.11143
1362	0.213953
1374	0.206295
1386	0.130185
1398	0.0553245
1410	0.0453224
1422	0.0332885
1434	0.0440721
1446	0.0328196
1458	0.026412
1470	0.0428218
1482	0.0375082
1494	0.0246929
1506	0.0268808
1518	0.0328196
1530	0.037977
1542	0.0862688
1554	0.369924
1566	0.659362
1578	0.146907
1590	0.039071
1602	0.0351639
1614	0.0600131
1626	0.0282874
1638	0.013753
1650	0.00375082
1662	0.0117213
1674	0.00968961
1686	0.00718906
1698	0.0153158
1710	0.0321945
1722	0.05173
1734	0.0979901
1746	0.636232
1758	0.162692
1770	0.0403213
1782	0.039071
1794	0.0267246
1806	0.0226612
1818	0.0175038
1830	0.00500109
1842	0.00312568
1854	0.00515737
1866	0.00265683
1878	0.00437595
1890	0.00250054
1902	0.00312568
1914	0.00234426
1926	0.00250054
1938	0.00250054
1950	0.00234426
1962	0.00265683
1974	0.00343825
1986	0.00437595
1998	0.00343825
2010	0.00281311
2022	0.00171912
2034	0.00250054
2046	0.00187541
2058	0.00171912
2070	0.00171912
2082	0.00187541
2094	0.00187541
2106	0.00250054
2118	0.00234426
2130	0.00281311
2142	0.00203169
2154	0.00140656
2166	0.00171912
2178	0.00140656
2190	0.000468852
2202	0.000468852
2214	0.000156284
2226	0.000468852
2238	0.000937704
2250	0.00140656
2262	0.00171912
2274	0.00250054
2286	0.0029694
2298	0.00359453
2310	0.00421967
2322	0.00328196
2334	0.00218798
2346	0.00328196
2358	0.00343825
2370	0.0029694
2382	0.00437595
2394	0.00343825
2406	0.00281311
2418	0.00171912
2430	0.00140656
2442	0.00140656
2454	0.000937704
2466	0.00156284
2478	0.00125027
2490	0.00078142
2502	0.000937704
2514	0.00140656
2526	0.00125027
2538	0.00125027
2550	0.000937704
2562	0.00078142
2574	0.000937704
2586	0.000937704
2598	0.00125027
2610	0.00140656
2622	0.00203169
2634	0.00171912
2646	0.00171912
2658	0.00140656
2670	0.00140656
2682	0.00250054
2694	0.00343825
2706	0.00421967
2718	0.0039071
2730	0.00312568
2742	0.00250054
2754	0.00218798
2766	0.00250054
2778	0.00250054
2790	0.00250054
2802	0.0029694
2814	0.00359453
2826	0.00515737
2838	0.00609508
2850	0.00750163
2862	0.00812677
2874	0.0100022
2886	0.0176601
2898	0.0190666
2910	0.024224
2922	0.027506
2934	0.0250054
2946	0.0417278
2958	0.0284437
2970	0.0381333
2982	0.0656393
2994	0.0920513
3006	0.0467289
3018	0.0268808
3030	0.0125027
3042	0.00765792
3054	0.00609508
3066	0.00625136
3078	0.0118776
3090	0.0204732
3102	0.00703278
3114	0.00453224
3126	0.00328196
3138	0.0029694
3150	0.00312568
3162	0.00312568
3174	0.00265683
3186	0.00250054
3198	0.00187541
3210	0.00156284
3222	0.00156284
3234	0.00140656
3246	0.00125027
3258	0.00078142
3270	0.000625136
3282	0.00078142
3294	0.00109399
3306	0.000625136
3318	0.00078142
3330	0.00125027
3342	0.00109399
3354	0.00125027
3366	0.00125027
3378	0.00140656
3390	0.00187541
3402	0.00234426
3414	0.00187541
3426	0.00234426
3438	0.00171912
3450	0.00187541
3462	0.00234426
3474	0.00703278
3486	0.00328196
3498	0.00234426
3510	0.00125027
3522	0.00187541
3534	0.00218798
3546	0.00125027
3558	0.00140656
3570	0.00125027
3582	0.00109399
3594	0.00171912
3606	0.00109399
3618	0.00125027
3630	0.000468852
3642	0.000468852
3654	0.00156284
3666	0.000625136
3678	0.00140656
3690	0.000625136
3702	0.000312568
3714	0.00109399
3726	0.00078142
3738	0.00125027
3750	0.000312568
3762	0.000156284
3774	0.00078142
3786	0.00109399
3798	0.000156284
3810	0.00156284
3822	0.00140656
3834	0.00156284
3846	0.000937704
3858	0.00171912
3870	0
3882	0.000312568
3894	0.00125027
3906	0.000937704
3918	0.000312568
3930	0.000468852
3942	0.000625136
3954	0.00171912
3966	0.00156284
