Infrared Spectrum: Pyran, 4-bromo-3-propyltetrahydro
Formula: C 8 H 15 Br O
CAS: 40619-38-3
Origin: Sadtler Research Labs Under US-EPA Contract
1/CM	ABSORBANCE
450	0.0156691
462	0.0068724
474	0.0236411
486	0.0129201
498	0.0188304
510	0.0287266
522	0.022404
534	0.0164938
546	0.0103086
558	0.0153942
570	0.0384854
582	0.0613018
594	0.0372484
606	0.0147069
618	0.00274896
630	0.0115456
642	0.0126452
654	0.00329875
666	0.0065975
678	0.0186929
690	0.038348
702	0.0360114
714	0.0760087
726	0.051543
738	0.0416467
750	0.0441208
762	0.0379356
774	0.0191053
786	0.0129201
798	0.0210295
810	0.0382105
822	0.0365612
834	0.0241908
846	0.0301011
858	0.0384854
870	0.0456327
882	0.0500311
894	0.0507183
906	0.0338122
918	0.0474196
930	0.0457702
942	0.0333999
954	0.0672121
966	0.0985502
978	0.133187
990	0.162601
1002	0.18583
1014	0.108996
1026	0.119167
1038	0.0826062
1050	0.0744968
1062	0.119167
1074	0.17071
1086	0.296613
1098	0.429937
1110	0.301011
1122	0.223903
1134	0.188579
1146	0.243008
1158	0.29785
1170	0.0996498
1182	0.0868671
1194	0.19119
1206	0.178957
1218	0.15889
1230	0.162738
1242	0.139647
1254	0.114907
1266	0.0753215
1278	0.065975
1290	0.0919527
1302	0.108446
1314	0.0614393
1326	0.0602022
1338	0.0764211
1350	0.0711981
1362	0.0673495
1374	0.0832935
1386	0.114357
1398	0.0450829
1410	0.0213044
1422	0.0364237
1434	0.0762836
1446	0.103498
1458	0.139097
1470	0.185692
1482	0.0773832
1494	0.0218542
1506	0.013195
1518	0.0105835
1530	0.00920902
1542	0.00728474
1554	0.00549792
1566	0.00508558
1578	0.00646006
1590	0.00618516
1602	0.00646006
1614	0.00618516
1626	0.00591026
1638	0.00467323
1650	0.00508558
1662	0.00577282
1674	0.00412344
1686	0.00123703
1698	0.00192427
1710	0.00151193
1722	0.00384854
1734	0.00728474
1746	0.0123703
1758	0.0169061
1770	0.0138822
1782	0.00536047
1794	0.00467323
1806	0.00549792
1818	0.00522302
1830	0.00151193
1842	0.000137448
1854	0.000412344
1866	0
1878	0.000549792
1890	0.000824688
1902	0.00109958
1914	0.00151193
1926	0.00192427
1938	0.00288641
1950	0.00412344
1962	0.00577282
1974	0.00591026
1986	0.00508558
1998	0.00439834
2010	0.00494813
2022	0.00591026
2034	0.00549792
2046	0.00508558
2058	0.00467323
2070	0.00398599
2082	0.0037111
2094	0.00357365
2106	0.0031613
2118	0.0031613
2130	0.00288641
2142	0.00329875
2154	0.00329875
2166	0.00302386
2178	0.00384854
2190	0.00357365
2202	0.00329875
2214	0.00302386
2226	0.0034362
2238	0.0031613
2250	0.0031613
2262	0.0031613
2274	0.00274896
2286	0.00274896
2298	0.00357365
2310	0.00384854
2322	0.00453578
2334	0.00439834
2346	0.00563537
2358	0.00536047
2370	0.00536047
2382	0.00618516
2394	0.00577282
2406	0.00604771
2418	0.00604771
2430	0.00536047
2442	0.00536047
2454	0.00508558
2466	0.00522302
2478	0.00508558
2490	0.00549792
2502	0.00591026
2514	0.0065975
2526	0.00728474
2538	0.00783454
2550	0.00838433
2562	0.00893412
2574	0.00962136
2586	0.0101712
2598	0.0107209
2610	0.0109958
2622	0.0118205
2634	0.0134699
2646	0.0158065
2658	0.01993
2670	0.0250155
2682	0.0294139
2694	0.0338122
2706	0.0408221
2718	0.0390352
2730	0.0398599
2742	0.0489315
2754	0.0556664
2766	0.0460451
2778	0.0361488
2790	0.0382105
2802	0.0494813
2814	0.0743594
2826	0.166037
2838	0.355853
2850	0.539758
2862	0.408083
2874	0.514743
2886	0.412344
2898	0.285205
2910	0.38458
2922	0.492751
2934	0.625663
2946	0.700023
2958	0.763799
2970	1.35634
2982	0.822764
2994	0.166587
3006	0.0832935
3018	0.0618516
3030	0.0530549
3042	0.0439834
3054	0.0346369
3066	0.029139
3078	0.0248781
3090	0.022404
3102	0.0203423
3114	0.0188304
3126	0.0173184
3138	0.0167687
3150	0.0156691
3162	0.0153942
3174	0.0147069
3186	0.0145695
3198	0.0137448
3210	0.0122329
3222	0.0105835
3234	0.00893412
3246	0.00838433
3258	0.00838433
3270	0.00755964
3282	0.00797198
3294	0.00783454
3306	0.0068724
3318	0.00646006
3330	0.00632261
3342	0.00632261
3354	0.00591026
3366	0.00481068
3378	0.00494813
3390	0.00494813
3402	0.00536047
3414	0.00467323
3426	0.00481068
3438	0.00453578
3450	0.00467323
3462	0.00412344
3474	0.00357365
3486	0.00329875
3498	0.0031613
3510	0.00261151
3522	0.00302386
3534	0.0031613
3546	0.0031613
3558	0.00384854
3570	0.0037111
3582	0.00261151
3594	0.0037111
3606	0.00302386
3618	0.0034362
3630	0.00508558
3642	0.00439834
3654	0.00439834
3666	0.0037111
3678	0.00508558
3690	0.00329875
3702	0.0034362
3714	0.0037111
3726	0.00412344
3738	0.0034362
3750	0.00274896
3762	0.0037111
3774	0.00384854
3786	0.00439834
3798	0.00329875
3810	0.00412344
3822	0.00384854
3834	0.00398599
3846	0.00357365
3858	0.00384854
3870	0.00261151
3882	0.00302386
3894	0.00288641
3906	0.00426089
3918	0.00453578
3930	0.00384854
3942	0.00412344
3954	0.0037111
3966	0.00467323
