Infrared Spectrum: N,N'-di-t-Butylethylenediamine
Formula: C 10 H 24 N 2
CAS: 4062-60-6
Origin: Sadtler Research Labs Under US-EPA Contract
1/CM	ABSORBANCE
450	0.0286899
462	0.0229975
474	0.00478166
486	0.00592015
498	0.00307392
510	0.00273238
522	0.00193543
534	0.00500936
546	0.00466781
558	0.00318777
570	0.000341547
582	0.00364317
594	0.00614785
606	0.0062617
618	0.0111572
630	0.017305
642	0.0261853
654	0.0406441
666	0.0537367
678	0.0763927
690	0.0939254
702	0.0908515
714	0.0787835
726	0.0664878
738	0.0433765
750	0.0296007
762	0.036204
774	0.0396195
786	0.0323331
798	0.018102
810	0.012068
822	0.00671709
834	0.00375702
846	0.00148004
858	0.00125234
870	0.00432626
882	0.00762788
894	0.0055786
906	0.00375702
918	0.00341547
930	0.00398471
942	0.00102464
954	0.00182158
966	0.00444011
978	0.0101326
990	0.00227698
1002	0.00330162
1014	0.0243637
1026	0.0498659
1038	0.0153696
1050	0.0053509
1062	0.00660324
1074	0.0160527
1086	0.0357486
1098	0.0829959
1110	0.132065
1122	0.0791251
1134	0.0385948
1146	0.0208344
1158	0.0202651
1170	0.0313085
1182	0.0571522
1194	0.104286
1206	0.202879
1218	0.366708
1230	0.405644
1242	0.249557
1254	0.104855
1266	0.057266
1278	0.0405302
1290	0.0232252
1302	0.0124095
1314	0.00899407
1326	0.0109295
1338	0.0198097
1350	0.0642108
1362	0.223258
1374	0.206864
1386	0.158706
1398	0.119655
1410	0.0216313
1422	0.0277792
1434	0.0673986
1446	0.147207
1458	0.139351
1470	0.138327
1482	0.228495
1494	0.0992763
1506	0.0310808
1518	0.0114987
1530	0.00341547
1542	0.00592015
1554	0.00125234
1566	0.000569245
1578	0.00466781
1590	0.00113849
1602	0.00239083
1614	0.00261853
1626	0.00250468
1638	0.00637554
1650	0.00216313
1662	0.00819713
1674	0.0267545
1686	0.0433765
1698	0.0137757
1710	0.00910792
1722	0.00523705
1734	0.00660324
1746	0.000910792
1758	0.000910792
1770	0.00148004
1782	0.000683094
1794	0.00216313
1806	0.00125234
1818	0.00182158
1830	0.00148004
1842	0.000910792
1854	0.000910792
1866	0
1878	0.000683094
1890	0.000796943
1902	0.000910792
1914	0.000683094
1926	0.00148004
1938	0.00136619
1950	0.00148004
1962	0.00102464
1974	0.00113849
1986	0.00159389
1998	0.00148004
2010	0.00136619
2022	0.000910792
2034	0.000796943
2046	0.000683094
2058	0.000796943
2070	0.000796943
2082	0.000796943
2094	0.00102464
2106	0.00148004
2118	0.00182158
2130	0.00148004
2142	0.00159389
2154	0.000683094
2166	0.000796943
2178	0.000910792
2190	0.00113849
2202	0.000683094
2214	0.000683094
2226	0.000569245
2238	0.000569245
2250	0.000569245
2262	0.00102464
2274	0.00159389
2286	0.00125234
2298	0.000455396
2310	0.000341547
2322	0.00148004
2334	0.00125234
2346	0.00227698
2358	0.00182158
2370	0.00216313
2382	0.00193543
2394	0.00148004
2406	0.00148004
2418	0.00102464
2430	0.00125234
2442	0.00125234
2454	0.00125234
2466	0.00148004
2478	0.00159389
2490	0.00159389
2502	0.00193543
2514	0.00216313
2526	0.00261853
2538	0.00375702
2550	0.00432626
2562	0.00444011
2574	0.00500936
2586	0.0053509
2598	0.00569245
2610	0.00592015
2622	0.00660324
2634	0.00683094
2646	0.00751403
2658	0.00956332
2670	0.0136619
2682	0.0231113
2694	0.0228836
2706	0.0170774
2718	0.0177604
2730	0.0170774
2742	0.017305
2754	0.019582
2766	0.0190128
2778	0.024136
2790	0.0397333
2802	0.0735465
2814	0.102236
2826	0.115329
2838	0.160869
2850	0.187851
2862	0.17362
2874	0.225649
2886	0.239311
2898	0.246369
2910	0.300903
2922	0.321396
2934	0.322876
2946	0.366594
2958	0.678426
2970	1.13553
2982	0.802749
2994	0.161096
3006	0.0571522
3018	0.027893
3030	0.0163943
3042	0.0113849
3054	0.00990486
3066	0.00922177
3078	0.00944947
3090	0.00933562
3102	0.00876637
3114	0.00831098
3126	0.00842483
3138	0.00808328
3150	0.00831098
3162	0.00944947
3174	0.0108157
3186	0.0116126
3198	0.0109295
3210	0.0104741
3222	0.0108157
3234	0.0107018
3246	0.00853868
3258	0.00648939
3270	0.0058063
3282	0.00728634
3294	0.00762788
3306	0.0113849
3318	0.0175327
3330	0.0261853
3342	0.0140034
3354	0.00865252
3366	0.00660324
3378	0.006034
3390	0.00523705
3402	0.00523705
3414	0.00523705
3426	0.00466781
3438	0.00398471
3450	0.00330162
3462	0.00375702
3474	0.00409856
3486	0.00296007
3498	0.00284622
3510	0.00261853
3522	0.00261853
3534	0.00227698
3546	0.00148004
3558	0.00102464
3570	0.00148004
3582	0.00193543
3594	0.00250468
3606	0.00159389
3618	0.00170773
3630	0.00523705
3642	0.00170773
3654	0.00204928
3666	0.00193543
3678	0.00523705
3690	0.00409856
3702	0.00284622
3714	0.00398471
3726	0.00204928
3738	0.00409856
3750	0.00318777
3762	0.00273238
3774	0.00318777
3786	0.00261853
3798	0.00250468
3810	0.00352932
3822	0.0053509
3834	0.00284622
3846	0.00364317
3858	0.00409856
3870	0.00444011
3882	0.00352932
3894	0.00569245
3906	0.00444011
3918	0.00432626
3930	0.00273238
3942	0.00296007
3954	0.00352932
3966	0.00318777
