Infrared Spectrum: 4-Methyl-2-propylphenol
Formula: C 10 H 14 O
CAS: 4074-46-8
Origin: Sadtler Research Labs Under US-EPA Contract
1/CM	ABSORBANCE
450	0.0378459
462	0.0368482
474	0.0564695
486	0.0544076
498	0.0472907
510	0.0273368
522	0.0182911
534	0.015298
546	0.0274699
558	0.0385775
570	0.0220158
582	0.00931182
594	0.00844715
606	0.0111742
618	0.0107751
630	0.00438986
642	0.00219493
654	0.000864669
666	0.000266052
678	0.00179585
690	0.00365822
702	0.00811459
714	0.0140342
726	0.0167613
738	0.0238117
750	0.0503503
762	0.0732308
774	0.0721001
786	0.10243
798	0.221488
810	0.198874
822	0.102164
834	0.0323253
846	0.0348528
858	0.0465591
870	0.0570016
882	0.0530774
894	0.0329239
906	0.0267382
918	0.0349193
930	0.0367152
942	0.0270708
954	0.0143668
966	0.0143003
978	0.0184241
990	0.028002
1002	0.025408
1014	0.0216167
1026	0.0246098
1038	0.0340547
1050	0.0443642
1062	0.0596622
1074	0.074029
1086	0.0957787
1098	0.120256
1110	0.207388
1122	0.289997
1134	0.143735
1146	0.129634
1158	0.153046
1170	0.378459
1182	0.652293
1194	0.363094
1206	0.191025
1218	0.169608
1230	0.225213
1242	0.291061
1254	0.429474
1266	0.351122
1278	0.144134
1290	0.106487
1302	0.111476
1314	0.211977
1326	0.196878
1338	0.0854027
1350	0.0570016
1362	0.0397083
1374	0.0498182
1386	0.079084
1398	0.0619236
1410	0.0734969
1422	0.115001
1434	0.130299
1446	0.127971
1458	0.167081
1470	0.199606
1482	0.188764
1494	0.364757
1506	0.66513
1518	0.318863
1530	0.0725657
1542	0.0332565
1554	0.0271373
1566	0.0254745
1578	0.0327909
1590	0.0560705
1602	0.0601943
1614	0.0530774
1626	0.040972
1638	0.025807
1650	0.0121719
1662	0.0132361
1674	0.0136352
1686	0.0141008
1698	0.0148989
1710	0.0226144
1722	0.0195548
1734	0.0138347
1746	0.0143668
1758	0.0152315
1770	0.0119058
1782	0.00984392
1794	0.0106421
1806	0.0131696
1818	0.0110412
1830	0.00685084
1842	0.0106421
1854	0.0122384
1866	0.00891274
1878	0.0114402
1890	0.00538755
1902	0.00299309
1914	0.00212842
1926	0.00232796
1938	0.00239447
1950	0.00226144
1962	0.00266052
1974	0.00312611
1986	0.0030596
1998	0.00352519
2010	0.00399078
2022	0.00425683
2034	0.00425683
2046	0.00292657
2058	0.00232796
2070	0.00126375
2082	0.000997695
2094	0.00126375
2106	0.000798156
2118	0.000798156
2130	0.000332565
2142	0.000199539
2154	6.6513e-05
2166	0.000199539
2178	0.000864669
2190	0.000798156
2202	0.000731643
2214	0.000266052
2226	0.000532104
2238	0.000931182
2250	0.00133026
2262	0.00212842
2274	0.00259401
2286	0.00319262
2298	0.00339216
2310	0.00345868
2322	0.00272703
2334	0.00299309
2346	0.00412381
2358	0.00485545
2370	0.00724992
2382	0.00558709
2394	0.00419032
2406	0.00532104
2418	0.00572012
2430	0.00618571
2442	0.00618571
2454	0.00498848
2466	0.00552058
2478	0.00671781
2490	0.00758248
2502	0.00778202
2514	0.00678433
2526	0.00625222
2538	0.00578663
2550	0.00532104
2562	0.00465591
2574	0.00452288
2586	0.00432335
2598	0.00498848
2610	0.00552058
2622	0.00638525
2634	0.00758248
2646	0.00711689
2658	0.0071834
2670	0.00864669
2682	0.00884623
2694	0.00791505
2706	0.00824761
2718	0.0105091
2730	0.0144998
2742	0.0232796
2754	0.0188897
2766	0.0134356
2778	0.0141008
2790	0.0186902
2802	0.0238782
2814	0.0295983
2826	0.0389101
2838	0.0593296
2850	0.10948
2862	0.208718
2874	0.357308
2886	0.397349
2898	0.253215
2910	0.276295
2922	0.430672
2934	0.625954
2946	0.56556
2958	0.465059
2970	0.656151
2982	0.369546
2994	0.175262
3006	0.209715
3018	0.263791
3030	0.202399
3042	0.163555
3054	0.140276
3066	0.0963773
3078	0.053676
3090	0.0333895
3102	0.0274034
3114	0.0240112
3126	0.0221488
3138	0.0179585
3150	0.0131031
3162	0.0115733
3174	0.0115067
3186	0.0117063
3198	0.0115067
3210	0.0106421
3222	0.00937833
3234	0.00851366
3246	0.00811459
3258	0.007649
3270	0.00791505
3282	0.007649
3294	0.00744946
3306	0.00778202
3318	0.00804807
3330	0.00784853
3342	0.00884623
3354	0.0111077
3366	0.0106421
3378	0.0109746
3390	0.0118393
3402	0.0117063
3414	0.0111077
3426	0.0104425
3438	0.00917879
3450	0.00811459
3462	0.00778202
3474	0.00824761
3486	0.00791505
3498	0.00851366
3510	0.00858018
3522	0.0101765
3534	0.0111742
3546	0.0117728
3558	0.0160296
3570	0.0430339
3582	0.0159631
3594	0.0105091
3606	0.00964439
3618	0.0114402
3630	0.033323
3642	0.204794
3654	0.4038
3666	0.126175
3678	0.00824761
3690	0.000399078
3702	0.00192888
3714	6.6513e-05
3726	6.6513e-05
3738	6.6513e-05
3750	6.6513e-05
3762	0.00113072
3774	0.00352519
3786	0.00266052
3798	0.00232796
3810	0.00266052
3822	0.000997695
3834	0.0020619
3846	0.00279355
3858	0.00192888
3870	0.00172934
3882	0.000532104
3894	0.00385775
3906	0.0015298
3918	0.00345868
3930	0.00419032
3942	0.00545407
3954	0.00638525
3966	0.00532104
