Infrared Spectrum: Phenol, 3-butyl-
Formula: C 10 H 14 O
CAS: 4074-43-5
Origin: Sadtler Research Labs Under US-EPA Contract
1/CM	ABSORBANCE
450	0.0842267
462	0.0312857
474	0.00803426
486	0.00617201
498	0.00542711
510	0.0125036
522	0.0180904
534	0.0239964
546	0.00856633
558	0.0135146
570	0.0091516
582	0.016973
594	0.0192609
606	0.00877916
618	0.00718295
630	0.0114927
642	0.00782143
654	0.0134082
666	0.0188885
678	0.0616137
690	0.16441
702	0.0799701
714	0.033148
726	0.0374045
738	0.0571443
750	0.101306
762	0.131634
774	0.187821
786	0.102956
798	0.0330415
810	0.017984
822	0.0192077
834	0.0302216
846	0.05193
858	0.053473
870	0.0725743
882	0.0660299
894	0.038043
906	0.0357551
918	0.0542179
930	0.0722019
942	0.0909308
954	0.0732128
966	0.0434701
978	0.0386283
990	0.0342121
1002	0.0351166
1014	0.0170794
1026	0.0146851
1038	0.0162813
1050	0.0242624
1062	0.0413418
1074	0.0528878
1086	0.0388411
1098	0.0411822
1110	0.0416611
1122	0.0471946
1134	0.109128
1146	0.372343
1158	0.397137
1170	0.230918
1182	0.286786
1194	0.346271
1206	0.249381
1218	0.105243
1230	0.0650722
1242	0.0705525
1254	0.105403
1266	0.213094
1278	0.271888
1290	0.163665
1302	0.138179
1314	0.151268
1326	0.104339
1338	0.0715102
1350	0.0487376
1362	0.0358083
1374	0.0327223
1386	0.0419271
1398	0.0309133
1410	0.0298491
1422	0.0376173
1434	0.0686902
1446	0.180372
1458	0.24688
1470	0.179414
1482	0.177445
1494	0.1767
1506	0.0906115
1518	0.0448535
1530	0.0362872
1542	0.0374045
1554	0.0375109
1566	0.0634227
1578	0.153555
1590	0.334566
1602	0.391337
1614	0.348772
1626	0.168507
1638	0.0548032
1650	0.0192077
1662	0.0110138
1674	0.0127697
1686	0.0184628
1698	0.0129293
1710	0.0115459
1722	0.0132485
1734	0.0138338
1746	0.0115991
1758	0.00845991
1770	0.00872595
1782	0.00665087
1794	0.00670408
1806	0.00808746
1818	0.00739577
1830	0.00861953
1842	0.00723615
1854	0.00340525
1866	0.00335204
1878	0.00287318
1890	0.00505466
1902	0.00856633
1914	0.0110671
1926	0.00867274
1938	0.00436297
1950	0.00175583
1962	0.00164942
1974	0.00164942
1986	0.000851312
1998	0.001543
2010	0.00138338
2022	0.00170262
2034	0.00266035
2046	0.00287318
2058	0.00271356
2070	0.00335204
2082	0.00271356
2094	0.00191545
2106	0.00127697
2118	0.000851312
2130	0.00138338
2142	0.00111735
2154	0.00127697
2166	0.000904519
2178	0.000372449
2190	0.00133018
2202	0.00202187
2214	0.00159621
2226	0.0022879
2238	0.0014898
2250	0.000798105
2262	0.00106414
2274	0.000212828
2286	0.000106414
2298	0.000957726
2310	0.00212828
2322	0.00446939
2334	0.00569315
2346	0.00446939
2358	0.00393732
2370	0.00436297
2382	0.00484184
2394	0.00590598
2406	0.0061188
2418	0.00670408
2430	0.00675729
2442	0.00563994
2454	0.00601239
2466	0.00643805
2478	0.00558673
2490	0.00553353
2502	0.00590598
2514	0.00521429
2526	0.00569315
2538	0.00601239
2550	0.00579956
2562	0.00643805
2574	0.00548032
2586	0.00558673
2598	0.00585277
2610	0.00542711
2622	0.00574636
2634	0.00638484
2646	0.00659767
2658	0.00861953
2670	0.00904519
2682	0.00936443
2694	0.00803426
2706	0.0068105
2718	0.00776822
2730	0.00888557
2742	0.0112799
2754	0.0119184
2766	0.0110138
2778	0.0127165
2790	0.0156961
2802	0.0180372
2814	0.0212296
2826	0.0271888
2838	0.0378302
2850	0.0712442
2862	0.164622
2874	0.224108
2886	0.208571
2898	0.151427
2910	0.184894
2922	0.309399
2934	0.493016
2946	0.486844
2958	0.355582
2970	0.434329
2982	0.20075
2994	0.080449
3006	0.0695415
3018	0.0855569
3030	0.0955066
3042	0.144244
3054	0.118279
3066	0.0869402
3078	0.0716166
3090	0.05193
3102	0.0333608
3114	0.0249541
3126	0.0172923
3138	0.0109074
3150	0.0091516
3162	0.00947085
3174	0.00883236
3186	0.00947085
3198	0.00712974
3210	0.00707653
3222	0.00617201
3234	0.00553353
3246	0.00622522
3258	0.0061188
3270	0.00569315
3282	0.00643805
3294	0.00537391
3306	0.00425656
3318	0.00585277
3330	0.00638484
3342	0.00851312
3354	0.00947085
3366	0.00893878
3378	0.00941764
3390	0.00814067
3402	0.00553353
3414	0.00728936
3426	0.00712974
3438	0.00744898
3450	0.00649125
3462	0.00404373
3474	0.00574636
3486	0.0053207
3498	0.00361808
3510	0.00563994
3522	0.00643805
3534	0.00542711
3546	0.00250073
3558	0.0030328
3570	0.00367128
3582	0.00803426
3594	0.00500146
3606	0.00925802
3618	0.0127697
3630	0.0254862
3642	0.139136
3654	0.327808
3666	0.101679
3678	0.0164942
3690	0.00792784
3702	0.00776822
3714	0.00558673
3726	0.00675729
3738	0.00446939
3750	0.00452259
3762	0.00665087
3774	0.0103754
3786	0.00994971
3798	0.0068637
3810	0.00787464
3822	0.00973688
3834	0.0103754
3846	0.0165474
3858	0.0115459
3870	0.0142595
3882	0.0111735
3894	0.0129825
3906	0.00814067
3918	0.0109074
3930	0.00739577
3942	0.00814067
3954	0.0142063
3966	0.0171859
