Infrared Spectrum: 2,4-Xylidine, 6-ethyl-,
Formula: C 10 H 15 N
CAS: 40813-98-7
Origin: Sadtler Research Labs Under US-EPA Contract
1/CM	ABSORBANCE
450	0.124633
462	0.0476522
474	0.0260976
486	0.0230689
498	0.00974245
510	0.0378088
522	0.00974245
534	0.0176172
546	0.0292778
558	0.0379097
570	0.0239775
582	0.0176677
594	0.0260976
606	0.0379602
618	0.0380107
630	0.0484598
642	0.0611301
654	0.0604234
666	0.0482579
678	0.0543154
690	0.0385155
702	0.0318018
714	0.0411404
726	0.0394746
738	0.047955
750	0.0523467
762	0.0300855
774	0.0255929
786	0.0193335
798	0.0246842
810	0.0187782
822	0.0128217
834	0.0130741
846	0.0779396
858	0.153254
870	0.0423014
882	0.0178696
894	0.0114083
906	0.00726898
918	0.00736993
930	0.00509838
942	0.0100453
954	0.0114587
966	0.0116102
978	0.0138817
990	0.0212517
1002	0.0354363
1014	0.0482579
1026	0.0268548
1038	0.0261986
1050	0.0467436
1062	0.0499742
1074	0.0229175
1086	0.0147903
1098	0.0139827
1110	0.0100453
1122	0.0123674
1134	0.0192325
1146	0.0488637
1158	0.0571927
1170	0.0176677
1182	0.00277634
1194	0.00509838
1206	0.0110044
1218	0.0334171
1230	0.0614834
1242	0.0866724
1254	0.117566
1266	0.0763242
1278	0.0619882
1290	0.117919
1302	0.102876
1314	0.0412918
1326	0.0287226
1338	0.0229679
1350	0.0212012
1362	0.0188791
1374	0.0305398
1386	0.0446234
1398	0.0306912
1410	0.0325085
1422	0.0406356
1434	0.0604738
1446	0.145127
1458	0.222158
1470	0.245429
1482	0.447799
1494	0.39409
1506	0.122109
1518	0.0633511
1530	0.0401813
1542	0.0310951
1554	0.0293283
1566	0.031297
1578	0.038465
1590	0.0557793
1602	0.112467
1614	0.151336
1626	0.204238
1638	0.180917
1650	0.0714278
1662	0.0301864
1674	0.0191315
1686	0.0130236
1698	0.0117616
1710	0.0124178
1722	0.0197373
1734	0.0309941
1746	0.0163047
1758	0.0121654
1770	0.0108025
1782	0.00509838
1794	0.00368497
1806	0.0028773
1818	0.0019182
1830	0.00292778
1842	0.0021706
1854	0.00307922
1866	0.00307922
1878	0.00318018
1890	0.00484598
1902	0.0050479
1914	0.00439167
1926	0.00373545
1938	0.00282682
1950	0.0021706
1962	0.00186772
1974	0.00136293
1986	0.00181724
1998	0.00131245
2010	0.00141341
2022	0.00181724
2034	0.00222108
2046	0.00181724
2058	0.00166581
2070	0.0012115
2082	0.00116102
2094	0.00106006
2106	0.000807664
2118	0.000908622
2130	0.000656227
2142	0.000201916
2154	0.000403832
2166	0.000353353
2178	0.000757185
2190	0.000100958
2202	0.000555269
2214	0.000807664
2226	0.000252395
2238	0.00111054
2250	0.00116102
2262	0.00156485
2274	0.00116102
2286	0.00201916
2298	0.00292778
2310	0.00439167
2322	0.00363449
2334	0.0012115
2346	0.00262491
2358	0.00575461
2370	0.000100958
2382	0.00111054
2394	0.00292778
2406	0.00277634
2418	0.00282682
2430	0.00307922
2442	0.00323066
2454	0.00318018
2466	0.00252395
2478	0.00318018
2490	0.00348305
2502	0.0031297
2514	0.00393736
2526	0.00403832
2538	0.00403832
2550	0.00353353
2562	0.00353353
2574	0.0031297
2586	0.00373545
2598	0.0038364
2610	0.00535077
2622	0.00509838
2634	0.00474503
2646	0.00545173
2658	0.00464407
2670	0.00429072
2682	0.00555269
2694	0.00560317
2706	0.00656227
2718	0.0081776
2730	0.0161533
2742	0.0305398
2754	0.0198382
2766	0.0131245
2778	0.0150932
2790	0.0176677
2802	0.0208983
2814	0.026451
2826	0.0364963
2838	0.0570413
2850	0.106763
2862	0.21711
2874	0.350223
2886	0.34563
2898	0.260926
2910	0.278947
2922	0.406255
2934	0.469404
2946	0.384953
2958	0.293182
2970	0.463296
2982	0.413877
2994	0.190154
3006	0.224076
3018	0.247297
3030	0.145884
3042	0.0976264
3054	0.0710744
3066	0.0488637
3078	0.0336695
3090	0.0260472
3102	0.0204945
3114	0.0163047
3126	0.0139322
3138	0.0116102
3150	0.0107015
3162	0.00964149
3174	0.00898526
3186	0.00590604
3198	0.00676419
3210	0.00726898
3222	0.0079252
3234	0.00777377
3246	0.00656227
3258	0.00459359
3270	0.00484598
3282	0.00373545
3294	0.00378593
3306	0.00277634
3318	0.00277634
3330	0.00186772
3342	0.00257443
3354	0.00222108
3366	0.00323066
3378	0.0031297
3390	0.00585556
3402	0.0159514
3414	0.0260976
3426	0.01686
3438	0.00868239
3450	0.00812712
3462	0.0109035
3474	0.0236747
3486	0.0566374
3498	0.0605243
3510	0.026552
3522	0.0122159
3534	0.00701658
3546	0.00560317
3558	0.00353353
3570	0.00302874
3582	0.0031297
3594	0.00212012
3606	0.00282682
3618	0.00282682
3630	0.00146389
3642	0.00116102
3654	0.000151437
3666	0.00232203
3678	0.00106006
3690	0.000302874
3702	0.000908622
3714	0.000605748
3726	0.00267539
3738	0.0012115
3750	0.00176677
3762	0.00116102
3774	0.00358401
3786	0.00297826
3798	0.00277634
3810	0.0021706
3822	0.00136293
3834	0.000454311
3846	0.00201916
3858	0.000201916
3870	0.00151437
3882	0.00302874
3894	0.00141341
3906	0.00257443
3918	0.00151437
3930	0.0050479
3942	0.0040888
3954	0.00636035
3966	0.00484598
