Infrared Spectrum: 4-Methyl-3-nitrobenzyl alcohol
Formula: C 8 H 9 N O 3
CAS: 40870-59-5
Origin: Sadtler Research Labs Under US-EPA Contract
1/CM	ABSORBANCE
450	0.00615038
462	0.0225514
474	0.0135026
486	0.0400835
498	0.0147044
510	0.0127249
522	0.0230462
534	0.0127956
546	0.0150578
558	0.0190167
570	0.0246015
582	0.0173907
594	0.0171079
606	0.00996785
618	0.0202185
630	0.0180977
642	0.0135026
654	0.00714009
666	0.0175321
678	0.0638367
690	0.0653213
702	0.0327313
714	0.0217738
726	0.0253791
738	0.0426992
750	0.0315295
762	0.0410732
774	0.0399421
786	0.0313881
798	0.0788945
810	0.210315
822	0.183592
834	0.063766
846	0.0250964
858	0.0144923
870	0.0241067
882	0.0487082
894	0.0657454
906	0.0414267
918	0.0374678
930	0.0349935
942	0.0294794
954	0.0352056
966	0.0451028
978	0.0559896
990	0.0627763
1002	0.0834189
1014	0.11608
1026	0.15277
1038	0.199993
1050	0.180199
1062	0.128875
1074	0.106182
1086	0.0682197
1098	0.0359126
1110	0.0300449
1122	0.0246015
1134	0.0269344
1146	0.0420629
1158	0.0511825
1170	0.0512531
1182	0.0648971
1194	0.0788238
1206	0.0998199
1218	0.0720372
1230	0.0433354
1242	0.0377506
1254	0.0391645
1266	0.0472943
1278	0.0629884
1290	0.0731683
1302	0.083631
1314	0.0882968
1326	0.114383
1338	0.19766
1350	0.399916
1362	0.4716
1374	0.27097
1386	0.16196
1398	0.119968
1410	0.0847621
1422	0.0691387
1434	0.063766
1446	0.0742994
1458	0.0832068
1470	0.0824999
1482	0.0809446
1494	0.112757
1506	0.146619
1518	0.247358
1530	0.452371
1542	0.70694
1554	0.55721
1566	0.304903
1578	0.188258
1590	0.0868122
1602	0.0415681
1614	0.0380334
1626	0.0426992
1638	0.0219858
1650	0.0118059
1662	0.00615038
1674	0.00699871
1686	0.0058676
1698	0.00332262
1710	0.00777634
1722	0.011311
1734	0.00636246
1746	0.00148457
1758	0.0035347
1770	0.00812981
1782	0.00876606
1794	0.00607968
1806	0.00749356
1818	0.00714009
1830	0.00742287
1842	0.00714009
1854	0.00805912
1866	0.00699871
1878	0.00643315
1890	0.00685732
1902	0.00897814
1914	0.0109576
1926	0.00919022
1938	0.00784703
1950	0.00650385
1962	0.00600899
1974	0.00607968
1986	0.00664524
1998	0.00636246
2010	0.00622107
2022	0.00629177
2034	0.00657454
2046	0.00664524
2058	0.00714009
2070	0.00678662
2082	0.00629177
2094	0.00650385
2106	0.00629177
2118	0.00579691
2130	0.00629177
2142	0.00480719
2154	0.00494858
2166	0.00565552
2178	0.00431233
2190	0.00417095
2202	0.00431233
2214	0.00402956
2226	0.00438303
2238	0.00417095
2250	0.00459511
2262	0.00487789
2274	0.00480719
2286	0.00410025
2298	0.00417095
2310	0.00424164
2322	0.00459511
2334	0.00692801
2346	0.00558483
2358	0.00812981
2370	0.00629177
2382	0.00445372
2394	0.00551413
2406	0.00565552
2418	0.00643315
2430	0.00615038
2442	0.00579691
2454	0.00501927
2466	0.0046658
2478	0.00459511
2490	0.00388817
2502	0.00318123
2514	0.00339331
2526	0.0035347
2538	0.00311054
2550	0.00318123
2562	0.00325192
2574	0.00402956
2586	0.0046658
2598	0.00523136
2610	0.0046658
2622	0.00445372
2634	0.00508997
2646	0.00516066
2658	0.00494858
2670	0.00558483
2682	0.00551413
2694	0.00678662
2706	0.0070694
2718	0.00735218
2730	0.00791773
2742	0.00798842
2754	0.009473
2766	0.0101092
2778	0.0101799
2790	0.0108162
2802	0.0128663
2814	0.0161182
2826	0.0201478
2838	0.0272879
2850	0.0383868
2862	0.0545051
2874	0.0799549
2886	0.101729
2898	0.0909125
2910	0.0782583
2922	0.0751477
2934	0.092185
2946	0.109576
2958	0.0822878
2970	0.0571914
2982	0.0579691
2994	0.0537274
3006	0.0337917
3018	0.0261568
3030	0.0323779
3042	0.0376092
3054	0.0352056
3066	0.0414974
3078	0.0325192
3090	0.0166838
3102	0.00883675
3114	0.0059383
3126	0.00615038
3138	0.00480719
3150	0.00523136
3162	0.0047365
3174	0.00452442
3186	0.0047365
3198	0.00424164
3210	0.00445372
3222	0.00565552
3234	0.00424164
3246	0.00431233
3258	0.0047365
3270	0.00346401
3282	0.00494858
3294	0.00494858
3306	0.00346401
3318	0.00530205
3330	0.00544344
3342	0.00516066
3354	0.00530205
3366	0.00480719
3378	0.00508997
3390	0.00523136
3402	0.0046658
3414	0.00494858
3426	0.00629177
3438	0.00558483
3450	0.0046658
3462	0.00671593
3474	0.00565552
3486	0.00480719
3498	0.00445372
3510	0.0047365
3522	0.00508997
3534	0.00346401
3546	0.00438303
3558	0.00325192
3570	0.00565552
3582	0.00636246
3594	0.00699871
3606	0.00848328
3618	0.0118059
3630	0.0170373
3642	0.0318123
3654	0.0556362
3666	0.0602313
3678	0.0438303
3690	0.0255205
3702	0.0139974
3714	0.0059383
3726	0.00692801
3738	0.00544344
3750	0.00360539
3762	0.00367609
3774	0.00254498
3786	0.00311054
3798	0.00311054
3810	0.00261568
3822	0.00261568
3834	0.00325192
3846	0.00261568
3858	0.00402956
3870	0.00749356
3882	0.00296915
3894	0.00530205
3906	0.00402956
3918	0.00431233
3930	0.00452442
3942	0.00508997
3954	0.00134319
3966	0.0046658
