Infrared Spectrum: m-Cresol, 6-chloro-.alpha.,.alpha.,.alpha.-trifluoro-,
Formula: C 7 H 4 Cl F 3 O
CAS: 40889-91-6
Origin: Sadtler Research Labs Under US-EPA Contract
1/CM	ABSORBANCE
450	0.00567743
462	0.0163114
474	0.0146892
486	0.00522684
498	0.00279366
510	0.00856121
522	0.0234307
534	0.0376693
546	0.0255935
558	0.0196457
570	0.0525388
582	0.0149596
594	0.0301895
606	0.0159509
618	0.0143288
630	0.0124363
642	0.0230702
654	0.0282069
666	0.0223493
678	0.0156805
690	0.0248726
702	0.0255034
714	0.0287476
726	0.0227097
738	0.022169
750	0.0711031
762	0.0139683
774	0.020637
786	0.0277563
798	0.0370385
810	0.0683094
822	0.0522684
834	0.0181137
846	0.0152299
858	0.0146892
870	0.0304599
882	0.0714636
894	0.0598384
906	0.0706525
918	0.136889
930	0.041995
942	0.0196457
954	0.0118055
966	0.0137881
978	0.0117153
990	0.0110845
1002	0.0127968
1014	0.0171224
1026	0.0166718
1038	0.0337041
1050	0.0445183
1062	0.0532597
1074	0.252511
1086	0.192672
1098	0.0451491
1110	0.0424456
1122	0.0563237
1134	0.160861
1146	0.525208
1158	0.539987
1170	0.367051
1182	0.477986
1194	0.294686
1206	0.21394
1218	0.0665972
1230	0.0470416
1242	0.0971472
1254	0.0611901
1266	0.0377594
1278	0.136709
1290	0.0784027
1302	0.0702019
1314	0.209975
1326	0.608747
1338	0.797905
1350	0.140133
1362	0.0319919
1374	0.0173027
1386	0.0209975
1398	0.0279366
1410	0.0272156
1422	0.0437973
1434	0.0674083
1446	0.166448
1458	0.117063
1470	0.0458701
1482	0.0638035
1494	0.0951646
1506	0.0583965
1518	0.0179335
1530	0.0100932
1542	0.0119857
1554	0.0111746
1566	0.0183841
1578	0.0469515
1590	0.0792137
1602	0.0588471
1614	0.0474021
1626	0.0308204
1638	0.0164015
1650	0.0109944
1662	0.00639838
1674	0.00910192
1686	0.00775015
1698	0.00856121
1710	0.00720944
1722	0.00612802
1734	0.00666873
1746	0.012256
1758	0.0151398
1770	0.0139683
1782	0.00756991
1794	0.00693909
1806	0.00486637
1818	0.00666873
1830	0.00684897
1842	0.00612802
1854	0.00612802
1866	0.00838097
1878	0.00847109
1890	0.00820074
1902	0.00540708
1914	0.00522684
1926	0.00657861
1938	0.00504661
1950	0.0054972
1962	0.0045059
1974	0.00504661
1986	0.0045059
1998	0.00432566
2010	0.00423555
2022	0.0045059
2034	0.00486637
2046	0.00414543
2058	0.00459602
2070	0.00558732
2082	0.00603791
2094	0.00495649
2106	0.00468614
2118	0.00504661
2130	0.00432566
2142	0.00405531
2154	0.00495649
2166	0.00504661
2178	0.00441578
2190	0.00441578
2202	0.00405531
2214	0.00387507
2226	0.00477625
2238	0.00459602
2250	0.00423555
2262	0.00360472
2274	0.0045059
2286	0.00486637
2298	0.00468614
2310	0.00468614
2322	0.00432566
2334	0.0035146
2346	0.00423555
2358	0.00405531
2370	0.00432566
2382	0.0035146
2394	0.00333437
2406	0.00315413
2418	0.00279366
2430	0.00306401
2442	0.00279366
2454	0.00288378
2466	0.00414543
2478	0.00477625
2490	0.00504661
2502	0.00342448
2514	0.00378496
2526	0.00360472
2538	0.00297389
2550	0.00243319
2562	0.00369484
2574	0.00243319
2586	0.00243319
2598	0.00171224
2610	0.00216283
2622	0.00225295
2634	0.00216283
2646	0.00360472
2658	0.00387507
2670	0.00342448
2682	0.00279366
2694	0.00234307
2706	0.00234307
2718	0.00225295
2730	0.00234307
2742	0.00243319
2754	0.0025233
2766	0.00306401
2778	0.00342448
2790	0.00279366
2802	0.00315413
2814	0.0019826
2826	0.00234307
2838	0.00279366
2850	0.00306401
2862	0.00297389
2874	0.00288378
2886	0.00360472
2898	0.00234307
2910	0.00216283
2922	0.00288378
2934	0.00405531
2946	0.00333437
2958	0.0035146
2970	0.00369484
2982	0.00342448
2994	0.00234307
3006	0.00171224
3018	0.0025233
3030	0.00306401
3042	0.00306401
3054	0.00306401
3066	0.00369484
3078	0.0045059
3090	0.00621814
3102	0.00432566
3114	0.00333437
3126	0.00324425
3138	0.0025233
3150	0.00243319
3162	0.0035146
3174	0.00324425
3186	0.00432566
3198	0.00369484
3210	0.00360472
3222	0.00333437
3234	0.00441578
3246	0.00342448
3258	0.00333437
3270	0.00324425
3282	0.0035146
3294	0.00369484
3306	0.00387507
3318	0.00423555
3330	0.00504661
3342	0.00378496
3354	0.00387507
3366	0.00369484
3378	0.00333437
3390	0.00396519
3402	0.00432566
3414	0.00333437
3426	0.0035146
3438	0.00288378
3450	0.00414543
3462	0.00369484
3474	0.00315413
3486	0.00432566
3498	0.00369484
3510	0.00324425
3522	0.00405531
3534	0.00576755
3546	0.00775015
3558	0.0131572
3570	0.119226
3582	0.203036
3594	0.0255935
3606	0.00711932
3618	0.00856121
3630	0.00838097
3642	0.0126165
3654	0.023701
3666	0.00793038
3678	0.00720944
3690	0.00793038
3702	0.00477625
3714	0.00883156
3726	0.00784027
3738	0.00756991
3750	0.0159509
3762	0.00495649
3774	0.00387507
3786	0.00504661
3798	0.00666873
3810	0.00477625
3822	0.00874145
3834	0.00693909
3846	0.00738968
3858	0.00729956
3870	0.00693909
3882	0.0120758
3894	0.0045059
3906	0.0103636
3918	0.0080205
3930	0.0070292
3942	0.00666873
3954	0.00729956
3966	0.00684897
