Infrared Spectrum: Phenethyl alcohol, .alpha.-bromomethyl-,
Formula: C 9 H 11 Br O
CAS: 40893-99-0
Origin: Sadtler Research Labs Under US-EPA Contract
1/CM	ABSORBANCE
450	0.0123118
462	0.00892321
474	0.0221386
486	0.0693525
498	0.137067
510	0.141698
522	0.0489082
534	0.0347892
546	0.0265437
558	0.00666417
570	0
582	0.00914911
594	0.0471575
606	0.0254707
618	0.0044616
630	0.0183547
642	0.0404933
654	0.0845446
666	0.112783
678	0.160279
690	0.351281
702	0.553917
714	0.219635
726	0.148984
738	0.34247
750	0.256401
762	0.0478916
774	0.00796312
786	0.0106175
798	0.0114082
810	0.00734188
822	0.0284639
834	0.0215738
846	0.0183547
858	0.0207832
870	0.032869
882	0.0221386
894	0.021235
906	0.0371612
918	0.0378389
930	0.0260354
942	0.0347892
954	0.062406
966	0.0729105
978	0.0535392
990	0.059921
1002	0.119673
1014	0.233641
1026	0.401206
1038	0.36732
1050	0.271424
1062	0.290174
1074	0.383698
1086	0.361333
1098	0.198626
1110	0.114138
1122	0.0884414
1134	0.118656
1146	0.123174
1158	0.125659
1170	0.116171
1182	0.124812
1194	0.155083
1206	0.178238
1218	0.261484
1230	0.24183
1242	0.200829
1254	0.198005
1266	0.1936
1278	0.149097
1290	0.118713
1302	0.111766
1314	0.107813
1326	0.0939761
1338	0.102617
1350	0.126337
1362	0.152033
1374	0.17389
1386	0.182305
1398	0.120011
1410	0.0698043
1422	0.113234
1434	0.175979
1446	0.175923
1458	0.160335
1470	0.0694655
1482	0.0571537
1494	0.204161
1506	0.132267
1518	0.0182417
1530	0.0140625
1542	0.0155874
1554	0.00818902
1566	0.00897968
1578	0.0233811
1590	0.0528051
1602	0.0994542
1614	0.0527486
1626	0.00920559
1638	0.00519579
1650	0.00931854
1662	0.00508284
1674	0.0056476
1686	0.00864083
1698	0.0148532
1710	0.0203314
1722	0.0341115
1734	0.0543299
1746	0.0596387
1758	0.0391943
1770	0.02468
1782	0.0210655
1794	0.0311748
1806	0.025979
1818	0.0123682
1830	0.00677712
1842	0.00480046
1854	0.00626884
1866	0.0145708
1878	0.0186936
1890	0.017677
1902	0.00689007
1914	0.00485694
1926	0.0101657
1938	0.0251318
1950	0.0284074
1962	0.0201055
1974	0.00344504
1986	0.00203314
1998	0.000960092
2010	0.000677712
2022	0.00107304
2034	0.00112952
2046	0.00169428
2058	0.00129895
2070	0.00175076
2082	0.00203314
2094	0.00203314
2106	0.00237199
2118	0.00169428
2130	0.00129895
2142	0.000677712
2154	0.000960092
2166	0.000677712
2178	0.00101657
2190	0.00107304
2202	0.00084714
2214	0.000960092
2226	0.000903616
2238	0.00135542
2250	0.00169428
2262	0.00192018
2274	0.00197666
2286	0.00146838
2298	0.00101657
2310	0.00310618
2322	0.00406627
2334	0.0028238
2346	0.00474398
2358	0.00220256
2370	0.00316266
2382	0.00208961
2394	0.00186371
2406	0.0016378
2418	0.00152485
2430	0.00175076
2442	0.00192018
2454	0.00237199
2466	0.00146838
2478	0.00056476
2490	0.00158133
2502	5.6476e-05
2514	0.000677712
2526	0.00146838
2538	0.00112952
2550	0.000338856
2562	0.00107304
2574	0.00180723
2586	0.00237199
2598	0.00288028
2610	0.0042357
2622	0.00485694
2634	0.00559112
2646	0.00598646
2658	0.00581703
2670	0.00536522
2682	0.0068336
2694	0.00914911
2706	0.0125941
2718	0.0139496
2730	0.0113517
2742	0.0112387
2754	0.0112952
2766	0.0110693
2778	0.01186
2790	0.0149661
2802	0.0174511
2814	0.0205573
2826	0.0250189
2838	0.0402674
2850	0.0604293
2862	0.0834715
2874	0.111879
2886	0.132606
2898	0.155648
2910	0.160335
2922	0.208566
2934	0.262105
2946	0.247195
2958	0.201055
2970	0.190098
2982	0.126789
2994	0.0511108
3006	0.0656251
3018	0.127071
3030	0.329199
3042	0.330272
3054	0.146216
3066	0.259564
3078	0.343318
3090	0.192922
3102	0.114759
3114	0.0647215
3126	0.0242847
3138	0.00858435
3150	0.00553465
3162	0.00609941
3174	0.00406627
3186	0.00056476
3198	0.000677712
3210	0.000621236
3222	0.000621236
3234	0.000903616
3246	0.00180723
3258	0.00321913
3270	0.00344504
3282	0.00310618
3294	0.0030497
3306	0.00208961
3318	0.00237199
3330	0.00265437
3342	0.00180723
3354	0.00169428
3366	0.00208961
3378	0.00135542
3390	0.00208961
3402	0.00203314
3414	0.00186371
3426	0.0025979
3438	0.00321913
3450	0.00276732
3462	0.00288028
3474	0.0042357
3486	0.00395332
3498	0.0040098
3510	0.00338856
3522	0.00485694
3534	0.00530874
3546	0.00864083
3558	0.00892321
3570	0.0136107
3582	0.0288592
3594	0.0937502
3606	0.196367
3618	0.16971
3630	0.111258
3642	0.0757908
3654	0.057549
3666	0.0467057
3678	0.0305535
3690	0.0144014
3702	0.0096574
3714	0.00768074
3726	0.00717245
3738	0.00700302
3750	0.00525227
3762	0.0040098
3774	0.00321913
3786	0.00310618
3798	0.00384037
3810	0.00406627
3822	0.0042357
3834	0.00457456
3846	0.00293675
3858	0.00598646
3870	0.00592998
3882	0.00570408
3894	0.00717245
3906	0.00604293
3918	0.00881026
3930	0.00689007
3942	0.00576055
3954	0.00609941
3966	0.00717245
