Infrared Spectrum: Pentadecanoic acid, ethyl ester
Formula: C 17 H 34 O 2
CAS: 41114-00-5
Origin: Sadtler Research Labs Under US-EPA Contract
1/CM	ABSORBANCE
450	0.0338607
462	0.00976752
474	0.00122094
486	0.0153838
498	0.00748843
510	0.00122094
522	0.00390701
534	0.0131862
546	0.0174187
558	0.00130234
570	0.0144885
582	0.0223025
594	0.0240118
606	0.0161164
618	0.0296281
630	0.0232793
642	0.0183141
654	0.015628
666	0.0186397
678	0.0157094
690	0.016849
702	0.0235234
714	0.0260467
726	0.0257211
738	0.0244188
750	0.0248258
762	0.0192909
774	0.0179071
786	0.0206746
798	0.0193722
810	0.0192909
822	0.0212444
834	0.0212444
846	0.0233607
858	0.0252328
870	0.0268607
882	0.0227095
894	0.0220583
906	0.0218141
918	0.0256397
930	0.02507
942	0.0222211
954	0.0222211
966	0.0189653
978	0.0198606
990	0.0202676
1002	0.0256397
1014	0.0319886
1026	0.0512795
1038	0.0760239
1050	0.0689424
1062	0.0561632
1074	0.0526632
1086	0.0590935
1098	0.072361
1110	0.0841635
1122	0.088803
1134	0.0905937
1146	0.125757
1158	0.174269
1170	0.197955
1182	0.187292
1194	0.153269
1206	0.133327
1218	0.121524
1230	0.123641
1242	0.127385
1254	0.115175
1266	0.0871751
1278	0.0689424
1290	0.0643028
1302	0.0670703
1314	0.0636517
1326	0.0562446
1338	0.0589307
1350	0.0665819
1362	0.0583609
1374	0.081803
1386	0.0503841
1398	0.0331282
1410	0.02857
1422	0.0330468
1434	0.0429771
1446	0.0566516
1458	0.0817216
1470	0.0800123
1482	0.0382561
1494	0.0225467
1506	0.019942
1518	0.0151397
1530	0.0140815
1542	0.0150583
1554	0.0108257
1566	0.0109071
1578	0.0108257
1590	0.0113954
1602	0.00936054
1614	0.00944194
1626	0.0106629
1638	0.0109885
1650	0.00756983
1662	0.00952333
1674	0.011721
1686	0.0140001
1698	0.017256
1710	0.0256397
1722	0.0418375
1734	0.0877449
1746	0.215537
1758	0.291479
1770	0.125675
1782	0.0504655
1794	0.0270235
1806	0.016442
1818	0.0111513
1830	0.00895356
1842	0.00740704
1854	0.00724424
1866	0.00577912
1878	0.00716285
1890	0.00626749
1902	0.00529074
1914	0.00553493
1926	0.00626749
1938	0.00594191
1950	0.00545353
1962	0.00708145
1974	0.00634889
1986	0.00569772
1998	0.0061861
2010	0.00700006
2022	0.00691866
2034	0.00675587
2046	0.00716285
2058	0.00716285
2070	0.00569772
2082	0.00569772
2094	0.00626749
2106	0.00423259
2118	0.0039884
2130	0.0040698
2142	0.0039884
2154	0.00284886
2166	0.00358142
2178	0.00447678
2190	0.00382561
2202	0.00374422
2214	0.00447678
2226	0.00512795
2238	0.00586051
2250	0.00756983
2262	0.0128606
2274	0.0206746
2286	0.0157094
2298	0.00960473
2310	0.00634889
2322	0.00447678
2334	0.00113954
2346	0.00854658
2358	0.00748843
2370	0.00724424
2382	0.00496516
2394	0.00244188
2406	0.00187211
2418	0.000895356
2430	0.000895356
2442	0.00122094
2454	0.000325584
2466	0.000732564
2478	0.00162792
2490	0.000732564
2502	0.000732564
2514	0.00162792
2526	0.00293026
2538	0.00252328
2550	0.00284886
2562	0.0041512
2574	0.0041512
2586	0.00366282
2598	0.00480236
2610	0.00553493
2622	0.00512795
2634	0.0060233
2646	0.00626749
2658	0.00634889
2670	0.00691866
2682	0.00773262
2694	0.00789541
2706	0.00594191
2718	0.00651168
2730	0.00708145
2742	0.00789541
2754	0.0081396
2766	0.00903496
2778	0.0111513
2790	0.0128606
2802	0.0165234
2814	0.0227095
2826	0.0314189
2838	0.044605
2850	0.0979194
2862	0.303363
2874	0.220583
2886	0.146838
2898	0.143583
2910	0.235234
2922	0.437259
2934	0.81396
2946	0.502458
2958	0.254525
2970	0.232711
2982	0.15099
2994	0.10028
3006	0.0560818
3018	0.0339421
3030	0.0221397
3042	0.0148141
3054	0.011721
3066	0.0105815
3078	0.00936054
3090	0.00740704
3102	0.00773262
3114	0.0080582
3126	0.00634889
3138	0.0060233
3150	0.00708145
3162	0.00651168
3174	0.00577912
3186	0.00577912
3198	0.00561632
3210	0.00341863
3222	0.00301165
3234	0.00358142
3246	0.0020349
3258	0.00081396
3270	0.00236048
3282	0.0021163
3294	0.000488376
3306	0.00040698
3318	0.00276746
3330	0.00333724
3342	0.00252328
3354	0.00284886
3366	0.00520934
3378	0.00390701
3390	0.00374422
3402	0.00529074
3414	0.0061861
3426	0.00309305
3438	0.00480236
3450	0.00651168
3462	0.00455818
3474	0.00317444
3486	0.00553493
3498	0.00529074
3510	0.00317444
3522	0.00284886
3534	0.00350003
3546	0.00252328
3558	0.00187211
3570	0.00520934
3582	0.00537214
3594	0.00366282
3606	0.00358142
3618	0.00643028
3630	0.00773262
3642	0.00480236
3654	0.00797681
3666	0.00553493
3678	0.00675587
3690	0.00561632
3702	0.00586051
3714	0.00537214
3726	0.00268607
3738	0.00512795
3750	0.00586051
3762	0.00293026
3774	0.00227909
3786	0.00382561
3798	0.00325584
3810	0.00187211
3822	0.00382561
3834	0.00439538
3846	0.00333724
3858	0.00284886
3870	0.00626749
3882	0.00732564
3894	0.00227909
3906	0.00472097
3918	0.00927914
3930	0.00765122
3942	0.00553493
3954	0
3966	0.000325584
