Infrared Spectrum: Benzene, (3-iodopropyl)-
Formula: C 9 H 11 I
CAS: 4119-41-9
Origin: Sadtler Research Labs Under US-EPA Contract
1/CM	ABSORBANCE
450	0.0174479
462	0.00201659
474	0.0362549
486	0.0830749
498	0.044935
510	0.0378769
522	0.0071896
534	0.00644433
546	0.0209112
558	0.0259088
570	0.0259965
582	0.0186316
594	0.0138531
606	0.0178425
618	0.0181932
630	0.00363864
642	0.00109597
654	0.0079787
666	0.020429
678	0.0571222
690	0.233443
702	0.409938
714	0.172287
726	0.168561
738	0.33927
750	0.239492
762	0.085223
774	0.0377892
786	0.0325285
798	0.0227086
810	0.00841709
822	0.00806638
834	0.0108721
846	0.026961
858	0.0167465
870	0.00429622
882	0.00622514
894	0.0095569
906	0.0266541
918	0.0129763
930	0.0138093
942	0.0165711
954	0.0270048
966	0.0253389
978	0.0134147
990	0.00832941
1002	0.00811022
1014	0.0109597
1026	0.057999
1038	0.0336245
1050	0.0138093
1062	0.032397
1074	0.0535274
1086	0.0292845
1098	0.0175794
1110	0.0180178
1122	0.0191576
1134	0.0241553
1146	0.0366494
1158	0.102934
1170	0.173865
1182	0.0783841
1194	0.0704493
1206	0.135638
1218	0.365968
1230	0.164922
1242	0.077069
1254	0.0674682
1266	0.105477
1278	0.104907
1290	0.0575168
1302	0.0330108
1314	0.0277501
1326	0.0278378
1338	0.0486613
1350	0.0796116
1362	0.0335807
1374	0.0188508
1386	0.0144669
1398	0.0124503
1410	0.0146861
1422	0.0409018
1434	0.119505
1446	0.143047
1458	0.148965
1470	0.0615938
1482	0.0359918
1494	0.165843
1506	0.106748
1518	0.0158697
1530	0.0137654
1542	0.015782
1554	0.00894316
1566	0.00907467
1578	0.0200344
1590	0.0437952
1602	0.0979802
1614	0.0573414
1626	0.0136778
1638	0.00907467
1650	0.0112228
1662	0.00499765
1674	0.00631282
1686	0.0085486
1698	0.0110913
1710	0.00903083
1722	0.0104775
1734	0.0180178
1746	0.0168342
1758	0.0126256
1770	0.0133709
1782	0.0136339
1794	0.0273994
1806	0.0196399
1818	0.00868012
1830	0.00622514
1842	0.00425238
1854	0.00736495
1866	0.0140723
1878	0.0164396
1890	0.00898699
1902	0.0035948
1914	0.00460309
1926	0.00898699
1938	0.020692
1950	0.0212181
1962	0.0140723
1974	0.00184124
1986	0.00118365
1998	0.000701424
2010	0.000701424
2022	0.000613746
2034	0.000482229
2046	0.00105214
2058	0.00105214
2070	0.00109597
2082	0.000482229
2094	0.000526068
2106	0.00043839
2118	0.000175356
2130	0.000263034
2142	0.000789102
2154	0.0015782
2166	0.00162204
2178	0.00254266
2190	0.00249882
2202	0.00236731
2214	0.00214811
2226	0.00197276
2238	0.00149053
2250	0.00153436
2262	0.00113981
2274	0.00122749
2286	0.00140285
2298	0.000350712
2310	0.00149053
2322	0.00324409
2334	0.00118365
2346	0.00346328
2358	0.00043839
2370	0.000832941
2382	0.00236731
2394	0.00298105
2406	0.00249882
2418	0.00201659
2430	0.00153436
2442	0.00188508
2454	0.00109597
2466	0.00140285
2478	0.00118365
2490	0.00135901
2502	0.00140285
2514	0.00144669
2526	0.00105214
2538	0.00149053
2550	0.00170972
2562	0.00214811
2574	0.00236731
2586	0.00346328
2598	0.00482229
2610	0.00547987
2622	0.00403319
2634	0.00512916
2646	0.00534836
2658	0.00504149
2670	0.00420854
2682	0.00407703
2694	0.00407703
2706	0.00350712
2718	0.00412087
2730	0.00377015
2742	0.0033756
2754	0.0035948
2766	0.00473461
2778	0.00714576
2790	0.0106967
2802	0.0110474
2814	0.011705
2826	0.0158697
2838	0.0364302
2850	0.080883
2862	0.112842
2874	0.103153
2886	0.0789979
2898	0.0997776
2910	0.127835
2922	0.167553
2934	0.261193
2946	0.345407
2958	0.223009
2970	0.159223
2982	0.100742
2994	0.047916
3006	0.077595
3018	0.142564
3030	0.288811
3042	0.290039
3054	0.119768
3066	0.208717
3078	0.277895
3090	0.154269
3102	0.095569
3114	0.0589635
3126	0.0219633
3138	0.00868012
3150	0.00626898
3162	0.00657585
3174	0.00482229
3186	0.00271802
3198	0.00197276
3210	0.00201659
3222	0.00175356
3234	0.00188508
3246	0.00166588
3258	0.00201659
3270	0.00192892
3282	0.0017974
3294	0.00254266
3306	0.000964458
3318	0.00140285
3330	0.00149053
3342	0.00087678
3354	0.00113981
3366	0.00109597
3378	0.00127133
3390	0.000832941
3402	0.00127133
3414	0.00201659
3426	0.00149053
3438	0.00227963
3450	0.00184124
3462	0.00105214
3474	0.00135901
3486	0.00122749
3498	0.00087678
3510	0.000657585
3522	0.00192892
3534	0.00131517
3546	0.00127133
3558	0.00144669
3570	0.00254266
3582	0.00245498
3594	0.00289337
3606	0.000789102
3618	0.00271802
3630	0.00385783
3642	0.00381399
3654	0.00591826
3666	0.00175356
3678	0.00398935
3690	0.00363864
3702	0.00175356
3714	0.00227963
3726	0.00302489
3738	0.00350712
3750	0.00144669
3762	0.00144669
3774	0.00105214
3786	0.00166588
3798	0.00328792
3810	0.000920619
3822	0.00293721
3834	0.00311257
3846	0.00315641
3858	0.00350712
3870	0.00333176
3882	0.00170972
3894	0.00311257
3906	0.00311257
3918	0.00276186
3930	0.00306873
3942	0.00206043
3954	0.00197276
3966	0.00245498
