Infrared Spectrum: Benzene, 1,2-dimethyl-4-(1-methylethyl)-
Formula: C 11 H 16
CAS: 4132-77-8
Origin: Sadtler Research Labs Under US-EPA Contract
1/CM	ABSORBANCE
450	0.0127133
462	0.0168892
474	0.0212507
486	0.0223643
498	0.0290458
510	0.00194876
522	0.0269114
534	0.0170748
546	0.0193948
558	0.0312729
570	0.0219931
582	0.0314585
594	0.0534516
606	0.0419447
618	0.0226427
630	0.0190236
642	0.0157757
654	0.016982
666	0.0144765
678	0.0150333
690	0.0168892
702	0.0219931
714	0.0483478
726	0.0379544
738	0.0176316
750	0.0190236
762	0.0164252
774	0.0175388
786	0.019302
798	0.0391608
810	0.11906
822	0.133258
834	0.0401815
846	0.0220859
858	0.0230139
870	0.0400887
882	0.0590195
894	0.029881
906	0.0215291
918	0.0272826
930	0.0319225
942	0.0206012
954	0.018838
966	0.0220859
978	0.028489
990	0.0649586
1002	0.0715473
1014	0.0349848
1026	0.0304377
1038	0.0246843
1050	0.0291386
1062	0.0398103
1074	0.0336857
1086	0.0235707
1098	0.0227355
1110	0.029881
1122	0.0413879
1134	0.0491829
1146	0.0379544
1158	0.0328505
1170	0.0415735
1182	0.0341497
1194	0.0184668
1206	0.016982
1218	0.0167964
1230	0.0185596
1242	0.0216219
1254	0.0248699
1266	0.0360056
1278	0.0412951
1290	0.0306233
1302	0.0301594
1314	0.047791
1326	0.0620819
1338	0.048255
1350	0.0371192
1362	0.0523381
1374	0.0674641
1386	0.074424
1398	0.0544724
1410	0.0524309
1422	0.0547508
1434	0.057442
1446	0.100779
1458	0.165366
1470	0.155158
1482	0.0954891
1494	0.0858382
1506	0.192834
1518	0.0832398
1530	0.0341497
1542	0.0281178
1554	0.0242203
1566	0.026169
1578	0.0314585
1590	0.0299738
1602	0.0334073
1614	0.0538228
1626	0.0344281
1638	0.0170748
1650	0.0100222
1662	0.0090942
1674	0.00835182
1686	0.009187
1698	0.0167964
1710	0.0252411
1722	0.020694
1734	0.0104862
1746	0.0185596
1758	0.0213435
1770	0.0093726
1782	0.00603187
1794	0.00584627
1806	0.00501109
1818	0.00519669
1830	0.0047327
1842	0.0048255
1854	0.0046399
1866	0.00723824
1878	0.0132701
1890	0.0112286
1902	0.00510389
1914	0.00436151
1926	0.00324793
1938	0.00259834
1950	0.00250555
1962	0.00287674
1974	0.00204156
1986	0.00213435
1998	0.00148477
2010	0.00129917
2022	0.00139197
2034	0.00120637
2046	0.00148477
2058	0.00111358
2070	0.00120637
2082	0.000835182
2094	0.000556788
2106	0.000371192
2118	0.00102078
2130	0.00111358
2142	0.000278394
2154	0
2166	0
2178	0.000278394
2190	0.000185596
2202	9.2798e-05
2214	0.000649586
2226	0.00111358
2238	0.00157757
2250	0.00129917
2262	0.00092798
2274	0.00092798
2286	0.00148477
2298	0.00259834
2310	0.00287674
2322	0.00148477
2334	0.000556788
2346	0
2358	0.00148477
2370	0.00120637
2382	0.00213435
2394	0.00157757
2406	0.00204156
2418	0.00176316
2430	0.00139197
2442	0.00139197
2454	0.00231995
2466	0.00278394
2478	0.00287674
2490	0.00241275
2502	0.00176316
2514	0.00148477
2526	0.00092798
2538	0.00139197
2550	0.00157757
2562	0.00167036
2574	0.00250555
2586	0.0045471
2598	0.00575348
2610	0.00408311
2622	0.00324793
2634	0.00296954
2646	0.00259834
2658	0.00259834
2670	0.00269114
2682	0.00343353
2694	0.00426871
2706	0.00649586
2718	0.0109502
2730	0.0158685
2742	0.0209723
2754	0.0139197
2766	0.0130845
2778	0.0128061
2790	0.0136413
2802	0.0154045
2814	0.0203228
2826	0.0257978
2838	0.0338713
2850	0.0578132
2862	0.117389
2874	0.259463
2886	0.319318
2898	0.265681
2910	0.269393
2922	0.306512
2934	0.466217
2946	0.44144
2958	0.504543
2970	0.92798
2982	0.437635
2994	0.178915
3006	0.185782
3018	0.203692
3030	0.146621
3042	0.114977
3054	0.113306
3066	0.0868589
3078	0.0595763
3090	0.0423159
3102	0.0281178
3114	0.0248699
3126	0.0232923
3138	0.0168892
3150	0.0132701
3162	0.00983659
3174	0.009187
3186	0.00974379
3198	0.0094654
3210	0.00844462
3222	0.00742384
3234	0.00566068
3246	0.0048255
3258	0.00343353
3270	0.00324793
3282	0.00361912
3294	0.00269114
3306	0.00287674
3318	0.00306233
3330	0.00343353
3342	0.00324793
3354	0.00380472
3366	0.00315513
3378	0.00324793
3390	0.00417591
3402	0.00306233
3414	0.00352632
3426	0.00324793
3438	0.00241275
3450	0.00371192
3462	0.00259834
3474	0.00361912
3486	0.00259834
3498	0.00222715
3510	0.00296954
3522	0.00343353
3534	0.00287674
3546	0.00306233
3558	0.00269114
3570	0.00371192
3582	0.00361912
3594	0.00194876
3606	0.00250555
3618	0.00213435
3630	0.00250555
3642	0.00296954
3654	0.00287674
3666	0.00176316
3678	0.00120637
3690	0.000556788
3702	0.00046399
3714	0.00204156
3726	0.00120637
3738	0.00315513
3750	0
3762	0.00129917
3774	0.00194876
3786	0
3798	0.00129917
3810	0.00102078
3822	0.00259834
3834	0.00231995
3846	0.00278394
3858	0.000556788
3870	0.00269114
3882	0.000835182
3894	0.00102078
3906	0.00148477
3918	0.0046399
3930	0.000742384
3942	0.00222715
3954	0.00120637
3966	0.00194876
