Infrared Spectrum: z1-Indanone, 5,6-dimethoxy-3,3-dimethyl-,
Formula: C 13 H 16 O 3
CAS: 4136-26-9
Origin: Sadtler Research Labs Under US-EPA Contract
1/CM	ABSORBANCE
450	0
462	0.00959352
474	0.0286606
486	0.0630774
498	0.0446099
510	0.0332176
522	0.0320184
534	0.0374147
546	0.0470082
558	0.0515652
570	0.0649961
582	0.0480875
594	0.0315387
606	0.0291403
618	0.0279411
630	0.0332176
642	0.0375346
654	0.0306993
666	0.0247033
678	0.0215854
690	0.0253029
702	0.0256627
714	0.0262623
726	0.0425712
738	0.032498
750	0.0376546
762	0.0356159
774	0.0297399
786	0.0472481
798	0.0538436
810	0.0336972
822	0.0242236
834	0.028061
846	0.0570814
858	0.100852
870	0.0880205
882	0.0703925
894	0.0396932
906	0.0265021
918	0.0245834
930	0.0299797
942	0.0332176
954	0.032498
966	0.0431708
978	0.0437704
990	0.0436505
1002	0.0637969
1014	0.13323
1026	0.257706
1038	0.328218
1050	0.202303
1062	0.0659554
1074	0.0575611
1086	0.10421
1098	0.14762
1110	0.0625977
1122	0.0773478
1134	0.151698
1146	0.187313
1158	0.131191
1170	0.131311
1182	0.166328
1194	0.175681
1206	0.277852
1218	0.312509
1230	0.273295
1242	0.232403
1254	0.284208
1266	0.579928
1278	0.271617
1290	0.387818
1302	0.920618
1314	0.772518
1326	0.44418
1338	0.2372
1350	0.170885
1362	0.11884
1374	0.094736
1386	0.0829839
1398	0.090299
1410	0.197027
1422	0.171724
1434	0.131071
1446	0.173883
1458	0.215375
1470	0.31047
1482	0.367911
1494	0.677303
1506	0.292842
1518	0.109366
1530	0.0753091
1542	0.0649961
1554	0.0580408
1566	0.0804656
1578	0.137307
1590	0.22209
1602	0.238039
1614	0.196427
1626	0.0756689
1638	0.0470082
1650	0.0460489
1662	0.0466485
1674	0.0550428
1686	0.0756689
1698	0.104809
1710	0.166088
1722	0.573093
1734	1.19919
1746	0.26658
1758	0.0761486
1770	0.0411322
1782	0.0314188
1794	0.02962
1806	0.0202663
1818	0.0151098
1830	0.0139106
1842	0.0111525
1854	0.00983336
1866	0.0109126
1878	0.00887401
1890	0.00875409
1902	0.0069553
1914	0.00623579
1926	0.00683538
1938	0.00767482
1950	0.00803457
1962	0.00911384
1974	0.00971344
1986	0.010433
1998	0.011872
2010	0.0112724
2022	0.0123517
2034	0.0122317
2046	0.0122317
2058	0.0129513
2070	0.013311
2082	0.0127114
2094	0.0105529
2106	0.00827441
2118	0.00719514
2130	0.00719514
2142	0.00683538
2154	0.00599595
2166	0.00563619
2178	0.00563619
2190	0.00575611
2202	0.00575611
2214	0.00587603
2226	0.00575611
2238	0.00563619
2250	0.00575611
2262	0.00623579
2274	0.00791465
2286	0.00923376
2298	0.0106728
2310	0.011872
2322	0.00959352
2334	0.00827441
2346	0.00923376
2358	0.00767482
2370	0.00743498
2382	0.00803457
2394	0.00359757
2406	0.00395733
2418	0.00371749
2430	0.00395733
2442	0.00407725
2454	0.004437
2466	0.00467684
2478	0.00395733
2490	0.00359757
2502	0.00407725
2514	0.00455692
2526	0.00527644
2538	0.00611587
2550	0.00671546
2562	0.0069553
2574	0.00827441
2586	0.0094736
2598	0.0107927
2610	0.0125915
2622	0.0131911
2634	0.0128313
2646	0.0122317
2658	0.0100732
2670	0.00863417
2682	0.00839433
2694	0.00803457
2706	0.00839433
2718	0.00887401
2730	0.00995328
2742	0.00935368
2754	0.00899392
2766	0.0100732
2778	0.0107927
2790	0.013311
2802	0.0184675
2814	0.028061
2826	0.0466485
2838	0.0879006
2850	0.0992929
2862	0.091738
2874	0.134189
2886	0.115962
2898	0.109606
2910	0.131071
2922	0.170645
2934	0.246913
2946	0.286846
2958	0.349444
2970	0.506778
2982	0.123996
2994	0.0892197
3006	0.141385
3018	0.121838
3030	0.0502461
3042	0.0383741
3054	0.0352562
3066	0.0388538
3078	0.0320184
3090	0.0196667
3102	0.0159492
3114	0.0134309
3126	0.0101931
3138	0.00827441
3150	0.00779473
3162	0.00719514
3174	0.00743498
3186	0.00815449
3198	0.00863417
3210	0.00791465
3222	0.00731506
3234	0.00707522
3246	0.00623579
3258	0.00563619
3270	0.00563619
3282	0.00587603
3294	0.00623579
3306	0.0069553
3318	0.00719514
3330	0.00731506
3342	0.00671546
3354	0.00683538
3366	0.00743498
3378	0.00731506
3390	0.00779473
3402	0.00743498
3414	0.00827441
3426	0.010313
3438	0.0173883
3450	0.016309
3462	0.00851425
3474	0.00563619
3486	0.00515652
3498	0.00587603
3510	0.00587603
3522	0.00635571
3534	0.00563619
3546	0.00599595
3558	0.00575611
3570	0.00611587
3582	0.00599595
3594	0.00515652
3606	0.00563619
3618	0.00539636
3630	0.00575611
3642	0.0050366
3654	0.00479676
3666	0.00635571
3678	0.00455692
3690	0.00371749
3702	0.004437
3714	0.00539636
3726	0.00551627
3738	0.00491668
3750	0.00455692
3762	0.00539636
3774	0.004437
3786	0.00563619
3798	0.00419717
3810	0.00587603
3822	0.00479676
3834	0.00455692
3846	0.00539636
3858	0.00431708
3870	0.00491668
3882	0.00623579
3894	0.00611587
3906	0.00623579
3918	0.00455692
3930	0.00455692
3942	0.00659555
3954	0.00551627
3966	0.00455692
