Infrared Spectrum: 1,1-Cyclopentanedicarboxylic acid, diethyl ester
Formula: C 11 H 18 O 4
CAS: 4167-77-5
Origin: Sadtler Research Labs Under US-EPA Contract
1/CM	ABSORBANCE
450	0.0203134
462	0.0194238
474	0.0149756
486	0.00874811
498	0.00266891
510	0.00845156
522	0.00355855
534	0.00859983
546	0.00963775
558	0.000889638
570	0.00533783
582	0.00593092
594	0.00593092
606	0.00563437
618	0.00266891
630	0.00207582
642	0.00311373
654	0.00296546
666	0.00726538
678	0.0176445
690	0.0198686
702	0.0180893
714	0.00889638
726	0.00518956
738	0.00474474
750	0.0145308
762	0.0189789
774	0.0182376
786	0.0157169
798	0.0140859
810	0.0128998
822	0.0145308
834	0.0220927
846	0.0363269
858	0.0696883
870	0.0640539
882	0.0234271
894	0.01631
906	0.0191272
918	0.0158652
930	0.0148273
942	0.0249099
954	0.0321752
966	0.0200169
978	0.0256512
990	0.0364752
1002	0.0471508
1014	0.0905948
1026	0.242426
1038	0.387437
1050	0.275195
1062	0.203134
1074	0.251916
1086	0.266595
1098	0.347997
1110	0.363714
1122	0.303515
1134	0.376613
1146	0.728169
1158	1.05911
1170	0.801712
1182	0.567589
1194	0.405082
1206	0.34429
1218	0.397075
1230	0.611181
1242	0.846046
1254	1.02887
1266	0.864728
1278	0.491673
1290	0.322346
1302	0.307073
1314	0.274602
1326	0.276084
1338	0.1717
1350	0.0704297
1362	0.0920775
1374	0.161469
1386	0.0877776
1398	0.0733951
1410	0.0658332
1422	0.0616816
1434	0.0593092
1446	0.0968223
1458	0.118618
1470	0.122622
1482	0.0937085
1494	0.0381062
1506	0.0133446
1518	0.00533783
1530	0.00237237
1542	0.000741365
1554	0.0022241
1566	0.0022241
1578	0.00237237
1590	0.00252064
1602	0.0022241
1614	0.00118618
1626	0.000148273
1638	0.0022241
1650	0.00237237
1662	0.0071171
1674	0.0118618
1686	0.0235754
1698	0.0474474
1710	0.0969705
1722	0.178076
1734	0.495084
1746	1.40192
1758	1.1758
1770	0.663966
1782	0.295212
1794	0.112094
1806	0.0550093
1818	0.0309891
1830	0.0164583
1842	0.00800674
1854	0.00459646
1866	0.00252064
1878	0.00355855
1890	0.00459646
1902	0.00370683
1914	0.0022241
1926	0.00133446
1938	0.001631
1950	0.00118618
1962	0.00118618
1974	0.000444819
1986	0.000593092
1998	0.000741365
2010	0.00118618
2022	0.00148273
2034	0.00118618
2046	0.000889638
2058	0.00118618
2070	0.00177928
2082	0.00296546
2094	0.00341028
2106	0.00326201
2118	0.00326201
2130	0.00237237
2142	0.00148273
2154	0.00103791
2166	0.000296546
2178	0.000148273
2190	0
2202	0.000444819
2214	0.00103791
2226	0.00207582
2238	0.00252064
2250	0.00266891
2262	0.00252064
2274	0.00192755
2286	0.0022241
2298	0.00370683
2310	0.00533783
2322	0.00637574
2334	0.00489301
2346	0.00607919
2358	0.0038551
2370	0.00370683
2382	0.00518956
2394	0.00192755
2406	0.001631
2418	0.00177928
2430	0.00192755
2442	0.00118618
2454	0.00103791
2466	0.000889638
2478	0.000741365
2490	0.000296546
2502	0.000296546
2514	0
2526	0.000296546
2538	0.000741365
2550	0.000444819
2562	0.000593092
2574	0.000741365
2586	0.000593092
2598	0.00118618
2610	0.00118618
2622	0.00118618
2634	0.000593092
2646	0.000444819
2658	0.000148273
2670	0.000148273
2682	0.000741365
2694	0.00118618
2706	0.00148273
2718	0.00207582
2730	0.00400337
2742	0.00429992
2754	0.00489301
2766	0.00578265
2778	0.00756192
2790	0.00667229
2802	0.0077102
2814	0.00993429
2826	0.0145308
2838	0.0185341
2850	0.0272822
2862	0.0444819
2874	0.0935603
2886	0.181338
2898	0.132853
2910	0.140563
2922	0.158652
2934	0.202244
2946	0.312708
2958	0.360303
2970	0.474918
2982	0.507242
2994	0.446747
3006	0.229527
3018	0.113132
3030	0.0569368
3042	0.033658
3054	0.0226858
3066	0.0174962
3078	0.0151238
3090	0.0124549
3102	0.0100826
3114	0.00874811
3126	0.00830329
3138	0.0071171
3150	0.00637574
3162	0.00593092
3174	0.00518956
3186	0.00504128
3198	0.00415164
3210	0.00370683
3222	0.00311373
3234	0.00266891
3246	0.00207582
3258	0.001631
3270	0.00118618
3282	0.00192755
3294	0.00207582
3306	0.00192755
3318	0.00192755
3330	0.00177928
3342	0.001631
3354	0.00177928
3366	0.00207582
3378	0.00252064
3390	0.00177928
3402	0.00192755
3414	0.00207582
3426	0.001631
3438	0.00177928
3450	0.00177928
3462	0.00415164
3474	0.00518956
3486	0.00948947
3498	0.00889638
3510	0.00622747
3522	0.00252064
3534	0.000741365
3546	0.000889638
3558	0.000889638
3570	0.00207582
3582	0.00192755
3594	0.001631
3606	0.000741365
3618	0.00133446
3630	0.00192755
3642	0.00133446
3654	0.000593092
3666	0.000148273
3678	0.000593092
3690	0.001631
3702	0.000148273
3714	0.00133446
3726	0.00148273
3738	0.00177928
3750	0.000889638
3762	0.000444819
3774	0.000889638
3786	0.000444819
3798	0.00118618
3810	0.000296546
3822	0.00133446
3834	0.00118618
3846	0.000889638
3858	0.00118618
3870	0.000889638
3882	0
3894	0.00118618
3906	0
3918	0.00103791
3930	0
3942	0
3954	0.000741365
3966	0
