Infrared Spectrum: Butanoic acid, 2-chloro-
Formula: C 4 H 7 Cl O 2
CAS: 4170-24-5
Origin: Sadtler Research Labs Under US-EPA Contract
1/CM	ABSORBANCE
450	0.0690398
462	0.0384317
474	0.050922
486	0.0463925
498	0.0679417
510	0.0724712
522	0.0896282
534	0.142746
546	0.211649
558	0.266551
570	0.25612
582	0.189825
594	0.201492
606	0.198198
618	0.223453
630	0.232237
642	0.188727
654	0.185707
666	0.156335
678	0.133687
690	0.14357
702	0.153315
714	0.118452
726	0.0616279
738	0.0583338
750	0.0713731
762	0.0774124
774	0.0748045
786	0.063275
798	0.0451572
810	0.0463925
822	0.056275
834	0.0513337
846	0.0370591
858	0.0479023
870	0.0753535
882	0.075079
894	0.0527063
906	0.0432356
918	0.0502357
930	0.051471
942	0.0334905
954	0.0152354
966	0.00521573
978	0.00398042
990	0.0046667
1002	0.00768634
1014	0.0207257
1026	0.0436474
1038	0.0587456
1050	0.0800202
1062	0.140138
1074	0.249394
1086	0.371964
1098	0.495357
1110	0.508945
1122	0.454866
1134	0.51073
1146	0.580456
1158	0.56371
1170	0.431807
1182	0.219198
1194	0.113511
1206	0.0941576
1218	0.0982753
1230	0.103217
1242	0.090589
1254	0.0963537
1266	0.111864
1278	0.128472
1290	0.150158
1302	0.150844
1314	0.151668
1326	0.196551
1338	0.233335
1350	0.212884
1362	0.201217
1374	0.196962
1386	0.183649
1398	0.142197
1410	0.0693143
1422	0.0384317
1434	0.0409023
1446	0.0660201
1458	0.0966282
1470	0.0867458
1482	0.040216
1494	0.0137256
1506	0.00933341
1518	0.00439219
1530	0.00425494
1542	0.00576475
1554	0.00411768
1566	0.00370591
1578	0.00549024
1590	0.00260786
1602	0.0012353
1614	0.00109805
1626	0.00480396
1638	0.00452945
1650	0.00700006
1662	0.00398042
1674	0.0080981
1686	0.0137256
1698	0.0181178
1710	0.0259414
1722	0.0594318
1734	0.135197
1746	0.238139
1758	0.432905
1770	0.888595
1782	1.29707
1794	1.09009
1806	0.617652
1818	0.280414
1830	0.119824
1842	0.0535298
1854	0.0249806
1866	0.0129021
1878	0.00823536
1890	0.00631378
1902	0.00452945
1914	0.00370591
1926	0.00315689
1938	0.0021961
1950	0.00329414
1962	0.00301963
1974	0.00398042
1986	0.00370591
1998	0.00301963
2010	0.00233335
2022	0.00274512
2034	0.00274512
2046	0.00260786
2058	0.00288238
2070	0.00452945
2082	0.00452945
2094	0.00398042
2106	0.00411768
2118	0.00439219
2130	0.00329414
2142	0.00288238
2154	0.00315689
2166	0.00329414
2178	0.00384317
2190	0.00549024
2202	0.00590201
2214	0.00658829
2226	0.00658829
2238	0.00590201
2250	0.00576475
2262	0.00521573
2274	0.00452945
2286	0.0046667
2298	0.00452945
2310	0.00494122
2322	0.00535298
2334	0.00507847
2346	0.00274512
2358	0.00549024
2370	0.000411768
2382	0.00260786
2394	0.00425494
2406	0.00507847
2418	0.00603926
2430	0.00576475
2442	0.00549024
2454	0.00645103
2466	0.0068628
2478	0.00727457
2490	0.0068628
2502	0.00631378
2514	0.00672554
2526	0.00672554
2538	0.00576475
2550	0.00494122
2562	0.00452945
2574	0.00315689
2586	0.00384317
2598	0.00398042
2610	0.00315689
2622	0.00329414
2634	0.00398042
2646	0.00494122
2658	0.00315689
2670	0.0034314
2682	0.00494122
2694	0.00439219
2706	0.00439219
2718	0.00356866
2730	0.00425494
2742	0.00617652
2754	0.00713731
2766	0.00850987
2778	0.00754908
2790	0.00837262
2802	0.00864713
2814	0.00837262
2826	0.00933341
2838	0.0127648
2850	0.0193531
2862	0.0300591
2874	0.0473533
2886	0.0899027
2898	0.103354
2910	0.0728829
2922	0.0752163
2934	0.115844
2946	0.169648
2958	0.175962
2970	0.204923
2982	0.342454
2994	0.265453
3006	0.100746
3018	0.034314
3030	0.0214119
3042	0.0174315
3054	0.0163335
3066	0.0155099
3078	0.0161962
3090	0.017157
3102	0.0145491
3114	0.0126276
3126	0.0130393
3138	0.0122158
3150	0.0111177
3162	0.0124903
3174	0.0133138
3186	0.0122158
3198	0.0113922
3210	0.0105687
3222	0.0090589
3234	0.00796085
3246	0.0080981
3258	0.00521573
3270	0.00411768
3282	0.00713731
3294	0.00864713
3306	0.00878438
3318	0.00878438
3330	0.00590201
3342	0.00329414
3354	0.00452945
3366	0.00480396
3378	0.00452945
3390	0.00452945
3402	0.00370591
3414	0.00494122
3426	0.00507847
3438	0.00411768
3450	0.0046667
3462	0.00535298
3474	0.00590201
3486	0.00782359
3498	0.0120785
3510	0.0374709
3522	0.0619025
3534	0.0614907
3546	0.050373
3558	0.09704
3570	0.464749
3582	0.561652
3594	0.187766
3606	0.0233335
3618	0.0100197
3630	0.00754908
3642	0.0046667
3654	0.0056275
3666	0.00480396
3678	0.00823536
3690	0.00411768
3702	0.00452945
3714	0.00384317
3726	0.00356866
3738	0.00301963
3750	0.000823536
3762	0.00274512
3774	0.00521573
3786	0.00356866
3798	0.00452945
3810	0.00260786
3822	0.00274512
3834	0.00398042
3846	0.00288238
3858	0.00631378
3870	0.00878438
3882	0.0104315
3894	0.0100197
3906	0.00521573
3918	0.00068628
3930	0.0034314
3942	0.00301963
3954	0.00356866
3966	0.0012353
