Infrared Spectrum: Cyclopropanecarboxamide, N-ethyl-2-phenyl-, cis-,
Formula: C 12 H 15 N O
CAS: 4186-30-5
Origin: Sadtler Research Labs Under US-EPA Contract
1/CM	ABSORBANCE
450	0.00269252
462	0.00725809
474	0.00245839
486	0.00333638
498	0.0053265
510	0.0117066
522	0.00901408
534	0.00509237
546	0
558	0.00503384
570	0.0112969
582	0.00784342
594	0.00222425
606	0.00310225
618	0.00357051
630	0.00210719
642	0.00316078
654	0.0060289
666	0.00930675
678	0.0263984
690	0.118822
702	0.118588
714	0.0501042
726	0.0676056
738	0.035471
750	0.0409146
762	0.0316078
774	0.0313737
786	0.046124
798	0.0346515
810	0.018672
822	0.0217743
834	0.0198427
846	0.0122334
858	0.0107701
870	0.0180867
882	0.0153356
894	0.0156283
906	0.0227108
918	0.016799
930	0.0159795
942	0.0266325
954	0.0688348
966	0.0388074
978	0.00971648
990	0.0055021
1002	0.00807755
1014	0.0172087
1026	0.0362319
1038	0.0280958
1050	0.0275105
1062	0.0216572
1074	0.0262228
1086	0.0320176
1098	0.0271008
1110	0.0310225
1122	0.0245839
1134	0.0271008
1146	0.0336565
1158	0.0584745
1170	0.078961
1182	0.0982769
1194	0.220728
1206	0.313269
1218	0.14961
1230	0.0714688
1242	0.051509
1254	0.0551966
1266	0.0549625
1278	0.0410902
1290	0.0428462
1302	0.0522114
1314	0.0320761
1326	0.0207207
1338	0.031842
1350	0.0495775
1362	0.0477629
1374	0.0657911
1386	0.0804829
1398	0.0516261
1410	0.0454216
1422	0.0494604
1434	0.0775562
1446	0.13445
1458	0.172146
1470	0.178409
1482	0.288099
1494	0.526563
1506	0.480556
1518	0.226815
1530	0.114081
1542	0.0679568
1554	0.0450119
1566	0.030203
1578	0.0252863
1590	0.0299689
1602	0.0476459
1614	0.0331882
1626	0.0172087
1638	0.019433
1650	0.0297348
1662	0.0474117
1674	0.0860435
1686	0.22781
1698	0.494721
1710	0.494194
1722	0.153591
1734	0.0750978
1746	0.0406804
1758	0.0259301
1770	0.0198427
1782	0.0166234
1794	0.0149844
1806	0.0103603
1818	0.00561917
1830	0.00368758
1842	0.00362905
1854	0.00438997
1866	0.00667276
1878	0.00684836
1890	0.00491677
1902	0.00298518
1914	0.00351198
1926	0.00591183
1938	0.00948235
1950	0.00872142
1962	0.00556063
1974	0.00263398
1986	0.00239985
1998	0.00245839
2010	0.00210719
2022	0.00163892
2034	0.00128773
2046	0.00117066
2058	0.00128773
2070	0.00193159
2082	0.00210719
2094	0.00216572
2106	0.00175599
2118	0.00146332
2130	0.00140479
2142	0.000995061
2154	0.000877995
2166	0.00105359
2178	0.00128773
2190	0.000877995
2202	0.000995061
2214	0.000995061
2226	0.000760929
2238	0.00158039
2250	0.00193159
2262	0.00269252
2274	0.00351198
2286	0.00386318
2298	0.00474117
2310	0.00667276
2322	0.00538504
2334	0.00415584
2346	0.00591183
2358	0.00327785
2370	0.00380464
2382	0.00374611
2394	0.00058533
2406	0.000468264
2418	0.000468264
2430	0.00105359
2442	0.00210719
2454	0.00175599
2466	0.00111213
2478	0.00134626
2490	0.00128773
2502	0.000819462
2514	0.00058533
2526	0.00058533
2538	0.000760929
2550	0.000760929
2562	0.000995061
2574	0.00134626
2586	0.00169746
2598	0.00169746
2610	0.00193159
2622	0.00128773
2634	0.00169746
2646	0.00181452
2658	0.00199012
2670	0.00222425
2682	0.00263398
2694	0.00310225
2706	0.00333638
2718	0.00321931
2730	0.00345345
2742	0.00386318
2754	0.00438997
2766	0.00403878
2778	0.0049753
2790	0.00520944
2802	0.00690689
2814	0.00731662
2826	0.00901408
2838	0.0114139
2850	0.0163307
2862	0.0246424
2874	0.0410316
2886	0.0601719
2898	0.0580062
2910	0.0601719
2922	0.0732248
2934	0.0999744
2946	0.107291
2958	0.0863947
2970	0.114373
2982	0.14645
2994	0.0937699
3006	0.0858679
3018	0.138489
3030	0.162488
3042	0.0977501
3054	0.0685421
3066	0.106179
3078	0.102667
3090	0.0821218
3102	0.0455972
3114	0.0214816
3126	0.0112969
3138	0.00614596
3150	0.00573623
3162	0.0049753
3174	0.00427291
3186	0.00298518
3198	0.00257545
3210	0.00257545
3222	0.00228279
3234	0.00204865
3246	0.00152186
3258	0.00134626
3270	0.00134626
3282	0.00175599
3294	0.00163892
3306	0.00152186
3318	0.00163892
3330	0.00228279
3342	0.00204865
3354	0.00216572
3366	0.00368758
3378	0.00479971
3390	0.00702396
3402	0.00737516
3414	0.00872142
3426	0.0155698
3438	0.0234132
3450	0.0341247
3462	0.0506896
3474	0.0410316
3486	0.0170331
3498	0.00831169
3510	0.00538504
3522	0.00427291
3534	0.00275105
3546	0.00245839
3558	0.00181452
3570	0.00321931
3582	0.00193159
3594	0.00181452
3606	0.00117066
3618	0.00193159
3630	0.00392171
3642	0.00204865
3654	0.00251692
3666	0.00193159
3678	0.00357051
3690	0.00199012
3702	0.00245839
3714	0.00280958
3726	0.00245839
3738	0.00269252
3750	0.00210719
3762	0.00199012
3774	0.00245839
3786	0.00216572
3798	0.00269252
3810	0.00269252
3822	0.00339491
3834	0.00245839
3846	0.00257545
3858	0.00263398
3870	0.00345345
3882	0.00228279
3894	0.00204865
3906	0.00275105
3918	0.00409731
3930	0.00251692
3942	0.00257545
3954	0.00310225
3966	0.00210719
