Infrared Spectrum: Isopropyl-4-hydroxybenzoate
Formula: C 10 H 12 O 3
CAS: 4191-73-5
Origin: Sadtler Research Labs Under US-EPA Contract
1/CM	ABSORBANCE
450	0.00196008
462	0.00845928
474	0.0126889
486	0.0134111
498	0.0209419
510	0.0265126
522	0.0175375
534	0.0139269
546	0.0167122
558	0.0196008
570	0.0213545
582	0.0173312
594	0.0171249
606	0.0371383
618	0.0725229
630	0.0206324
642	0.0200134
654	0.0153711
666	0.015268
678	0.0194976
690	0.0315676
702	0.0236241
714	0.01207
726	0.00990355
738	0.0112447
750	0.0198071
762	0.0557075
774	0.0718008
786	0.0340435
798	0.0322897
810	0.0393047
822	0.0221798
834	0.0319802
846	0.0687059
858	0.073864
870	0.0238304
882	0.0128953
894	0.0134111
906	0.0193945
918	0.0452881
930	0.029298
942	0.00980039
954	0.0109352
966	0.00969723
978	0.00990355
990	0.0116573
1002	0.0172281
1014	0.0409553
1026	0.0153711
1038	0.0128953
1050	0.017847
1062	0.0309486
1074	0.0643731
1086	0.186207
1098	0.435344
1110	0.517976
1122	0.251199
1134	0.140816
1146	0.152267
1158	0.348894
1170	0.455563
1182	0.212823
1194	0.271007
1206	0.0698407
1218	0.0633415
1230	0.0666427
1242	0.0979007
1254	0.323619
1266	0.979833
1278	0.698716
1290	0.142776
1302	0.0974881
1314	0.0863466
1326	0.0857276
1338	0.059215
1350	0.0644762
1362	0.0729355
1374	0.0752051
1386	0.0673648
1398	0.029298
1410	0.0162996
1422	0.0306391
1434	0.0663332
1446	0.0251715
1458	0.0281632
1470	0.0378605
1482	0.0252747
1494	0.0208387
1506	0.0912984
1518	0.091711
1530	0.0176407
1542	0.0110383
1554	0.0121731
1566	0.0198071
1578	0.0302265
1590	0.0956312
1602	0.16444
1614	0.232218
1626	0.0791253
1638	0.021664
1650	0.0118636
1662	0.0117605
1674	0.0117605
1686	0.0175375
1698	0.025481
1710	0.0613814
1722	0.209316
1734	0.488059
1746	0.248208
1758	0.043947
1770	0.0148553
1782	0.010213
1794	0.00701502
1806	0.00546759
1818	0.00495178
1830	0.00340435
1842	0.00175375
1854	0.00185692
1866	0.00144427
1878	0.00257905
1890	0.0043328
1902	0.0051581
1914	0.00588023
1926	0.00546759
1938	0.00495178
1950	0.00443597
1962	0.00402332
1974	0.0029917
1986	0.00226956
1998	0.00247589
2010	0.00237273
2022	0.00330118
2034	0.00278537
2046	0.00175375
2058	0.00288854
2070	0.00371383
2082	0.00226956
2094	0.00206324
2106	0.00278537
2118	0.00350751
2130	0.00330118
2142	0.00103162
2154	0.000206324
2166	0.000412648
2178	0.000206324
2190	0.00051581
2202	0.00103162
2214	0.000928458
2226	0.00103162
2238	0.00103162
2250	0.000722134
2262	0.00103162
2274	0.00144427
2286	0.00206324
2298	0.00381699
2310	0.00557075
2322	0.00557075
2334	0.00495178
2346	0.00588023
2358	0.00526126
2370	0.00505494
2382	0.0051581
2394	0.00268221
2406	0.00278537
2418	0.00350751
2430	0.0043328
2442	0.00381699
2454	0.00443597
2466	0.00309486
2478	0.00237273
2490	0.00206324
2502	0.0021664
2514	0.00361067
2526	0.00464229
2538	0.00288854
2550	0.00206324
2562	0.00185692
2574	0.00226956
2586	0.00237273
2598	0.00237273
2610	0.00226956
2622	0.00257905
2634	0.00247589
2646	0.00237273
2658	0.00226956
2670	0.0021664
2682	0.00175375
2694	0.0021664
2706	0.00226956
2718	0.00185692
2730	0.00226956
2742	0.00330118
2754	0.00330118
2766	0.00350751
2778	0.00402332
2790	0.00330118
2802	0.00319802
2814	0.00381699
2826	0.00443597
2838	0.0051581
2850	0.00557075
2862	0.00773715
2874	0.0148553
2886	0.0236241
2898	0.0215609
2910	0.0207356
2922	0.0235209
2934	0.039511
2946	0.0556043
2958	0.0359004
2970	0.0388921
2982	0.144014
2994	0.120081
3006	0.040749
3018	0.0249652
3030	0.0200134
3042	0.0278537
3054	0.0164028
3066	0.0118636
3078	0.0209419
3090	0.01403
3102	0.00835612
3114	0.00763399
3126	0.00660237
3138	0.00495178
3150	0.0043328
3162	0.00443597
3174	0.00443597
3186	0.00495178
3198	0.00484861
3210	0.00422964
3222	0.00340435
3234	0.00319802
3246	0.00309486
3258	0.00319802
3270	0.00288854
3282	0.00288854
3294	0.00350751
3306	0.00392016
3318	0.00484861
3330	0.00495178
3342	0.00546759
3354	0.00536442
3366	0.00474545
3378	0.00474545
3390	0.00443597
3402	0.00464229
3414	0.00443597
3426	0.00422964
3438	0.00588023
3450	0.00618972
3462	0.0043328
3474	0.00288854
3486	0.00257905
3498	0.00268221
3510	0.00319802
3522	0.00278537
3534	0.00309486
3546	0.00144427
3558	0.00185692
3570	0.000928458
3582	0.00392016
3594	0.00453913
3606	0.00412648
3618	0.00464229
3630	0.01207
3642	0.117502
3654	0.153196
3666	0.0158869
3678	0.00278537
3690	0.00113478
3702	0.00484861
3714	0.000412648
3726	0.00134111
3738	0.000309486
3750	0.000103162
3762	0.00206324
3774	0.00278537
3786	0.00206324
3798	0.00144427
3810	0.00175375
3822	0.000825296
3834	0.00134111
3846	0.00185692
3858	0.000206324
3870	0.00144427
3882	0.000618972
3894	0.00237273
3906	0.00103162
3918	0.0021664
3930	0.00278537
3942	0.00288854
3954	0.00237273
3966	0.00226956
