Infrared Spectrum: Phosphonic acid, methoxymethyl-, dimethyl ester
Formula: C 4 H 11 O 4 P
CAS: 42029-30-1
Origin: Sadtler Research Labs Under US-EPA Contract
1/CM	ABSORBANCE
450	0
462	0.0768694
474	0.0723374
486	0.0360815
498	0.0414851
510	0.0751263
522	0.116611
534	0.230434
546	0.234966
558	0.115391
570	0.0489803
582	0.0392191
594	0.0263204
606	0.0275405
618	0.0320725
630	0.0238801
642	0.0399163
654	0.0320725
666	0.0301551
678	0.0345128
690	0.0470629
702	0.048283
714	0.061879
726	0.0719888
738	0.0571727
750	0.0489803
762	0.0594387
774	0.103538
786	0.242461
798	0.390971
810	0.312881
822	0.29423
834	0.253442
846	0.180408
858	0.124107
870	0.134565
882	0.267736
894	0.280983
906	0.134042
918	0.0763465
930	0.0725117
942	0.0693742
954	0.0827958
966	0.0793097
978	0.0679797
990	0.0735576
1002	0.0995293
1014	0.158619
1026	0.347917
1038	1.06763
1050	1.74307
1062	1.4722
1074	1.16263
1086	0.543664
1098	0.328917
1110	0.389402
1122	0.436116
1134	0.331881
1146	0.196444
1158	0.15583
1170	0.175004
1182	0.275754
1194	0.304863
1206	0.184591
1218	0.126547
1230	0.113474
1242	0.127244
1254	0.22259
1266	0.406135
1278	0.598396
1290	0.552553
1302	0.258323
1314	0.138574
1326	0.108768
1338	0.0831444
1350	0.0587415
1362	0.046017
1374	0.0451455
1386	0.0453198
1398	0.0463657
1410	0.0529893
1422	0.0746034
1434	0.0744291
1446	0.0831444
1458	0.112254
1470	0.104584
1482	0.0786125
1494	0.0561269
1506	0.0474115
1518	0.0458427
1530	0.0440997
1542	0.0475858
1554	0.0444483
1566	0.0381732
1578	0.0362559
1590	0.0350357
1602	0.0343385
1614	0.0310266
1626	0.0280634
1638	0.0287607
1650	0.0296322
1662	0.0242287
1674	0.0245773
1686	0.0264947
1698	0.0254488
1710	0.0245773
1722	0.0277148
1734	0.030678
1746	0.0346871
1758	0.0390448
1770	0.0413108
1782	0.0336413
1794	0.0334669
1806	0.0315496
1818	0.0296322
1830	0.0308523
1842	0.0327697
1854	0.0346871
1866	0.0350357
1878	0.0336413
1890	0.0325954
1902	0.0310266
1914	0.0285863
1926	0.0275405
1938	0.0270176
1950	0.0275405
1962	0.0271919
1974	0.0268433
1986	0.0273662
1998	0.0271919
2010	0.0278891
2022	0.0291093
2034	0.0305037
2046	0.0305037
2058	0.0303294
2070	0.0310266
2082	0.0317239
2094	0.031201
2106	0.0310266
2118	0.0296322
2130	0.0278891
2142	0.0261461
2154	0.0252745
2166	0.0242287
2178	0.0242287
2190	0.0238801
2202	0.0237058
2214	0.0233571
2226	0.0242287
2238	0.0240544
2250	0.0242287
2262	0.0238801
2274	0.0233571
2286	0.0237058
2298	0.0231828
2310	0.0230085
2322	0.0226599
2334	0.0226599
2346	0.0226599
2358	0.0235314
2370	0.0230085
2382	0.0237058
2394	0.0233571
2406	0.0233571
2418	0.0231828
2430	0.0230085
2442	0.0231828
2454	0.0226599
2466	0.0231828
2478	0.0230085
2490	0.0233571
2502	0.0231828
2514	0.0235314
2526	0.0235314
2538	0.0238801
2550	0.0240544
2562	0.0240544
2574	0.0242287
2586	0.024403
2598	0.0259717
2610	0.0257974
2622	0.0259717
2634	0.0264947
2646	0.026669
2658	0.0268433
2670	0.0261461
2682	0.0251002
2694	0.0249259
2706	0.0254488
2718	0.0259717
2730	0.0271919
2742	0.0275405
2754	0.0282377
2766	0.0301551
2778	0.032944
2790	0.0376503
2802	0.0472372
2814	0.0709429
2826	0.146592
2838	0.176922
2850	0.144849
2862	0.199407
2874	0.177096
2886	0.17361
2898	0.183022
2910	0.185986
2922	0.196967
2934	0.214572
2946	0.240544
2958	0.366916
2970	0.351752
2982	0.185986
2994	0.198361
3006	0.20115
3018	0.140491
3030	0.104759
3042	0.0791354
3054	0.0697228
3066	0.0674568
3078	0.0622276
3090	0.0549067
3102	0.0467143
3114	0.0407878
3126	0.037476
3138	0.0324211
3150	0.030678
3162	0.0278891
3174	0.0275405
3186	0.0270176
3198	0.0263204
3210	0.0263204
3222	0.0254488
3234	0.0256231
3246	0.0257974
3258	0.0252745
3270	0.0251002
3282	0.0257974
3294	0.0249259
3306	0.0251002
3318	0.0251002
3330	0.0252745
3342	0.0251002
3354	0.0252745
3366	0.0251002
3378	0.0242287
3390	0.024403
3402	0.0252745
3414	0.0247516
3426	0.0249259
3438	0.0252745
3450	0.024403
3462	0.0252745
3474	0.0249259
3486	0.0245773
3498	0.0254488
3510	0.0242287
3522	0.0242287
3534	0.0249259
3546	0.0252745
3558	0.0242287
3570	0.0254488
3582	0.0233571
3594	0.0256231
3606	0.0249259
3618	0.0242287
3630	0.0257974
3642	0.0235314
3654	0.0273662
3666	0.0231828
3678	0.0261461
3690	0.0259717
3702	0.024403
3714	0.0268433
3726	0.0247516
3738	0.0252745
3750	0.0271919
3762	0.0238801
3774	0.0242287
3786	0.0238801
3798	0.024403
3810	0.0226599
3822	0.0275405
3834	0.0257974
3846	0.0238801
3858	0.0277148
3870	0.0257974
3882	0.0242287
3894	0.026669
3906	0.0287607
3918	0.0261461
3930	0.0226599
3942	0.024403
3954	0.0263204
3966	0.0238801
