Infrared Spectrum: 3-Hexanol, 2,2-dimethyl-
Formula: C 8 H 18 O
CAS: 4209-90-9
Origin: Sadtler Research Labs Under US-EPA Contract
1/CM	ABSORBANCE
450	0.0703767
462	0.0225566
474	0.0102858
486	0.0110076
498	0.0156994
510	0.0133535
522	0.0187671
534	0.021113
546	0.0158799
558	0.0333838
570	0.028692
582	0.0102858
594	0.0120904
606	0.00703767
618	0.00649631
630	0.0104663
642	0.00757903
654	0.00974446
666	0.0106467
678	0.00378951
690	0.00902265
702	0.00848129
714	0.00685721
726	0.0129926
738	0.0133535
750	0.0160603
762	0.0185867
774	0.0164212
786	0.0153385
798	0.0117294
810	0.0111881
822	0.0147971
834	0.0304966
846	0.0519705
858	0.0489028
870	0.0377147
882	0.0631585
894	0.0837302
906	0.0514291
918	0.0341056
930	0.0393388
942	0.0396997
954	0.0548577
966	0.11549
978	0.191641
990	0.218529
1002	0.208243
1014	0.128122
1026	0.0819257
1038	0.0887829
1050	0.106287
1062	0.147791
1074	0.173957
1086	0.158618
1098	0.176303
1110	0.227732
1122	0.163671
1134	0.0821061
1146	0.0638804
1158	0.0734444
1170	0.0923919
1182	0.102678
1194	0.114046
1206	0.122528
1218	0.113144
1230	0.101775
1242	0.104121
1254	0.102678
1266	0.109174
1278	0.112242
1290	0.0925724
1302	0.0707376
1314	0.0581059
1326	0.0519705
1338	0.061354
1350	0.0945574
1362	0.212032
1374	0.294319
1386	0.192182
1398	0.192724
1410	0.120362
1422	0.0523314
1434	0.0553991
1446	0.0846325
1458	0.153385
1470	0.227371
1482	0.238198
1494	0.119099
1506	0.0360906
1518	0.0203912
1530	0.0137144
1542	0.0137144
1554	0.0102858
1566	0.00721812
1578	0.00812038
1590	0.0057745
1602	0.00523314
1614	0.00631585
1626	0.00505268
1638	0.00703767
1650	0.00469178
1662	0.00451133
1674	0.00631585
1686	0.0101054
1698	0.0128122
1710	0.0198498
1722	0.025083
1734	0.0156994
1746	0.0113685
1758	0.0104663
1770	0.0140753
1782	0.0129926
1794	0.0117294
1806	0.00757903
1818	0.00415042
1830	0.00324815
1842	0.00288725
1854	0.00180453
1866	0.00252634
1878	0.00144362
1890	0.00144362
1902	0.00180453
1914	0.00144362
1926	0.00144362
1938	0.00252634
1950	0.00234589
1962	0.0030677
1974	0.00288725
1986	0.00198498
1998	0.00234589
2010	0.00180453
2022	0.00144362
2034	0.00198498
2046	0.00216544
2058	0.00198498
2070	0.00162408
2082	0.00108272
2094	0.00180453
2106	0.00180453
2118	0.00180453
2130	0.00252634
2142	0.00198498
2154	0.00180453
2166	0.00234589
2178	0.00180453
2190	0.00162408
2202	0.00162408
2214	0.00144362
2226	0.00162408
2238	0.00180453
2250	0.00144362
2262	0.00234589
2274	0.00180453
2286	0.00288725
2298	0.00378951
2310	0.00342861
2322	0.0030677
2334	0.00162408
2346	0.00162408
2358	0.00270679
2370	0.00144362
2382	0.00288725
2394	0.00451133
2406	0.00487223
2418	0.00433087
2430	0.00433087
2442	0.00324815
2454	0.0030677
2466	0.0030677
2478	0.00270679
2490	0.00342861
2502	0.00270679
2514	0.00234589
2526	0.00360906
2538	0.00415042
2550	0.00505268
2562	0.00631585
2574	0.00721812
2586	0.00848129
2598	0.00830084
2610	0.00830084
2622	0.0108272
2634	0.0120904
2646	0.0142558
2658	0.0187671
2670	0.0200303
2682	0.0193085
2694	0.0194889
2706	0.0198498
2718	0.0240002
2730	0.0281507
2742	0.0297747
2754	0.0301357
2766	0.0277898
2778	0.0277898
2790	0.0344665
2802	0.0424065
2814	0.0543164
2826	0.0720007
2838	0.113685
2850	0.204995
2862	0.347913
2874	0.587375
2886	0.668939
2898	0.486682
2910	0.490291
2922	0.6056
2934	0.743105
2946	1.03327
2958	1.46438
2970	1.76429
2982	0.973183
2994	0.292334
3006	0.106467
3018	0.0642413
3030	0.0494441
3042	0.0371733
3054	0.0299552
3066	0.0232784
3078	0.0187671
3090	0.0178648
3102	0.015519
3114	0.0158799
3126	0.0144362
3138	0.0153385
3150	0.0167821
3162	0.0167821
3174	0.0176844
3186	0.0185867
3198	0.0176844
3210	0.0158799
3222	0.0126317
3234	0.0092031
3246	0.00812038
3258	0.0061354
3270	0.00505268
3282	0.00487223
3294	0.0030677
3306	0.00324815
3318	0.00396997
3330	0.00342861
3342	0.0030677
3354	0.00451133
3366	0.00487223
3378	0.00180453
3390	0.00324815
3402	0.00360906
3414	0.00487223
3426	0.00415042
3438	0.00415042
3450	0.00595495
3462	0.00360906
3474	0.00396997
3486	0.00469178
3498	0.0030677
3510	0.00415042
3522	0.00324815
3534	0.00108272
3546	0.00162408
3558	0.00288725
3570	0.00378951
3582	0.00649631
3594	0.00342861
3606	0.00433087
3618	0.00721812
3630	0.0169626
3642	0.0310379
3654	0.0622563
3666	0.0963619
3678	0.057745
3690	0.0176844
3702	0.00649631
3714	0.00559404
3726	0.00234589
3738	0.00342861
3750	0.00469178
3762	0.00288725
3774	0.00469178
3786	0.00216544
3798	0.00342861
3810	0.00775948
3822	0.00667676
3834	0.00793993
3846	0.00505268
3858	0.00848129
3870	0.00396997
3882	0.00956401
3894	0.0057745
3906	0.0057745
3918	0.0061354
3930	0.00541359
3942	0.00974446
3954	0.00433087
3966	0.00523314
