Infrared Spectrum: 3-Hexanol, 3,5-dimethyl-
Formula: C 8 H 18 O
CAS: 4209-91-0
Origin: Sadtler Research Labs Under US-EPA Contract
1/CM	ABSORBANCE
450	0.00559056
462	0.00747737
474	0.00768702
486	0.00649903
498	0.00593997
510	0.00559056
522	0.00440257
534	0.00573032
546	0.00202658
558	0.0034941
570	0.0050315
582	0.00531103
594	0.00580021
606	0.00482186
618	0.00496162
630	0.00496162
642	0.00517127
654	0.0054508
666	0.00587009
678	0.00587009
690	0.00587009
702	0.00559056
714	0.00677855
726	0.00887501
738	0.0134173
750	0.0142559
762	0.00950395
774	0.00810631
786	0.0111811
798	0.00999313
810	0.00880513
822	0.0110414
834	0.0120896
846	0.0174006
858	0.027254
870	0.0250876
882	0.0163524
894	0.0235502
906	0.0536694
918	0.0974155
930	0.0755424
942	0.0336831
954	0.0243189
966	0.0373869
978	0.0427678
990	0.0480788
1002	0.0599588
1014	0.0511536
1026	0.0382255
1038	0.036688
1050	0.0381556
1062	0.0331241
1074	0.0372471
1086	0.0397629
1098	0.0433967
1110	0.0461221
1122	0.0589804
1134	0.0812728
1146	0.0986734
1158	0.125438
1170	0.151295
1182	0.111462
1194	0.0665277
1206	0.0449341
1218	0.0387146
1230	0.0421388
1242	0.0492668
1254	0.051503
1266	0.0519223
1278	0.0520621
1290	0.0524814
1302	0.0524814
1314	0.0494066
1326	0.0464016
1338	0.0466113
1350	0.0614263
1362	0.098883
1374	0.143468
1386	0.139834
1398	0.0764509
1410	0.0331241
1422	0.0253672
1434	0.032006
1446	0.0546477
1458	0.0978348
1470	0.12418
1482	0.0754726
1494	0.0271841
1506	0.0129981
1518	0.00887501
1530	0.00677855
1542	0.00552068
1554	0.00573032
1566	0.00538091
1578	0.00482186
1590	0.00482186
1602	0.00440257
1614	0.00433268
1626	0.00356398
1638	0.00363386
1650	0.00342422
1662	0.00363386
1674	0.0034941
1686	0.00314469
1698	0.00335434
1710	0.00321457
1722	0.00251575
1734	0.00258563
1746	0.00237599
1758	0.0019567
1770	0.00216634
1782	0.00174705
1794	0.00188681
1806	0.00139764
1818	0.0015374
1830	0.00125788
1842	0.00167717
1854	0.00132776
1866	0.00125788
1878	0.00132776
1890	0.00125788
1902	0.00118799
1914	0.000768702
1926	0.00069882
1938	0.00069882
1950	0.00069882
1962	0.000628938
1974	0.000628938
1986	0.000419292
1998	0.000559056
2010	0.000139764
2022	0.000419292
2034	0.000559056
2046	0.000419292
2058	0.000489174
2070	0.000489174
2082	0.000419292
2094	0.00034941
2106	0.000559056
2118	0.00034941
2130	0.000838584
2142	0.000209646
2154	0.000768702
2166	0.00069882
2178	0.00111811
2190	0.00104823
2202	0.00111811
2214	0.000978348
2226	0.000978348
2238	0.000489174
2250	0.000908466
2262	0.000489174
2274	0.000419292
2286	0.000978348
2298	0.000908466
2310	0.00139764
2322	0.00139764
2334	0.00139764
2346	0.000489174
2358	0.000908466
2370	0.000908466
2382	0.000978348
2394	0.00146752
2406	0.00139764
2418	0.00139764
2430	0.00202658
2442	0.00139764
2454	0.00146752
2466	0.00146752
2478	0.00104823
2490	0.000628938
2502	0.000489174
2514	0.000489174
2526	0.00104823
2538	0.00146752
2550	0.00139764
2562	0.00146752
2574	0.0019567
2586	0.00237599
2598	0.00293504
2610	0.00342422
2622	0.00391339
2634	0.00440257
2646	0.00461221
2658	0.00433268
2670	0.00384351
2682	0.00391339
2694	0.00482186
2706	0.00628938
2718	0.0097136
2730	0.0128583
2742	0.0128583
2754	0.0118101
2766	0.0117402
2778	0.0128583
2790	0.0143258
2802	0.0173307
2814	0.02369
2826	0.0321457
2838	0.0468209
2850	0.0740749
2862	0.11244
2874	0.195949
2886	0.259612
2898	0.248361
2910	0.29029
2922	0.374428
2934	0.430613
2946	0.439698
2958	0.563109
2970	0.69882
2982	0.511327
2994	0.223972
3006	0.074634
3018	0.0308878
3030	0.0192176
3042	0.014815
3054	0.0133475
3066	0.0122992
3078	0.0118101
3090	0.0104823
3102	0.00929431
3114	0.00887501
3126	0.00796655
3138	0.00796655
3150	0.00817619
3162	0.00831596
3174	0.00887501
3186	0.00943407
3198	0.0085256
3210	0.00740749
3222	0.00531103
3234	0.00398327
3246	0.00363386
3258	0.00293504
3270	0.00300493
3282	0.00244587
3294	0.00230611
3306	0.00188681
3318	0.0015374
3330	0.00188681
3342	0.000978348
3354	0.00167717
3366	0.00244587
3378	0.00244587
3390	0.00188681
3402	0.00216634
3414	0.00279528
3426	0.00209646
3438	0.00244587
3450	0.00230611
3462	0.00139764
3474	0.00230611
3486	0.00237599
3498	0.00181693
3510	0.00160729
3522	0.00181693
3534	0.000978348
3546	0.00132776
3558	0.00104823
3570	0.0015374
3582	0.000559056
3594	0.00132776
3606	0.00279528
3618	0.00733761
3630	0.0222924
3642	0.034941
3654	0.0228514
3666	0.00915454
3678	0.0034941
3690	0.00118799
3702	0.00181693
3714	0.00139764
3726	6.9882e-05
3738	0.00111811
3750	0
3762	0
3774	0
3786	0
3798	0
3810	0
3822	0
3834	0.00069882
3846	0.000768702
3858	0.00132776
3870	0.000838584
3882	0.00132776
3894	0.000209646
3906	6.9882e-05
3918	0.000209646
3930	0.000838584
3942	0.000908466
3954	0.00111811
3966	0.00034941
