Infrared Spectrum: 2-Pyridinamine, 3-nitro-
Formula: C 5 H 5 N 3 O 2
CAS: 4214-75-9
Origin: Sadtler Research Labs Under US-EPA Contract
1/CM	ABSORBANCE
450	0.0353098
462	0.0378735
474	0.0348437
486	0.0266863
498	0.0179462
510	0.018995
522	0.0278516
534	0.0409034
546	0.0322799
558	0.0174801
570	0.00967232
582	0.00804085
594	0.000932272
606	0.00314642
618	0.00361255
630	0.00431176
642	0.0101385
654	0.0163148
666	0.0262202
678	0.0358925
690	0.0282012
702	0.0277351
714	0.0421853
726	0.0510419
738	0.0559363
750	0.131683
762	0.276885
774	0.151727
786	0.0677063
798	0.0651425
810	0.0827391
822	0.12341
834	0.120496
846	0.0698039
858	0.0569851
870	0.0574513
882	0.0668905
894	0.0894981
906	0.0621126
918	0.0242391
930	0.0214423
942	0.018995
954	0.0188785
966	0.0195777
978	0.0175966
990	0.0160817
1002	0.0177132
1014	0.0228407
1026	0.0266863
1038	0.0188785
1050	0.0142171
1062	0.0221415
1074	0.0371743
1086	0.0406704
1098	0.0328626
1110	0.0297162
1122	0.0262202
1134	0.0243556
1146	0.0664244
1158	0.0646764
1170	0.0322799
1182	0.0374074
1194	0.0397381
1206	0.0511584
1218	0.0722511
1230	0.114436
1242	0.294481
1254	0.482334
1266	0.294481
1278	0.066774
1290	0.0513915
1302	0.0569851
1314	0.126789
1326	0.207664
1338	0.264649
1350	0.390156
1362	0.222696
1374	0.0376405
1386	0.0277351
1398	0.0273855
1410	0.0213257
1422	0.024006
1434	0.0849533
1446	0.359158
1458	0.334919
1470	0.0913627
1482	0.0506923
1494	0.0708527
1506	0.211276
1518	0.511934
1530	0.514148
1542	0.195194
1554	0.135529
1566	0.309514
1578	0.387592
1590	0.225493
1602	0.400178
1614	1.00138
1626	1.16534
1638	0.578941
1650	0.215821
1662	0.073766
1674	0.0287839
1686	0.0168974
1698	0.0116534
1710	0.0117699
1722	0.0145668
1734	0.0104881
1746	0.00594323
1758	0.0061763
1770	0.0051275
1782	0.00454483
1794	0.00396216
1806	0.00337949
1818	0.00361255
1830	0.00268028
1842	0.000932272
1854	0.00128187
1866	0.000699204
1878	0.00116534
1890	0.00174801
1902	0.00407869
1914	0.00804085
1926	0.0129353
1938	0.0113038
1950	0.00536056
1962	0.00256375
1974	0.00198108
1986	0.00268028
1998	0.00302988
2010	0.00314642
2022	0.00268028
2034	0.00186454
2046	0.00128187
2058	0.00139841
2070	0.00139841
2082	0.00209761
2094	0.00279682
2106	0.00279682
2118	0.00337949
2130	0.00337949
2142	0.00256375
2154	0.00302988
2166	0.00279682
2178	0.00268028
2190	0.00314642
2202	0.00291335
2214	0.00337949
2226	0.00454483
2238	0.00559363
2250	0.00699204
2262	0.00699204
2274	0.00524403
2286	0.00454483
2298	0.00501096
2310	0.00536056
2322	0.00559363
2334	0.00431176
2346	0.00687551
2358	0.00419522
2370	0.00314642
2382	0.00489443
2394	0.00233068
2406	0.00279682
2418	0.00372909
2430	0.00524403
2442	0.0061763
2454	0.00664244
2466	0.00571017
2478	0.00314642
2490	0.00221415
2502	0.00291335
2514	0.00291335
2526	0.00372909
2538	0.00372909
2550	0.00244721
2562	0.00244721
2574	0.00233068
2586	0.00268028
2598	0.00221415
2610	0.00186454
2622	0.00174801
2634	0.00233068
2646	0.00209761
2658	0.00209761
2670	0.00209761
2682	0.00268028
2694	0.00372909
2706	0.00326295
2718	0.00209761
2730	0.00139841
2742	0.00116534
2754	0.00174801
2766	0.00291335
2778	0.00384562
2790	0.00372909
2802	0.00407869
2814	0.00361255
2826	0.00372909
2838	0.00477789
2850	0.00699204
2862	0.00990539
2874	0.0103715
2886	0.00850698
2898	0.00815738
2910	0.00815738
2922	0.00780778
2934	0.00757471
2946	0.00710857
2958	0.00990539
2970	0.010255
2982	0.0058267
2994	0.00442829
3006	0.00745818
3018	0.015499
3030	0.0251713
3042	0.0314642
3054	0.0322799
3066	0.0252879
3078	0.0249383
3090	0.0308815
3102	0.0216753
3114	0.0058267
3126	0.00326295
3138	0.00372909
3150	0.00384562
3162	0.00314642
3174	0.00256375
3186	0.00314642
3198	0.00337949
3210	0.00233068
3222	0.00139841
3234	0.00151494
3246	0.00209761
3258	0.00186454
3270	0.00186454
3282	0.00116534
3294	0.00163148
3306	0.00244721
3318	0.00198108
3330	0.00244721
3342	0.00221415
3354	0.00279682
3366	0.00454483
3378	0.00722511
3390	0.0227241
3402	0.0743487
3414	0.172237
3426	0.17282
3438	0.0645598
3450	0.0135179
3462	0.00792431
3474	0.00943925
3486	0.013751
3498	0.0252879
3510	0.0467301
3522	0.0976555
3534	0.175267
3546	0.199739
3558	0.103133
3570	0.0182958
3582	0.00710857
3594	0.00501096
3606	0.00489443
3618	0.00431176
3630	0.00454483
3642	0.00489443
3654	0.00372909
3666	0.00419522
3678	0.00559363
3690	0.00477789
3702	0.0051275
3714	0.00489443
3726	0.00442829
3738	0.0051275
3750	0.00466136
3762	0.00477789
3774	0.00477789
3786	0.0051275
3798	0.0058267
3810	0.0054771
3822	0.0058267
3834	0.00477789
3846	0.00407869
3858	0.00454483
3870	0.00640937
3882	0.0051275
3894	0.00559363
3906	0.00594323
3918	0.00687551
3930	0.00757471
3942	0.00780778
3954	0.00664244
3966	0.00757471
