Infrared Spectrum: 2,2,3,3,3-Pentafluoro-1-propanol
Formula: C 3 H 3 F 5 O
CAS: 422-05-9
Origin: Sadtler Research Labs Under US-EPA Contract
1/CM	ABSORBANCE
450	0.017499
462	0.0203636
474	0.018184
486	0.0158176
498	0.0138871
510	0.0207995
522	0.0270269
534	0.029767
546	0.0197409
558	0.0171253
570	0.0196163
582	0.0207995
594	0.0200522
606	0.0173122
618	0.0221073
630	0.0198031
642	0.0211732
654	0.0236641
666	0.0140116
678	0.00703696
690	0.0102129
702	0.0249719
714	0.0293933
726	0.0411008
738	0.0389212
750	0.0221695
762	0.00890518
774	0.00902973
786	0.0151326
798	0.0158799
810	0.016814
822	0.00759743
834	0.013638
846	0.00610285
858	0.00261551
870	0.00460828
882	0.0120812
894	0.0120812
906	0.0146967
918	0.0170008
930	0.0176858
942	0.0167517
954	0.0108357
966	0.00902973
978	0.013638
990	0.0238509
1002	0.0413499
1014	0.0571053
1026	0.0488851
1038	0.038859
1050	0.0379871
1062	0.047951
1074	0.0788389
1086	0.10462
1098	0.0817035
1110	0.053867
1122	0.0617758
1134	0.116639
1146	0.166645
1158	0.149894
1170	0.11365
1182	0.145534
1194	0.267218
1206	0.561961
1218	0.478015
1230	0.29275
1242	0.382923
1254	0.325008
1266	0.141362
1278	0.0794616
1290	0.0588489
1302	0.0455223
1314	0.0404158
1326	0.0391703
1338	0.0447127
1350	0.0486983
1362	0.0382985
1374	0.0261551
1386	0.0174367
1398	0.0144476
1410	0.0123303
1422	0.00697469
1434	0.00473282
1446	0.00554239
1458	0.00865609
1470	0.0062274
1482	0.00217959
1494	0.00186822
1506	0.00261551
1518	0.0014323
1530	0.000373644
1542	0.00130775
1554	0.00137003
1566	0.00105866
1578	0.00149458
1590	0.000685014
1602	0.0014323
1614	0.000996384
1626	0.000373644
1638	0.00093411
1650	0.000124548
1662	0.000435918
1674	0.000498192
1686	0.00193049
1698	0.00124548
1710	0.000996384
1722	0.00130775
1734	0.00224186
1746	0.00118321
1758	0.00249096
1770	0.00504419
1782	0.00709924
1794	0.00828244
1806	0.00610285
1818	0.00274006
1830	0.00186822
1842	0.00105866
1854	0.00105866
1866	0.000809562
1878	0.00118321
1890	0.00105866
1902	0.00130775
1914	0.00124548
1926	0.00137003
1938	0.00149458
1950	0.00149458
1962	0.00161912
1974	0.00217959
1986	0.00217959
1998	0.0016814
2010	0.00180595
2022	0.00180595
2034	0.00199277
2046	0.00199277
2058	0.00211732
2070	0.00211732
2082	0.00224186
2094	0.00180595
2106	0.00230414
2118	0.00217959
2130	0.00224186
2142	0.00211732
2154	0.00274006
2166	0.00261551
2178	0.00224186
2190	0.00261551
2202	0.00217959
2214	0.00205504
2226	0.00211732
2238	0.00211732
2250	0.00205504
2262	0.00205504
2274	0.00205504
2286	0.00205504
2298	0.00217959
2310	0.00217959
2322	0.00174367
2334	0.00230414
2346	0.00373644
2358	0.00249096
2370	0.00510647
2382	0.00473282
2394	0.00361189
2406	0.00305143
2418	0.0031137
2430	0.0031137
2442	0.00317597
2454	0.00317597
2466	0.0031137
2478	0.00267778
2490	0.00267778
2502	0.00274006
2514	0.00267778
2526	0.00274006
2538	0.0028646
2550	0.00255323
2562	0.00280233
2574	0.00274006
2586	0.00280233
2598	0.00280233
2610	0.00280233
2622	0.00236641
2634	0.00230414
2646	0.00298915
2658	0.00236641
2670	0.00236641
2682	0.00236641
2694	0.00236641
2706	0.00236641
2718	0.00242869
2730	0.00249096
2742	0.00236641
2754	0.00298915
2766	0.00255323
2778	0.00249096
2790	0.00298915
2802	0.00298915
2814	0.00305143
2826	0.00398554
2838	0.00404781
2850	0.00510647
2862	0.00604058
2874	0.00641422
2886	0.00797107
2898	0.0100261
2910	0.00797107
2922	0.00628967
2934	0.00940337
2946	0.0149458
2958	0.0149458
2970	0.0122057
2982	0.0101507
2994	0.00865609
3006	0.00666332
3018	0.0047951
3030	0.00330052
3042	0.00280233
3054	0.00280233
3066	0.00280233
3078	0.0028646
3090	0.0028646
3102	0.00292688
3114	0.00292688
3126	0.00230414
3138	0.00292688
3150	0.00280233
3162	0.00298915
3174	0.00292688
3186	0.00292688
3198	0.00292688
3210	0.00305143
3222	0.00255323
3234	0.00261551
3246	0.00317597
3258	0.00292688
3270	0.00255323
3282	0.00274006
3294	0.0031137
3306	0.00317597
3318	0.0031137
3330	0.00317597
3342	0.00267778
3354	0.00298915
3366	0.00274006
3378	0.00267778
3390	0.00274006
3402	0.00323825
3414	0.00261551
3426	0.00267778
3438	0.00330052
3450	0.00323825
3462	0.00255323
3474	0.0031137
3486	0.00317597
3498	0.00274006
3510	0.00330052
3522	0.0028646
3534	0.0033628
3546	0.00317597
3558	0.00280233
3570	0.00398554
3582	0.00379871
3594	0.00280233
3606	0.0033628
3618	0.00448373
3630	0.00604058
3642	0.0124548
3654	0.0352471
3666	0.0321957
3678	0.0187445
3690	0.00815789
3702	0.00386099
3714	0.00417236
3726	0.00323825
3738	0.0033628
3750	0.00411008
3762	0.00379871
3774	0.0033628
3786	0.00217959
3798	0.00249096
3810	0.00274006
3822	0.00261551
3834	0.00379871
3846	0.00342507
3858	0.00361189
3870	0.00342507
3882	0.00348734
3894	0.00379871
3906	0.00386099
3918	0.00342507
3930	0.00305143
3942	0.00261551
3954	0.00330052
3966	0.00330052
