Infrared Spectrum: 1-Chloroeicosane
Formula: C 20 H 41 Cl
CAS: 42217-02-7
Origin: Sadtler Research Labs Under US-EPA Contract
1/CM	ABSORBANCE
450	0.0202333
462	0.00704252
474	0.00055893
486	0.00614823
498	0.00536573
510	0.00894288
522	0.00514216
534	0.00570109
546	0.00748966
558	0.00726609
570	0.0048068
582	0.0055893
594	0.00536573
606	0.00726609
618	0.0055893
630	0.0063718
642	0.00827216
654	0.019339
666	0.0152029
678	0.00681895
690	0.00693073
702	0.0148675
714	0.0305176
726	0.0370012
738	0.0326415
750	0.0233633
762	0.0166561
774	0.0096136
786	0.00760145
798	0.00603644
810	0.00693073
822	0.00514216
834	0.00458323
846	0.0055893
858	0.00357715
870	0.0040243
882	0.00413608
894	0.00447144
906	0.0048068
918	0.00447144
930	0.0048068
942	0.00413608
954	0.00424787
966	0.00458323
978	0.00435965
990	0.00413608
1002	0.00413608
1014	0.00458323
1026	0.0048068
1038	0.0048068
1050	0.00514216
1062	0.00525394
1074	0.00469501
1086	0.00435965
1098	0.00391251
1110	0.00391251
1122	0.0040243
1134	0.00313001
1146	0.00313001
1158	0.00391251
1170	0.00435965
1182	0.00458323
1194	0.00514216
1206	0.00614823
1218	0.00748966
1230	0.0096136
1242	0.0121847
1254	0.0164325
1266	0.0214629
1278	0.0273876
1290	0.0367776
1302	0.0397958
1314	0.0355479
1326	0.0262697
1338	0.0267169
1350	0.0367776
1362	0.0330887
1374	0.0253754
1386	0.0179975
1398	0.0122965
1410	0.0127436
1422	0.0176622
1434	0.0333122
1446	0.068972
1458	0.103514
1470	0.0772441
1482	0.0236986
1494	0.0107315
1506	0.00726609
1518	0.00491858
1530	0.00380072
1542	0.00279465
1554	0.00234751
1566	0.001565
1578	0.00167679
1590	0.000894288
1602	0.001565
1614	0.00145322
1626	0.00134143
1638	0.00134143
1650	0.00134143
1662	0.000782502
1674	0.00100607
1686	0.00111786
1698	0.00134143
1710	0.001565
1722	0.00201215
1734	0.00223572
1746	0.00190036
1758	0.00100607
1770	0.000782502
1782	0.000670716
1794	0.00055893
1806	0.000670716
1818	0.000670716
1830	0.000670716
1842	0.000670716
1854	0.000111786
1866	0.000223572
1878	0.000111786
1890	0.000223572
1902	0.000335358
1914	0.000447144
1926	0.000223572
1938	0.000447144
1950	0.000111786
1962	0.000335358
1974	0.000223572
1986	0.000223572
1998	0.00055893
2010	0.000782502
2022	0.00122965
2034	0.00167679
2046	0.00167679
2058	0.00122965
2070	0.00111786
2082	0.000894288
2094	0.000782502
2106	0.000782502
2118	0.000782502
2130	0.000894288
2142	0.000782502
2154	0.000782502
2166	0.000670716
2178	0.000894288
2190	0.000894288
2202	0.000782502
2214	0.00111786
2226	0.00100607
2238	0.00111786
2250	0.00134143
2262	0.00111786
2274	0.001565
2286	0.00190036
2298	0.00268286
2310	0.00380072
2322	0.00458323
2334	0.00335358
2346	0.00268286
2358	0.0040243
2370	0.00234751
2382	0.00223572
2394	0.00212393
2406	0.00245929
2418	0.00223572
2430	0.00234751
2442	0.00223572
2454	0.00223572
2466	0.00223572
2478	0.00234751
2490	0.00257108
2502	0.00335358
2514	0.00380072
2526	0.00413608
2538	0.00469501
2550	0.00514216
2562	0.00525394
2574	0.0055893
2586	0.00626002
2598	0.00704252
2610	0.00793681
2622	0.00883109
2634	0.0101725
2646	0.0112904
2658	0.0126318
2670	0.0141968
2682	0.0158736
2694	0.0149793
2706	0.0141968
2718	0.0141968
2730	0.0154265
2742	0.0167679
2754	0.017774
2766	0.019339
2778	0.0226926
2790	0.0288408
2802	0.0368894
2814	0.0482916
2826	0.0677423
2838	0.108209
2850	0.224802
2862	0.462459
2874	0.314789
2886	0.226255
2898	0.253754
2910	0.391139
2922	0.668368
2934	1.11786
2946	0.646347
2958	0.32295
2970	0.247382
2982	0.115251
2994	0.0748966
3006	0.0482916
3018	0.0278347
3030	0.0194508
3042	0.014085
3054	0.0103961
3066	0.00793681
3078	0.00614823
3090	0.00547751
3102	0.00469501
3114	0.00391251
3126	0.00313001
3138	0.00313001
3150	0.00290644
3162	0.00290644
3174	0.00212393
3186	0.00201215
3198	0.00178858
3210	0.00145322
3222	0.00111786
3234	0.00111786
3246	0.00100607
3258	0.000894288
3270	0.00100607
3282	0.00122965
3294	0.000447144
3306	0.000782502
3318	0.00111786
3330	0.00134143
3342	0.00178858
3354	0.00122965
3366	0.00145322
3378	0.00122965
3390	0.00178858
3402	0.00201215
3414	0.00122965
3426	0.00190036
3438	0.00122965
3450	0.00167679
3462	0.00134143
3474	0.00122965
3486	0.000782502
3498	0.00100607
3510	0.000894288
3522	0.001565
3534	0.00122965
3546	0.00122965
3558	0.00178858
3570	0.00178858
3582	0.001565
3594	0.00190036
3606	0.00257108
3618	0.00301822
3630	0.00368894
3642	0.00357715
3654	0.00279465
3666	0.00313001
3678	0.00301822
3690	0.00257108
3702	0.00257108
3714	0.00268286
3726	0.00290644
3738	0.00234751
3750	0.00301822
3762	0.00268286
3774	0.00313001
3786	0.00245929
3798	0.00346537
3810	0.00290644
3822	0.00268286
3834	0.00335358
3846	0.00234751
3858	0.00212393
3870	0.00301822
3882	0.00324179
3894	0.00313001
3906	0.00257108
3918	0.00290644
3930	0.00301822
3942	0.00279465
3954	0.00357715
3966	0.00268286
