Infrared Spectrum: Hexadecanoic acid, dodecyl ester
Formula: C 28 H 56 O 2
CAS: 42232-29-1
Origin: Sadtler Research Labs Under US-EPA Contract
1/CM	ABSORBANCE
450	0.00997528
462	0.00847899
474	0.00765959
486	0.00505889
498	0.00993965
510	0.00744583
522	0.00448888
534	0.0063058
546	0.00477388
558	0.00477388
570	0.00541515
582	0.00680457
594	0.00651956
606	0.00758834
618	0.00619892
630	0.00463138
642	0.00374073
654	0.00555766
666	0.00377636
678	0.004382
690	0.00830086
702	0.00879962
714	0.0131104
726	0.0159604
738	0.0114359
750	0.00858587
762	0.00737458
774	0.00605642
786	0.00755271
798	0.0109016
810	0.0180624
822	0.0157467
834	0.00765959
846	0.00733896
858	0.00619892
870	0.00655518
882	0.00559328
894	0.00545078
906	0.00527265
918	0.00470263
930	0.00502327
942	0.00573579
954	0.00840774
966	0.0110797
978	0.0128966
990	0.0175992
1002	0.025152
1014	0.0393667
1026	0.0505889
1038	0.0376211
1050	0.0283939
1062	0.0306027
1074	0.0367304
1086	0.0415399
1098	0.0383692
1110	0.0389392
1122	0.0370867
1134	0.0408986
1146	0.0593529
1158	0.0749927
1170	0.0788403
1182	0.0641981
1194	0.0521921
1206	0.0484157
1218	0.0497695
1230	0.0532965
1242	0.0549353
1254	0.0536528
1266	0.0552916
1278	0.0384048
1290	0.0317784
1302	0.0296765
1314	0.0270758
1326	0.0245463
1338	0.0276814
1350	0.0318496
1362	0.0296052
1374	0.0250807
1386	0.0240832
1398	0.0168155
1410	0.0162098
1422	0.0223019
1434	0.0288927
1446	0.0427156
1458	0.0663
1470	0.0463851
1482	0.0150342
1494	0.0115428
1506	0.012576
1518	0.00673331
1530	0.00537953
1542	0.00480951
1554	0.00555766
1566	0.0052014
1578	0.00676894
1590	0.00619892
1602	0.0061633
1614	0.00470263
1626	0.00402574
1638	0.00381198
1650	0.00523702
1662	0.00491639
1674	0.00812273
1686	0.0108659
1698	0.0155329
1710	0.0215181
1722	0.0395449
1734	0.10727
1746	0.128574
1758	0.0440337
1770	0.0199506
1782	0.012006
1794	0.00969027
1806	0.00758834
1818	0.00666206
1830	0.0063058
1842	0.00541515
1854	0.00598517
1866	0.00587829
1878	0.00602079
1890	0.00644831
1902	0.00612767
1914	0.00587829
1926	0.00570016
1938	0.00591392
1950	0.00580704
1962	0.00602079
1974	0.00598517
1986	0.00587829
1998	0.00591392
2010	0.00541515
2022	0.00580704
2034	0.00619892
2046	0.00612767
2058	0.00573579
2070	0.00570016
2082	0.0054864
2094	0.00545078
2106	0.00505889
2118	0.00491639
2130	0.00441762
2142	0.00477388
2154	0.00448888
2166	0.0045245
2178	0.00463138
2190	0.00448888
2202	0.00427512
2214	0.00409699
2226	0.00409699
2238	0.00384761
2250	0.00413262
2262	0.00388323
2274	0.00409699
2286	0.00523702
2298	0.00776647
2310	0.00940526
2322	0.00748146
2334	0.00456013
2346	0.00844336
2358	0.004382
2370	0.00516577
2382	0.00684019
2394	0.00263632
2406	0.00174567
2418	0.00138941
2430	0.00117566
2442	0.000676894
2454	0.000997528
2466	0.00106878
2478	0.000748146
2490	0.000570016
2502	0.000320634
2514	0.000463138
2526	0.000498764
2538	0.00053439
2550	0.000748146
2562	0.00053439
2574	7.1252e-05
2586	0.000498764
2598	0.00053439
2610	0.00071252
2622	0.00117566
2634	0.00121128
2646	0.00167442
2658	0.00188818
2670	0.00249382
2682	0.00270758
2694	0.0026007
2706	0.00217319
2718	0.00292133
2730	0.0035626
2742	0.00427512
2754	0.00530827
2766	0.00701832
2778	0.00979715
2790	0.0141791
2802	0.0197012
2814	0.0271114
2826	0.0396874
2838	0.0662287
2850	0.161778
2862	0.18725
2874	0.122732
2886	0.107555
2898	0.14685
2910	0.213863
2922	0.330075
2934	0.329006
2946	0.193378
2958	0.142504
2970	0.0941951
2982	0.0425374
2994	0.0198793
3006	0.011721
3018	0.00765959
3030	0.00555766
3042	0.00473826
3054	0.0045245
3066	0.00402574
3078	0.00331322
3090	0.00363385
3102	0.00295696
3114	0.0026007
3126	0.00238694
3138	0.00206631
3150	0.00317071
3162	0.00252945
3174	0.0026007
3186	0.00302821
3198	0.00249382
3210	0.00256507
3222	0.00267195
3234	0.00203068
3246	0.00210193
3258	0.00206631
3270	0.00231569
3282	0.00213756
3294	0.00185255
3306	0.0017813
3318	0.0026007
3330	0.00267195
3342	0.00299258
3354	0.00252945
3366	0.00281445
3378	0.00203068
3390	0.00320634
3402	0.00288571
3414	0.00249382
3426	0.00231569
3438	0.00195943
3450	0.00220881
3462	0.00327759
3474	0.00252945
3486	0.00217319
3498	0.0016388
3510	0.00228006
3522	0.00228006
3534	0.00121128
3546	0.00252945
3558	0.00220881
3570	0.00349135
3582	0.0027432
3594	0.00174567
3606	0.00160317
3618	0.00238694
3630	0.00416824
3642	0.00213756
3654	0.00135379
3666	0.00053439
3678	0.00281445
3690	0.00167442
3702	0.00174567
3714	0.00149629
3726	0.00188818
3738	0.00263632
3750	0.000783772
3762	0.00089065
3774	0.0016388
3786	0.00121128
3798	0.00242257
3810	3.5626e-05
3822	0.00128254
3834	0.00181693
3846	0.000249382
3858	0.00292133
3870	0.00217319
3882	0.00035626
3894	0.0016388
3906	0.00185255
3918	0.00195943
3930	0.00213756
3942	0.00195943
3954	0.00114003
3966	0.000783772
