Infrared Spectrum: Butane, 1-[2-(ethenyloxy)ethoxy]-
Formula: C 8 H 16 O 2
CAS: 4223-11-4
Origin: Sadtler Research Labs Under US-EPA Contract
1/CM	ABSORBANCE
450	0
462	0.00470861
474	0.00345938
486	0.0203719
498	0.0260415
510	0.0282516
522	0.0249844
534	0.0288282
546	0.0199876
558	0.00711096
570	0.0259454
582	0.0221977
594	0.0198915
606	0.0210446
618	0.0221977
630	0.0246962
642	0.0206602
654	0.0186422
666	0.0168165
678	0.0289243
690	0.0346899
702	0.0342095
714	0.0241196
726	0.0239274
738	0.0338251
750	0.0298852
762	0.0402634
774	0.0408399
786	0.0550619
798	0.0805268
810	0.157498
822	0.201605
834	0.181906
846	0.146063
858	0.101187
870	0.0721666
882	0.0801424
894	0.0858119
906	0.0931151
918	0.0842744
930	0.0959018
942	0.138087
954	0.157594
966	0.184693
978	0.182675
990	0.170855
1002	0.159324
1014	0.189497
1026	0.173738
1038	0.155768
1050	0.139817
1062	0.134051
1074	0.186807
1086	0.317398
1098	0.41724
1110	0.511028
1122	0.711576
1134	0.96094
1146	0.65171
1158	0.340942
1170	0.336041
1182	0.449239
1194	0.540721
1206	0.750494
1218	0.525154
1230	0.190843
1242	0.153943
1254	0.143276
1266	0.123577
1278	0.115505
1290	0.127517
1302	0.136165
1314	0.219863
1326	0.280402
1338	0.133378
1350	0.14145
1362	0.18354
1374	0.118003
1386	0.114448
1398	0.0862924
1410	0.0667853
1422	0.0524673
1434	0.0580408
1446	0.0810072
1458	0.134051
1470	0.13261
1482	0.0961901
1494	0.0548697
1506	0.0403595
1518	0.0380532
1530	0.0344017
1542	0.0303657
1554	0.0299813
1566	0.0325759
1578	0.0463173
1590	0.0863885
1602	0.195936
1614	0.441936
1626	0.371115
1638	0.44136
1650	0.3518
1662	0.187768
1674	0.0933073
1686	0.0512181
1698	0.0294048
1710	0.0196032
1722	0.0159516
1734	0.0146063
1746	0.0199876
1758	0.0197954
1770	0.0166243
1782	0.0152789
1794	0.0124922
1806	0.0124922
1818	0.0117235
1830	0.0100899
1842	0.0103782
1854	0.0107625
1866	0.0133571
1878	0.0156633
1890	0.0124922
1902	0.0123
1914	0.0147024
1926	0.0147024
1938	0.0141258
1950	0.014318
1962	0.0137414
1974	0.0130688
1986	0.0133571
1998	0.0131649
2010	0.0133571
2022	0.0136453
2034	0.0139336
2046	0.0138375
2058	0.0128766
2070	0.0122039
2082	0.0115313
2094	0.0114352
2106	0.0109547
2118	0.0106664
2130	0.0100899
2142	0.00989768
2154	0.00980159
2166	0.010186
2178	0.00970549
2190	0.00845627
2202	0.0080719
2214	0.00720705
2226	0.00653439
2238	0.00605392
2250	0.0063422
2262	0.0063422
2274	0.00653439
2286	0.00557345
2298	0.0063422
2310	0.00768752
2322	0.0109547
2334	0.0137414
2346	0.0127805
2358	0.017393
2370	0.0147024
2382	0.00595783
2394	0.00393985
2406	0.0031711
2418	0.00307501
2430	0.00297891
2442	0.00201797
2454	0.00124922
2466	0.0016336
2478	0.00124922
2490	0.00182579
2502	0.00269063
2514	0.00269063
2526	0.0032672
2538	0.00336329
2550	0.00307501
2562	0.00355548
2574	0.00509298
2586	0.00595783
2598	0.00682267
2610	0.0063422
2622	0.00691877
2634	0.00595783
2646	0.00682267
2658	0.00701486
2670	0.00912893
2682	0.0116274
2694	0.0158555
2706	0.0215251
2718	0.0260415
2730	0.0302696
2742	0.0344017
2754	0.0364196
2766	0.0364196
2778	0.038822
2790	0.0484314
2802	0.0620767
2814	0.0758182
2826	0.0885026
2838	0.124826
2850	0.227935
2862	0.397829
2874	0.560228
2886	0.565705
2898	0.39831
2910	0.376881
2922	0.478932
2934	0.589537
2946	0.645367
2958	0.556576
2970	0.624227
2982	0.351512
2994	0.144333
3006	0.0734158
3018	0.0502572
3030	0.0444915
3042	0.0369001
3054	0.0401673
3066	0.0369001
3078	0.0285399
3090	0.0273868
3102	0.0201797
3114	0.0288282
3126	0.0606353
3138	0.0288282
3150	0.0104742
3162	0.00787971
3174	0.0064383
3186	0.00691877
3198	0.00576564
3210	0.00470861
3222	0.00374767
3234	0.00374767
3246	0.00403595
3258	0.00278673
3270	0.00211407
3282	0.00249844
3294	0.00269063
3306	0.00355548
3318	0.0032672
3330	0.00249844
3342	0.00249844
3354	0.0032672
3366	0.00269063
3378	0.00384376
3390	0.0032672
3402	0.0015375
3414	0.00307501
3426	0.00307501
3438	0.00355548
3450	0.00288282
3462	0.00269063
3474	0.00201797
3486	0.00201797
3498	0.00172969
3510	0.00345938
3522	0.00355548
3534	0.00288282
3546	0.00384376
3558	0.0031711
3570	0.00221016
3582	0.00355548
3594	0.00307501
3606	0.00374767
3618	0.00413204
3630	0.00442032
3642	0.00499689
3654	0.00442032
3666	0.00509298
3678	0.00422814
3690	0.00499689
3702	0.00576564
3714	0.00538126
3726	0.0063422
3738	0.00499689
3750	0.00566955
3762	0.00557345
3774	0.00624611
3786	0.00691877
3798	0.0064383
3810	0.00691877
3822	0.0064383
3834	0.00768752
3846	0.00768752
3858	0.00711096
3870	0.00624611
3882	0.00682267
3894	0.00711096
3906	0.00653439
3918	0.0080719
3930	0.00922502
3942	0.0104742
3954	0.000192188
3966	0.000864846
