Infrared Spectrum: 7-Oxabicyclo[4.1.0]heptane, 1-oxiranyl-
Formula: C 8 H 12 O 2
CAS: 4223-10-3
Origin: Sadtler Research Labs Under US-EPA Contract
1/CM	ABSORBANCE
450	0.0459119
462	0.0348414
474	0.0427877
486	0.0387806
498	0.0134476
510	0.00733504
522	0.0027846
534	0.0171151
546	0.0247897
558	0.0103234
570	0.0124967
582	0.00801421
594	0.00305626
606	0.00135834
618	0.00203751
630	0.00122251
642	0.00326002
654	0.00767462
666	0.00733504
678	0.00835379
690	0.00903296
702	0.00821796
714	0.0071992
726	0.00869338
738	0.0196959
750	0.0407502
762	0.0590199
774	0.0727391
786	0.126122
798	0.142965
810	0.110093
822	0.153425
834	0.129925
846	0.111316
858	0.184938
870	0.191051
882	0.157432
894	0.109822
906	0.0900579
918	0.103506
930	0.117225
942	0.0993626
954	0.065472
966	0.0554882
978	0.0815004
990	0.0906013
1002	0.0698187
1014	0.0489002
1026	0.0438065
1038	0.0501227
1050	0.0429915
1062	0.0309702
1074	0.0284572
1086	0.0231597
1098	0.0211901
1110	0.0229559
1122	0.0322606
1134	0.0410219
1146	0.0408181
1158	0.0307664
1170	0.026963
1182	0.0281176
1194	0.0226164
1206	0.0206468
1218	0.0270989
1230	0.0334831
1242	0.0533148
1254	0.0827908
1266	0.0722637
1278	0.0357923
1290	0.026963
1302	0.0300193
1314	0.0184055
1326	0.0175226
1338	0.0391881
1350	0.0602424
1362	0.0526357
1374	0.0317172
1386	0.0249935
1398	0.0484927
1410	0.0747087
1422	0.0879525
1434	0.124899
1446	0.142082
1458	0.103302
1470	0.0500548
1482	0.0497152
1494	0.0465911
1506	0.0189488
1518	0.0123609
1530	0.011478
1542	0.0101875
1554	0.00604461
1566	0.00502586
1578	0.0076067
1590	0.00611253
1602	0.00584086
1614	0.0076067
1626	0.00645211
1638	0.0071992
1650	0.00475419
1662	0.00522961
1674	0.00373543
1686	0.00631628
1698	0.00563711
1710	0.00502586
1722	0.00550128
1734	0.0101196
1746	0.00964421
1758	0.0110026
1770	0.00876129
1782	0.00427877
1794	0.00550128
1806	0.00624836
1818	0.00577294
1830	0.00196959
1842	0.000747087
1854	0.000543336
1866	0
1878	0.000271668
1890	0.000611253
1902	0.000135834
1914	0.000407502
1926	0.00108667
1938	0.00129042
1950	0.000950838
1962	0.000815004
1974	0.000815004
1986	0.00122251
1998	0.00108667
2010	0.00169792
2022	0.00115459
2034	0.00142626
2046	0.00149417
2058	0.00224126
2070	0.00224126
2082	0.00258085
2094	0.00244501
2106	0.00210543
2118	0.00203751
2130	0.00203751
2142	0.00217334
2154	0.00251293
2166	0.00271668
2178	0.00312418
2190	0.00387127
2202	0.00387127
2214	0.00427877
2226	0.00475419
2238	0.00529753
2250	0.00577294
2262	0.0059767
2274	0.00536544
2286	0.00570503
2298	0.0059767
2310	0.00475419
2322	0.0031921
2334	0.00339585
2346	0.00264876
2358	0.00230918
2370	0.00230918
2382	0.00271668
2394	0.00169792
2406	0.00135834
2418	0.000882921
2430	0.00108667
2442	0.00101875
2454	0.00135834
2466	0.00129042
2478	0.00176584
2490	0.00149417
2502	0.00142626
2514	0.00183376
2526	0.00176584
2538	0.00149417
2550	0.00190168
2562	0.00230918
2574	0.00224126
2586	0.0027846
2598	0.0035996
2610	0.00434669
2622	0.00461836
2634	0.00407502
2646	0.00455044
2658	0.00570503
2670	0.0076067
2682	0.00991588
2694	0.0101196
2706	0.0101196
2718	0.0099838
2730	0.00882921
2742	0.00876129
2754	0.0100517
2766	0.0125646
2778	0.0144663
2790	0.0154172
2802	0.0163001
2814	0.0190168
2826	0.0258764
2838	0.0503944
2850	0.111723
2862	0.161099
2874	0.151387
2886	0.13074
2898	0.153153
2910	0.222089
2922	0.413818
2934	0.637333
2946	0.598756
2958	0.372593
2970	0.308751
2982	0.405872
2994	0.642699
3006	0.557938
3018	0.160488
3030	0.0682566
3042	0.151387
3054	0.185278
3066	0.0607178
3078	0.0183376
3090	0.0124288
3102	0.00978005
3114	0.00631628
3126	0.00461836
3138	0.00353168
3150	0.0027846
3162	0.00264876
3174	0.00217334
3186	0.00115459
3198	0.00163001
3210	0.00230918
3222	0.00230918
3234	0.00217334
3246	0.00196959
3258	0.00203751
3270	0.00217334
3282	0.0031921
3294	0.00285251
3306	0.00224126
3318	0.00237709
3330	0.00271668
3342	0.00258085
3354	0.00176584
3366	0.00135834
3378	0.00108667
3390	0.00169792
3402	0.00163001
3414	0.00244501
3426	0.00217334
3438	0.00169792
3450	0.00196959
3462	0.00210543
3474	0.00217334
3486	0.00169792
3498	0.00203751
3510	0.00196959
3522	0.00169792
3534	0.00149417
3546	0.00264876
3558	0.00122251
3570	0.00217334
3582	0.00163001
3594	0.00203751
3606	0.00183376
3618	0.00244501
3630	0.00685962
3642	0.0027846
3654	0.00326002
3666	0.00407502
3678	0.00427877
3690	0.00305626
3702	0.00353168
3714	0.00285251
3726	0.00380335
3738	0.00706337
3750	0.00590878
3762	0.00584086
3774	0.00421085
3786	0.00434669
3798	0.00448252
3810	0.00489002
3822	0.00448252
3834	0.00421085
3846	0.00380335
3858	0.00407502
3870	0.00495794
3882	0.00346377
3894	0.00339585
3906	0.00455044
3918	0.00577294
3930	0.00502586
3942	0.00380335
3954	0.00135834
3966	0.0027846
