Infrared Spectrum: Octanoic acid, 2-propenyl ester
Formula: C 11 H 20 O 2
CAS: 4230-97-1
Origin: Sadtler Research Labs Under US-EPA Contract
1/CM	ABSORBANCE
450	0.0501587
462	0.0205412
474	0.019745
486	0.0183119
498	0.0111464
510	0.0196654
522	0.00628974
534	0.0183119
546	0.014968
558	0.0164011
570	0.0226908
582	0.0179934
594	0.0187896
606	0.0236462
618	0.0185508
630	0.019745
642	0.0148088
654	0.00621013
666	0.0079617
678	0.0084394
690	0.00382162
702	0.00613051
714	0.0113852
726	0.0155253
738	0.0117037
750	0.00835978
762	0.00788208
774	0.00828017
786	0.00493625
798	0.00613051
810	0.00780247
822	0.00621013
834	0.00979289
846	0.0141718
858	0.014968
870	0.0181527
882	0.021417
894	0.0240443
906	0.041162
918	0.0853494
930	0.156129
942	0.0886933
954	0.0487256
966	0.0585981
978	0.110827
990	0.206288
1002	0.174998
1014	0.149361
1026	0.126034
1038	0.101989
1050	0.0783431
1062	0.0669579
1074	0.0707795
1086	0.100317
1098	0.17054
1110	0.234472
1122	0.200953
1134	0.192673
1146	0.315363
1158	0.5738
1170	0.557637
1182	0.369901
1194	0.318786
1206	0.294901
1218	0.292274
1230	0.29315
1242	0.270061
1254	0.232004
1266	0.184313
1278	0.169425
1290	0.136464
1302	0.127865
1314	0.110349
1326	0.0933907
1338	0.103024
1350	0.111305
1362	0.115047
1374	0.140444
1386	0.114569
1398	0.0568465
1410	0.0470536
1422	0.0638528
1434	0.0812093
1446	0.0945054
1458	0.131766
1470	0.10812
1482	0.0465759
1494	0.0212577
1506	0.0141718
1518	0.0121018
1530	0.00947442
1542	0.00835978
1554	0.00764323
1566	0.00644898
1578	0.00549357
1590	0.00708591
1602	0.00668783
1614	0.00692668
1626	0.00963366
1638	0.014968
1650	0.0293787
1662	0.0198246
1674	0.0137737
1686	0.016003
1698	0.0234074
1710	0.0414805
1722	0.0705407
1734	0.144027
1746	0.440999
1758	0.79617
1770	0.420298
1782	0.181129
1794	0.0886137
1806	0.0449836
1818	0.0249997
1830	0.0183915
1842	0.014968
1854	0.0156845
1866	0.0173565
1878	0.0116241
1890	0.00931519
1902	0.00859864
1914	0.00780247
1926	0.00732476
1938	0.0070063
1950	0.00772285
1962	0.00867825
1974	0.00907634
1986	0.00828017
1998	0.00772285
2010	0.00636936
2022	0.00453817
2034	0.00549357
2046	0.00525472
2058	0.00461779
2070	0.00820055
2082	0.0102706
2094	0.00859864
2106	0.00756361
2118	0.00644898
2130	0.00628974
2142	0.00636936
2154	0.00605089
2166	0.00573242
2178	0.00541396
2190	0.00477702
2202	0.00573242
2214	0.00493625
2226	0.00549357
2238	0.00525472
2250	0.00509549
2262	0.00477702
2274	0.00557319
2286	0.00525472
2298	0.00605089
2310	0.00859864
2322	0.00923557
2334	0.00772285
2346	0.00565281
2358	0.00923557
2370	0.000159234
2382	0.000318468
2394	0.00294583
2406	0.00398085
2418	0.00390123
2430	0.00310506
2442	0.00318468
2454	0.00278659
2466	0.00286621
2478	0.00286621
2490	0.00207004
2502	0.00143311
2514	0.00318468
2526	0.00183119
2538	0.00127387
2550	0.00127387
2562	0.000875787
2574	0.00254774
2586	0.00222928
2598	0.000477702
2610	0.00079617
2622	0.00286621
2634	0.00382162
2646	0.00501587
2658	0.00660821
2670	0.0107483
2682	0.0113852
2694	0.00628974
2706	0.0051751
2718	0.00684706
2730	0.0070063
2742	0.0084394
2754	0.00875787
2766	0.00875787
2778	0.00931519
2790	0.0130572
2802	0.0165603
2814	0.0218947
2826	0.0300952
2838	0.0455409
2850	0.0937092
2862	0.249599
2874	0.28901
2886	0.238692
2898	0.183199
2910	0.249042
2922	0.446413
2934	0.719977
2946	0.657238
2958	0.475234
2970	0.493625
2982	0.230412
2994	0.115126
3006	0.0736457
3018	0.0500791
3030	0.047611
3042	0.0284233
3054	0.0198246
3066	0.019745
3078	0.0261144
3090	0.0429136
3102	0.0470536
3114	0.0210189
3126	0.0101114
3138	0.00684706
3150	0.00485664
3162	0.00684706
3174	0.00597127
3186	0.00835978
3198	0.00605089
3210	0.00382162
3222	0.00366238
3234	0.00461779
3246	0.00509549
3258	0.0046974
3270	0.00461779
3282	0.00334391
3294	0.00350315
3306	0.00310506
3318	0.00191081
3330	0.00135349
3342	0.00175157
3354	0.00191081
3366	0.0032643
3378	0.00302545
3390	0.000159234
3402	0.00294583
3414	0.00278659
3426	0.00262736
3438	0.00286621
3450	0.0032643
3462	0.0032643
3474	0.00501587
3486	0.00788208
3498	0.0103502
3510	0.00597127
3522	0.00429932
3534	0.00318468
3546	0.00613051
3558	0.00557319
3570	0.01871
3582	0.0305729
3594	0.00780247
3606	0.00597127
3618	0.0070063
3630	0.00652859
3642	0.00804132
3654	0.00716553
3666	0.00621013
3678	0.00740438
3690	0.00835978
3702	0.00453817
3714	0.00708591
3726	0.00692668
3738	0.00509549
3750	0.00445855
3762	0.00565281
3774	0.00628974
3786	0.00740438
3798	0.00565281
3810	0.00628974
3822	0.00644898
3834	0.00636936
3846	0.00573242
3858	0.00111464
3870	0.00557319
3882	0.00835978
3894	0.00334391
3906	0.00214966
3918	0.0051751
3930	0.00493625
3942	0.00302545
3954	0.000159234
3966	0.00358276
