Infrared Spectrum: Benzenepropanol, 4-hydroxy-.alpha.,.alpha.-dimethyl-
Formula: C 11 H 16 O 2
CAS: 4237-73-4
Origin: Sadtler Research Labs Under US-EPA Contract
1/CM	ABSORBANCE
450	0.0652032
462	0.0253427
474	0.036889
486	0.026786
498	0.0280594
510	0.0356156
522	0.0371013
534	0.031413
546	0.0342147
558	0.037823
570	0.0196119
582	0.0137963
594	0.0056883
606	0.0111219
618	0.0071316
630	0.0064524
642	0.00573075
654	0.0084051
666	0.0109096
678	0.00632505
690	0.0108672
702	0.00946635
714	0.0117587
726	0.0132444
738	0.0127775
750	0.0364645
762	0.0177016
774	0.0205883
786	0.0327289
798	0.0563312
810	0.0820134
822	0.0917769
834	0.0691935
846	0.0458036
858	0.0326016
870	0.0228805
882	0.0303093
894	0.046695
906	0.037823
918	0.0360825
930	0.0303942
942	0.0199091
954	0.0145179
966	0.015282
978	0.0106125
990	0.0147302
1002	0.00955125
1014	0.0298848
1026	0.0289934
1038	0.0324318
1050	0.0259794
1062	0.0261068
1074	0.0397332
1086	0.0649061
1098	0.0724197
1110	0.0582414
1122	0.0579018
1134	0.0484779
1146	0.0643118
1158	0.120685
1170	0.381031
1182	0.289254
1194	0.145816
1206	0.0908006
1218	0.0729291
1230	0.0706792
1242	0.0897818
1254	0.2547
1266	0.128157
1278	0.0433839
1290	0.033111
1302	0.0320073
1314	0.0418133
1326	0.0659673
1338	0.0657551
1350	0.0348514
1362	0.0395209
1374	0.0520862
1386	0.0523833
1398	0.0258945
1410	0.0156216
1422	0.035276
1434	0.0571377
1446	0.0451668
1458	0.0444452
1470	0.0312856
1482	0.0267435
1494	0.036507
1506	0.174469
1518	0.314937
1530	0.0422802
1542	0.0182535
1554	0.0136265
1566	0.00861735
1578	0.0156641
1590	0.0390965
1602	0.0583688
1614	0.0654154
1626	0.0385021
1638	0.020376
1650	0.0204185
1662	0.0128623
1674	0.00564585
1686	0.00751365
1698	0.00810795
1710	0.00513645
1722	0.00861735
1734	0.0049242
1746	0.00471195
1758	0.00793815
1770	0.0062826
1782	0.00445725
1794	0.003396
1806	0.0062826
1818	0.00505155
1830	0.0012735
1842	0.005094
1854	0.00539115
1866	0.00683445
1878	0.00674955
1890	0.0028017
1902	0.0028866
1914	0.0040752
1926	0.0019527
1938	0.0019527
1950	0.0019527
1962	0.0020376
1974	0.00131595
1986	0.0016131
1998	0.0026319
2010	0.00258945
2022	0.0024621
2034	0.00233475
2046	0.0013584
2058	0.00131595
2070	0.002547
2082	0.00224985
2094	0.00241965
2106	0.00191025
2118	0.0015282
2130	0.00114615
2142	0.0009339
2154	0.0012735
2166	0.000849
2178	0.0010188
2190	0.0011037
2202	0.00089145
2214	0.0014433
2226	0.0011886
2238	0.000849
2250	0.0022923
2262	0.00157065
2274	0.0024621
2286	0.00275925
2298	0.0033111
2310	0.00394785
2322	0.00394785
2334	0.004245
2346	0.00352335
2358	0.0058581
2370	0.00097635
2382	0.0028866
2394	0.0024621
2406	0.00343845
2418	0.0051789
2430	0.0073863
2442	0.00471195
2454	0.00394785
2466	0.00335355
2478	0.00352335
2490	0.0039903
2502	0.0044997
2514	0.00445725
2526	0.00369315
2538	0.003396
2550	0.00301395
2562	0.0033111
2574	0.00360825
2586	0.00369315
2598	0.004245
2610	0.00479685
2622	0.004245
2634	0.004245
2646	0.0043299
2658	0.00420255
2670	0.0046695
2682	0.00505155
2694	0.00522135
2706	0.00547605
2718	0.0056034
2730	0.00666465
2742	0.00768345
2754	0.0072165
2766	0.00734385
2778	0.0071316
2790	0.00768345
2802	0.0089994
2814	0.0102729
2826	0.013202
2838	0.0190601
2850	0.0313281
2862	0.0479261
2874	0.0566708
2886	0.0539115
2898	0.0615101
2910	0.0787023
2922	0.107908
2934	0.127605
2946	0.124973
2958	0.0979746
2970	0.118987
2982	0.138854
2994	0.069618
3006	0.0546756
3018	0.070849
3030	0.0660522
3042	0.0610856
3054	0.0412614
3066	0.0379503
3078	0.041601
3090	0.0299697
3102	0.0191025
3114	0.0158339
3126	0.0134567
3138	0.0108248
3150	0.00849
3162	0.00751365
3174	0.00683445
3186	0.0086598
3198	0.00708915
3210	0.00666465
3222	0.0074712
3234	0.0066222
3246	0.0067071
3258	0.0062826
3270	0.0065373
3282	0.00598545
3294	0.00598545
3306	0.00513645
3318	0.00522135
3330	0.00454215
3342	0.0062826
3354	0.007641
3366	0.00725895
3378	0.00666465
3390	0.00573075
3402	0.00624015
3414	0.00624015
3426	0.00615525
3438	0.00607035
3450	0.0043299
3462	0.0048393
3474	0.0035658
3486	0.0053487
3498	0.0051789
3510	0.0041601
3522	0.00505155
3534	0.00445725
3546	0.0033111
3558	0.00437235
3570	0.00479685
3582	0.00437235
3594	0.0020376
3606	0.0064524
3618	0.0116738
3630	0.018296
3642	0.061128
3654	0.179479
3666	0.0479685
3678	0.00912675
3690	0.00148575
3702	0.0033111
3714	0.000849
3726	0.000849
3738	0.00309885
3750	0
3762	0.0004245
3774	0.0004245
3786	0.0004245
3798	0.0006792
3810	0.002547
3822	0.0013584
3834	0.00080655
3846	0.0021225
3858	0.0018678
3870	0.00386295
3882	0.00267435
3894	0.003396
3906	0.0065373
3918	0.006792
3930	0.00386295
3942	0.00657975
3954	0.005943
3966	0.0111643
