Infrared Spectrum: Phenol, 2-(1-phenylethyl)-
Formula: C 14 H 14 O
CAS: 4237-44-9
Origin: Sadtler Research Labs Under US-EPA Contract
1/CM	ABSORBANCE
450	0.0325491
462	0.0147951
474	0.0327656
486	0.0419314
498	0.0455399
510	0.0509527
522	0.0446738
534	0.0504475
546	0.0594689
558	0.0567986
570	0.0178262
582	0.0280023
594	0.0399106
606	0.0116195
618	0.0197749
630	0.0272806
642	0.00685624
654	0.00584585
666	0.011836
678	0.0485711
690	0.202945
702	0.377021
714	0.176602
726	0.108329
738	0.282838
750	0.72171
762	0.242639
774	0.111576
786	0.0971422
798	0.0438078
810	0.0224452
822	0.0213626
834	0.0680573
846	0.0961318
858	0.0250433
870	0.0032477
882	0.000649539
894	0.00389723
906	0.0142177
918	0.00779447
930	0.0184758
942	0.00808315
954	0.00187645
966	0.00829966
978	0.0233112
990	0.0210739
1002	0.0186201
1014	0.0407044
1026	0.206626
1038	0.12832
1050	0.103421
1062	0.0762847
1074	0.0619949
1086	0.0811202
1098	0.149105
1110	0.157477
1122	0.0724597
1134	0.0528292
1146	0.118216
1158	0.175592
1170	0.258156
1182	0.351401
1194	0.464637
1206	0.435047
1218	0.24069
1230	0.153363
1242	0.216008
1254	0.283704
1266	0.235999
1278	0.225534
1290	0.161735
1302	0.10905
1314	0.160436
1326	0.220338
1338	0.115257
1350	0.0465503
1362	0.0376011
1374	0.0757796
1386	0.0801098
1398	0.0339925
1410	0.0323326
1422	0.0443852
1434	0.0747692
1446	0.251372
1458	0.438439
1470	0.231308
1482	0.317408
1494	0.554129
1506	0.255702
1518	0.0791716
1530	0.04388
1542	0.0350751
1554	0.0389723
1566	0.0614897
1578	0.139146
1590	0.20944
1602	0.208213
1614	0.147806
1626	0.0495093
1638	0.0240329
1650	0.0212183
1662	0.0200635
1674	0.0304562
1686	0.0268476
1698	0.0202079
1710	0.0184758
1722	0.0156611
1734	0.0199914
1746	0.0206409
1758	0.0199192
1770	0.0251877
1782	0.0292293
1794	0.0373846
1806	0.0306005
1818	0.0213626
1830	0.0128464
1842	0.00988743
1854	0.0159498
1866	0.0235999
1878	0.0272806
1890	0.035436
1902	0.0227339
1914	0.0142899
1926	0.0267754
1938	0.0293736
1950	0.0237443
1962	0.0149394
1974	0.00584585
1986	0.00425809
1998	0.00303118
2010	0.00252598
2022	0.00310335
2034	0.00382506
2046	0.0039694
2058	0.00317552
2070	0.00303118
2082	0.00346421
2094	0.00353638
2106	0.0022373
2118	0.0017321
2130	0.00101039
2142	0.000649539
2154	0.000360855
2166	0.000433026
2178	0.000288684
2190	0.00072171
2202	0.00072171
2214	0.000505197
2226	0.000793881
2238	0.00122691
2250	0.00202079
2262	0.00252598
2274	0.00216513
2286	0.00295901
2298	0.00368072
2310	0.00728927
2322	0.00663973
2334	0.00461894
2346	0.0108256
2358	0.00404158
2370	0.00490763
2382	0.00620671
2394	0.00526848
2406	0.00562934
2418	0.00707276
2430	0.0089492
2442	0.0089492
2454	0.00829966
2466	0.00685624
2478	0.00685624
2490	0.00765013
2502	0.00779447
2514	0.00635105
2526	0.00534065
2538	0.00433026
2550	0.00346421
2562	0.00331987
2574	0.00353638
2586	0.00360855
2598	0.00425809
2610	0.00490763
2622	0.00483546
2634	0.00627888
2646	0.00577368
2658	0.00519631
2670	0.00425809
2682	0.00245381
2694	0.00238164
2706	0.00187645
2718	0.0027425
2730	0.00425809
2742	0.00526848
2754	0.00353638
2766	0.00339204
2778	0.00440243
2790	0.00512414
2802	0.0049798
2814	0.00620671
2826	0.00959874
2838	0.0140733
2850	0.0174654
2862	0.0324769
2874	0.0777282
2886	0.147373
2898	0.106885
2910	0.0767899
2922	0.0837905
2934	0.122186
2946	0.166932
2958	0.115185
2970	0.263424
2982	0.471204
2994	0.0982247
3006	0.0713771
3018	0.134022
3030	0.295324
3042	0.287457
3054	0.231452
3066	0.358762
3078	0.412169
3090	0.239319
3102	0.120093
3114	0.0656034
3126	0.0256929
3138	0.0126299
3150	0.0102483
3162	0.0116195
3174	0.00808315
3186	0.00584585
3198	0.0044746
3210	0.00418592
3222	0.00389723
3234	0.00310335
3246	0.00303118
3258	0.00310335
3270	0.00303118
3282	0.00209296
3294	0.00151559
3306	0.000360855
3318	0.00129908
3330	0.0017321
3342	0.0022373
3354	0.00331987
3366	0.00440243
3378	0.00476329
3390	0.00411375
3402	0.00353638
3414	0.00281467
3426	0.00216513
3438	0.00238164
3450	0.00151559
3462	0.00165993
3474	0.00267033
3486	0.00230947
3498	0.00570151
3510	0.00988743
3522	0.0171767
3534	0.0342812
3546	0.0626444
3558	0.111937
3570	0.246103
3582	0.325347
3594	0.330399
3606	0.153796
3618	0.0623557
3630	0.0551386
3642	0.164045
3654	0.273456
3666	0.0540561
3678	0.0175376
3690	0.00562934
3702	0.00389723
3714	0.000288684
3726	0.000216513
3738	0.000288684
3750	0.000216513
3762	0.000288684
3774	0.00202079
3786	0.000505197
3798	0.00317552
3810	0.000216513
3822	0.00151559
3834	0.00180427
3846	0.0017321
3858	0.00360855
3870	0.00382506
3882	0.00072171
3894	0.00613453
3906	0.00129908
3918	0.00555717
3930	0.00555717
3942	0.0017321
3954	0.00267033
3966	0.00194862
