Infrared Spectrum: 1H-Imidazole, 1-(phenylmethyl)-
Formula: C 10 H 10 N 2
CAS: 4238-71-5
Origin: Sadtler Research Labs Under US-EPA Contract
1/CM	ABSORBANCE
450	0.0232996
462	0.0270714
474	0.0148964
486	0.00840312
498	0.00047745
510	0.00424931
522	0.00152784
534	0.00128911
546	0.00162333
558	0.00186205
570	0.00405832
582	0.00797341
594	0.00200529
606	0.014419
618	0.0490819
630	0.041013
642	0.0328486
654	0.110482
666	0.105182
678	0.0742912
690	0.160375
702	0.295064
714	0.452241
726	0.388119
738	0.147628
750	0.069278
762	0.0434002
774	0.0337557
786	0.0372888
798	0.111246
810	0.183771
822	0.0674159
834	0.0242067
846	0.0207213
858	0.0180476
870	0.0101697
882	0.0118885
894	0.0587263
906	0.0762488
918	0.0181908
930	0.00754371
942	0.00625459
954	0.00592038
966	0.00720949
978	0.00740047
990	0.00883282
1002	0.0204349
1014	0.0442596
1026	0.182625
1038	0.074148
1050	0.0259255
1062	0.0721904
1074	0.245553
1086	0.0625937
1098	0.0549545
1110	0.0895219
1122	0.045119
1134	0.0138938
1146	0.00677979
1158	0.00911929
1170	0.0184296
1182	0.0338512
1194	0.0415381
1206	0.0481747
1218	0.108333
1230	0.283987
1242	0.136073
1254	0.0342332
1266	0.057485
1278	0.202487
1290	0.149967
1302	0.0514214
1314	0.0316072
1326	0.038387
1338	0.0563391
1350	0.108572
1362	0.147819
1374	0.107856
1386	0.0735273
1398	0.0440209
1410	0.0344719
1422	0.0421111
1434	0.0722859
1446	0.173267
1458	0.16706
1470	0.0763443
1482	0.106233
1494	0.330825
1506	0.383965
1518	0.115591
1530	0.0541906
1542	0.0354745
1554	0.0259255
1566	0.0478405
1578	0.0512781
1590	0.0297451
1602	0.0491773
1614	0.0511349
1626	0.0232041
1638	0.0134641
1650	0.0185728
1662	0.0176179
1674	0.0102174
1686	0.0170927
1698	0.0276444
1710	0.012366
1722	0.00907155
1734	0.0111723
1746	0.00964449
1758	0.00754371
1770	0.00749596
1782	0.00888057
1794	0.0167585
1806	0.0172359
1818	0.007114
1830	0.00506097
1842	0.0052997
1854	0.00649332
1866	0.00950126
1878	0.009549
1890	0.00759145
1902	0.00453577
1914	0.00472676
1926	0.00692302
1938	0.0113156
1950	0.0142758
1962	0.0125569
1974	0.00486999
1986	0.00248274
1998	0.00205303
2010	0.0019098
2022	0.00171882
2034	0.00205303
2046	0.00276921
2058	0.00243499
2070	0.00291245
2082	0.00257823
2094	0.00148009
2106	0.00105039
2118	0.00114588
2130	0.00181431
2142	0.0028647
2154	0.00262598
2166	0.0019098
2178	0.00171882
2190	0.00186205
2202	0.00195754
2214	0.00248274
2226	0.00195754
2238	0.00157559
2250	0.00205303
2262	0.00324666
2274	0.00396283
2286	0.0061591
2298	0.0103129
2310	0.0133686
2322	0.0107426
2334	0.00792567
2346	0.0113633
2358	0.00978772
2370	0.00754371
2382	0.0101219
2394	0.00296019
2406	0.00219627
2418	0.00257823
2430	0.00229176
2442	0.00167107
2454	0.00276921
2466	0.00276921
2478	0.00167107
2490	0.00181431
2502	0.00195754
2514	0.00291245
2526	0.00305568
2538	0.00291245
2550	0.0032944
2562	0.00458352
2574	0.00410607
2586	0.00229176
2598	0.00157559
2610	0.00272146
2622	0.00133686
2634	0.00066843
2646	0.000429705
2658	0.00038196
2670	0.000811665
2682	0.00133686
2694	0.00243499
2706	0.00210078
2718	0.00157559
2730	0.00219627
2742	0.00186205
2754	0.00243499
2766	0.00405832
2778	0.00463126
2790	0.00367637
2802	0.0032944
2814	0.00219627
2826	0.00253048
2838	0.00515646
2850	0.0102174
2862	0.0186683
2874	0.0278831
2886	0.0271669
2898	0.0251139
2910	0.0322756
2922	0.0581534
2934	0.090429
2946	0.0941531
2958	0.0756758
2970	0.0427795
2982	0.0222492
2994	0.0154694
3006	0.0199097
3018	0.040822
3030	0.0936279
3042	0.126142
3054	0.0801639
3066	0.0989754
3078	0.141421
3090	0.0833628
3102	0.0657926
3114	0.064026
3126	0.0481747
3138	0.0261165
3150	0.0201961
3162	0.00950126
3174	0.00630234
3186	0.00453577
3198	0.0038196
3210	0.00401058
3222	0.00362862
3234	0.00353313
3246	0.00315117
3258	0.00305568
3270	0.00267372
3282	0.00224401
3294	0.00272146
3306	0.00243499
3318	0.00205303
3330	0.00157559
3342	0.00167107
3354	0.00100264
3366	0.00152784
3378	0.00133686
3390	0.00148009
3402	0.00114588
3414	0.00176656
3426	0.00114588
3438	0.00157559
3450	0.00133686
3462	0.0009549
3474	0.00119363
3486	0.00128911
3498	0.00100264
3510	0.0009549
3522	0.000907155
3534	0.00066843
3546	0.000907155
3558	0.00100264
3570	0.00128911
3582	0.00076392
3594	0.00205303
3606	0.000238725
3618	0.00119363
3630	0.00219627
3642	0.00214853
3654	0.00200529
3666	0.000811665
3678	0.00148009
3690	0.00066843
3702	0.000525195
3714	0.000716175
3726	0.0009549
3738	0.00167107
3750	0.000143235
3762	9.549e-05
3774	9.549e-05
3786	9.549e-05
3798	9.549e-05
3810	9.549e-05
3822	9.549e-05
3834	9.549e-05
3846	9.549e-05
3858	0.00019098
3870	0.0013846
3882	0.0023395
3894	0.0009549
3906	0.000334215
3918	0.000907155
3930	0.000334215
3942	9.549e-05
3954	0.00109813
3966	0.00019098
