Infrared Spectrum: Disulfide, bis(1-methylethyl)
Formula: C 6 H 14 S 2
CAS: 4253-89-8
Origin: Sadtler Research Labs Under US-EPA Contract
1/CM	ABSORBANCE
450	0.0104906
462	0.00123766
474	0.0035951
486	0.00624722
498	0.00477382
510	0.00265212
522	0.00106085
534	0.00365403
546	0.0022985
558	0.00253425
570	0.00265212
582	0.00618828
594	0.00660083
606	0.0081921
618	0.0109621
630	0.0094887
642	0.00677764
654	0.00542211
666	0.00577573
678	0.00689551
690	0.00518637
702	0.00571679
714	0.0050685
726	0.00489169
738	0.00754381
750	0.00430233
762	0.00465594
774	0.00495062
786	0.00607041
798	0.00347722
810	0.0044202
822	0.00536318
834	0.00477382
846	0.00495062
858	0.00665977
870	0.0112568
882	0.010137
894	0.00665977
906	0.00689551
918	0.0107264
930	0.0153234
942	0.0103727
954	0.00889934
966	0.00807423
978	0.00648296
990	0.0044202
1002	0.00489169
1014	0.00607041
1026	0.0114925
1038	0.0513333
1050	0.0933546
1062	0.0310003
1074	0.0119051
1086	0.00872253
1098	0.0133785
1110	0.0181523
1122	0.0165021
1134	0.0311771
1146	0.0805066
1158	0.110269
1170	0.0407837
1182	0.0140857
1194	0.012848
1206	0.0204508
1218	0.0566964
1230	0.147988
1242	0.171798
1254	0.0998376
1266	0.0305878
1278	0.0172093
1290	0.015677
1302	0.0188595
1314	0.0243406
1326	0.0137321
1338	0.0114336
1350	0.0206276
1362	0.0660673
1374	0.106969
1386	0.0904078
1398	0.0372476
1410	0.0242227
1422	0.023928
1434	0.0393103
1446	0.0849268
1458	0.106321
1470	0.0914097
1482	0.0498599
1494	0.0228082
1506	0.014734
1518	0.0080153
1530	0.00595254
1542	0.00665977
1554	0.00565786
1566	0.00530424
1578	0.00601147
1590	0.0052453
1602	0.00571679
1614	0.00583466
1626	0.00630615
1638	0.00719019
1650	0.00813317
1662	0.00825104
1674	0.0081921
1686	0.00907614
1698	0.0080153
1710	0.0052453
1722	0.0044202
1734	0.00430233
1746	0.00235744
1758	0.00235744
1770	0.00241638
1782	0.0022985
1794	0.00241638
1806	0.00318254
1818	0.00265212
1830	0.00271106
1842	0.0021217
1854	0.00218063
1866	0.0021217
1878	0.00206276
1890	0.00206276
1902	0.00194489
1914	0.00200382
1926	0.00194489
1938	0.00194489
1950	0.00182702
1962	0.00135553
1974	0.00135553
1986	0.00176808
1998	0.00176808
2010	0.00170914
2022	0.00170914
2034	0.00170914
2046	0.00165021
2058	0.0014734
2070	0.00106085
2082	0.00100191
2094	0.00106085
2106	0.000707232
2118	0.00088404
2130	0.00088404
2142	0.00088404
2154	0.000942976
2166	0.000825104
2178	0.000766168
2190	0.000766168
2202	0.00117872
2214	0.00123766
2226	0.00165021
2238	0.00253425
2250	0.00353616
2262	0.00300574
2274	0.00300574
2286	0.00341829
2298	0.00341829
2310	0.00341829
2322	0.00400765
2334	0.00512743
2346	0.00530424
2358	0.00577573
2370	0.00601147
2382	0.00288786
2394	0.00129659
2406	0.00111978
2418	0.00111978
2430	0.00111978
2442	0.00058936
2454	0.00100191
2466	0.00200382
2478	0.00241638
2490	0.00188595
2502	0.0014734
2514	0.00088404
2526	0.000530424
2538	0.00141446
2550	0.00135553
2562	0.0014734
2574	0.00159127
2586	0.00200382
2598	0.00288786
2610	0.00465594
2622	0.00412552
2634	0.00170914
2646	0.00176808
2658	0.00194489
2670	0.00135553
2682	0.00188595
2694	0.00194489
2706	0.00271106
2718	0.00677764
2730	0.00954763
2742	0.00648296
2754	0.00695445
2766	0.00783849
2778	0.00518637
2790	0.00577573
2802	0.00901721
2814	0.0126712
2826	0.0133785
2838	0.0167968
2850	0.0272874
2862	0.0740826
2874	0.194076
2886	0.16561
2898	0.132193
2910	0.173331
2922	0.254073
2934	0.352555
2946	0.233033
2958	0.293973
2970	0.58936
2982	0.403594
2994	0.130543
3006	0.0402533
3018	0.0245763
3030	0.014734
3042	0.00996018
3054	0.00730806
3066	0.0067187
3078	0.00607041
3090	0.00695445
3102	0.00701338
3114	0.00607041
3126	0.00665977
3138	0.00724913
3150	0.00713126
3162	0.00766168
3174	0.00931189
3186	0.00878146
3198	0.00842785
3210	0.00748487
3222	0.0058936
3234	0.00424339
3246	0.0035951
3258	0.00306467
3270	0.00271106
3282	0.00318254
3294	0.00330042
3306	0.00365403
3318	0.00330042
3330	0.00335935
3342	0.00194489
3354	0.00200382
3366	0.00165021
3378	0.00253425
3390	0.00365403
3402	0.00276999
3414	0.00206276
3426	0.00159127
3438	0.00182702
3450	0.00188595
3462	0.00111978
3474	0.00100191
3486	0.00153234
3498	0.00111978
3510	0.00129659
3522	0.00117872
3534	0.000707232
3546	0.000235744
3558	0.00170914
3570	0.000766168
3582	0.00194489
3594	0.00194489
3606	0.00200382
3618	0.00206276
3630	0.00235744
3642	0.0021217
3654	0.0021217
3666	0.00218063
3678	0.00383084
3690	0.00383084
3702	0.00282893
3714	0.00335935
3726	0.00335935
3738	0.00335935
3750	0.00495062
3762	0.0050685
3774	0.00489169
3786	0.00536318
3798	0.00553998
3810	0.00571679
3822	0.0067187
3834	0.00730806
3846	0.00730806
3858	0.00724913
3870	0.00742594
3882	0.00689551
3894	0.00695445
3906	0.00648296
3918	0.00665977
3930	0.00612934
3942	0.0065419
3954	0
3966	0.000412552
