Infrared Spectrum: Cyclohexane-1,1-bis(3-thiopropionic acid)-,
Formula: C 12 H 20 O 4 S 2
CAS: 4265-55-8
Origin: Sadtler Research Labs Under US-EPA Contract
1/CM	ABSORBANCE
450	0.0104596
462	0.0176843
474	0.0243698
486	0.0390348
498	0.0460438
510	0.0598462
522	0.0679335
534	0.077854
546	0.0970479
558	0.107723
570	0.121849
582	0.137161
594	0.156247
606	0.186979
618	0.190861
630	0.160129
642	0.109772
654	0.0775305
666	0.0650221
678	0.0483083
690	0.0364469
702	0.0276047
714	0.0168216
726	0.0259873
738	0.0232915
750	0.0145572
762	0.0154198
774	0.0187626
786	0.0225367
798	0.0163903
810	0.00733251
822	0.0014018
834	0.00970479
846	0.0130476
858	0.000431324
870	0.00129397
882	0.00366625
894	0.0101361
906	0.0201644
918	0.0309475
930	0.0266343
942	0.0231837
954	0.0187626
966	0.0195174
978	0.0284674
990	0.0305162
1002	0.0360156
1014	0.0624341
1026	0.0792558
1038	0.0732172
1050	0.0728938
1062	0.075913
1074	0.0992045
1086	0.156571
1098	0.306564
1110	0.645908
1122	0.78598
1134	0.579484
1146	0.329855
1158	0.222779
1170	0.212319
1182	0.222563
1194	0.207359
1206	0.175118
1218	0.145356
1230	0.134142
1242	0.126809
1254	0.10837
1266	0.109448
1278	0.0987732
1290	0.0794714
1302	0.06761
1314	0.0672865
1326	0.0857256
1338	0.11883
1350	0.121957
1362	0.157002
1374	0.208114
1386	0.188596
1398	0.119153
1410	0.0872353
1422	0.0990967
1434	0.1198
1446	0.0989889
1458	0.0575818
1470	0.024909
1482	0.007656
1494	0.00679335
1506	0.0108909
1518	0.00301927
1530	0.0017253
1542	0.000323493
1554	0.000539155
1566	0.000862648
1578	0.00215662
1590	0.00474456
1602	0.00894997
1614	0.0131554
1626	0.0186548
1638	0.0161747
1650	0.0136945
1662	0.015959
1674	0.0246933
1686	0.0359077
1698	0.0525137
1710	0.0883136
1722	0.133387
1734	0.192263
1746	0.299555
1758	0.490092
1770	0.84119
1782	1.07831
1794	0.699715
1806	0.328777
1818	0.142013
1830	0.0627576
1842	0.0326728
1854	0.0205957
1866	0.0156355
1878	0.0132632
1890	0.0118614
1902	0.0103518
1914	0.00873431
1926	0.007656
1938	0.00841082
1950	0.00797949
1962	0.00776383
1974	0.00808733
1986	0.00808733
1998	0.00808733
2010	0.00722468
2022	0.00700902
2034	0.00646986
2046	0.00690118
2058	0.0062542
2070	0.00614637
2082	0.00506806
2094	0.00431324
2106	0.0045289
2118	0.00442107
2130	0.00398975
2142	0.00409758
2154	0.00388192
2166	0.00409758
2178	0.0045289
2190	0.0045289
2202	0.00474456
2214	0.00506806
2226	0.00528372
2238	0.00528372
2250	0.00474456
2262	0.00398975
2274	0.00409758
2286	0.00485239
2298	0.00646986
2310	0.00787166
2322	0.00700902
2334	0.00539155
2346	0.00679335
2358	0.00582287
2370	0.00506806
2382	0.00560721
2394	0.0017253
2406	0.00204879
2418	0.00161747
2430	0.00107831
2442	0.000754817
2454	0.000970479
2466	0.00129397
2478	0.00118614
2490	0.00118614
2502	0.00107831
2514	0.00107831
2526	0.000754817
2538	0
2550	0.000431324
2562	0.000431324
2574	0.00150963
2586	0.00248011
2598	0.00323493
2610	0.00280361
2622	0.00226445
2634	0.00280361
2646	0.00388192
2658	0.00549938
2670	0.00582287
2682	0.00474456
2694	0.00323493
2706	0.00248011
2718	0.0017253
2730	0.0017253
2742	0.00161747
2754	0.00237228
2766	0.00355842
2778	0.00496023
2790	0.00690118
2802	0.0101361
2814	0.0145572
2826	0.0252325
2838	0.0656691
2850	0.123251
2862	0.120663
2874	0.141798
2886	0.112144
2898	0.12131
2910	0.14913
2922	0.256206
2934	0.39973
2946	0.542606
2958	0.249197
2970	0.0972636
2982	0.0658847
2994	0.0462595
3006	0.0333198
3018	0.0318101
3030	0.0422698
3042	0.038927
3054	0.0239385
3066	0.0168216
3078	0.0132632
3090	0.0115379
3102	0.0106753
3114	0.0104596
3126	0.0100283
3138	0.00916564
3150	0.0093813
3162	0.0093813
3174	0.00959696
3186	0.00959696
3198	0.00959696
3210	0.00959696
3222	0.0101361
3234	0.0102439
3246	0.0100283
3258	0.0101361
3270	0.0093813
3282	0.00981262
3294	0.00916564
3306	0.00894997
3318	0.00884214
3330	0.0093813
3342	0.00862648
3354	0.00894997
3366	0.0090578
3378	0.00884214
3390	0.00808733
3402	0.00830299
3414	0.00787166
3426	0.00744034
3438	0.00690118
3450	0.00582287
3462	0.00571504
3474	0.00474456
3486	0.00560721
3498	0.00549938
3510	0.00711685
3522	0.0107831
3534	0.0156355
3546	0.0257716
3558	0.0692275
3570	0.352176
3582	0.357891
3594	0.077207
3606	0.0188704
3618	0.00808733
3630	0.00776383
3642	0.00323493
3654	0.00226445
3666	0.000431324
3678	0.0017253
3690	0.00204879
3702	0.00107831
3714	0.00150963
3726	0.00237228
3738	0.00366625
3750	0.00183313
3762	0.000215662
3774	0.000539155
3786	0.000107831
3798	0.00204879
3810	0
3822	0.000862648
3834	0.000215662
3846	0.000323493
3858	0.000323493
3870	0.00161747
3882	0.00183313
3894	0.000754817
3906	0.00194096
3918	0.000646986
3930	0.00118614
3942	0.00129397
3954	0.00150963
3966	0.00204879
