Infrared Spectrum: Thiophene, tetrahydro-3,3,4-trichloro-, 1,1-dioxide
Formula: C 4 H 5 Cl 3 O 2 S
CAS: 42829-14-1
Origin: Sadtler Research Labs Under US-EPA Contract
1/CM	ABSORBANCE
450	0.0396783
462	0.0516307
474	0.159301
486	0.0897414
498	0.0856267
510	0.0629954
522	0.0354655
534	0.0384046
546	0.101596
558	0.0221414
570	0.00803362
582	0.010287
594	0.0583907
606	0.064073
618	0.0144017
630	0.00871942
642	0.016753
654	0.0354655
666	0.0558435
678	0.0682858
690	0.0385026
702	0.0423235
714	0.0259623
726	0.0399722
738	0.107082
750	0.10189
762	0.0340939
774	0.0161652
786	0.016851
798	0.0300771
810	0.0226313
822	0.0122464
834	0.0121484
846	0.0388945
858	0.0753397
870	0.120602
882	0.183794
894	0.1497
906	0.211323
918	0.179483
930	0.218573
942	0.110903
954	0.0973832
966	0.0716168
978	0.0442829
990	0.0300771
1002	0.00666203
1014	0.00773971
1026	0.0186145
1038	0.0258643
1050	0.0368371
1062	0.0253745
1074	0.0198881
1086	0.0183206
1098	0.013422
1110	0.0315467
1122	0.0772991
1134	0.416279
1146	0.600366
1158	0.20427
1170	0.108552
1182	0.04732
1194	0.0579009
1206	0.0697554
1218	0.178209
1230	0.215046
1242	0.416475
1254	0.142548
1266	0.0732823
1278	0.150679
1290	0.144409
1302	0.100714
1314	0.0544719
1326	0.0426174
1338	0.067502
1350	0.226901
1362	0.742718
1374	0.802774
1386	0.101694
1398	0.04732
1410	0.11639
1422	0.097873
1434	0.0216516
1446	0.00695594
1458	0.00832754
1470	0.00842551
1482	0.0037229
1494	0.00509449
1506	0.00264522
1518	0.00617217
1530	0.00156754
1542	0.00480058
1554	0.00666203
1566	0.00450667
1578	0.00930725
1590	0.0244928
1602	0.0398742
1614	0.0227293
1626	0.00685797
1638	0.00685797
1650	0.00930725
1662	0.00156754
1674	0.00440869
1686	0.00529043
1698	0.00450667
1710	0.0030371
1722	0.0030371
1734	0.00137159
1746	0.00254725
1758	0.00411478
1770	0.00401681
1782	0.00313507
1794	0.00244927
1806	0.00293913
1818	0.00362493
1830	0.00342898
1842	0.00186145
1854	0.00333101
1866	0.00352696
1878	0.00274319
1890	0.00401681
1902	0.00352696
1914	0.00323304
1926	0.00333101
1938	0.00342898
1950	0.00342898
1962	0.00284116
1974	0.00323304
1986	0.00352696
1998	0.00293913
2010	0.00342898
2022	0.0030371
2034	0.00313507
2046	0.00333101
2058	0.00362493
2070	0.00391884
2082	0.00382087
2094	0.00352696
2106	0.00362493
2118	0.0037229
2130	0.0037229
2142	0.00362493
2154	0.00352696
2166	0.00333101
2178	0.00342898
2190	0.00352696
2202	0.00391884
2214	0.00362493
2226	0.00421275
2238	0.00401681
2250	0.00382087
2262	0.00450667
2274	0.00705391
2286	0.00734782
2298	0.00666203
2310	0.00636811
2322	0.00568232
2334	0.00480058
2346	0.00783768
2358	0.00411478
2370	0.00558435
2382	0.00597623
2394	0.00391884
2406	0.00480058
2418	0.0053884
2430	0.00519246
2442	0.00578029
2454	0.00431072
2466	0.00421275
2478	0.00578029
2490	0.00803362
2502	0.0104829
2514	0.00646609
2526	0.00401681
2538	0.0037229
2550	0.00421275
2562	0.00382087
2574	0.00431072
2586	0.00431072
2598	0.00499652
2610	0.00450667
2622	0.00382087
2634	0.00323304
2646	0.0030371
2658	0.00450667
2670	0.00323304
2682	0.00382087
2694	0.00274319
2706	0.00470261
2718	0.00391884
2730	0.00568232
2742	0.0030371
2754	0.00597623
2766	0.00284116
2778	0.00587826
2790	0.00333101
2802	0.00509449
2814	0.0037229
2826	0.00362493
2838	0.00342898
2850	0.00274319
2862	0.00440869
2874	0.00391884
2886	0.00352696
2898	0.00333101
2910	0.00480058
2922	0.00558435
2934	0.00401681
2946	0.00950319
2958	0.0159693
2970	0.0153814
2982	0.0114626
2994	0.00891536
3006	0.00715188
3018	0.0104829
3030	0.0212597
3042	0.0106788
3054	0.00509449
3066	0.0053884
3078	0.0060742
3090	0.00627014
3102	0.0108748
3114	0.00989507
3126	0.00656406
3138	0.00509449
3150	0.00519246
3162	0.00499652
3174	0.0053884
3186	0.00558435
3198	0.00529043
3210	0.00450667
3222	0.00489855
3234	0.00529043
3246	0.0060742
3258	0.00597623
3270	0.00519246
3282	0.00617217
3294	0.00636811
3306	0.00646609
3318	0.00656406
3330	0.00666203
3342	0.00646609
3354	0.00666203
3366	0.00724985
3378	0.00754377
3390	0.00724985
3402	0.00862145
3414	0.00773971
3426	0.00754377
3438	0.00871942
3450	0.00842551
3462	0.00842551
3474	0.00783768
3486	0.00832754
3498	0.00832754
3510	0.00871942
3522	0.00813159
3534	0.00793565
3546	0.00930725
3558	0.00871942
3570	0.00999304
3582	0.0074458
3594	0.010091
3606	0.00529043
3618	0.00754377
3630	0.0124423
3642	0.00705391
3654	0.0147936
3666	0.00499652
3678	0.0124423
3690	0.0144017
3702	0.00803362
3714	0.0125403
3726	0.00930725
3738	0.0129322
3750	0.0194962
3762	0.0103849
3774	0.0115606
3786	0.0110707
3798	0.0139119
3810	0.00568232
3822	0.0192023
3834	0.0143038
3846	0.01352
3858	0.0178307
3870	0.0120504
3882	0.0106788
3894	0.0131281
3906	0.0124423
3918	0.0113646
3930	0.0119525
3942	0.0130301
3954	0.0147936
3966	0.0118545
