Infrared Spectrum: Cyclohexane, pentyl-
Formula: C 11 H 22
CAS: 4292-92-6
Origin: Sadtler Research Labs Under US-EPA Contract
1/CM	ABSORBANCE
450	0.0027001
462	0.00244696
474	0.00261572
486	0.0034595
498	0.00278447
510	0.00329074
522	0.00362825
534	0
546	0.00405014
558	0.00286885
570	0.00447203
582	0.00379701
594	0.00303761
606	0.00295323
618	0.00329074
630	0.00329074
642	0.00354388
654	0.00295323
666	0.00244696
678	0.00295323
690	0.00312199
702	0.0042189
714	0.00708775
726	0.00776278
738	0.0057377
750	0.00430328
762	0.00480955
774	0.00430328
786	0.0034595
798	0.00320636
810	0.00303761
822	0.0042189
834	0.00632835
846	0.00725651
858	0.00430328
870	0.00641273
882	0.0099566
894	0.011391
906	0.00734089
918	0.0057377
930	0.00472517
942	0.00472517
954	0.0057377
966	0.00750964
978	0.0057377
990	0.00455641
1002	0.0042189
1014	0.00480955
1026	0.00607522
1038	0.00548457
1050	0.00447203
1062	0.00447203
1074	0.00548457
1086	0.00514706
1098	0.0049783
1110	0.00540019
1122	0.00480955
1134	0.00396577
1146	0.00430328
1158	0.00430328
1170	0.00396577
1182	0.00447203
1194	0.00523144
1206	0.00489392
1218	0.00438766
1230	0.0049783
1242	0.00582208
1254	0.00784715
1266	0.0119817
1278	0.00936596
1290	0.00742526
1302	0.00750964
1314	0.00734089
1326	0.00750964
1338	0.0099566
1350	0.0146818
1362	0.0113067
1374	0.0112223
1386	0.013163
1398	0.00725651
1410	0.00649711
1422	0.00734089
1434	0.0116442
1446	0.0419359
1458	0.0637054
1470	0.0398264
1482	0.0149349
1494	0.00649711
1506	0.0049783
1518	0.00379701
1530	0.00261572
1542	0.00362825
1554	0.00253134
1566	0.00227821
1578	0.00354388
1590	0.00244696
1602	0.00253134
1614	0.00261572
1626	0.00210945
1638	0.00278447
1650	0.00143443
1662	0.00236258
1674	0.00202507
1686	0.00286885
1698	0.00244696
1710	0.00194069
1722	0.00194069
1734	0.00261572
1746	0.00236258
1758	0.00168756
1770	0.00160318
1782	0.00168756
1794	0.00202507
1806	0.0015188
1818	0.00143443
1830	0.00160318
1842	0.00118129
1854	0.0015188
1866	0.000675024
1878	0.00143443
1890	0.00177194
1902	0.00168756
1914	0.00126567
1926	0.00168756
1938	0.00135005
1950	0.00118129
1962	0.000759402
1974	0.00118129
1986	0.00118129
1998	0.00109691
2010	0.00143443
2022	0.00143443
2034	0.00143443
2046	0.00143443
2058	0.00135005
2070	0.00084378
2082	0.00135005
2094	0.00135005
2106	0.00126567
2118	0.00126567
2130	0.00177194
2142	0.00160318
2154	0.00135005
2166	0.00210945
2178	0.00210945
2190	0.0015188
2202	0.000928158
2214	0.000928158
2226	0.000928158
2238	0.00143443
2250	0.00135005
2262	0.00118129
2274	0.000759402
2286	0.00101254
2298	0.00084378
2310	0.00101254
2322	0.00185632
2334	0.00185632
2346	0.00177194
2358	0.00194069
2370	0.000759402
2382	0.000928158
2394	0.00177194
2406	0.00185632
2418	0.00177194
2430	0.0015188
2442	0.00126567
2454	0.00135005
2466	0.00177194
2478	0.00177194
2490	0.00185632
2502	0.00185632
2514	0.00143443
2526	0.00135005
2538	0.00126567
2550	0.00194069
2562	0.00185632
2574	0.00295323
2586	0.00362825
2598	0.00489392
2610	0.00531581
2622	0.00531581
2634	0.00590646
2646	0.00683462
2658	0.00911282
2670	0.0111379
2682	0.0091972
2694	0.00750964
2706	0.00683462
2718	0.00683462
2730	0.00683462
2742	0.00750964
2754	0.006919
2766	0.00675024
2778	0.00776278
2790	0.0113067
2802	0.015188
2814	0.0174662
2826	0.0211789
2838	0.0404171
2850	0.139814
2862	0.30663
2874	0.196854
2886	0.131377
2898	0.145046
2910	0.249675
2922	0.496311
2934	0.84378
2946	0.469057
2958	0.168081
2970	0.174831
2982	0.0700337
2994	0.0267478
3006	0.0170444
3018	0.0125723
3030	0.00978785
3042	0.00700337
3054	0.00540019
3066	0.00540019
3078	0.00464079
3090	0.0042189
3102	0.00354388
3114	0.00295323
3126	0.00253134
3138	0.00261572
3150	0.00354388
3162	0.00303761
3174	0.00295323
3186	0.00295323
3198	0.00210945
3210	0.00236258
3222	0.00253134
3234	0.00210945
3246	0.00194069
3258	0.00236258
3270	0.0015188
3282	0.000928158
3294	0.0015188
3306	0.00126567
3318	0.00185632
3330	0.00244696
3342	0.00219383
3354	0.00194069
3366	0.00194069
3378	0.00185632
3390	0.00143443
3402	0.00244696
3414	0.00194069
3426	0.00202507
3438	0.00185632
3450	0.000928158
3462	0.00126567
3474	0.00261572
3486	0.00168756
3498	0.00227821
3510	0.00160318
3522	0.00135005
3534	0.00118129
3546	0.00135005
3558	0.0015188
3570	0.00143443
3582	0.00135005
3594	0.0015188
3606	0.00202507
3618	0.00210945
3630	0.0034595
3642	0.00303761
3654	0.00354388
3666	0.00312199
3678	0.00337512
3690	0.00337512
3702	0.00371263
3714	0.00371263
3726	0.00278447
3738	0.00312199
3750	0.00447203
3762	0.00379701
3774	0.00396577
3786	0.00413452
3798	0.00430328
3810	0.00464079
3822	0.00506268
3834	0.00489392
3846	0.00472517
3858	0.00624397
3870	0.00556895
3882	0.00506268
3894	0.00607522
3906	0.00582208
3918	0.0049783
3930	0.00464079
3942	0.00464079
3954	0.00632835
3966	0.00734089
