Infrared Spectrum: 1-Hexanol, 6-dipropylamino-,
Formula: C 12 H 27 N O
CAS: 43010-05-5
Origin: Sadtler Research Labs Under US-EPA Contract
1/CM	ABSORBANCE
450	0
462	0.0052751
474	0.0242264
486	0.0166068
498	0.0269616
510	0.033702
522	0.0211004
534	0.0075219
546	0.0101594
558	0.0183652
570	0.0097687
582	0.0089872
594	0.0097687
606	0.00615428
618	0.00771727
630	0.00830339
642	0.00957333
654	0.00537278
666	0.00703346
678	0.0111363
690	0.0110386
702	0.0153369
714	0.0164114
726	0.0214911
738	0.0217842
750	0.0216865
762	0.0156299
774	0.0121132
786	0.0157276
798	0.0131877
810	0.0178767
822	0.017486
834	0.0230541
846	0.0292084
858	0.0294038
870	0.0312598
882	0.0337997
894	0.0397586
906	0.0351673
918	0.0358511
930	0.0362419
942	0.0295015
954	0.0315529
966	0.0378049
978	0.0492342
990	0.0664272
1002	0.0879183
1014	0.121425
1026	0.156983
1038	0.179744
1050	0.202017
1062	0.222336
1074	0.271863
1086	0.217647
1098	0.132659
1110	0.0800057
1122	0.0590029
1134	0.051481
1146	0.0498204
1158	0.0506019
1170	0.0549001
1182	0.0776612
1194	0.106772
1206	0.0700416
1218	0.0594914
1230	0.059296
1242	0.0564631
1254	0.060859
1266	0.0682832
1278	0.0717999
1290	0.0742421
1302	0.0757074
1314	0.0663295
1326	0.0606636
1338	0.0771727
1350	0.0919235
1362	0.106967
1374	0.120643
1386	0.138813
1398	0.0793218
1410	0.0453268
1422	0.0375118
1434	0.0439592
1446	0.0707254
1458	0.127188
1470	0.152978
1482	0.0707254
1494	0.0297945
1506	0.0203189
1518	0.0145554
1530	0.0113317
1542	0.0113317
1554	0.00957333
1566	0.00830339
1578	0.00732653
1590	0.00634966
1602	0.00625197
1614	0.00693578
1626	0.00683809
1638	0.00664272
1650	0.00693578
1662	0.00644734
1674	0.00566585
1686	0.00791265
1698	0.00918258
1710	0.0138716
1722	0.00830339
1734	0.00781496
1746	0.00713115
1758	0.0067404
1770	0.00771727
1782	0.00693578
1794	0.00703346
1806	0.00517741
1818	0.00400517
1830	0.00400517
1842	0.00429823
1854	0.00341904
1866	0.00410285
1878	0.00380979
1890	0.00380979
1902	0.00380979
1914	0.00459129
1926	0.00410285
1938	0.00410285
1950	0.00400517
1962	0.00400517
1974	0.00400517
1986	0.00400517
1998	0.00390748
2010	0.00468898
2022	0.00478666
2034	0.00537278
2046	0.00547047
2058	0.0052751
2070	0.00507972
2082	0.00439592
2094	0.00410285
2106	0.00429823
2118	0.00420054
2130	0.00351673
2142	0.00400517
2154	0.00439592
2166	0.00410285
2178	0.00468898
2190	0.00498204
2202	0.00478666
2214	0.00478666
2226	0.00439592
2238	0.00468898
2250	0.00468898
2262	0.00478666
2274	0.00498204
2286	0.00498204
2298	0.00420054
2310	0.00390748
2322	0.00459129
2334	0.00556816
2346	0.00537278
2358	0.0052751
2370	0.00566585
2382	0.00576353
2394	0.00664272
2406	0.00644734
2418	0.00664272
2430	0.00654503
2442	0.00615428
2454	0.00644734
2466	0.00713115
2478	0.00713115
2490	0.00713115
2502	0.00732653
2514	0.00771727
2526	0.00879183
2538	0.0101594
2550	0.0108433
2562	0.0113317
2574	0.0123086
2586	0.0141646
2598	0.0157276
2610	0.0172906
2622	0.0191467
2634	0.0216865
2646	0.0250079
2658	0.029013
2670	0.0341904
2682	0.0371211
2694	0.041517
2706	0.0502111
2718	0.0640827
2730	0.0775635
2742	0.0888952
2754	0.0930957
2766	0.109409
2778	0.136566
2790	0.188145
2802	0.310938
2814	0.294722
2826	0.202505
2838	0.158644
2850	0.184042
2862	0.315822
2874	0.416928
2886	0.456296
2898	0.363786
2910	0.434805
2922	0.55242
2934	0.821059
2946	0.937111
2958	0.676385
2970	0.745156
2982	0.335946
2994	0.118787
3006	0.0676971
3018	0.0488435
3030	0.0388794
3042	0.0301853
3054	0.0236403
3066	0.0194397
3078	0.0168999
3090	0.0160207
3102	0.0144577
3114	0.0129924
3126	0.0123086
3138	0.0118201
3150	0.0111363
3162	0.0103548
3174	0.0102571
3186	0.0097687
3198	0.00908489
3210	0.0075219
3222	0.00654503
3234	0.00722884
3246	0.00634966
3258	0.00634966
3270	0.0067404
3282	0.00586122
3294	0.00586122
3306	0.00586122
3318	0.00566585
3330	0.00615428
3342	0.0052751
3354	0.0067404
3366	0.00586122
3378	0.00625197
3390	0.00634966
3402	0.00664272
3414	0.00703346
3426	0.00664272
3438	0.00644734
3450	0.00576353
3462	0.00693578
3474	0.00722884
3486	0.00654503
3498	0.00683809
3510	0.00576353
3522	0.00556816
3534	0.00683809
3546	0.00683809
3558	0.00371211
3570	0.00722884
3582	0.00703346
3594	0.00742421
3606	0.00634966
3618	0.00849877
3630	0.0113317
3642	0.0169975
3654	0.0332136
3666	0.048062
3678	0.0439592
3690	0.0175837
3702	0.0115271
3714	0.0108433
3726	0.00605659
3738	0.00791265
3750	0.00967101
3762	0.00576353
3774	0.00615428
3786	0.0075219
3798	0.00986639
3810	0.00830339
3822	0.00849877
3834	0.00908489
3846	0.00859646
3858	0.00918258
3870	0.00908489
3882	0.00791265
3894	0.0109409
3906	0.0097687
3918	0.00967101
3930	0.00801033
3942	0.00713115
3954	0.0122109
3966	0.00801033
