Infrared Spectrum: 1,4-Cyclohexadiene, 1-methyl-
Formula: C 7 H 10
CAS: 4313-57-9
Origin: Sadtler Research Labs Under US-EPA Contract
1/CM	ABSORBANCE
450	0
462	0.0177419
474	0.0137561
486	0.0121034
498	0.0102077
510	0.00957578
522	0.0109854
534	0.00840918
546	0.0118117
558	0.0142421
570	0.011034
582	0.0136588
594	0.0124923
606	0.0119576
618	0.0277552
630	0.0573574
642	0.112382
654	0.194481
666	0.220389
678	0.113208
690	0.0568714
702	0.0269774
714	0.0192974
726	0.0256164
738	0.0194432
750	0.0164295
762	0.0154087
774	0.0195404
786	0.018228
798	0.0223597
810	0.0239151
822	0.0189571
834	0.0164295
846	0.015506
858	0.0177419
870	0.0263455
882	0.0377198
894	0.0436014
906	0.0356783
918	0.0350464
930	0.0598364
942	0.108687
954	0.187141
966	0.105236
978	0.0632876
990	0.0429209
1002	0.0464206
1014	0.046372
1026	0.0269774
1038	0.017985
1050	0.0166725
1062	0.0197348
1074	0.0200265
1086	0.0180822
1098	0.0144366
1110	0.0136102
1122	0.0139505
1134	0.0165267
1146	0.0277552
1158	0.0318382
1170	0.0294564
1182	0.0180822
1194	0.0178877
1206	0.0170128
1218	0.0158948
1230	0.0148254
1242	0.0139505
1254	0.0130269
1266	0.0138047
1278	0.015506
1290	0.0173044
1302	0.0196862
1314	0.020464
1326	0.019589
1338	0.0214361
1350	0.0236721
1362	0.0246443
1374	0.0412682
1386	0.0556076
1398	0.0496288
1410	0.024547
1422	0.0517675
1434	0.0864736
1446	0.11
1458	0.075391
1470	0.0534202
1482	0.027658
1494	0.0186655
1506	0.0173044
1518	0.0142421
1530	0.0132214
1542	0.0153115
1554	0.0127839
1566	0.0145824
1578	0.0172558
1590	0.02095
1602	0.0251789
1614	0.0286787
1626	0.0327618
1638	0.0403932
1650	0.0468581
1662	0.037817
1674	0.0209014
1686	0.0218736
1698	0.0228458
1710	0.016867
1722	0.0133186
1734	0.0154087
1746	0.0178391
1758	0.018471
1770	0.0163323
1782	0.0133186
1794	0.0122492
1806	0.01327
1818	0.0136102
1830	0.0122006
1842	0.010791
1854	0.0112771
1866	0.0126867
1878	0.01327
1890	0.0135616
1902	0.0133672
1914	0.0122492
1926	0.0115687
1938	0.0104021
1950	0.0101105
1962	0.0100619
1974	0.00986742
1986	0.00991603
1998	0.00928413
2010	0.00889526
2022	0.0085064
2034	0.00840918
2046	0.00816614
2058	0.00860362
2070	0.00840918
2082	0.0085064
2094	0.00860362
2106	0.00826336
2118	0.00816614
2130	0.00816614
2142	0.00821475
2154	0.00836058
2166	0.00816614
2178	0.00816614
2190	0.00811754
2202	0.00802032
2214	0.00816614
2226	0.00816614
2238	0.00797171
2250	0.00811754
2262	0.00811754
2274	0.00831197
2286	0.00845779
2298	0.0090897
2310	0.00991603
2322	0.0106938
2334	0.0105479
2346	0.0118117
2358	0.0109368
2370	0.0105479
2382	0.0100132
2394	0.00884666
2406	0.00879805
2418	0.00865222
2430	0.00904109
2442	0.00952717
2454	0.0101591
2466	0.00952717
2478	0.00918691
2490	0.00938134
2502	0.00942995
2514	0.00996464
2526	0.0103535
2538	0.0101591
2550	0.0100619
2562	0.00942995
2574	0.00942995
2586	0.00986742
2598	0.0102563
2610	0.010791
2622	0.0104507
2634	0.0102563
2646	0.012395
2658	0.016867
2670	0.0217278
2682	0.022068
2694	0.0169642
2706	0.0153601
2718	0.0209987
2730	0.0292134
2742	0.0336367
2754	0.0287759
2766	0.0250817
2778	0.0287759
2790	0.0366018
2802	0.0501635
2814	0.100376
2826	0.294856
2838	0.346186
2850	0.352991
2862	0.401259
2874	0.4819
2886	0.476261
2898	0.377781
2910	0.257963
2922	0.213875
2934	0.191564
2946	0.170468
2958	0.161865
2970	0.24445
2982	0.252664
2994	0.164149
3006	0.129735
3018	0.186703
3030	0.367136
3042	0.347256
3054	0.203473
3066	0.0587671
3078	0.0506495
3090	0.0432611
3102	0.0368449
3114	0.027658
3126	0.019589
3138	0.0167698
3150	0.0132214
3162	0.0108396
3174	0.0111312
3186	0.0101105
3198	0.00923552
3210	0.00986742
3222	0.00947856
3234	0.00952717
3246	0.0116173
3258	0.0121034
3270	0.011909
3282	0.0111312
3294	0.0110826
3306	0.0121034
3318	0.0115687
3330	0.0100619
3342	0.00967299
3354	0.00923552
3366	0.00894387
3378	0.0090897
3390	0.00884666
3402	0.00836058
3414	0.00870083
3426	0.00855501
3438	0.00821475
3450	0.00947856
3462	0.00836058
3474	0.00865222
3486	0.00884666
3498	0.00840918
3510	0.00933274
3522	0.0105965
3534	0.00918691
3546	0.00899248
3558	0.00918691
3570	0.00874944
3582	0.00889526
3594	0.00977021
3606	0.0091383
3618	0.0104507
3630	0.00928413
3642	0.00821475
3654	0.0112284
3666	0.00977021
3678	0.010791
3690	0.00991603
3702	0.0085064
3714	0.00957578
3726	0.00894387
3738	0.0101591
3750	0.0104021
3762	0.0100132
3774	0.0091383
3786	0.00923552
3798	0.00938134
3810	0.0085064
3822	0.00977021
3834	0.0103535
3846	0.00889526
3858	0.00991603
3870	0.0103535
3882	0.00865222
3894	0.0105479
3906	0.0105965
3918	0.011909
3930	0.011909
3942	0.0105479
3954	0.0114715
3966	0.0111312
