Infrared Spectrum: m-Toluidine, N-(3-pyridylmethylene)-.alpha.,.alpha.,.alpha.-trifluoro-,
Formula: C 13 H 9 F 3 N 2
CAS: 43145-07-9
Origin: Sadtler Research Labs Under US-EPA Contract
1/CM	ABSORBANCE
450	0.00808008
462	0.0110428
474	0.00552139
486	0.00134668
498	0.00134668
510	0.00498272
522	0.00834942
534	0.0157562
546	0.0319163
558	0.00215469
570	0.00255869
582	0.00404004
594	0.00511738
606	0.0071374
618	0.0207389
630	0.0142748
642	0.029627
654	0.071374
666	0.0254523
678	0.0263949
690	0.113794
702	0.207254
714	0.0746061
726	0.0266643
738	0.0136015
750	0.0177762
762	0.0362257
774	0.0179108
786	0.0667953
798	0.15204
810	0.0763568
822	0.0196615
834	0.0114468
846	0.0223549
858	0.0309736
870	0.0191229
882	0.0688153
894	0.20887
906	0.20685
918	0.127127
930	0.0269336
942	0.0127935
954	0.0118508
966	0.0148135
978	0.0245096
990	0.0179108
1002	0.0199309
1014	0.0338017
1026	0.0750101
1038	0.0290883
1050	0.0281456
1062	0.116757
1074	0.202675
1086	0.114468
1098	0.127396
1110	0.0611393
1122	0.103425
1134	0.274319
1146	0.931095
1158	0.521165
1170	0.461777
1182	0.78673
1194	0.18234
1206	0.104368
1218	0.0719127
1230	0.126184
1242	0.125645
1254	0.064102
1266	0.070566
1278	0.118912
1290	0.0833595
1302	0.156888
1314	0.370606
1326	1.34668
1338	0.462719
1350	0.0801275
1362	0.0593886
1374	0.0379764
1386	0.0208735
1398	0.0281456
1410	0.0471338
1422	0.146788
1434	0.167662
1446	0.171298
1458	0.0556179
1470	0.0437671
1482	0.072182
1494	0.0612739
1506	0.0211429
1518	0.0154868
1530	0.0136015
1542	0.0250482
1554	0.0305696
1566	0.0864569
1578	0.141132
1590	0.199039
1602	0.0844368
1614	0.104637
1626	0.124703
1638	0.425147
1650	0.145441
1662	0.0591193
1674	0.0371684
1686	0.0269336
1698	0.0277416
1710	0.0184495
1722	0.0165642
1734	0.0212775
1746	0.0146788
1758	0.0152175
1770	0.0161602
1782	0.0118508
1794	0.0131975
1806	0.0096961
1818	0.00740674
1830	0.00996543
1842	0.00740674
1854	0.00444404
1866	0.00942676
1878	0.0106388
1890	0.0102348
1902	0.0119855
1914	0.0110428
1926	0.00740674
1938	0.0127935
1950	0.0096961
1962	0.00646406
1974	0.00282803
1986	0.00107734
1998	0.000538672
2010	0
2022	0.000942676
2034	0.000942676
2046	0.00175068
2058	0.00215469
2070	0.00417471
2082	0.00619473
2094	0.00444404
2106	0.00215469
2118	0.00175068
2130	0.000942676
2142	0.000269336
2154	0
2166	0.000134668
2178	0.00067334
2190	0.000808008
2202	0.00121201
2214	0.00202002
2226	0.00175068
2238	0.00228936
2250	0.00188535
2262	0.00242402
2274	0.00202002
2286	0.00215469
2298	0.00121201
2310	0.00107734
2322	0.00228936
2334	0.00417471
2346	0.00579072
2358	0.00350137
2370	0.00444404
2382	0.0037707
2394	0.00188535
2406	0.00188535
2418	0.00134668
2430	0.000808008
2442	0.000942676
2454	0.00134668
2466	0.00215469
2478	0.00282803
2490	0.00255869
2502	0.00269336
2514	0.00188535
2526	0.00161602
2538	0.00121201
2550	0.00134668
2562	0.00067334
2574	0.000134668
2586	0.00161602
2598	0.00269336
2610	0.00188535
2622	0.00148135
2634	0.00134668
2646	0.00188535
2658	0.00202002
2670	0.000942676
2682	0.00134668
2694	0.00107734
2706	0.00148135
2718	0.00188535
2730	0.00161602
2742	0.00175068
2754	0.00121201
2766	0.00242402
2778	0.00242402
2790	0.00350137
2802	0.00457871
2814	0.00471338
2826	0.00525205
2838	0.00686807
2850	0.0140055
2862	0.0261256
2874	0.0387844
2886	0.0432284
2898	0.0230282
2910	0.0106388
2922	0.00686807
2934	0.0071374
2946	0.00821475
2958	0.0111774
2970	0.0145441
2982	0.0179108
2994	0.0180455
3006	0.0278763
3018	0.0290883
3030	0.035283
3042	0.0619473
3054	0.0611393
3066	0.0576379
3078	0.0476725
3090	0.0654486
3102	0.0245096
3114	0.0125241
3126	0.00781074
3138	0.00834942
3150	0.00457871
3162	0.0037707
3174	0.00390537
3186	0.0033667
3198	0.00350137
3210	0.00363604
3222	0.00323203
3234	0.00417471
3246	0.00471338
3258	0.00565606
3270	0.00511738
3282	0.00228936
3294	0.00242402
3306	0.000942676
3318	0.00107734
3330	0.00121201
3342	0.00107734
3354	0.000942676
3366	0.00161602
3378	0.00148135
3390	0.00121201
3402	0.00121201
3414	0.00215469
3426	0.00161602
3438	0.00148135
3450	0.00148135
3462	0.00202002
3474	0.00161602
3486	0.00121201
3498	0.00215469
3510	0.00188535
3522	0.000808008
3534	0.00121201
3546	0.00161602
3558	0.00188535
3570	0.00202002
3582	0.0029627
3594	0.00242402
3606	0.00148135
3618	0.00202002
3630	0.00282803
3642	0.00161602
3654	0.00121201
3666	0.00175068
3678	0.0033667
3690	0.00269336
3702	0.00228936
3714	0.00282803
3726	0.00215469
3738	0.00202002
3750	0.00323203
3762	0.00255869
3774	0.00282803
3786	0.00134668
3798	0.00444404
3810	0.00148135
3822	0.00282803
3834	0.00255869
3846	0.00457871
3858	0.00363604
3870	0.00175068
3882	0.00255869
3894	0.00175068
3906	0.00444404
3918	0.0029627
3930	0.00242402
3942	0.00404004
3954	0.00350137
3966	0.00323203
