Infrared Spectrum: 3-Penten-2-ol, 4-methyl-,
Formula: C 6 H 12 O
CAS: 4325-82-0
Origin: Sadtler Research Labs Under US-EPA Contract
1/CM	ABSORBANCE
450	0
462	0.0415186
474	0.0244952
486	0.0409024
498	0.0379753
510	0.0415957
522	0.0516865
534	0.0468336
546	0.0388996
558	0.0360496
570	0.0296562
582	0.029117
594	0.0284237
606	0.023879
618	0.0268061
630	0.0274223
642	0.0258817
654	0.0280386
666	0.0270372
678	0.023956
690	0.0247263
702	0.023879
714	0.0218762
726	0.0214141
738	0.0231857
750	0.0231857
762	0.0244952
774	0.0241101
786	0.0294251
798	0.0338928
810	0.0496837
822	0.0816507
834	0.111923
846	0.125172
858	0.154443
870	0.166537
882	0.105607
894	0.0582339
906	0.0520716
918	0.0588502
930	0.095747
942	0.148281
954	0.140963
966	0.0978268
978	0.087582
990	0.0951308
1002	0.111615
1014	0.164688
1026	0.272143
1038	0.347786
1050	0.349635
1062	0.394466
1074	0.444226
1086	0.339775
1098	0.196424
1110	0.141425
1122	0.130564
1134	0.13041
1146	0.13041
1158	0.122861
1170	0.115543
1182	0.116314
1194	0.128176
1206	0.144044
1218	0.146971
1230	0.177013
1242	0.237557
1254	0.234245
1266	0.159604
1278	0.105838
1290	0.0948997
1302	0.115004
1314	0.136881
1326	0.136033
1338	0.129255
1350	0.140116
1362	0.210597
1374	0.334152
1386	0.347093
1398	0.204512
1410	0.113772
1422	0.104913
1434	0.137574
1446	0.190955
1458	0.19419
1470	0.136958
1482	0.0805723
1494	0.0540744
1506	0.0443687
1518	0.0383604
1530	0.0358955
1542	0.0363577
1554	0.0365888
1566	0.0368199
1578	0.0363577
1590	0.034509
1602	0.0350482
1614	0.0382064
1626	0.0460633
1638	0.0535352
1650	0.0609299
1662	0.0810345
1674	0.112693
1686	0.0846549
1698	0.0472958
1710	0.0409794
1722	0.0348941
1734	0.0334306
1746	0.0392078
1758	0.0362036
1770	0.034586
1782	0.0331995
1794	0.0337387
1806	0.0324292
1818	0.0251885
1830	0.0201816
1842	0.0178707
1854	0.0182559
1866	0.0182559
1878	0.0187951
1890	0.0195654
1902	0.0201046
1914	0.0193343
1926	0.0191032
1938	0.018641
1950	0.0188721
1962	0.0193343
1974	0.018641
1986	0.0181018
1998	0.0176396
2010	0.0177167
2022	0.0173315
2034	0.0171775
2046	0.0169464
2058	0.0164842
2070	0.0166383
2082	0.0167923
2094	0.0165612
2106	0.0170234
2118	0.0172545
2130	0.0175626
2142	0.0177167
2154	0.0178707
2166	0.0181788
2178	0.018641
2190	0.0188721
2202	0.018641
2214	0.0175626
2226	0.0177167
2238	0.0177167
2250	0.0171775
2262	0.0171004
2274	0.0164842
2286	0.0166383
2298	0.0164072
2310	0.0169464
2322	0.0176396
2334	0.0180248
2346	0.0166383
2358	0.0174086
2370	0.0180248
2382	0.0184099
2394	0.0191802
2406	0.0197194
2418	0.0202586
2430	0.0204127
2442	0.0203357
2454	0.0198735
2466	0.0191802
2478	0.0189491
2490	0.0191032
2502	0.0191032
2514	0.0187951
2526	0.018718
2538	0.0181788
2550	0.0175626
2562	0.0184099
2574	0.0196424
2586	0.0204897
2598	0.0210289
2610	0.0218762
2622	0.0217992
2634	0.0221073
2646	0.0219533
2658	0.0217992
2670	0.0221844
2682	0.0222614
2694	0.0225695
2706	0.0242641
2718	0.0276534
2730	0.0365888
2742	0.0463715
2754	0.0433673
2766	0.0360496
2778	0.0343549
2790	0.0364347
2802	0.0416727
2814	0.0509932
2826	0.0600826
2838	0.0730235
2850	0.105992
2862	0.198504
2874	0.302031
2886	0.339929
2898	0.355489
2910	0.415571
2922	0.536045
2934	0.581338
2946	0.463406
2958	0.384452
2970	0.566163
2982	0.77029
2994	0.55692
3006	0.269756
3018	0.162762
3030	0.112385
3042	0.087659
3054	0.0748722
3066	0.0674774
3078	0.0590812
3090	0.0489904
3102	0.0413646
3114	0.0368969
3126	0.0338928
3138	0.0304265
3150	0.0271912
3162	0.0261899
3174	0.0248033
3186	0.0228776
3198	0.0226465
3210	0.0221844
3222	0.0215681
3234	0.0193343
3246	0.0181018
3258	0.0171004
3270	0.0171775
3282	0.0171775
3294	0.0171004
3306	0.0172545
3318	0.0166383
3330	0.0167153
3342	0.0174856
3354	0.0164842
3366	0.0171775
3378	0.0178707
3390	0.0189491
3402	0.0181788
3414	0.018564
3426	0.0184099
3438	0.0175626
3450	0.0180248
3462	0.0176396
3474	0.0169464
3486	0.0174086
3498	0.0176396
3510	0.0177167
3522	0.0183329
3534	0.0179478
3546	0.0188721
3558	0.0194113
3570	0.021183
3582	0.0214141
3594	0.0217222
3606	0.0219533
3618	0.0278845
3630	0.0526878
3642	0.106454
3654	0.113695
3666	0.063703
3678	0.0301954
3690	0.0195654
3702	0.0177167
3714	0.0164072
3726	0.0169464
3738	0.0173315
3750	0.0167153
3762	0.0173315
3774	0.0174086
3786	0.0171775
3798	0.0163301
3810	0.0176396
3822	0.0195654
3834	0.0181788
3846	0.0193343
3858	0.0202586
3870	0.0187951
3882	0.0181018
3894	0.0177167
3906	0.0191802
3918	0.018487
3930	0.0182559
3942	0.0182559
3954	0.0177167
3966	0.018564
