Infrared Spectrum: Ethanol, 2,2,2-trifluoro-, 4-methylbenzenesulfonate
Formula: C 9 H 9 F 3 O 3 S
CAS: 433-06-7
Origin: Sadtler Research Labs Under US-EPA Contract
1/CM	ABSORBANCE
450	0.00229027
462	0.00152684
474	0.00330816
486	0.00699803
498	0.0136144
510	0.0161591
522	0.0271015
534	0.0618372
546	0.17317
558	0.452582
570	0.165281
582	0.0497497
594	0.0199762
606	0.0133599
618	0.0159046
630	0.0240478
642	0.0576384
654	0.102553
666	0.112223
678	0.229917
690	0.165663
702	0.121384
714	0.0529306
726	0.0506403
738	0.0829585
750	0.162609
762	0.261218
774	0.302188
786	0.260581
798	0.272287
810	0.315548
822	0.304478
834	0.0889387
846	0.0961912
858	0.100008
870	0.046696
882	0.0176859
894	0.00992449
906	0.00648909
918	0.00598014
930	0.0120875
942	0.0353719
954	0.100136
966	0.166935
978	0.0945371
990	0.0494952
1002	0.0454236
1014	0.0828313
1026	0.163372
1038	0.382729
1050	0.813553
1062	0.686571
1074	0.169989
1086	0.0806683
1098	0.12202
1110	0.0622189
1122	0.0422427
1134	0.0427516
1146	0.0852488
1158	0.224828
1170	0.763676
1182	1.27237
1194	1.21995
1206	0.533123
1218	0.168843
1230	0.0813044
1242	0.0656543
1254	0.0721434
1266	0.122402
1278	0.293409
1290	0.586944
1302	0.511874
1314	0.198108
1326	0.0749426
1338	0.0438968
1350	0.0480956
1362	0.0867756
1374	0.207905
1386	0.365297
1398	0.471159
1410	0.426498
1422	0.160828
1434	0.0619644
1446	0.0455508
1458	0.0567477
1470	0.0353719
1482	0.0265925
1494	0.0469505
1506	0.0337178
1518	0.0184494
1530	0.0137416
1542	0.0128509
1554	0.0108151
1566	0.0128509
1578	0.0199762
1590	0.0385528
1602	0.0712527
1614	0.0363898
1626	0.017177
1638	0.0122148
1650	0.0122148
1662	0.00508948
1674	0.00318092
1686	0.0024175
1698	0.00229027
1710	0.000636185
1722	0.000127237
1734	0.00139961
1746	0.00190855
1758	0.00381711
1770	0.00356264
1782	0.00279921
1794	0.00737975
1806	0.0068708
1818	0.00267198
1830	0.00216303
1842	0.00139961
1854	0.00127237
1866	0.00152684
1878	0.00178132
1890	0.00254474
1902	0.00483501
1914	0.0111969
1926	0.00712527
1938	0.00229027
1950	0.0010179
1962	0.000381711
1974	0.000636185
1986	0.000254474
1998	0.000636185
2010	0.00127237
2022	0.00165408
2034	0.00152684
2046	0.00139961
2058	0.0010179
2070	0.00165408
2082	0.00229027
2094	0.00279921
2106	0.0034354
2118	0.00292645
2130	0.00216303
2142	0.00190855
2154	0.00114513
2166	0.000381711
2178	0.000381711
2190	0.00127237
2202	0.00114513
2214	0.000763422
2226	0.000890659
2238	0.000890659
2250	0.00165408
2262	0.00139961
2274	0.00178132
2286	0.00292645
2298	0.00458053
2310	0.00470777
2322	0.0024175
2334	0.00254474
2346	0.00229027
2358	0.00203579
2370	0.00139961
2382	0.00279921
2394	0.00216303
2406	0.00229027
2418	0.00178132
2430	0.00127237
2442	0.000636185
2454	0.000763422
2466	0.0010179
2478	0.00139961
2490	0.00127237
2502	0.000636185
2514	0.000890659
2526	0.000254474
2538	0.000508948
2550	0.00165408
2562	0.00330816
2574	0.00445329
2586	0.00521672
2598	0.00445329
2610	0.00203579
2622	0.00139961
2634	0.000381711
2646	0
2658	0.000254474
2670	0.000381711
2682	0.000890659
2694	0.00165408
2706	0.00165408
2718	0.000636185
2730	0.000763422
2742	0.00190855
2754	0.00229027
2766	0.00139961
2778	0.00152684
2790	0.0024175
2802	0.0034354
2814	0.00292645
2826	0.0024175
2838	0.00356264
2850	0.00598014
2862	0.0115786
2874	0.0203579
2886	0.0240478
2898	0.0232844
2910	0.0203579
2922	0.0250657
2934	0.0483501
2946	0.0442785
2958	0.0300279
2970	0.0544574
2982	0.0608193
2994	0.0293917
3006	0.0278649
3018	0.0257019
3030	0.0278649
3042	0.0414793
3054	0.0417337
3066	0.0285011
3078	0.0279921
3090	0.0119603
3102	0.00852488
3114	0.00534395
3126	0.00356264
3138	0.00254474
3150	0.00203579
3162	0.00139961
3174	0.00127237
3186	0.0010179
3198	0.0010179
3210	0.000763422
3222	0.00114513
3234	0.000763422
3246	0.000890659
3258	0.0010179
3270	0.000636185
3282	0.000636185
3294	0.000890659
3306	0.000763422
3318	0.000381711
3330	0.00114513
3342	0.000636185
3354	0.000508948
3366	0.0010179
3378	0.000636185
3390	0.000636185
3402	0.000890659
3414	0.00127237
3426	0.000763422
3438	0.000254474
3450	0.000508948
3462	0.0010179
3474	0.000508948
3486	0.0010179
3498	0.000636185
3510	0.000763422
3522	0.000636185
3534	0.000508948
3546	0.000763422
3558	0.000763422
3570	0.00127237
3582	0.000763422
3594	0.000636185
3606	0.000890659
3618	0.000508948
3630	0.000763422
3642	0.00127237
3654	0.0010179
3666	0.00114513
3678	0.000890659
3690	0.00127237
3702	0.00114513
3714	0.00190855
3726	0.00190855
3738	0.00203579
3750	0.000508948
3762	0.000508948
3774	0.00114513
3786	0.00139961
3798	0.000508948
3810	0.0010179
3822	0.0010179
3834	0.00152684
3846	0.00152684
3858	0.00114513
3870	0.00178132
3882	0.000636185
3894	0.0010179
3906	0.00216303
3918	0.00178132
3930	0.000890659
3942	0.00229027
3954	0.00178132
3966	0.00190855
