Infrared Spectrum: .alpha.,.alpha.,.alpha.-Trifluoro-o-toluic acid
Formula: C 8 H 5 F 3 O 2
CAS: 433-97-6
Origin: Sadtler Research Labs Under US-EPA Contract
1/CM	ABSORBANCE
450	0
462	0.0215737
474	0.0259748
486	0.0333099
498	0.0352084
510	0.0382287
522	0.0472034
534	0.0680005
546	0.0721426
558	0.0761122
570	0.0902646
582	0.0893153
594	0.0821528
606	0.0577314
618	0.0540207
630	0.116498
642	0.0841376
654	0.0875031
666	0.0688634
678	0.0378835
690	0.0375383
702	0.0440104
714	0.0557466
726	0.0859498
738	0.0906098
750	0.0996707
762	0.13695
774	0.112788
786	0.0528125
798	0.0454775
810	0.0381424
822	0.0331373
834	0.030721
846	0.0297718
858	0.0284773
870	0.0298581
882	0.0289951
894	0.0289951
906	0.0274418
918	0.0278733
930	0.0272692
942	0.0283048
954	0.033655
966	0.0318429
978	0.0279596
990	0.0290814
1002	0.0316703
1014	0.0393505
1026	0.0904372
1038	0.225144
1050	0.216083
1062	0.0855183
1074	0.0730056
1086	0.134793
1098	0.197874
1110	0.178199
1122	0.157747
1134	0.166463
1146	0.235326
1158	0.51777
1170	0.86295
1182	0.620461
1194	0.284687
1206	0.120382
1218	0.0699852
1230	0.0550562
1242	0.0528125
1254	0.0654116
1266	0.133326
1278	0.192697
1290	0.156798
1302	0.259489
1314	0.616405
1326	0.371069
1338	0.1486
1350	0.126508
1362	0.09829
1374	0.0812036
1386	0.0597161
1398	0.0400409
1410	0.0310662
1422	0.0272692
1434	0.0267514
1446	0.0348632
1458	0.0317566
1470	0.0259748
1482	0.0272692
1494	0.0305484
1506	0.0277007
1518	0.0238174
1530	0.0246804
1542	0.0245941
1554	0.024853
1566	0.0264063
1578	0.0365891
1590	0.0399546
1602	0.0324469
1614	0.0328784
1626	0.0259748
1638	0.0251118
1650	0.0249393
1662	0.0243352
1674	0.0240763
1686	0.0241626
1698	0.025457
1710	0.0329647
1722	0.0454775
1734	0.061442
1746	0.0863813
1758	0.189159
1770	0.415424
1782	0.394541
1794	0.160681
1806	0.077234
1818	0.0453049
1830	0.0340002
1842	0.0299444
1854	0.0252844
1866	0.0241626
1878	0.0226093
1890	0.021056
1902	0.0214012
1914	0.0220915
1926	0.0224367
1938	0.0239037
1950	0.0224367
1962	0.0207108
1974	0.0217463
1986	0.0197616
1998	0.0185534
2010	0.0176042
2022	0.0171727
2034	0.0175179
2046	0.0174316
2058	0.0176905
2070	0.0176905
2082	0.017259
2094	0.017259
2106	0.0178631
2118	0.0177768
2130	0.0176905
2142	0.0173453
2154	0.017259
2166	0.0171727
2178	0.0170864
2190	0.0176905
2202	0.0179494
2214	0.0177768
2226	0.017259
2238	0.0171727
2250	0.0168275
2262	0.0164823
2274	0.0168275
2286	0.0175179
2298	0.0185534
2310	0.0195027
2322	0.0186397
2334	0.018122
2346	0.0190712
2358	0.0171727
2370	0.0179494
2382	0.0188986
2394	0.0163098
2406	0.0163098
2418	0.0158783
2430	0.0157057
2442	0.0154468
2454	0.0155331
2466	0.0155331
2478	0.0157057
2490	0.0159646
2502	0.0153605
2514	0.0148427
2526	0.0147564
2538	0.0144976
2550	0.014929
2562	0.0145839
2574	0.0148427
2586	0.0145839
2598	0.0141524
2610	0.0144113
2622	0.014325
2634	0.0139798
2646	0.0136346
2658	0.0137209
2670	0.0132031
2682	0.0138072
2694	0.0132894
2706	0.0132894
2718	0.0132031
2730	0.0132894
2742	0.0135483
2754	0.0137209
2766	0.0137209
2778	0.0137209
2790	0.0137209
2802	0.0140661
2814	0.014325
2826	0.0142387
2838	0.013462
2850	0.0135483
2862	0.0139798
2874	0.0142387
2886	0.0144113
2898	0.0145839
2910	0.0144113
2922	0.0141524
2934	0.0137209
2946	0.0141524
2958	0.0142387
2970	0.0147564
2982	0.0147564
2994	0.0147564
3006	0.0155331
3018	0.0160509
3030	0.0158783
3042	0.0176042
3054	0.0180357
3066	0.022523
3078	0.0337413
3090	0.0352084
3102	0.021056
3114	0.0159646
3126	0.0161372
3138	0.0153605
3150	0.0146701
3162	0.0151879
3174	0.0148427
3186	0.0148427
3198	0.0144976
3210	0.0136346
3222	0.0141524
3234	0.0144113
3246	0.0133757
3258	0.0137209
3270	0.0133757
3282	0.0133757
3294	0.0139798
3306	0.0139798
3318	0.0135483
3330	0.0141524
3342	0.0138935
3354	0.0132894
3366	0.0138935
3378	0.0138072
3390	0.0142387
3402	0.0137209
3414	0.014325
3426	0.0140661
3438	0.0144976
3450	0.014325
3462	0.0144113
3474	0.014929
3486	0.0147564
3498	0.014325
3510	0.0151016
3522	0.0165686
3534	0.0170001
3546	0.0220052
3558	0.0444419
3570	0.195976
3582	0.130219
3594	0.0243352
3606	0.0204519
3618	0.0192438
3630	0.0182945
3642	0.0157057
3654	0.014929
3666	0.0148427
3678	0.0150153
3690	0.0139798
3702	0.0137209
3714	0.0141524
3726	0.0148427
3738	0.0137209
3750	0.0133757
3762	0.0132031
3774	0.0136346
3786	0.0140661
3798	0.0142387
3810	0.0139798
3822	0.0132031
3834	0.0132031
3846	0.0141524
3858	0.014929
3870	0.0152742
3882	0.0138072
3894	0.0146701
3906	0.0153605
3918	0.0160509
3930	0.0154468
3942	0.0136346
3954	0.0146701
3966	0.0147564
