Infrared Spectrum: Benzene, pentafluoro(trifluoromethyl)-
Formula: C 7 F 8
CAS: 434-64-0
Origin: Sadtler Research Labs Under US-EPA Contract
1/CM	ABSORBANCE
450	0
462	0.0120747
474	0.0144896
486	0.0108672
498	0.0227407
510	0.0108672
522	0.0108672
534	0.0120747
546	0.0152946
558	0.0158984
570	0.0108672
582	0.0156971
594	0.0118735
606	0.011471
618	0.0108672
630	0.0144896
642	0.0146909
654	0.0142884
666	0.0158984
678	0.0185145
690	0.0148921
702	0.0233444
714	0.297641
726	0.191384
738	0.0169046
750	0.019722
762	0.0169046
774	0.0150934
786	0.0165021
798	0.0160996
810	0.0150934
822	0.0160996
834	0.0177096
846	0.019722
858	0.0324004
870	0.211307
882	0.479768
894	0.0770768
906	0.0261618
918	0.0217345
930	0.0235457
942	0.0247531
954	0.0273693
966	0.0416577
978	0.0559461
990	0.130407
1002	1.14891
1014	0.612389
1026	0.107666
1038	0.0535312
1050	0.0674171
1062	0.0547386
1074	0.0380353
1086	0.0806992
1098	0.0756681
1110	0.0420602
1122	0.041054
1134	0.061581
1146	0.130608
1158	0.480573
1170	1.10725
1182	0.764731
1194	0.517803
1206	0.468498
1218	0.259807
1230	0.774592
1242	1.10966
1254	0.135035
1266	0.0511162
1278	0.0422614
1290	0.0328029
1302	0.0305892
1314	0.0293818
1326	0.0307905
1338	0.189975
1350	1.64558
1362	0.298044
1374	0.0442739
1386	0.0315955
1398	0.0422614
1410	0.0684233
1422	0.106459
1434	0.214527
1446	0.0605747
1458	0.0378341
1470	0.0364253
1482	0.0897553
1494	0.430866
1506	1.20908
1518	1.85568
1530	0.987308
1542	0.359021
1554	0.058361
1566	0.0356204
1578	0.0340104
1590	0.0529274
1602	0.0527262
1614	0.0346141
1626	0.0412552
1638	0.061581
1650	0.246726
1662	0.293214
1674	0.0515187
1686	0.0307905
1698	0.0283755
1710	0.0209295
1722	0.0187158
1734	0.0263631
1746	0.0249544
1758	0.0203257
1770	0.0219357
1782	0.0195208
1794	0.0185145
1806	0.0163008
1818	0.0146909
1830	0.0132822
1842	0.0148921
1854	0.0124772
1866	0.0132822
1878	0.0150934
1890	0.0138859
1902	0.0110685
1914	0.0120747
1926	0.0112697
1938	0.0108672
1950	0.0104647
1962	0.0104647
1974	0.0108672
1986	0.0108672
1998	0.0108672
2010	0.0118735
2022	0.0136847
2034	0.0136847
2046	0.0140871
2058	0.0138859
2070	0.0156971
2082	0.0148921
2094	0.0132822
2106	0.0138859
2118	0.0138859
2130	0.0110685
2142	0.0104647
2154	0.0118735
2166	0.0112697
2178	0.009861
2190	0.00945851
2202	0.009861
2214	0.0110685
2226	0.0138859
2238	0.0163008
2250	0.0140871
2262	0.0112697
2274	0.0108672
2286	0.011471
2298	0.0136847
2310	0.0167033
2322	0.0185145
2334	0.0169046
2346	0.0163008
2358	0.0163008
2370	0.011471
2382	0.0138859
2394	0.0148921
2406	0.0160996
2418	0.0154959
2430	0.018112
2442	0.0179108
2454	0.0120747
2466	0.0112697
2478	0.010666
2490	0.0122759
2502	0.0173071
2514	0.0171058
2526	0.0152946
2538	0.0136847
2550	0.0124772
2562	0.011471
2574	0.0126784
2586	0.0132822
2598	0.0124772
2610	0.0142884
2622	0.0118735
2634	0.00905602
2646	0.00825105
2658	0.0100623
2670	0.0134834
2682	0.0152946
2694	0.0132822
2706	0.0108672
2718	0.0100623
2730	0.0100623
2742	0.0116722
2754	0.0120747
2766	0.0136847
2778	0.0142884
2790	0.0120747
2802	0.0100623
2814	0.0100623
2826	0.0102635
2838	0.0104647
2850	0.00965976
2862	0.009861
2874	0.0116722
2886	0.0128797
2898	0.0112697
2910	0.0120747
2922	0.0118735
2934	0.0138859
2946	0.0136847
2958	0.0136847
2970	0.0124772
2982	0.0108672
2994	0.0108672
3006	0.0100623
3018	0.0104647
3030	0.010666
3042	0.0122759
3054	0.0122759
3066	0.0108672
3078	0.0108672
3090	0.0100623
3102	0.010666
3114	0.0108672
3126	0.0108672
3138	0.0102635
3150	0.0112697
3162	0.0112697
3174	0.010666
3186	0.009861
3198	0.0102635
3210	0.00825105
3222	0.0100623
3234	0.011471
3246	0.0104647
3258	0.0126784
3270	0.0108672
3282	0.0132822
3294	0.0136847
3306	0.0122759
3318	0.0118735
3330	0.0130809
3342	0.0126784
3354	0.0124772
3366	0.0138859
3378	0.0118735
3390	0.0122759
3402	0.0142884
3414	0.0138859
3426	0.0128797
3438	0.0134834
3450	0.0134834
3462	0.0134834
3474	0.0128797
3486	0.0118735
3498	0.0128797
3510	0.0110685
3522	0.0126784
3534	0.0124772
3546	0.0138859
3558	0.0134834
3570	0.0128797
3582	0.0118735
3594	0.0118735
3606	0.011471
3618	0.0130809
3630	0.0104647
3642	0.0118735
3654	0.0112697
3666	0.0126784
3678	0.0118735
3690	0.0100623
3702	0.0110685
3714	0.0130809
3726	0.0122759
3738	0.0124772
3750	0.0116722
3762	0.0148921
3774	0.0120747
3786	0.0136847
3798	0.0136847
3810	0.0112697
3822	0.0158984
3834	0.0163008
3846	0.0165021
3858	0.0163008
3870	0.0154959
3882	0.0134834
3894	0.0128797
3906	0.0116722
3918	0.0171058
3930	0.0146909
3942	0.0167033
3954	0.0150934
3966	0.0179108
