Infrared Spectrum: 1,1'-Biphenyl, 2,2',3,3',4,4',5,5',6,6'-decafluoro-
Formula: C 12 F 10
CAS: 434-90-2
Origin: Sadtler Research Labs Under US-EPA Contract
1/CM	ABSORBANCE
450	0
462	0.00641139
474	0.00459578
486	0.00998589
498	0.0160001
510	0.0111774
522	0.0175888
534	0.00811353
546	0.00941851
558	0.0144682
570	0.0044823
582	0.0146384
594	0.00601423
606	0.01061
618	0.0130497
630	0.0068653
642	0.0142412
654	0.0112341
666	0.00624118
678	0.00964546
690	0.00941851
702	0.0119717
714	0.0149221
726	0.147973
738	0.0105533
750	0.0116313
762	0.0120285
774	0.00924829
786	0.0128795
798	0.00987241
810	0.0100994
822	0.0127093
834	0.00907808
846	0.0110072
858	0.0108937
870	0.00987241
882	0.0123121
894	0.00924829
906	0.00981567
918	0.00941851
930	0.0097022
942	0.0137306
954	0.0174753
966	0.0381279
978	0.0907241
990	0.197108
1002	0.133788
1014	0.0622416
1026	0.0364258
1038	0.0362556
1050	0.0300711
1062	0.0303548
1074	0.118469
1086	0.205902
1098	0.0162271
1110	0.0169647
1122	0.0150356
1134	0.0107235
1146	0.0146951
1158	0.0134469
1170	0.0118015
1182	0.0102696
1194	0.00930503
1206	0.00975894
1218	0.00834049
1230	0.00975894
1242	0.0104965
1254	0.0107802
1266	0.0125391
1278	0.0128795
1290	0.0264399
1302	0.0158866
1314	0.0109504
1326	0.0114611
1338	0.00987241
1350	0.0123689
1362	0.0120285
1374	0.0196881
1386	0.0167377
1398	0.0115178
1410	0.0157164
1422	0.0125391
1434	0.0149788
1446	0.0178725
1458	0.0273477
1470	0.0549224
1482	0.123178
1494	0.348598
1506	0.472117
1518	0.430812
1530	0.0882843
1542	0.0217307
1554	0.0165675
1566	0.0167944
1578	0.0211633
1590	0.0179859
1602	0.0165675
1614	0.0163973
1626	0.0198583
1638	0.0261562
1650	0.0375606
1662	0.0162271
1674	0.012766
1686	0.0102696
1698	0.00873765
1710	0.0102696
1722	0.00856744
1734	0.0115746
1746	0.00958872
1758	0.0085107
1770	0.0089646
1782	0.00743268
1794	0.00839722
1806	0.00782984
1818	0.00828375
1830	0.00834049
1842	0.00737594
1854	0.00817027
1866	0.00771637
1878	0.00913482
1890	0.00811353
1902	0.00692204
1914	0.00800006
1926	0.00697877
1938	0.00743268
1950	0.00720573
1962	0.00692204
1974	0.00726246
1986	0.0068653
1998	0.00726246
2010	0.00669508
2022	0.00720573
2034	0.00765963
2046	0.00652487
2058	0.00771637
2070	0.00748942
2082	0.00692204
2094	0.00743268
2106	0.00646813
2118	0.00737594
2130	0.00629792
2142	0.00675182
2154	0.00646813
2166	0.00578728
2178	0.00618444
2190	0.00618444
2202	0.00658161
2214	0.00652487
2226	0.00629792
2238	0.00743268
2250	0.00556032
2262	0.00635466
2274	0.00629792
2286	0.00584401
2298	0.00720573
2310	0.00624118
2322	0.00726246
2334	0.00556032
2346	0.00618444
2358	0.00868091
2370	0.00516316
2382	0.00709225
2394	0.00595749
2406	0.00641139
2418	0.00692204
2430	0.00590075
2442	0.0073192
2454	0.00624118
2466	0.0061277
2478	0.00635466
2490	0.00658161
2502	0.00714899
2514	0.00561706
2526	0.00550359
2538	0.0052199
2550	0.00516316
2562	0.00544685
2574	0.00385818
2586	0.00516316
2598	0.00476599
2610	0.00527663
2622	0.00573054
2634	0.00533337
2646	0.00624118
2658	0.00550359
2670	0.00510642
2682	0.00499294
2694	0.00346102
2706	0.00436883
2718	0.00374471
2730	0.00431209
2742	0.00431209
2754	0.0032908
2766	0.00368797
2778	0.00323407
2790	0.00363123
2802	0.00414187
2814	0.00334754
2826	0.00419861
2838	0.00334754
2850	0.00431209
2862	0.00374471
2874	0.00357449
2886	0.00442556
2898	0.00357449
2910	0.00493621
2922	0.00459578
2934	0.00527663
2946	0.00578728
2958	0.00431209
2970	0.0056738
2982	0.00431209
2994	0.00391492
3006	0.00499294
3018	0.00397166
3030	0.00533337
3042	0.00510642
3054	0.00465252
3066	0.00533337
3078	0.00419861
3090	0.00544685
3102	0.00431209
3114	0.00431209
3126	0.00470925
3138	0.00442556
3150	0.00646813
3162	0.00510642
3174	0.00595749
3186	0.00556032
3198	0.00487947
3210	0.00533337
3222	0.00431209
3234	0.00578728
3246	0.00595749
3258	0.00561706
3270	0.00692204
3282	0.0056738
3294	0.00692204
3306	0.00584401
3318	0.00629792
3330	0.00675182
3342	0.00533337
3354	0.00629792
3366	0.00561706
3378	0.00692204
3390	0.00754615
3402	0.00607097
3414	0.00800006
3426	0.00556032
3438	0.0061277
3450	0.00680856
3462	0.0056738
3474	0.0073192
3486	0.00680856
3498	0.00680856
3510	0.00709225
3522	0.00629792
3534	0.00743268
3546	0.00607097
3558	0.00624118
3570	0.00601423
3582	0.00584401
3594	0.00720573
3606	0.00635466
3618	0.00663835
3630	0.00624118
3642	0.00556032
3654	0.00556032
3666	0.00431209
3678	0.00544685
3690	0.00334754
3702	0.0052199
3714	0.00578728
3726	0.00459578
3738	0.00533337
3750	0.00385818
3762	0.00436883
3774	0.00323407
3786	0.00317733
3798	0.00340428
3810	0.00317733
3822	0.00459578
3834	0.00419861
3846	0.00368797
3858	0.00368797
3870	0.00317733
3882	0.00317733
3894	0.00317733
3906	0.00317733
3918	0.00317733
3930	0.00317733
3942	0.00465252
3954	0.00312059
3966	0.00317733
