Infrared Spectrum: Ethanone, 2,2,2-trifluoro-1-phenyl-
Formula: C 8 H 5 F 3 O
CAS: 434-45-7
Origin: Sadtler Research Labs Under US-EPA Contract
1/CM	ABSORBANCE
450	0
462	0.031406
474	0.02559
486	0.0353317
498	0.0309698
510	0.0293704
522	0.0450734
534	0.042747
546	0.031406
558	0.0293704
570	0.0254447
582	0.0266078
594	0.0444918
606	0.0693548
618	0.0327146
630	0.0286434
642	0.0268986
654	0.0421654
666	0.268405
678	0.219842
690	0.149178
702	0.172878
714	0.301265
726	0.174332
738	0.0638297
750	0.106868
762	0.0520525
774	0.0312606
786	0.0282072
798	0.0316968
810	0.0282072
822	0.0252993
834	0.0280618
846	0.0252993
858	0.0276256
870	0.0315514
882	0.0289342
894	0.0330053
906	0.0398391
918	0.0508893
930	0.209228
942	0.691367
954	0.198032
966	0.0652837
978	0.0396937
990	0.0315514
1002	0.044201
1014	0.029952
1026	0.0287888
1038	0.029952
1050	0.0293704
1062	0.0359133
1074	0.0383851
1086	0.0351863
1098	0.0402752
1110	0.0526341
1122	0.0706634
1134	0.12984
1146	0.444045
1158	1.14326
1170	1.06315
1182	1.45398
1194	0.710124
1206	0.899868
1218	1.08307
1230	0.290505
1242	0.145107
1254	0.099016
1266	0.0628119
1278	0.0553966
1290	0.054815
1302	0.0674647
1314	0.0857848
1326	0.10425
1338	0.0886928
1350	0.0535065
1362	0.032133
1374	0.0276256
1386	0.0286434
1398	0.0264624
1410	0.0261716
1422	0.0279164
1434	0.0293704
1446	0.0615034
1458	0.0796781
1470	0.0300974
1482	0.0295158
1494	0.0289342
1506	0.0250085
1518	0.0258808
1530	0.0258808
1542	0.0264624
1554	0.0309698
1566	0.0332961
1578	0.0469636
1590	0.0820045
1602	0.126642
1614	0.0657199
1626	0.0337323
1638	0.0295158
1650	0.0309698
1662	0.0276256
1674	0.029225
1686	0.0346047
1698	0.0450734
1710	0.0622303
1722	0.238017
1734	0.761013
1746	0.366258
1758	0.0690641
1770	0.0494353
1782	0.0421654
1794	0.0312606
1806	0.0335869
1818	0.0372219
1830	0.0279164
1842	0.0248631
1854	0.0238453
1866	0.0248631
1878	0.0260262
1890	0.0267532
1902	0.031406
1914	0.0331507
1926	0.030679
1938	0.0260262
1950	0.0266078
1962	0.0316968
1974	0.0305336
1986	0.0261716
1998	0.0221005
2010	0.0210827
2022	0.0209373
2034	0.0215189
2046	0.0215189
2058	0.0210827
2070	0.0215189
2082	0.0213735
2094	0.0216643
2106	0.0222459
2118	0.0216643
2130	0.0210827
2142	0.0210827
2154	0.0213735
2166	0.0212281
2178	0.0210827
2190	0.0206465
2202	0.0210827
2214	0.0215189
2226	0.0215189
2238	0.0218097
2250	0.0223913
2262	0.0239907
2274	0.0244269
2286	0.0247177
2298	0.0245723
2310	0.0234091
2322	0.0250085
2334	0.0261716
2346	0.0261716
2358	0.0258808
2370	0.0271894
2382	0.0252993
2394	0.0226821
2406	0.0221005
2418	0.0218097
2430	0.0218097
2442	0.0215189
2454	0.0212281
2466	0.0218097
2478	0.0223913
2490	0.0238453
2502	0.0248631
2514	0.02559
2526	0.0248631
2538	0.0236999
2550	0.0239907
2562	0.0226821
2574	0.0222459
2586	0.0221005
2598	0.0225367
2610	0.0222459
2622	0.0213735
2634	0.0212281
2646	0.0215189
2658	0.0212281
2670	0.0223913
2682	0.0221005
2694	0.0213735
2706	0.0209373
2718	0.0210827
2730	0.0206465
2742	0.0207919
2754	0.0210827
2766	0.0222459
2778	0.0235545
2790	0.0234091
2802	0.0218097
2814	0.0210827
2826	0.0213735
2838	0.0215189
2850	0.0212281
2862	0.0218097
2874	0.0223913
2886	0.0228275
2898	0.0223913
2910	0.0229729
2922	0.0232637
2934	0.0241361
2946	0.0238453
2958	0.0226821
2970	0.0226821
2982	0.0234091
2994	0.0232637
3006	0.0252993
3018	0.0279164
3030	0.0315514
3042	0.0402752
3054	0.0443464
3066	0.0660107
3078	0.10585
3090	0.0753162
3102	0.0458004
3114	0.0378035
3126	0.0279164
3138	0.0235545
3150	0.0229729
3162	0.0238453
3174	0.0244269
3186	0.0222459
3198	0.0218097
3210	0.0212281
3222	0.0221005
3234	0.0216643
3246	0.0213735
3258	0.0210827
3270	0.0216643
3282	0.0207919
3294	0.0212281
3306	0.0213735
3318	0.0216643
3330	0.0218097
3342	0.0215189
3354	0.0215189
3366	0.0213735
3378	0.0215189
3390	0.0210827
3402	0.0222459
3414	0.0218097
3426	0.0238453
3438	0.0279164
3450	0.0318422
3462	0.0267532
3474	0.0218097
3486	0.0218097
3498	0.0222459
3510	0.0213735
3522	0.0221005
3534	0.0218097
3546	0.0218097
3558	0.0215189
3570	0.0222459
3582	0.0216643
3594	0.0219551
3606	0.0215189
3618	0.0222459
3630	0.0222459
3642	0.0225367
3654	0.0244269
3666	0.0232637
3678	0.0221005
3690	0.0225367
3702	0.0222459
3714	0.0231183
3726	0.0232637
3738	0.0232637
3750	0.0222459
3762	0.0229729
3774	0.0228275
3786	0.0229729
3798	0.0226821
3810	0.0228275
3822	0.0213735
3834	0.0228275
3846	0.0216643
3858	0.0221005
3870	0.0225367
3882	0.0225367
3894	0.0225367
3906	0.0223913
3918	0.0222459
3930	0.0223913
3942	0.0221005
3954	0.0215189
3966	0.0229729
