Infrared Spectrum: Cyclohexanemethanol, .alpha.-propyl-
Formula: C 10 H 20 O
CAS: 4352-42-5
Origin: Sadtler Research Labs Under US-EPA Contract
1/CM	ABSORBANCE
450	0.0391899
462	0.0095614
474	0.0174702
486	0.00743665
498	0.0180604
510	0.0229001
522	0.0146372
534	0.00826294
546	0.0180604
558	0.00873511
570	0.00944336
582	0.0144011
594	0.0119222
606	0.0127485
618	0.0125125
630	0.0108599
642	0.0136929
654	0.0128666
666	0.0115681
678	0.0118042
690	0.00979749
702	0.0109779
714	0.0126305
726	0.0108599
738	0.0118042
750	0.016762
762	0.0127485
774	0.0119222
786	0.0125125
798	0.0103877
810	0.011332
822	0.0147553
834	0.025379
846	0.0313992
858	0.0267955
870	0.0221919
882	0.0277399
894	0.0383636
906	0.0270316
918	0.0227821
930	0.0243167
942	0.0243167
954	0.0221919
966	0.0384817
978	0.0701169
990	0.0587849
1002	0.0672839
1014	0.0805046
1026	0.0584308
1038	0.0429673
1050	0.0521746
1062	0.0625623
1074	0.0602014
1086	0.0566602
1098	0.0585488
1110	0.0653953
1122	0.0722417
1134	0.0541813
1146	0.0414327
1158	0.0335239
1170	0.030809
1182	0.0385997
1194	0.0408425
1206	0.0474529
1218	0.047689
1230	0.0433214
1242	0.0436755
1254	0.0496957
1266	0.0607916
1278	0.0520565
1290	0.0403704
1302	0.0403704
1314	0.0345863
1326	0.0328157
1338	0.0375374
1350	0.045092
1362	0.0456823
1374	0.0545354
1386	0.0649231
1398	0.0501678
1410	0.033642
1422	0.0239625
1434	0.0304548
1446	0.0776716
1458	0.117216
1470	0.0662216
1482	0.0285662
1494	0.0144011
1506	0.0108599
1518	0.0100336
1530	0.0103877
1542	0.0081449
1554	0.00849902
1566	0.00944336
1578	0.00613818
1590	0.00755469
1602	0.00885315
1614	0.00696448
1626	0.00826294
1638	0.00519385
1650	0.00838098
1662	0.0081449
1674	0.00708252
1686	0.00377734
1698	0.00472168
1710	0.00944336
1722	0.00849902
1734	0.00708252
1746	0.00802686
1758	0.0073186
1770	0.00708252
1782	0.00743665
1794	0.00684644
1806	0.0073186
1818	0.00802686
1830	0.00684644
1842	0.00755469
1854	0.00779077
1866	0.00767273
1878	0.00790881
1890	0.00767273
1902	0.00743665
1914	0.00802686
1926	0.00767273
1938	0.00720056
1950	0.00755469
1962	0.00743665
1974	0.00743665
1986	0.00743665
1998	0.00696448
2010	0.00649231
2022	0.00649231
2034	0.00637427
2046	0.00684644
2058	0.00767273
2070	0.00684644
2082	0.00708252
2094	0.0073186
2106	0.00672839
2118	0.0073186
2130	0.0073186
2142	0.00708252
2154	0.00720056
2166	0.00720056
2178	0.00720056
2190	0.00779077
2202	0.00743665
2214	0.00720056
2226	0.0073186
2238	0.00743665
2250	0.00672839
2262	0.00684644
2274	0.00613818
2286	0.00672839
2298	0.00897119
2310	0.0116862
2322	0.0128666
2334	0.00967944
2346	0.0022428
2358	0.0136929
2370	0.000236084
2382	0.000118042
2394	0.00542993
2406	0.00649231
2418	0.00602014
2430	0.00542993
2442	0.00460364
2454	0.00413147
2466	0.00460364
2478	0.00495776
2490	0.00531189
2502	0.00483972
2514	0.00460364
2526	0.00460364
2538	0.00507581
2550	0.00542993
2562	0.00602014
2574	0.00578406
2586	0.00696448
2598	0.0081449
2610	0.00908923
2622	0.00932532
2634	0.0101516
2646	0.0109779
2658	0.0147553
2670	0.0180604
2682	0.0161718
2694	0.0135748
2706	0.0129846
2718	0.0125125
2730	0.0120403
2742	0.0129846
2754	0.0135748
2766	0.0128666
2778	0.0156996
2790	0.0203032
2802	0.0259692
2814	0.0285662
2826	0.0361209
2838	0.0604375
2850	0.172105
2862	0.446199
2874	0.362153
2886	0.241396
2898	0.194769
2910	0.30325
2922	0.572268
2934	1.10924
2946	0.877288
2958	0.335593
2970	0.349758
2982	0.138109
2994	0.0439116
3006	0.0272677
3018	0.0208934
3030	0.0166439
3042	0.0151094
3054	0.011214
3066	0.00932532
3078	0.00897119
3090	0.0081449
3102	0.0073186
3114	0.00602014
3126	0.00696448
3138	0.00767273
3150	0.0081449
3162	0.00708252
3174	0.00613818
3186	0.00661035
3198	0.00767273
3210	0.00672839
3222	0.00637427
3234	0.00519385
3246	0.00495776
3258	0.00519385
3270	0.00554797
3282	0.00625623
3294	0.00625623
3306	0.00696448
3318	0.00637427
3330	0.0073186
3342	0.00767273
3354	0.00838098
3366	0.00826294
3378	0.0073186
3390	0.00826294
3402	0.00755469
3414	0.0081449
3426	0.00967944
3438	0.00944336
3450	0.00932532
3462	0.00861707
3474	0.00849902
3486	0.00920728
3498	0.00873511
3510	0.00802686
3522	0.00743665
3534	0.00661035
3546	0.00838098
3558	0.00885315
3570	0.00708252
3582	0.00861707
3594	0.00637427
3606	0.00932532
3618	0.00885315
3630	0.0126305
3642	0.0184146
3654	0.0322255
3666	0.0373013
3678	0.0110959
3690	0.0073186
3702	0.00578406
3714	0.000236084
3726	0.0059021
3738	0.00401343
3750	0.00306909
3762	0.00424951
3774	0.00295105
3786	0.0044856
3798	0.0059021
3810	0.00625623
3822	0.00342322
3834	0.00271497
3846	0.00295105
3858	0.000826294
3870	0.00967944
3882	0.00460364
3894	0.00507581
3906	0.0036593
3918	0.00566602
3930	0.00743665
3942	0.00790881
3954	0.00684644
3966	0.00613818
