Infrared Spectrum: Tetraheptylammonium bromide
Formula: C 28 H 60 Br N
CAS: 4368-51-8
Origin: Sadtler Research Labs Under US-EPA Contract
1/CM	ABSORBANCE
450	0
462	0.0111697
474	0.0130122
486	0.0135879
498	0.0161213
510	0.0147395
522	0.0150849
534	0.0188849
546	0.0169273
558	0.0203819
570	0.0247577
582	0.0200364
594	0.0147395
606	0.012897
618	0.012091
630	0.0139334
642	0.0195758
654	0.0239516
666	0.0149698
678	0.0134728
690	0.0154304
702	0.0192304
714	0.0286728
726	0.0338547
738	0.0271759
750	0.0237213
762	0.0222243
774	0.0225698
786	0.0194607
798	0.018194
810	0.0179637
822	0.0188849
834	0.0190001
846	0.0180789
858	0.016697
870	0.0185395
882	0.0190001
894	0.0228001
906	0.0241819
918	0.0255637
930	0.0251031
942	0.0222243
954	0.0195758
966	0.0202668
978	0.0216486
990	0.0248728
1002	0.0283274
1014	0.0312062
1026	0.0345456
1038	0.0359274
1050	0.0348911
1062	0.0361577
1074	0.046982
1086	0.0720852
1098	0.0824488
1110	0.0476729
1122	0.0362729
1134	0.0320123
1146	0.0382305
1158	0.0452547
1170	0.0331638
1182	0.028788
1194	0.0314365
1206	0.0381153
1218	0.0411093
1230	0.0488244
1242	0.0477881
1254	0.0510123
1266	0.0557336
1278	0.0515881
1290	0.0496305
1302	0.0536608
1314	0.0475578
1326	0.0423759
1338	0.0525093
1350	0.0660972
1362	0.0722003
1374	0.0672488
1386	0.0646003
1398	0.0367335
1410	0.0294789
1422	0.0329335
1434	0.0487093
1446	0.0824488
1458	0.123213
1470	0.12494
1482	0.0534305
1494	0.0282122
1506	0.0203819
1518	0.0155455
1530	0.0137031
1542	0.0115152
1554	0.0115152
1566	0.0102485
1578	0.0110546
1590	0.0101334
1602	0.0102485
1614	0.0109394
1626	0.0118607
1638	0.0145092
1650	0.0188849
1662	0.0162364
1674	0.023491
1686	0.0142788
1698	0.0140485
1710	0.0163516
1722	0.0190001
1734	0.0291335
1746	0.0346608
1758	0.021994
1770	0.0155455
1782	0.012091
1794	0.0102485
1806	0.00955762
1818	0.0088667
1830	0.00829094
1842	0.00817579
1854	0.00760003
1866	0.00748488
1878	0.00713942
1890	0.00736973
1902	0.00725458
1914	0.00725458
1926	0.00748488
1938	0.00736973
1950	0.00736973
1962	0.00736973
1974	0.00736973
1986	0.00771518
1998	0.00771518
2010	0.00817579
2022	0.0084061
2034	0.0088667
2046	0.0088667
2058	0.00852125
2070	0.00817579
2082	0.00817579
2094	0.00771518
2106	0.00794549
2118	0.00771518
2130	0.00771518
2142	0.00748488
2154	0.00806064
2166	0.00783034
2178	0.00771518
2190	0.00783034
2202	0.00783034
2214	0.00760003
2226	0.00760003
2238	0.00725458
2250	0.00760003
2262	0.00748488
2274	0.00783034
2286	0.0086364
2298	0.00967277
2310	0.0107091
2322	0.00990307
2334	0.00909701
2346	0.0110546
2358	0.00990307
2370	0.0108243
2382	0.0103637
2394	0.00852125
2406	0.0084061
2418	0.00829094
2430	0.00817579
2442	0.00829094
2454	0.00829094
2466	0.00806064
2478	0.0084061
2490	0.00852125
2502	0.00875155
2514	0.00932731
2526	0.00967277
2538	0.0104788
2550	0.0110546
2562	0.0118607
2574	0.0131273
2586	0.0139334
2598	0.0145092
2610	0.0161213
2622	0.017388
2634	0.0188849
2646	0.0215334
2658	0.0245274
2670	0.0285577
2682	0.0316668
2694	0.0350062
2706	0.0405335
2718	0.0445638
2730	0.0464063
2742	0.0505517
2754	0.0528548
2766	0.0589578
2778	0.0710488
2790	0.103291
2802	0.159946
2814	0.149582
2826	0.131158
2838	0.141407
2850	0.221322
2862	0.460147
2874	0.417771
2886	0.365608
2898	0.340389
2910	0.472354
2922	0.759888
2934	1.15152
2946	0.931234
2958	0.637021
2970	0.645197
2982	0.277516
2994	0.129891
3006	0.0854428
3018	0.0663276
3030	0.046176
3042	0.0351214
3054	0.0292486
3066	0.0251031
3078	0.0237213
3090	0.0216486
3102	0.0190001
3114	0.0164667
3126	0.0147395
3138	0.0140485
3150	0.0135879
3162	0.012897
3174	0.0124364
3186	0.012091
3198	0.0110546
3210	0.0103637
3222	0.00932731
3234	0.00875155
3246	0.0086364
3258	0.00806064
3270	0.00806064
3282	0.00794549
3294	0.00806064
3306	0.00783034
3318	0.00794549
3330	0.0084061
3342	0.0084061
3354	0.0086364
3366	0.00852125
3378	0.00829094
3390	0.0084061
3402	0.0084061
3414	0.00771518
3426	0.00875155
3438	0.0088667
3450	0.00829094
3462	0.00852125
3474	0.00794549
3486	0.00817579
3498	0.00817579
3510	0.00817579
3522	0.00783034
3534	0.00760003
3546	0.00736973
3558	0.00771518
3570	0.0086364
3582	0.00760003
3594	0.00783034
3606	0.00829094
3618	0.00829094
3630	0.00921216
3642	0.00967277
3654	0.0101334
3666	0.00921216
3678	0.00932731
3690	0.00932731
3702	0.00978792
3714	0.00875155
3726	0.00852125
3738	0.00932731
3750	0.00852125
3762	0.0084061
3774	0.00806064
3786	0.00760003
3798	0.0084061
3810	0.00736973
3822	0.00713942
3834	0.0088667
3846	0.00736973
3858	0.00771518
3870	0.00806064
3882	0.00817579
3894	0.00932731
3906	0.00771518
3918	0.00760003
3930	0.0088667
3942	0.00771518
3954	0.00806064
3966	0.00909701
