Infrared Spectrum: Nonane, 2,2,4,4,6,8,8-heptamethyl-
Formula: C 16 H 34
CAS: 4390-04-9
Origin: Sadtler Research Labs Under US-EPA Contract
1/CM	ABSORBANCE
450	0.000202788
462	0.000608364
474	0.00067596
486	0.00202788
498	0.000405576
510	0.00182509
522	0.00148711
534	0.000878748
546	0.00196028
558	0.00135192
570	6.7596e-05
582	0.00236586
594	0.000878748
606	0
618	0.000608364
630	0.00101394
642	0.000608364
654	0.00135192
666	0.000135192
678	0.00114913
690	0.00108154
702	0.00101394
714	0.00101394
726	0.00155471
738	0.00101394
750	0.000405576
762	0.000405576
774	0.00033798
786	0.00033798
798	0.00101394
810	0.00128432
822	0.00202788
834	0.00189269
846	0.00202788
858	0.00216307
870	0.00148711
882	0.00141952
894	0.00141952
906	0.0033122
918	0.00601604
930	0.00446134
942	0.00446134
954	0.00878748
966	0.0167638
978	0.00790873
990	0.0033798
1002	0.00270384
1014	0.00216307
1026	0.00216307
1038	0.00135192
1050	0.00121673
1062	0.00121673
1074	0.00196028
1086	0.0016223
1098	0.00223067
1110	0.00317701
1122	0.00270384
1134	0.00304182
1146	0.00425855
1158	0.00743556
1170	0.00750316
1182	0.00831431
1194	0.0151415
1206	0.0202788
1218	0.020752
1230	0.0234558
1242	0.0289987
1254	0.0118293
1266	0.0067596
1278	0.00689479
1290	0.00554287
1302	0.00419095
1314	0.00425855
1326	0.00527249
1338	0.00817912
1350	0.0180481
1362	0.0431938
1374	0.073612
1386	0.0383945
1398	0.0427207
1410	0.0112209
1422	0.00723277
1434	0.0110857
1446	0.0198732
1458	0.0337304
1470	0.0707054
1482	0.0819264
1494	0.0260245
1506	0.00709758
1518	0.00385297
1530	0.00250105
1542	0.00114913
1554	0.00128432
1566	0.000946344
1578	0.000946344
1590	0.000946344
1602	0.000946344
1614	0.000878748
1626	0.00101394
1638	0.000946344
1650	0.000946344
1662	0.000878748
1674	0.000946344
1686	0.00101394
1698	0.000946344
1710	0.00128432
1722	0.00108154
1734	0.000608364
1746	0.000811152
1758	0.000878748
1770	0.000202788
1782	0.000608364
1794	0.000270384
1806	0.000743556
1818	0.000743556
1830	0.000202788
1842	0.000135192
1854	0.000608364
1866	0.000135192
1878	0.00067596
1890	0.000202788
1902	0.000202788
1914	0.00067596
1926	0.00067596
1938	0.00067596
1950	6.7596e-05
1962	0.000608364
1974	0.000608364
1986	6.7596e-05
1998	6.7596e-05
2010	0
2022	6.7596e-05
2034	6.7596e-05
2046	6.7596e-05
2058	0
2070	0
2082	6.7596e-05
2094	0
2106	0.000270384
2118	0.000608364
2130	0.000405576
2142	6.7596e-05
2154	0
2166	0
2178	6.7596e-05
2190	0.000473172
2202	0.000270384
2214	0.000473172
2226	0.000473172
2238	0.000473172
2250	0.000405576
2262	0.000473172
2274	0.000608364
2286	0.000608364
2298	0.00135192
2310	0.00114913
2322	0.000608364
2334	0.00033798
2346	0.000878748
2358	0.000811152
2370	0.000608364
2382	0.00135192
2394	0.000473172
2406	0.00101394
2418	0.00101394
2430	0.00101394
2442	0.00067596
2454	0.000946344
2466	0.000946344
2478	0.00108154
2490	0.000743556
2502	0.00101394
2514	0.000946344
2526	0.00101394
2538	0.00101394
2550	0.00135192
2562	0.00148711
2574	0.00148711
2586	0.00148711
2598	0.00148711
2610	0.00196028
2622	0.00196028
2634	0.00202788
2646	0.00243346
2658	0.00290663
2670	0.00358259
2682	0.00412336
2694	0.00405576
2706	0.00466412
2718	0.00608364
2730	0.006692
2742	0.00567806
2754	0.00594845
2766	0.00561047
2778	0.00554287
2790	0.00716518
2802	0.00926065
2814	0.0135868
2826	0.0174398
2838	0.0273764
2850	0.0449513
2862	0.0641486
2874	0.127283
2886	0.162163
2898	0.170477
2910	0.19515
2922	0.191094
2934	0.180481
2946	0.261056
2958	0.517245
2970	0.356772
2982	0.192987
2994	0.138775
3006	0.0488043
3018	0.0168314
3030	0.00892267
3042	0.00567806
3054	0.00452893
3066	0.00405576
3078	0.00358259
3090	0.00351499
3102	0.00310942
3114	0.00297422
3126	0.00358259
3138	0.00297422
3150	0.00351499
3162	0.00351499
3174	0.00405576
3186	0.00405576
3198	0.00419095
3210	0.00412336
3222	0.00419095
3234	0.00365018
3246	0.00317701
3258	0.00263624
3270	0.00216307
3282	0.00209548
3294	0.0017575
3306	0.00182509
3318	0.00128432
3330	0.00128432
3342	0.00189269
3354	0.00128432
3366	0.00128432
3378	0.00135192
3390	0.00141952
3402	0.000946344
3414	0.000946344
3426	0.000811152
3438	0.00033798
3450	0.00033798
3462	0.00128432
3474	0.00101394
3486	0.00101394
3498	0.000946344
3510	0.000473172
3522	0.000608364
3534	0.00033798
3546	0.00033798
3558	0.000946344
3570	0.000135192
3582	0.000878748
3594	0.000946344
3606	0.00135192
3618	0.000811152
3630	0.000878748
3642	0.000743556
3654	0.000811152
3666	0.000811152
3678	0.000743556
3690	0.000743556
3702	0.00067596
3714	0.000608364
3726	0.00067596
3738	0.00114913
3750	0.00108154
3762	0.000405576
3774	0.00101394
3786	0.00121673
3798	0.000946344
3810	0.000811152
3822	0.000811152
3834	0.000743556
3846	0.000743556
3858	0.00067596
3870	0.00067596
3882	0.00108154
3894	0.000946344
3906	0.000946344
3918	0.00033798
3930	0.000270384
3942	0.000202788
3954	0.000135192
3966	0.000135192
