Infrared Spectrum: Benzylamine, p-isopropyl-,
Formula: C 10 H 15 N
CAS: 4395-73-7
Origin: Sadtler Research Labs Under US-EPA Contract
1/CM	ABSORBANCE
450	0.0548301
462	0.0182205
474	0.0332355
486	0.020498
498	0.0225225
510	0.03003
522	0.0291865
534	0.0549988
546	0.0511185
558	0.0671458
570	0.0826669
582	0.059807
594	0.0431049
606	0.0331511
618	0.0188953
630	0.0283429
642	0.0293552
654	0.03526
666	0.0503593
678	0.0718696
690	0.0676519
702	0.0697608
714	0.0753281
726	0.0907649
738	0.126953
750	0.166262
762	0.200594
774	0.254918
786	0.228431
798	0.176806
810	0.180264
822	0.194099
834	0.195786
846	0.163309
858	0.134376
870	0.0996221
882	0.0666397
894	0.0430205
906	0.0319702
918	0.0270776
930	0.0243783
942	0.0252218
954	0.0229443
966	0.0240409
978	0.0244627
990	0.0187266
1002	0.0284273
1014	0.0764247
1026	0.066724
1038	0.0565172
1050	0.0845227
1062	0.100128
1074	0.0567702
1086	0.0443702
1098	0.0350069
1110	0.0405743
1122	0.0295239
1134	0.0280055
1146	0.0308736
1158	0.0199075
1170	0.0212572
1182	0.0268246
1194	0.0227756
1206	0.0268246
1218	0.0269933
1230	0.0234504
1242	0.0270776
1254	0.0323919
1266	0.0284273
1278	0.0356817
1290	0.0359348
1302	0.0369471
1314	0.0451294
1326	0.0459729
1338	0.0566859
1350	0.0702669
1362	0.0837635
1374	0.113287
1386	0.12341
1398	0.0808955
1410	0.0602288
1422	0.0712791
1434	0.0499376
1446	0.055758
1458	0.0908493
1470	0.107551
1482	0.0766778
1494	0.0640247
1506	0.0882343
1518	0.114721
1530	0.035513
1542	0.0199075
1554	0.0177143
1566	0.0184735
1578	0.027415
1590	0.0372001
1602	0.0559267
1614	0.0824139
1626	0.0712791
1638	0.0506124
1650	0.0380437
1662	0.0264872
1674	0.0181361
1686	0.016449
1698	0.0139184
1710	0.0119783
1722	0.0149307
1734	0.0117252
1746	0.00826669
1758	0.0140871
1770	0.0206667
1782	0.0268246
1794	0.0270776
1806	0.0221007
1818	0.012147
1830	0.00818234
1842	0.00809798
1854	0.0062422
1866	0.00801363
1878	0.009532
1890	0.0158586
1902	0.0189797
1914	0.0129062
1926	0.00809798
1938	0.0073388
1950	0.00607349
1962	0.00582043
1974	0.00497689
1986	0.00413335
1998	0.00362722
2010	0.00269933
2022	0.00126531
2034	0.00084354
2046	0.00042177
2058	0
2070	0.00151837
2082	0.00286804
2094	0.00362722
2106	0.00388028
2118	0.00354287
2130	0.00354287
2142	0.0042177
2154	0.00379593
2166	0.00413335
2178	0.0042177
2190	0.00388028
2202	0.00396464
2214	0.00404899
2226	0.0042177
2238	0.00556736
2250	0.00598913
2262	0.00565172
2274	0.00607349
2286	0.00683267
2298	0.00767621
2310	0.00927894
2322	0.009532
2334	0.00725444
2346	0.00691703
2358	0.00700138
2370	0.00413335
2382	0.00590478
2394	0.00497689
2406	0.00548301
2418	0.00480818
2430	0.00497689
2442	0.00506124
2454	0.00548301
2466	0.00565172
2478	0.00649526
2490	0.00615784
2502	0.00632655
2514	0.0064109
2526	0.00582043
2538	0.00548301
2550	0.00666397
2562	0.00582043
2574	0.00683267
2586	0.00911023
2598	0.0107973
2610	0.010713
2622	0.0118939
2634	0.0122313
2646	0.0124844
2658	0.0128218
2670	0.0129062
2682	0.0122313
2694	0.0111347
2706	0.0113878
2718	0.0138341
2730	0.0182205
2742	0.0193171
2754	0.0204137
2766	0.0215103
2778	0.0209198
2790	0.0238722
2802	0.0293552
2814	0.0383811
2826	0.0496845
2838	0.0704356
2850	0.104515
2862	0.15538
2874	0.236529
2886	0.279212
2898	0.248001
2910	0.243193
2922	0.234167
2934	0.283176
2946	0.319449
2958	0.3774
2970	0.84354
2982	0.369049
2994	0.133364
3006	0.109323
3018	0.153018
3030	0.181783
3042	0.104936
3054	0.102237
3066	0.100213
3078	0.0763404
3090	0.0562641
3102	0.0438641
3114	0.0276681
3126	0.0225225
3138	0.0199075
3150	0.016196
3162	0.0152681
3174	0.0151837
3186	0.016196
3198	0.0167864
3210	0.0154368
3222	0.0137497
3234	0.0118939
3246	0.00995377
3258	0.0124844
3270	0.0122313
3282	0.0103755
3294	0.00767621
3306	0.00919459
3318	0.00885717
3330	0.0113034
3342	0.0163647
3354	0.0141715
3366	0.00944765
3378	0.0103755
3390	0.00801363
3402	0.0108817
3414	0.00927894
3426	0.00894152
3438	0.0073388
3450	0.00759186
3462	0.00970071
3474	0.0104599
3486	0.00742315
3498	0.00767621
3510	0.00978506
3522	0.0042177
3534	0.00657961
3546	0.00548301
3558	0.00868846
3570	0.00927894
3582	0.00894152
3594	0.00826669
3606	0.00683267
3618	0.00919459
3630	0.00902588
3642	0.00885717
3654	0.0103755
3666	0.00826669
3678	0.0108817
3690	0.00911023
3702	0.00674832
3714	0.00607349
3726	0.00632655
3738	0.00809798
3750	0.00801363
3762	0.00506124
3774	0.0084354
3786	0.00725444
3798	0.00835105
3810	0.00632655
3822	0.00792928
3834	0.0108817
3846	0.0084354
3858	0.00868846
3870	0.00784492
3882	0.0073388
3894	0.0107973
3906	0.00582043
3918	0.0102068
3930	0.0106286
3942	0.00750751
3954	0.0115565
3966	0.00615784
