Infrared Spectrum: Acetic acid, carvacryl-,
Formula: C 12 H 16 O 2
CAS: 4395-82-8
Origin: Sadtler Research Labs Under US-EPA Contract
1/CM	ABSORBANCE
450	0.0158439
462	0.00631923
474	0.0080593
486	0.0236284
498	0.0392891
510	0.0344352
522	0.0282076
534	0.0334278
546	0.0438683
558	0.0649323
570	0.115578
582	0.226668
594	0.362119
606	0.226943
618	0.13884
630	0.137832
642	0.0930483
654	0.05843
666	0.0371827
678	0.0296729
690	0.03471
702	0.0291234
714	0.0466157
726	0.0522023
738	0.0108984
750	0.00146533
762	0.00155691
774	0.00732664
786	0.0101657
798	0.0126385
810	0.072259
822	0.1186
834	0.0195988
846	0.0111731
858	0.0159354
870	0.018225
882	0.0190493
894	0.0286655
906	0.0184998
918	0.0165765
930	0.0201483
942	0.0198735
954	0.0142869
966	0.00677714
978	0.00595289
990	0.0141954
1002	0.0194156
1014	0.0097078
1026	0.0150196
1038	0.0250937
1050	0.0444178
1062	0.100833
1074	0.151661
1086	0.21925
1098	0.390418
1110	0.715721
1122	0.637784
1134	0.440789
1146	0.293798
1158	0.182525
1170	0.134902
1182	0.109259
1194	0.112098
1206	0.123088
1218	0.106236
1230	0.0909419
1242	0.0772045
1254	0.0778455
1266	0.0761971
1278	0.0748233
1290	0.0908503
1302	0.103214
1314	0.0962537
1326	0.101657
1338	0.122263
1350	0.158622
1362	0.17529
1374	0.113746
1386	0.0843479
1398	0.0587047
1410	0.0587963
1422	0.08389
1434	0.0903008
1446	0.0880113
1458	0.102023
1470	0.0993676
1482	0.0628259
1494	0.088286
1506	0.156057
1518	0.0522023
1530	0.0159354
1542	0.00705189
1554	0.00622764
1566	0.0103489
1578	0.0174924
1590	0.01273
1602	0.0196903
1614	0.0377322
1626	0.0194156
1638	0.0111731
1650	0.00457915
1662	0.00494548
1674	0.00870038
1686	0.0168513
1698	0.0367248
1710	0.0606279
1722	0.0826994
1734	0.130506
1746	0.229141
1758	0.434195
1770	0.760688
1782	0.891194
1794	0.555451
1806	0.275024
1818	0.111273
1830	0.0484474
1842	0.0254601
1854	0.014928
1866	0.0107152
1878	0.011631
1890	0.0145617
1902	0.0080593
1914	0.0037549
1926	0.00265591
1938	0.00283907
1950	0.00338857
1962	0.00402965
1974	0.00421282
1986	0.00421282
1998	0.00384649
2010	0.00348015
2022	0.00274749
2034	0.00201483
2046	0.00164849
2058	0.00137375
2070	0.00119058
2082	0.000641081
2094	0.000183166
2106	0.000274749
2118	0.000549498
2130	0.000366332
2142	0.000457915
2154	0.000641081
2166	0.000732664
2178	0.00100741
2190	0.00146533
2202	0.00219799
2214	0.00329699
2226	0.00302224
2238	0.00247274
2250	0.00201483
2262	0.00155691
2274	0.00201483
2286	0.0032054
2298	0.00531181
2310	0.00760139
2322	0.0054034
2334	0.00384649
2346	0.00595289
2358	0.00467073
2370	0.00448757
2382	0.00613606
2394	0.001099
2406	0.000732664
2418	0.000366332
2430	0.000274749
2442	0.000824247
2454	0.00155691
2466	0.00238116
2478	0.00183166
2490	0.00137375
2502	0.000641081
2514	0.000549498
2526	0.000549498
2538	0.000641081
2550	0.000732664
2562	0.00100741
2574	0.00164849
2586	0.00283907
2598	0.0037549
2610	0.00247274
2622	0.00164849
2634	0.00174008
2646	0.00146533
2658	0.00183166
2670	0.00210641
2682	0.00265591
2694	0.00238116
2706	0.00348015
2718	0.00641081
2730	0.00906672
2742	0.0100741
2754	0.00979938
2766	0.00796772
2778	0.00677714
2790	0.00842564
2802	0.0108068
2814	0.0143785
2826	0.0183166
2838	0.0243611
2850	0.0398386
2862	0.0745486
2874	0.15734
2886	0.207252
2898	0.178129
2910	0.190584
2922	0.209359
2934	0.300759
2946	0.311932
2958	0.356166
2970	0.757941
2982	0.318159
2994	0.142412
3006	0.12437
3018	0.139481
3030	0.114112
3042	0.0816005
3054	0.0900261
3066	0.0726253
3078	0.0498212
3090	0.0333362
3102	0.0220715
3114	0.0201483
3126	0.018225
3138	0.0132795
3150	0.0106236
3162	0.00879197
3174	0.00723506
3186	0.00778455
3198	0.00714347
3210	0.00631923
3222	0.00522023
3234	0.00366332
3246	0.00311382
3258	0.00247274
3270	0.00174008
3282	0.00192324
3294	0.00155691
3306	0.000732664
3318	0.00155691
3330	0.00137375
3342	0.00119058
3354	0.00164849
3366	0.00155691
3378	0.00137375
3390	0.00146533
3402	0.000641081
3414	0.00119058
3426	0.00119058
3438	0.000366332
3450	0.00100741
3462	0.00128216
3474	0.000732664
3486	0.00265591
3498	0.00393807
3510	0.00668556
3522	0.00906672
3534	0.0147449
3546	0.0361753
3558	0.0561404
3570	0.343162
3582	0.305887
3594	0.0359005
3606	0.013188
3618	0.00897513
3630	0.00842564
3642	0.00256432
3654	0.00503706
3666	0.00137375
3678	0.00448757
3690	0.00457915
3702	0.00155691
3714	0.00522023
3726	0.00467073
3738	0.00631923
3750	0.00668556
3762	0.00155691
3774	0
3786	9.1583e-05
3798	0.00155691
3810	0.00174008
3822	0.00366332
3834	0.00293066
3846	0.00201483
3858	0.00448757
3870	0.00457915
3882	0.00402965
3894	0.00283907
3906	0.00668556
3918	0.00402965
3930	0.00174008
3942	0.00146533
3954	0.00219799
3966	0.001099
