Infrared Spectrum: isobutyranilide
Formula: C 10 H 13 N O
CAS: 4406-41-1
Origin: Sadtler Research Labs Under US-EPA Contract
1/CM	ABSORBANCE
450	0.0187772
462	0.0181685
474	0.0214931
486	0.0265503
498	0.0365711
510	0.0421434
522	0.0387251
534	0.0377418
546	0.0221487
558	0.0138605
570	0.0093652
582	0.0100208
594	0.00758581
606	0.00309052
618	0.0044953
630	0.00145161
642	0.000374608
654	0.00510403
666	0.0103485
678	0.0306242
690	0.0583452
702	0.0358687
714	0.014797
726	0.0177471
738	0.049776
750	0.0880329
762	0.0533816
774	0.0167169
786	0.00599373
798	0.00472943
810	0.0059469
822	0.00421434
834	0.00383973
846	0.00365243
858	0.0048699
870	0.00604055
882	0.00655564
894	0.00852233
906	0.00842868
918	0.0108636
930	0.0166701
942	0.0146097
954	0.00885011
966	0.00561912
978	0.00533816
990	0.00519769
1002	0.00613421
1014	0.00781994
1026	0.0126898
1038	0.0151716
1050	0.0251456
1062	0.0394275
1074	0.0364306
1086	0.0305306
1098	0.0348854
1110	0.0372267
1122	0.0411601
1134	0.0570809
1146	0.105405
1158	0.0732359
1170	0.0416751
1182	0.0654159
1194	0.0516959
1206	0.0294536
1218	0.041722
1230	0.0825074
1242	0.0985687
1254	0.0528666
1266	0.0382568
1278	0.0567999
1290	0.0920599
1302	0.12821
1314	0.0836781
1326	0.0441569
1338	0.0251924
1350	0.0292194
1362	0.0299218
1374	0.0331996
1386	0.0435014
1398	0.0374608
1410	0.0324036
1422	0.08424
1434	0.279785
1446	0.152934
1458	0.0534753
1470	0.0872837
1482	0.115379
1494	0.205472
1506	0.419186
1518	0.440586
1530	0.182481
1542	0.0558634
1554	0.0329655
1566	0.028517
1578	0.0411132
1590	0.0932306
1602	0.173116
1614	0.0679914
1626	0.0178875
1638	0.0111446
1650	0.00941203
1662	0.0105359
1674	0.0166701
1686	0.0334338
1698	0.0690684
1710	0.182856
1722	0.286575
1734	0.172741
1746	0.0561444
1758	0.0289385
1770	0.0168105
1782	0.0116597
1794	0.00636834
1806	0.00454212
1818	0.00337147
1830	0.00238813
1842	0.00346512
1854	0.00444847
1866	0.00365243
1878	0.00280956
1890	0.000796042
1902	0.00145161
1914	0.00206034
1926	0.00383973
1938	0.00458895
1950	0.00416751
1962	0.00191987
1974	0.000655564
1986	0.000749216
1998	0.000796042
2010	0.00112382
2022	0.00070239
2034	0.00121748
2046	0.000983346
2058	0.00117065
2070	0.00112382
2082	0.000655564
2094	0.000889694
2106	0.001077
2118	0.000796042
2130	0.000655564
2142	0.000280956
2154	0.000327782
2166	0.000421434
2178	0.000374608
2190	0.000374608
2202	0.000187304
2214	0.00046826
2226	0.00046826
2238	0.000749216
2250	0.000889694
2262	0.00159208
2274	0.00163891
2286	0.00173256
2298	0.00173256
2310	0.00159208
2322	0.00163891
2334	9.3652e-05
2346	0.000140478
2358	0.000842868
2370	0
2382	0.00224765
2394	0.00238813
2406	0.00182621
2418	0.00191987
2430	0.00210717
2442	0.00201352
2454	0.002154
2466	0.00201352
2478	0.00196669
2490	0.00154526
2502	0.00173256
2514	0.00201352
2526	0.00262226
2538	0.00243495
2550	0.00196669
2562	0.00140478
2574	0.00182621
2586	0.00173256
2598	0.00154526
2610	0.00159208
2622	0.00177939
2634	0.00191987
2646	0.00196669
2658	0.0025286
2670	0.00262226
2682	0.00220082
2694	0.00201352
2706	0.002154
2718	0.00257543
2730	0.00304369
2742	0.00398021
2754	0.00393338
2766	0.0036056
2778	0.00355878
2790	0.0036056
2802	0.00407386
2814	0.00463577
2826	0.00538499
2838	0.00585325
2850	0.00744533
2862	0.0123621
2874	0.0254265
2886	0.0433609
2898	0.0472474
2910	0.0458895
2922	0.042518
2934	0.0493078
2946	0.0617167
2958	0.0706136
2970	0.123855
2982	0.129146
2994	0.0514618
3006	0.0245368
3018	0.0246773
3030	0.0365711
3042	0.0294067
3054	0.0300623
3066	0.0527729
3078	0.0414878
3090	0.0264099
3102	0.021259
3114	0.014797
3126	0.00824138
3138	0.00515086
3150	0.0044953
3162	0.00402704
3174	0.00383973
3186	0.00355878
3198	0.0034183
3210	0.00290321
3222	0.00271591
3234	0.00220082
3246	0.00191987
3258	0.00163891
3270	0.00093652
3282	0.00149843
3294	0.00117065
3306	0.000983346
3318	0.00140478
3330	0.00103017
3342	0.00070239
3354	0.000842868
3366	0.00135795
3378	0.00177939
3390	0.00248178
3402	0.00383973
3414	0.00618103
3426	0.00707073
3438	0.00894377
3450	0.0163891
3462	0.0270654
3474	0.0212122
3486	0.00875646
3498	0.0046826
3510	0.00262226
3522	0.00191987
3534	0.00191987
3546	0.00177939
3558	0.00163891
3570	0.00191987
3582	0.00149843
3594	0.00159208
3606	0.00140478
3618	0.00159208
3630	0.00201352
3642	0.00117065
3654	0.00154526
3666	0.00173256
3678	0.000374608
3690	0.00201352
3702	0.00177939
3714	0.00093652
3726	0.00135795
3738	0.00093652
3750	0.00149843
3762	0.001077
3774	0.00112382
3786	0.000749216
3798	0.001077
3810	0.00201352
3822	0.000796042
3834	0.0012643
3846	0.00182621
3858	0.00140478
3870	0.00154526
3882	0.00229447
3894	0.00182621
3906	0.00224765
3918	0.00163891
3930	0.00313734
3942	0.00224765
3954	0.00206034
3966	0.0025286
