Infrared Spectrum: 4-(para-Chlorobenzyl)-pyridine
Formula: C 12 H 10 Cl N
CAS: 4409-11-4
Origin: Sadtler Research Labs Under US-EPA Contract
1/CM	ABSORBANCE
450	0.0441968
462	0.0548237
474	0.116826
486	0.213383
498	0.147862
510	0.0504603
522	0.018861
534	0.0133013
546	0.013442
558	0.0156237
570	0.0596093
582	0.153351
594	0.093531
606	0.0283619
618	0.0144977
630	0.0115418
642	0.0180869
654	0.0401853
666	0.0541903
678	0.0223095
690	0.0204093
702	0.0277285
714	0.040326
726	0.0432115
738	0.0648172
750	0.0653802
762	0.0714327
774	0.220421
786	0.319512
798	0.245053
810	0.189596
822	0.110985
834	0.107677
846	0.12506
858	0.0833264
870	0.0326549
882	0.0194241
894	0.0167497
906	0.0201278
918	0.0283619
930	0.0441264
942	0.0413113
954	0.016046
966	0.0213946
978	0.0215354
990	0.0428596
1002	0.0357515
1014	0.255961
1026	0.0641134
1038	7.0377e-05
1050	0.0123864
1062	0.0408187
1074	0.091842
1086	0.177913
1098	0.559779
1110	0.157715
1122	0.0453228
1134	0.0271655
1146	0.0268136
1158	0.0256172
1170	0.0296287
1182	0.0439152
1194	0.0484194
1206	0.0357515
1218	0.0674212
1230	0.0568646
1242	0.0270951
1254	0.0258987
1266	0.0616503
1278	0.105354
1290	0.0567239
1302	0.0366664
1314	0.0341328
1326	0.0313178
1338	0.02801
1350	0.0253357
1362	0.0210427
1374	0.0191425
1386	0.0357515
1398	0.0993019
1410	0.186569
1422	0.167568
1434	0.114011
1446	0.0864933
1458	0.0480675
1470	0.0603131
1482	0.223165
1494	0.70377
1506	0.166019
1518	0.0482786
1530	0.0308955
1542	0.0445486
1554	0.0933199
1566	0.138783
1578	0.185092
1590	0.376306
1602	0.632126
1614	0.111055
1626	0.0377221
1638	0.0260395
1650	0.022028
1662	0.020339
1674	0.0303325
1686	0.0693917
1698	0.0487009
1710	0.0180165
1722	0.0169609
1734	0.0186499
1746	0.0142865
1758	0.0144977
1770	0.021465
1782	0.0168905
1794	0.00781185
1806	0.00640431
1818	0.00675619
1830	0.00717845
1842	0.0122456
1854	0.00745996
1866	0.00774147
1878	0.014005
1890	0.0248431
1902	0.0250542
1914	0.0178054
1926	0.0211835
1938	0.0190722
1950	0.0108381
1962	0.00619318
1974	0.00351885
1986	0.0027447
1998	0.00232244
2010	0.00239282
2022	0.0027447
2034	0.00267433
2046	0.00218169
2058	0.00246319
2070	0.00295583
2082	0.00316696
2094	0.00225206
2106	0.00147792
2118	0.00126679
2130	0.00070377
2142	0.0018298
2154	0.00175942
2166	0.00126679
2178	0.000844524
2190	0.00070377
2202	0.000914901
2214	0.000844524
2226	0.000351885
2238	0.000422262
2250	0.000563016
2262	0.000985278
2274	0.0027447
2286	0.00485601
2298	0.00443375
2310	0.00422262
2322	0.00443375
2334	0.00513752
2346	0.00584129
2358	0.00492639
2370	0.00513752
2382	0.00443375
2394	0.0036596
2406	0.00464488
2418	0.004293
2430	0.00344847
2442	0.00281508
2454	0.00232244
2466	0.00161867
2478	0.00112603
2490	0.00126679
2502	0.00126679
2514	0.00119641
2526	0.00119641
2538	0.00175942
2550	0.00232244
2562	0.00232244
2574	0.00267433
2586	0.00302621
2598	0.00260395
2610	0.00246319
2622	0.00232244
2634	0.00239282
2646	0.00281508
2658	0.00253357
2670	0.00267433
2682	0.00204093
2694	0.00190018
2706	0.00211131
2718	0.00246319
2730	0.00394111
2742	0.00422262
2754	0.00478564
2766	0.00380036
2778	0.00387073
2790	0.00387073
2802	0.00380036
2814	0.00499677
2826	0.00837486
2838	0.0154126
2850	0.031177
2862	0.0319512
2874	0.0197056
2886	0.017735
2898	0.0261099
2910	0.0527827
2922	0.108381
2934	0.111548
2946	0.062354
2958	0.0353293
2970	0.0454635
2982	0.0599612
2994	0.0691102
3006	0.0656617
3018	0.10458
3030	0.220562
3042	0.196
3054	0.178406
3066	0.192129
3078	0.189877
3090	0.115418
3102	0.0634097
3114	0.0240689
3126	0.00823411
3138	0.004293
3150	0.0036596
3162	0.00295583
3174	0.00211131
3186	0.00175942
3198	0.00140754
3210	0.00204093
3222	0.0018298
3234	0.00161867
3246	0.0018298
3258	0.00175942
3270	0.00126679
3282	0.00168905
3294	0.00168905
3306	0.0018298
3318	0.00211131
3330	0.00175942
3342	0.00218169
3354	0.00239282
3366	0.00175942
3378	0.00168905
3390	0.00161867
3402	0.00239282
3414	0.00204093
3426	0.00175942
3438	0.00154829
3450	0.00147792
3462	0.00126679
3474	0.00175942
3486	0.000985278
3498	0.00154829
3510	0.00140754
3522	0.00133716
3534	0.00147792
3546	0.00133716
3558	0.00133716
3570	0.00309659
3582	0.00140754
3594	0.00112603
3606	0.000633393
3618	0.000985278
3630	0.00267433
3642	0.00190018
3654	0.00140754
3666	0.00380036
3678	0.00161867
3690	0.00309659
3702	0.00422262
3714	0.00302621
3726	0.0045745
3738	0.0033781
3750	0.00161867
3762	0.00147792
3774	0.00232244
3786	0.000633393
3798	0
3810	0.00239282
3822	0.00126679
3834	0.00133716
3846	0.000914901
3858	0.00204093
3870	0.0018298
3882	0.00232244
3894	0.00070377
3906	0.00295583
3918	0.00211131
3930	0.0018298
3942	0.00267433
3954	0.00168905
3966	0.00119641
