Infrared Spectrum: 2-Dodecenoic acid
Formula: C 12 H 22 O 2
CAS: 4412-16-2
Origin: Sadtler Research Labs Under US-EPA Contract
1/CM	ABSORBANCE
450	0
462	0.0069778
474	0.00641958
486	0.0247712
498	0.0262365
510	0.0180725
522	0.0258179
534	0.033633
546	0.0521242
558	0.0768256
570	0.0651727
582	0.0534499
594	0.0203752
606	0.0185609
618	0.031121
630	0.0369823
642	0.0404712
654	0.0462628
666	0.0286788
678	0.0307721
690	0.031121
702	0.0325165
714	0.0387268
726	0.0289579
738	0.0200961
750	0.0105365
762	0.0139556
774	0.0133974
786	0.0133276
798	0.0133276
810	0.0155605
822	0.0222592
834	0.0225383
846	0.0327259
858	0.0383081
870	0.0382383
882	0.0406108
894	0.0402619
906	0.039285
918	0.0369126
930	0.0346099
942	0.0327957
954	0.039913
966	0.0593113
978	0.089595
990	0.074174
1002	0.0416575
1014	0.0338423
1026	0.0332841
1038	0.0325165
1050	0.0378895
1062	0.0488446
1074	0.0694291
1086	0.0824776
1098	0.130066
1110	0.253783
1122	0.209194
1134	0.198309
1146	0.190982
1158	0.180446
1170	0.14758
1182	0.11004
1194	0.0816403
1206	0.0795469
1218	0.0814309
1230	0.0794771
1242	0.0805936
1254	0.0892461
1266	0.104946
1278	0.112412
1290	0.0997825
1302	0.0907812
1314	0.0771047
1326	0.0694989
1338	0.0877807
1350	0.121483
1362	0.135788
1374	0.117785
1386	0.0814309
1398	0.0718713
1410	0.0792678
1422	0.0655215
1434	0.0593811
1446	0.0711038
1458	0.0874318
1470	0.0740345
1482	0.0345401
1494	0.0240036
1506	0.0202356
1518	0.0194681
1530	0.0182818
1542	0.0166769
1554	0.0192587
1566	0.0205845
1578	0.0216312
1590	0.0251201
1602	0.0253992
1614	0.031121
1626	0.0521939
1638	0.0867341
1650	0.164257
1662	0.181772
1674	0.0834545
1686	0.110668
1698	0.205147
1710	0.182121
1722	0.130764
1734	0.158745
1746	0.242409
1758	0.467861
1770	0.349099
1782	0.161048
1794	0.0825474
1806	0.0447277
1818	0.0281903
1830	0.020445
1842	0.0180725
1854	0.0175841
1866	0.0157001
1878	0.0145138
1890	0.0129089
1902	0.0136067
1914	0.0139556
1926	0.0127694
1938	0.0122809
1950	0.0104667
1962	0.0122809
1974	0.0123507
1986	0.0117925
1998	0.0103969
2010	0.0118623
2022	0.00997825
2034	0.010676
2046	0.0118623
2058	0.0103271
2070	0.00948981
2082	0.0106063
2094	0.00948981
2106	0.00990848
2118	0.00935025
2130	0.00879203
2142	0.00935025
2154	0.00907114
2166	0.00886181
2178	0.00969914
2190	0.00837336
2202	0.00858269
2214	0.00914092
2226	0.00830358
2238	0.00746625
2250	0.00795469
2262	0.00865247
2274	0.00795469
2286	0.00746625
2298	0.00628002
2310	0.00516357
2322	0.00523335
2334	0.00683824
2346	0.00795469
2358	0.00530313
2370	0.00816403
2382	0.00593113
2394	0.00628002
2406	0.00676847
2418	0.00628002
2430	0.00641958
2442	0.00704758
2454	0.0076058
2466	0.00851292
2478	0.00858269
2490	0.00935025
2502	0.0103969
2514	0.0115831
2526	0.0117925
2538	0.0120018
2550	0.0123507
2562	0.0116529
2574	0.0122111
2586	0.0123507
2598	0.011932
2610	0.0120018
2622	0.0122809
2634	0.0124903
2646	0.0129787
2658	0.0139556
2670	0.0137463
2682	0.0137463
2694	0.0124205
2706	0.0112343
2718	0.00997825
2730	0.00990848
2742	0.010048
2754	0.0101178
2766	0.0109551
2778	0.0129089
2790	0.0160489
2802	0.0214916
2814	0.0291672
2826	0.0401921
2838	0.0628002
2850	0.138719
2862	0.276181
2874	0.22957
2886	0.164676
2898	0.164188
2910	0.241781
2922	0.423134
2934	0.69778
2946	0.467164
2958	0.241083
2970	0.223359
2982	0.0929443
2994	0.0451464
3006	0.0319583
3018	0.0258876
3030	0.0215614
3042	0.0181423
3054	0.0166072
3066	0.0136765
3078	0.0108854
3090	0.00942003
3102	0.00942003
3114	0.00928047
3126	0.0092107
3138	0.00879203
3150	0.00893158
3162	0.00914092
3174	0.00990848
3186	0.00935025
3198	0.00997825
3210	0.0103271
3222	0.00907114
3234	0.00942003
3246	0.00900136
3258	0.00893158
3270	0.00844314
3282	0.00914092
3294	0.00816403
3306	0.00851292
3318	0.00816403
3330	0.00830358
3342	0.00837336
3354	0.00774536
3366	0.00732669
3378	0.00718713
3390	0.00746625
3402	0.00767558
3414	0.00795469
3426	0.00781514
3438	0.00718713
3450	0.00830358
3462	0.00781514
3474	0.0076058
3486	0.00914092
3498	0.0115831
3510	0.0120018
3522	0.0126996
3534	0.0135369
3546	0.0155605
3558	0.0178632
3570	0.0320979
3582	0.178004
3594	0.0988056
3606	0.0168165
3618	0.0107458
3630	0.0107458
3642	0.00935025
3654	0.00990848
3666	0.00816403
3678	0.0082338
3690	0.00928047
3702	0.0092107
3714	0.0092107
3726	0.00795469
3738	0.00781514
3750	0.00990848
3762	0.00753602
3774	0.00774536
3786	0.00809425
3798	0.00753602
3810	0.0082338
3822	0.00830358
3834	0.00628002
3846	0.00914092
3858	0.00655913
3870	0.00516357
3882	0.00837336
3894	0.00516357
3906	0.00628002
3918	0.00865247
3930	0.00683824
3942	0.0101178
3954	0.00865247
3966	0.00683824
