Infrared Spectrum: 1H-Indole-1-propanenitrile
Formula: C 11 H 10 N 2
CAS: 4414-79-3
Origin: Sadtler Research Labs Under US-EPA Contract
1/CM	ABSORBANCE
450	0.0112138
462	0.036329
474	0.0452722
486	0.00148282
498	0.000648732
510	0.0299343
522	0.0179791
534	0.0111211
546	0.0128356
558	0.0108894
570	0.0278028
582	0.0189522
594	0.0192303
606	0.0216398
618	0.0140868
630	0.0169134
642	0.0178865
654	0.0204351
666	0.0138087
678	0.0158939
690	0.02961
702	0.0763187
714	0.123815
726	0.214406
738	0.46338
750	0.151525
762	0.0817866
774	0.0282198
786	0.0166817
798	0.0225203
810	0.0156622
822	0.0273394
834	0.0221959
846	0.0213618
858	0.0173767
870	0.0106577
882	0.0320659
894	0.0219642
906	0.0222422
918	0.0243275
930	0.0205741
942	0.0127893
954	0.0169597
966	0.0158476
978	0.0176084
990	0.0212228
1002	0.0299807
1014	0.0532887
1026	0.0277101
1038	0.0166353
1050	0.0270151
1062	0.0448088
1074	0.0240958
1086	0.0160329
1098	0.0113065
1110	0.0120942
1122	0.0238177
1134	0.01974
1146	0.0207594
1158	0.0373484
1170	0.0733994
1182	0.107597
1194	0.0721946
1206	0.0512035
1218	0.0404067
1230	0.0619076
1242	0.0821573
1254	0.0588029
1266	0.0483769
1278	0.0310465
1290	0.0392946
1302	0.0903128
1314	0.251662
1326	0.205602
1338	0.0901274
1350	0.089386
1362	0.132295
1374	0.129237
1386	0.0709898
1398	0.0525936
1410	0.0420749
1422	0.046338
1434	0.0473574
1446	0.0784039
1458	0.250642
1470	0.194388
1482	0.105326
1494	0.0583859
1506	0.0382752
1518	0.0966147
1530	0.0626953
1542	0.0359583
1554	0.0442528
1566	0.0339658
1578	0.0292856
1590	0.0190449
1602	0.0252079
1614	0.0454112
1626	0.0203424
1638	0.0101944
1650	0.0100553
1662	0.0142721
1674	0.0144111
1686	0.0175621
1698	0.0119089
1710	0.0103334
1722	0.00894323
1734	0.00755309
1746	0.0105187
1758	0.0142258
1770	0.0073214
1782	0.00648732
1794	0.00801647
1806	0.0050045
1818	0.00287296
1830	0.00389239
1842	0.00736774
1854	0.00648732
1866	0.00486549
1878	0.00973098
1890	0.00648732
1902	0.00384605
1914	0.00940661
1926	0.00690436
1938	0.0019462
1950	0.00101944
1962	0.00069507
1974	0.000787746
1986	0.000834084
1998	0.00106577
2010	0.00092676
2022	0.000417042
2034	0.00023169
2046	0.00092676
2058	0.000973098
2070	0.00115845
2082	0.000556056
2094	0.000556056
2106	0.000509718
2118	0.000556056
2130	0.00106577
2142	0.000602394
2154	0.000741408
2166	0.000741408
2178	0.00115845
2190	0.00106577
2202	0.00157549
2214	0.00222422
2226	0.00245591
2238	0.00454112
2250	0.00986999
2262	0.00755309
2274	0.00217789
2286	0.00208521
2298	0.00319732
2310	0.00444845
2322	0.00403141
2334	0.00329
2346	0.00264127
2358	0.00342901
2370	0.00213155
2382	0.00305831
2394	0.00176084
2406	0.00203887
2418	0.00143648
2430	0.000787746
2442	0.000648732
2454	0.000741408
2466	0.00111211
2478	0.00143648
2490	0.00324366
2502	0.00370704
2514	0.0036607
2526	0.00370704
2538	0.00259493
2550	0.00264127
2562	0.00278028
2574	0.00296563
2586	0.00291929
2598	0.00213155
2610	0.00240958
2622	0.00254859
2634	0.0026876
2646	0.00435577
2658	0.00361436
2670	0.00398507
2682	0.0036607
2694	0.00347535
2706	0.00449479
2718	0.00454112
2730	0.00477281
2742	0.0036607
2754	0.00333634
2766	0.00278028
2778	0.0046338
2790	0.00421676
2802	0.00477281
2814	0.00421676
2826	0.00611662
2838	0.00708971
2850	0.00722873
2862	0.00898957
2874	0.0148282
2886	0.0267834
2898	0.0257176
2910	0.0217789
2922	0.0228446
2934	0.0405921
2946	0.0610271
2958	0.0610271
2970	0.0474038
2982	0.0375338
2994	0.0237714
3006	0.0144575
3018	0.0186742
3030	0.0399897
3042	0.0564397
3054	0.0606564
3066	0.0879495
3078	0.0808135
3090	0.0512035
3102	0.0223349
3114	0.0123722
3126	0.013299
3138	0.0122796
3150	0.00486549
3162	0.00264127
3174	0.00254859
3186	0.0023169
3198	0.00227056
3210	0.00254859
3222	0.00250225
3234	0.0019462
3246	0.0013438
3258	0.00166817
3270	0.00129746
3282	0.00125113
3294	0.00180718
3306	0.000648732
3318	0.000417042
3330	0.00092676
3342	0.00189986
3354	0.00148282
3366	0.00115845
3378	0.00129746
3390	0.00208521
3402	0.000741408
3414	0.00217789
3426	0.00152915
3438	0.000602394
3450	0.000648732
3462	0.00240958
3474	0.00208521
3486	0.00162183
3498	0.000741408
3510	0.00264127
3522	0.00259493
3534	0.00273394
3546	0.0036607
3558	0.00227056
3570	0.00305831
3582	0.00287296
3594	0.00222422
3606	0.00236324
3618	0.0023169
3630	0.000185352
3642	0.00208521
3654	0.00125113
3666	0.00157549
3678	0.00157549
3690	0.00166817
3702	0.00319732
3714	0.00208521
3726	0.00403141
3738	0.00329
3750	0
3762	0.00217789
3774	0.00407774
3786	0.00514352
3798	0.00254859
3810	0.00375338
3822	0.000556056
3834	0.00236324
3846	0.00240958
3858	0.00203887
3870	0.00199253
3882	0.00240958
3894	0.00412408
3906	0.00444845
3918	0.00370704
3930	0.00393873
3942	0.00254859
3954	0.00115845
3966	0.00630197
