Infrared Spectrum: Heptane, 1-isothiocyanato-
Formula: C 8 H 15 N S
CAS: 4426-83-9
Origin: Sadtler Research Labs Under US-EPA Contract
1/CM	ABSORBANCE
450	0.0174815
462	0.0173226
474	0.0239974
486	0.0255866
498	0.0273348
510	0.0300364
522	0.0338506
534	0.0397308
546	0.0425914
558	0.0363934
570	0.0306721
582	0.0208189
594	0.0133495
606	0.0106478
618	0.008264
630	0.00588015
642	0.00667477
654	0.0108068
666	0.012396
678	0.00858184
690	0.0125549
702	0.0235206
714	0.0254277
726	0.0263812
738	0.0166869
750	0.0125549
762	0.0104889
774	0.00842292
786	0.00731046
798	0.0076283
810	0.00588015
822	0.00381415
834	0.00381415
846	0.00190708
858	0.002066
870	0.00365523
882	0.00540338
894	0.00810507
906	0.00746938
918	0.00635692
930	0.00635692
942	0.00651584
954	0.00683369
966	0.00588015
978	0.00699261
990	0.00794615
1002	0.00746938
1014	0.00889969
1026	0.0109657
1038	0.0119192
1050	0.0111246
1062	0.0112835
1074	0.0112835
1086	0.0116014
1098	0.0130317
1110	0.0163691
1122	0.016528
1134	0.0120781
1146	0.0106478
1158	0.0119192
1170	0.0111246
1182	0.01033
1194	0.0111246
1206	0.0120781
1218	0.0143031
1230	0.0152566
1242	0.0157334
1254	0.0187529
1266	0.0222492
1278	0.0235206
1290	0.0308311
1302	0.0452931
1314	0.0570534
1326	0.0719921
1338	0.14462
1350	0.25078
1362	0.16385
1374	0.0977376
1386	0.0505375
1398	0.0243152
1410	0.0152566
1422	0.0154155
1434	0.0286061
1446	0.0699261
1458	0.158128
1470	0.138581
1482	0.0425914
1494	0.0182761
1506	0.0139852
1518	0.00715153
1530	0.00381415
1542	0.00270169
1554	0.00143031
1566	0.000794615
1578	0.000794615
1590	0.000476769
1602	0.000635692
1614	0.000158923
1626	0.000317846
1638	0.000158923
1650	0.000635692
1662	0
1674	0.00111246
1686	0.00301954
1698	0.00222492
1710	0.00111246
1722	0.00143031
1734	0.00238384
1746	0.00476769
1758	0.00381415
1770	0.00143031
1782	0.000953538
1794	0.00111246
1806	0.000953538
1818	0.000953538
1830	0.00174815
1842	0.00238384
1854	0.00365523
1866	0.00540338
1878	0.00794615
1890	0.0119192
1902	0.0166869
1914	0.0238385
1926	0.033056
1938	0.0451341
1950	0.0613443
1962	0.0840703
1974	0.117126
1986	0.166551
1998	0.242358
2010	0.35853
2022	0.535571
2034	0.808123
2046	1.17873
2058	1.50738
2070	1.56523
2082	1.30587
2094	0.906974
2106	0.62568
2118	0.467234
2130	0.364728
2142	0.301159
2154	0.264448
2166	0.241404
2178	0.229326
2190	0.219632
2202	0.196906
2214	0.159241
2226	0.120623
2238	0.0831167
2250	0.0570534
2262	0.0403664
2274	0.0294008
2286	0.022726
2298	0.0177994
2310	0.0147798
2322	0.0122371
2334	0.0104889
2346	0.00921753
2358	0.00746938
2370	0.00588015
2382	0.004132
2394	0.00286061
2406	0.00238384
2418	0.00190708
2430	0.00174815
2442	0.002066
2454	0.002066
2466	0.00222492
2478	0.00222492
2490	0.00270169
2502	0.00317846
2514	0.00333738
2526	0.00429092
2538	0.00476769
2550	0.00588015
2562	0.00603907
2574	0.00746938
2586	0.00794615
2598	0.00778723
2610	0.00699261
2622	0.00651584
2634	0.00603907
2646	0.00635692
2658	0.00778723
2670	0.0100121
2682	0.0128728
2694	0.014462
2706	0.0163691
2718	0.0208189
2730	0.0262223
2742	0.0300364
2754	0.0271758
2766	0.0230438
2778	0.02066
2790	0.0212957
2802	0.0241563
2814	0.0274937
2826	0.0332149
2838	0.0472001
2850	0.090745
2862	0.225035
2874	0.27446
2886	0.260634
2898	0.200243
2910	0.229962
2922	0.387931
2934	0.639188
2946	0.701327
2958	0.556866
2970	0.459605
2982	0.201355
2994	0.0800972
3006	0.0460877
3018	0.0316257
3030	0.0246331
3042	0.0189118
3054	0.014462
3066	0.0117603
3078	0.0106478
3090	0.00921753
3102	0.00778723
3114	0.00667477
3126	0.00651584
3138	0.00588015
3150	0.00556231
3162	0.00524446
3174	0.00492661
3186	0.00444984
3198	0.00429092
3210	0.00381415
3222	0.00301954
3234	0.00254277
3246	0.00222492
3258	0.00222492
3270	0.00222492
3282	0.00222492
3294	0.00238384
3306	0.00222492
3318	0.00238384
3330	0.002066
3342	0.00222492
3354	0.00301954
3366	0.00301954
3378	0.00270169
3390	0.00301954
3402	0.00301954
3414	0.00365523
3426	0.00254277
3438	0.00254277
3450	0.00301954
3462	0.00238384
3474	0.00238384
3486	0.00238384
3498	0.00254277
3510	0.00222492
3522	0.00222492
3534	0.00190708
3546	0.00174815
3558	0.00222492
3570	0.002066
3582	0.00270169
3594	0.00270169
3606	0.002066
3618	0.00349631
3630	0.00301954
3642	0.00381415
3654	0.00301954
3666	0.00286061
3678	0.00286061
3690	0.00381415
3702	0.00301954
3714	0.00349631
3726	0.00317846
3738	0.00270169
3750	0.00397307
3762	0.00301954
3774	0.00222492
3786	0.00365523
3798	0.00381415
3810	0.00238384
3822	0.00349631
3834	0.00254277
3846	0.00301954
3858	0.00238384
3870	0.00238384
3882	0.00222492
3894	0.00301954
3906	0.00286061
3918	0.00222492
3930	0.00238384
3942	0.00270169
3954	0.00349631
3966	0.00238384
