Infrared Spectrum: 3-Fluoro-o-xylene
Formula: C 8 H 9 F
CAS: 443-82-3
Origin: Sadtler Research Labs Under US-EPA Contract
1/CM	ABSORBANCE
450	0.015661
462	0.0514862
474	0.0324379
486	0.00657525
498	0.0030286
510	0.00976325
522	0.0187295
534	0.0217581
546	0.0120347
558	0.0057384
570	0.0077309
582	0.0157806
594	0.00322785
606	0.010361
618	0.004782
630	0.0091655
642	0.00824895
654	0.0217979
666	0.0357056
678	0.0271777
690	0.0376184
702	0.104048
714	0.0415635
726	0.0152625
738	0.0104805
750	0.0323582
762	0.143221
774	0.3985
786	0.155574
798	0.0282536
810	0.0199648
822	0.0176137
834	0.0130309
846	0.0117956
858	0.0103211
870	0.0109587
882	0.0327168
894	0.0732842
906	0.0591773
918	0.0171355
930	0.0115964
942	0.0128317
954	0.0153821
966	0.0165378
978	0.0242686
990	0.0301266
1002	0.02391
1014	0.0238303
1026	0.0282536
1038	0.0365424
1050	0.0598547
1062	0.112736
1074	0.0992265
1086	0.104168
1098	0.123296
1110	0.0642382
1122	0.0232724
1134	0.0160197
1146	0.014067
1158	0.0201242
1170	0.0188889
1182	0.024428
1194	0.0391327
1206	0.0280544
1218	0.0198054
1230	0.0578224
1242	0.216505
1254	0.337529
1266	0.186857
1278	0.0452696
1290	0.0251454
1302	0.0157009
1314	0.0145054
1326	0.0159001
1338	0.0181716
1350	0.0152625
1362	0.0169362
1374	0.0180919
1386	0.0250258
1398	0.025504
1410	0.0159799
1422	0.0224355
1434	0.0404079
1446	0.0799391
1458	0.196899
1470	0.356179
1482	0.299991
1494	0.1276
1506	0.0525622
1518	0.04252
1530	0.03188
1542	0.0389335
1554	0.0554712
1566	0.0904197
1578	0.136526
1590	0.13553
1602	0.0848407
1614	0.083167
1626	0.0679841
1638	0.0259423
1650	0.0127919
1662	0.0105204
1674	0.0070933
1686	0.00641585
1698	0.0082888
1710	0.0120745
1722	0.0146249
1734	0.0169362
1746	0.0190881
1758	0.0173347
1770	0.0100422
1782	0.0054993
1794	0.00553915
1806	0.00402485
1818	0.00514065
1830	0.010879
1842	0.00920535
1854	0.00266995
1866	0.0026301
1878	0.0026301
1890	0.00434365
1902	0.0119151
1914	0.0155813
1926	0.0080497
1938	0.0029489
1950	0.00219175
1962	0.0026301
1974	0.0019128
1986	0.0014346
1998	0.00163385
2010	0.00107595
2022	0.0011158
2034	0.00091655
2046	0.00147445
2058	0.00123535
2070	0.0011158
2082	0.00067745
2094	0.00115565
2106	0.00147445
2118	0.0019925
2130	0.0030286
2142	0.00466245
2154	0.00418425
2166	0.00203235
2178	0.0013549
2190	0.00147445
2202	0.0016737
2214	0.00115565
2226	0.00123535
2238	0.0015143
2250	0.00163385
2262	0.0017534
2274	0.00211205
2286	0.00219175
2298	0.00243085
2310	0.00434365
2322	0.0059775
2334	0.00402485
2346	0.00370605
2358	0.00601735
2370	0.00298875
2382	0.00163385
2394	0.0018331
2406	0.00203235
2418	0.00219175
2430	0.00243085
2442	0.0025504
2454	0.0020722
2466	0.0012752
2478	0.00211205
2490	0.0028692
2502	0.00227145
2514	0.00163385
2526	0.0018331
2538	0.0020722
2550	0.0013549
2562	0.00083685
2574	0.0019128
2586	0.0023113
2598	0.0009564
2610	0.00067745
2622	0.0003188
2634	0.00123535
2646	0.00107595
2658	0.00035865
2670	0.00059775
2682	0.0006376
2694	0.0007173
2706	0.0011955
2718	0.0020722
2730	0.00306845
2742	0.00697375
2754	0.0074121
2766	0.00418425
2778	0.00322785
2790	0.00290905
2802	0.0034271
2814	0.00514065
2826	0.0070136
2838	0.0100821
2850	0.0174941
2862	0.0372598
2874	0.0630028
2886	0.0672668
2898	0.0608908
2910	0.0636803
2922	0.0903798
2934	0.144456
2946	0.157248
2958	0.128915
2970	0.0862752
2982	0.0794609
2994	0.0646367
3006	0.0429184
3018	0.0442335
3030	0.0654337
3042	0.0869527
3054	0.0817323
3066	0.0763526
3078	0.0783052
3090	0.0575036
3102	0.0314018
3114	0.0149039
3126	0.00737225
3138	0.0054993
3150	0.00458275
3162	0.0047023
3174	0.00370605
3186	0.00306845
3198	0.00330755
3210	0.00354665
3222	0.003188
3234	0.00266995
3246	0.003188
3258	0.0026301
3270	0.00314815
3282	0.00243085
3294	0.00259025
3306	0.0027098
3318	0.00338725
3330	0.00338725
3342	0.00282935
3354	0.0019925
3366	0.0031083
3378	0.00274965
3390	0.0032677
3402	0.00219175
3414	0.0026301
3426	0.0030286
3438	0.00259025
3450	0.0024707
3462	0.00227145
3474	0.002391
3486	0.0023113
3498	0.0016737
3510	0.0017534
3522	0.00195265
3534	0.00251055
3546	0.0017534
3558	0.0024707
3570	0.0019128
3582	0.0026301
3594	0.00179325
3606	0.00195265
3618	0.0020722
3630	0.0023113
3642	0.00235115
3654	0.0019128
3666	0.00083685
3678	0.00195265
3690	0.00107595
3702	0.00139475
3714	0.00131505
3726	0.0033474
3738	0.00474215
3750	0.00051805
3762	0.0015143
3774	0.0003985
3786	0.00139475
3798	0.00115565
3810	0
3822	0.00131505
3834	0.00259025
3846	0.0019925
3858	0.0029489
3870	0.0025504
3882	0.0005579
3894	0.00338725
3906	0.0027895
3918	0.0012752
3930	0.0033474
3942	0.0010361
3954	0.0027895
3966	7.97e-05
