Infrared Spectrum: 2,6-Dimethylfluorobenzene
Formula: C 8 H 9 F
CAS: 443-88-9
Origin: Sadtler Research Labs Under US-EPA Contract
1/CM	ABSORBANCE
450	0.0210098
462	0.0261093
474	0.0361043
486	0.038416
498	0.029101
510	0.00475951
522	0.00333166
534	0.00564342
546	0.00911106
558	0.00285571
570	0.00115588
582	0.00339965
594	0.00258373
606	0.00475951
618	0.000747923
630	0.00564342
642	0.0129187
654	0.0495669
666	0.0454873
678	0.00924705
690	0.000543944
702	0.0182901
714	0.0518787
726	0.0631655
738	0.0506548
750	0.19038
762	0.436719
774	0.26898
786	0.048275
798	0.0317527
810	0.0735004
822	0.134082
834	0.111509
846	0.029305
858	0.00727525
870	0.00639134
882	0.00441954
894	0.00747923
906	0.019786
918	0.0402519
930	0.0312768
942	0.0161143
954	0.0189021
966	0.0204659
978	0.0258373
990	0.0230496
1002	0.0201939
1014	0.0184261
1026	0.019718
1038	0.0275372
1050	0.029101
1062	0.0451474
1074	0.0808437
1086	0.119872
1098	0.120144
1110	0.0618736
1122	0.0164543
1134	0.0132586
1146	0.0212138
1158	0.0233896
1170	0.0260413
1182	0.13789
1194	0.637978
1206	0.67993
1218	0.0811156
1230	0.0165903
1242	0.0169982
1254	0.0590179
1266	0.188205
1278	0.164679
1290	0.0356963
1302	0.0206019
1314	0.0218258
1326	0.0201939
1338	0.0169303
1350	0.0146185
1362	0.0163863
1374	0.0271972
1386	0.0407958
1398	0.0276052
1410	0.01897
1422	0.0467792
1434	0.146457
1446	0.240695
1458	0.297809
1470	0.452561
1482	0.550199
1494	0.393
1506	0.152916
1518	0.0953942
1530	0.0858752
1542	0.0751323
1554	0.0540544
1566	0.0329766
1578	0.0336565
1590	0.0520146
1602	0.0500428
1614	0.0276732
1626	0.0254974
1638	0.0267212
1650	0.0257014
1662	0.0165903
1674	0.00727525
1686	0.00666331
1698	0.00659532
1710	0.00747923
1722	0.00883909
1734	0.00815916
1746	0.00618736
1758	0.00958701
1770	0.0165223
1782	0.0118308
1794	0.00571141
1806	0.00455553
1818	0.00503148
1830	0.0108109
1842	0.0210778
1854	0.0179502
1866	0.00713926
1878	0.00394359
1890	0.00407958
1902	0.00815916
1914	0.0202619
1926	0.019242
1938	0.00686729
1950	0.0019718
1962	0.00135986
1974	0.000407958
1986	0.000475951
1998	0.00217578
2010	0.00373961
2022	0.00639134
2034	0.00537145
2046	0.00265173
2058	0.00129187
2070	0.00142785
2082	0.0019038
2094	0.00217578
2106	0.00237975
2118	0.0019718
2130	0.00231176
2142	0.00244775
2154	0.00169982
2166	0.00142785
2178	0.000339965
2190	0.000339965
2202	0.00169982
2214	0.00067993
2226	0.00149585
2238	0.00149585
2250	0.00156384
2262	0.00360363
2274	0.00380761
2286	0.00360363
2298	0.00530345
2310	0.00632335
2322	0.00673131
2334	0.00666331
2346	0.00659532
2358	0.00591539
2370	0.0067993
2382	0.00537145
2394	0.00781919
2406	0.00849912
2418	0.00571141
2430	0.00652733
2442	0.00598338
2454	0.00659532
2466	0.00666331
2478	0.00652733
2490	0.00441954
2502	0.00312768
2514	0.00373961
2526	0.00435155
2538	0.00394359
2550	0.00564342
2562	0.00537145
2574	0.00591539
2586	0.00734324
2598	0.00652733
2610	0.00367162
2622	0.00244775
2634	0.00407958
2646	0.00448754
2658	0.00571141
2670	0.00414757
2682	0.00360363
2694	0.0038756
2706	0.00394359
2718	0.00523546
2730	0.00781919
2742	0.0140746
2754	0.0187661
2766	0.0106069
2778	0.00605138
2790	0.00605138
2802	0.00747923
2814	0.0106749
2826	0.0146865
2838	0.0199219
2850	0.0331806
2862	0.0794158
2874	0.131023
2886	0.125379
2898	0.102805
2910	0.114976
2922	0.171274
2934	0.309844
2946	0.321675
2958	0.193304
2970	0.17923
2982	0.179773
2994	0.154344
3006	0.0879829
3018	0.0687409
3030	0.143941
3042	0.223629
3054	0.246203
3066	0.233012
3078	0.167331
3090	0.0752683
3102	0.039028
3114	0.029305
3126	0.0167263
3138	0.00863511
3150	0.00741124
3162	0.0057794
3174	0.00516747
3186	0.00516747
3198	0.00428356
3210	0.00394359
3222	0.00305968
3234	0.00244775
3246	0.00285571
3258	0.00441954
3270	0.00312768
3282	0.00496349
3294	0.00258373
3306	0.00299169
3318	0.00251574
3330	0.00210778
3342	0.00373961
3354	0.00265173
3366	0.00265173
3378	0.00367162
3390	0.00319567
3402	0.00305968
3414	0.00217578
3426	0.00265173
3438	0.00285571
3450	0.00231176
3462	0.00326366
3474	0.00319567
3486	0.00339965
3498	0.00360363
3510	0.00271972
3522	0.00346764
3534	0.00312768
3546	0.00231176
3558	0.00312768
3570	0.00455553
3582	0.00455553
3594	0.00448754
3606	0.00414757
3618	0.00380761
3630	0.00448754
3642	0.00373961
3654	0.00305968
3666	0.00326366
3678	0.00414757
3690	0.00421557
3702	0.00319567
3714	0.00299169
3726	0.00469152
3738	0.00516747
3750	0.0048275
3762	0.00380761
3774	0.00435155
3786	0.00312768
3798	0.00407958
3810	0.00455553
3822	0.00435155
3834	0.0048955
3846	0.00666331
3858	0.00849912
3870	0.00904307
3882	0.00843113
3894	0.00727525
3906	0.00598338
3918	0.00414757
3930	0.0058474
3942	0.00639134
3954	0.00700328
3966	0.00700328
