Infrared Spectrum: Benzene, 1-chloro-3-fluoro-2-methyl-
Formula: C 7 H 6 Cl F
CAS: 443-83-4
Origin: Sadtler Research Labs Under US-EPA Contract
1/CM	ABSORBANCE
450	0.016515
462	0.0362634
474	0.0356167
486	0.0111924
498	0.00582005
510	0.00194002
522	0.0103468
534	0.0198976
546	0.0197981
558	0.00830725
570	0.00507389
582	0.00651646
594	0.0082575
606	0.00527286
618	0.0280556
630	0.0354177
642	0.0082575
654	0.00771032
666	0.0087052
678	0.012038
690	0.0470578
702	0.0806848
714	0.0255187
726	0.00378054
738	0.00815802
750	0.0251207
762	0.149381
774	0.472866
786	0.211611
798	0.0605882
810	0.0362634
822	0.0191017
834	0.018654
846	0.0304931
858	0.245487
870	0.381686
882	0.0727257
894	0.0185048
906	0.012834
918	0.0136796
930	0.0130827
942	0.0146745
954	0.0222356
966	0.0290008
978	0.0512861
990	0.123863
1002	0.181466
1014	0.208278
1026	0.186838
1038	0.108193
1050	0.070736
1062	0.0758099
1074	0.0502414
1086	0.0258669
1098	0.0172612
1110	0.0165648
1122	0.0105955
1134	0.0177089
1146	0.028951
1158	0.0336269
1170	0.0904346
1182	0.0972993
1194	0.025071
1206	0.0295479
1218	0.0302444
1230	0.047804
1242	0.305727
1254	0.393674
1266	0.0964536
1278	0.0376562
1290	0.0165648
1302	0.00910315
1314	0.00805853
1326	0.0112919
1338	0.0176591
1350	0.0137791
1362	0.0123863
1374	0.0180073
1386	0.0228822
1398	0.0221858
1410	0.0168632
1422	0.0254689
1434	0.115456
1446	0.325624
1458	0.486297
1470	0.460878
1482	0.225191
1494	0.0546687
1506	0.0352685
1518	0.0441727
1530	0.0521317
1542	0.0468091
1554	0.0469086
1566	0.115456
1578	0.295081
1590	0.313735
1602	0.178979
1614	0.110183
1626	0.0308413
1638	0.0125355
1650	0.0126847
1662	0.0192012
1674	0.0113914
1686	0.00591954
1698	0.00363131
1710	0.00308413
1722	0.00507389
1734	0.0101975
1746	0.00925238
1758	0.0160673
1770	0.0129334
1782	0.00412875
1794	0.00218874
1806	0.0029349
1818	0.00278566
1830	0.0116898
1842	0.0141273
1854	0.00388003
1866	0.00353182
1878	0.00840674
1890	0.00442722
1902	0.0105457
1914	0.0176094
1926	0.00810827
1938	0.00303438
1950	0.00228822
1962	0.00074616
1974	0.00099488
1986	0.00119386
1998	0.00189027
2010	0.00268618
2022	0.00184053
2034	0.00198976
2046	0.00253694
2058	0.00149232
2070	0.00303438
2082	0.00283541
2094	0.00243746
2106	0.00482517
2118	0.00636723
2130	0.00238771
2142	0.00208925
2154	0.000547184
2166	0.00109437
2178	0.00149232
2190	0.00164155
2202	0.00184053
2214	0.00144258
2226	0.00164155
2238	0.00179078
2250	0.0020395
2262	0.00318362
2274	0.00283541
2286	0.00263643
2298	0.00358157
2310	0.00348208
2322	0.00353182
2334	0.00472568
2346	0.000945136
2358	0.00422824
2370	0.00174104
2382	0.00243746
2394	0.00228822
2406	0.00402926
2418	0.00671544
2430	0.00596928
2442	0.00432773
2454	0.0054221
2466	0.00527286
2478	0.00502414
2490	0.00716314
2502	0.00656621
2514	0.00427798
2526	0.00432773
2538	0.0041785
2550	0.00368106
2562	0.00437747
2574	0.00472568
2586	0.00397952
2598	0.00422824
2610	0.00422824
2622	0.00392978
2634	0.00378054
2646	0.00323336
2658	0.00343234
2670	0.00358157
2682	0.0032831
2694	0.00378054
2706	0.0045267
2718	0.00537235
2730	0.00527286
2742	0.00562107
2754	0.00741186
2766	0.00582005
2778	0.0041785
2790	0.00378054
2802	0.00472568
2814	0.00507389
2826	0.00557133
2838	0.00646672
2850	0.00855597
2862	0.0141273
2874	0.0237776
2886	0.0261156
2898	0.0187037
2910	0.0194499
2922	0.0261156
2934	0.0493958
2946	0.0733227
2958	0.0574543
2970	0.037507
2982	0.0239269
2994	0.0179576
3006	0.0206935
3018	0.0257176
3030	0.0247228
3042	0.0242253
3054	0.0265136
3066	0.035368
3078	0.0489978
3090	0.0523804
3102	0.0294982
3114	0.0111924
3126	0.00766058
3138	0.00766058
3150	0.00706365
3162	0.00601902
3174	0.00636723
3186	0.00557133
3198	0.0049744
3210	0.00532261
3222	0.00522312
3234	0.00522312
3246	0.00562107
3258	0.00502414
3270	0.00572056
3282	0.00492466
3294	0.00512363
3306	0.00517338
3318	0.00457645
3330	0.00482517
3342	0.00547184
3354	0.00537235
3366	0.00552158
3378	0.00472568
3390	0.00547184
3402	0.00472568
3414	0.006218
3426	0.00462619
3438	0.00472568
3450	0.00631749
3462	0.00472568
3474	0.00611851
3486	0.00582005
3498	0.00562107
3510	0.00586979
3522	0.00596928
3534	0.00601902
3546	0.00631749
3558	0.00741186
3570	0.00606877
3582	0.00935187
3594	0.00512363
3606	0.00845648
3618	0.00731237
3630	0.00507389
3642	0.00989906
3654	0.00139283
3666	0.0107944
3678	0.00721288
3690	0.00477542
3702	0.00955085
3714	0.00512363
3726	0.0114411
3738	0.00860571
3750	0.000348208
3762	0.010695
3774	0.00860571
3786	0.00736211
3798	0.00582005
3810	0.0147242
3822	0.00228822
3834	0.00800878
3846	0.00855597
3858	0.00507389
3870	0.00800878
3882	0.00935187
3894	0.00930213
3906	0.006218
3918	0.0111427
3930	0.0103468
3942	0.00830725
3954	0.00835699
3966	0.0116898
