Infrared Spectrum: Nonadecane, 1-bromo-
Formula: C 19 H 39 Br
CAS: 4434-66-6
Origin: Sadtler Research Labs Under US-EPA Contract
1/CM	ABSORBANCE
450	0.0394299
462	0.0254013
474	0.011577
486	0.0041541
498	0.0215877
510	0.0056523
522	0.0113727
534	0.0230859
546	0.0182508
558	0.0196809
570	0.0206343
582	0.0168888
594	0.0096021
606	0.0121899
618	0.0119175
630	0.0137562
642	0.0184551
654	0.0215877
666	0.0082401
678	0.0123942
690	0.0120537
702	0.0164121
714	0.0201576
726	0.0183189
738	0.0187956
750	0.0070143
762	0.0157992
774	0.0078996
786	0.0115089
798	0.0164802
810	0.0113046
822	0.0115089
834	0.009534
846	0.0140286
858	0.0052437
870	0.0096702
882	0.0091254
894	0.0082401
906	0.0125985
918	0.0075591
930	0.0091935
942	0.0108279
954	0.0100788
966	0.0097383
978	0.0086487
990	0.0080358
1002	0.0100788
1014	0.0091935
1026	0.0132114
1038	0.0076272
1050	0.0103512
1062	0.0091935
1074	0.0096702
1086	0.0102831
1098	0.0078315
1110	0.0084444
1122	0.0072867
1134	0.0092616
1146	0.0090573
1158	0.010215
1170	0.0068781
1182	0.0091935
1194	0.009534
1206	0.0155949
1218	0.0162078
1230	0.0218601
1242	0.0210429
1254	0.0224049
1266	0.0256056
1278	0.0194766
1290	0.0207705
1302	0.0208386
1314	0.0198852
1326	0.0142329
1338	0.0185232
1350	0.0243117
1362	0.0227454
1374	0.0181827
1386	0.0124623
1398	0.0113727
1410	0.0107598
1422	0.0118494
1434	0.019068
1446	0.0362973
1458	0.0495768
1470	0.0444012
1482	0.0152544
1494	0.0090573
1506	0.0058566
1518	0.0090573
1530	0.0079677
1542	0.0063333
1554	0.0051756
1566	0.0059247
1578	0.0042222
1590	0.0049713
1602	0.0042903
1614	0.0065376
1626	0.0046308
1638	0.0067419
1650	0.0051756
1662	0.0019068
1674	0.0038136
1686	0.0050394
1698	0.0055842
1710	0.0040179
1722	0.0046308
1734	0.0053118
1746	0.0052437
1758	0.0039498
1770	0.0036093
1782	0.0037455
1794	0.004086
1806	0.0026559
1818	0.0032007
1830	0.0034731
1842	0.0032007
1854	0.0025197
1866	0.0025197
1878	0.0029283
1890	0.0021111
1902	0.0026559
1914	0.0024516
1926	0.0031326
1938	0.0025197
1950	0.002043
1962	0.0026559
1974	0.0021792
1986	0.0023835
1998	0.0023154
2010	0.0021111
2022	0.0029964
2034	0.0026559
2046	0.0029964
2058	0.002724
2070	0.0024516
2082	0.0022473
2094	0.002043
2106	0.0022473
2118	0.0019749
2130	0.0019749
2142	0.0021792
2154	0.0019068
2166	0.0022473
2178	0.0014982
2190	0.0019068
2202	0.0014982
2214	0.0015663
2226	0.0017706
2238	0.0015663
2250	0.0018387
2262	0.0014982
2274	0.0017025
2286	0.0028602
2298	0.004086
2310	0.0055161
2322	0.002724
2334	0.0011577
2346	0.0036093
2358	0.0025197
2370	0.0030645
2382	0.0021792
2394	0.0010215
2406	0.0008172
2418	0.000681
2430	0.0010215
2442	0.0007491
2454	0.0002724
2466	0.0002724
2478	0.0008853
2490	0.000681
2502	0.0012258
2514	0.0014301
2526	0.001362
2538	0.002043
2550	0.0021792
2562	0.0018387
2574	0.0024516
2586	0.0025197
2598	0.003405
2610	0.0033369
2622	0.0041541
2634	0.0042222
2646	0.0042903
2658	0.0060609
2670	0.0056523
2682	0.0069462
2694	0.0062652
2706	0.0060609
2718	0.0057885
2730	0.0059928
2742	0.007491
2754	0.0072186
2766	0.0081039
2778	0.0089892
2790	0.0106917
2802	0.0148458
2814	0.0184551
2826	0.0266952
2838	0.0411324
2850	0.0906411
2862	0.249791
2874	0.168275
2886	0.109845
2898	0.117609
2910	0.193268
2922	0.371486
2934	0.681
2946	0.38027
2958	0.165619
2970	0.135859
2982	0.0659208
2994	0.0344586
3006	0.025878
3018	0.0232221
3030	0.0140286
3042	0.0104874
3054	0.0086487
3066	0.0080358
3078	0.0058566
3090	0.0064695
3102	0.0051756
3114	0.0051075
3126	0.0051756
3138	0.0042222
3150	0.0053118
3162	0.0041541
3174	0.0038817
3186	0.0042903
3198	0.0036774
3210	0.0037455
3222	0.0032688
3234	0.0039498
3246	0.0032688
3258	0.0018387
3270	0.004086
3282	0.0029964
3294	0.0039498
3306	0.0031326
3318	0.0029964
3330	0.0032688
3342	0.0029964
3354	0.0036093
3366	0.0022473
3378	0.0039498
3390	0.003405
3402	0.0035412
3414	0.0039498
3426	0.0029283
3438	0.0036774
3450	0.0029964
3462	0.0025197
3474	0.0035412
3486	0.0027921
3498	0.0046989
3510	0.0029964
3522	0.0030645
3534	0.0042903
3546	0.0028602
3558	0.0041541
3570	0.0025878
3582	0.0046989
3594	0.0035412
3606	0.0039498
3618	0.0046989
3630	0.0027921
3642	0.0042222
3654	0.0030645
3666	0.0056523
3678	0.0053118
3690	0.0023154
3702	0.0057204
3714	0.004086
3726	0.0029283
3738	0.0036774
3750	0.0028602
3762	0.0051075
3774	0.0032688
3786	0.004086
3798	0.0044265
3810	0.006129
3822	0.0057204
3834	0.0036774
3846	0.0032688
3858	0.0041541
3870	0.0049713
3882	0.0052437
3894	0.006129
3906	0.0059928
3918	0.0025878
3930	0.0065376
3942	0.0028602
3954	0.004767
3966	0.0085806
