Infrared Spectrum: 1-Butanol, 3-methoxy-, acetate
Formula: C 7 H 14 O 3
CAS: 4435-53-4
Origin: Sadtler Research Labs Under US-EPA Contract
1/CM	ABSORBANCE
450	0.00782594
462	0.00681397
474	0.00742115
486	0.00620678
498	0.00681397
510	0.00748862
522	0.00769101
534	0.0136279
546	0.00532974
558	0.00775848
570	0.0117389
582	0.0132231
594	0.014505
606	0.0211165
618	0.0166639
630	0.0177433
642	0.018283
654	0.0113341
666	0.00283353
678	0.00364311
690	0.00317086
702	0.00141677
714	0.00053972
726	0.00101198
738	0.000607185
750	0.00323832
762	0.00526227
774	0.00647664
786	0.00600439
798	0.00627425
810	0.0112667
822	0.0143026
834	0.0143026
846	0.0131557
858	0.014505
870	0.0172036
882	0.0183505
894	0.0128184
906	0.0113341
918	0.014505
930	0.0158543
942	0.016394
954	0.0250295
966	0.0256367
978	0.0246922
990	0.025097
1002	0.036566
1014	0.0517457
1026	0.0717828
1038	0.119413
1050	0.160567
1062	0.117591
1074	0.109428
1086	0.152808
1098	0.18735
1110	0.165694
1122	0.124608
1134	0.119615
1146	0.142486
1158	0.129128
1170	0.0840614
1182	0.0765728
1194	0.101467
1206	0.131489
1218	0.237139
1230	0.589981
1242	0.574667
1254	0.246315
1266	0.128588
1278	0.0957328
1290	0.0580874
1302	0.0383201
1314	0.0305616
1326	0.0250295
1338	0.0291449
1350	0.0532299
1362	0.116917
1374	0.179727
1386	0.112329
1398	0.0659133
1410	0.0317086
1422	0.0273908
1434	0.030899
1446	0.0366335
1458	0.0484399
1470	0.0479676
1482	0.0303593
1494	0.0167988
1506	0.0130882
1518	0.0109293
1530	0.00897285
1542	0.00924271
1554	0.00755608
1566	0.00600439
1578	0.00573453
1590	0.00512734
1602	0.00472255
1614	0.00445269
1626	0.00499241
1638	0.00607185
1650	0.00640918
1662	0.00701636
1674	0.0080958
1686	0.0107269
1698	0.0131557
1710	0.0196998
1722	0.0325856
1734	0.0643616
1746	0.157463
1758	0.390083
1770	0.358576
1782	0.133446
1794	0.0615281
1806	0.0390622
1818	0.0187553
1830	0.00984989
1842	0.00647664
1854	0.0053972
1866	0.00485748
1878	0.0042503
1890	0.00384551
1902	0.00337325
1914	0.00391297
1926	0.00344072
1938	0.00249621
1950	0.00256367
1962	0.00283353
1974	0.00330579
1986	0.00317086
1998	0.00411537
2010	0.00371058
2022	0.00377804
2034	0.00377804
2046	0.00377804
2058	0.00371058
2070	0.00377804
2082	0.00317086
2094	0.00323832
2106	0.00263114
2118	0.00263114
2130	0.00215888
2142	0.00209142
2154	0.00263114
2166	0.00229381
2178	0.00263114
2190	0.00202395
2202	0.00209142
2214	0.00101198
2226	0.00107944
2238	0.00101198
2250	0.00094451
2262	0.000472255
2274	0
2286	0.00101198
2298	0.000607185
2310	0.000742115
2322	0.000607185
2334	6.7465e-05
2346	0.000337325
2358	6.7465e-05
2370	0.000202395
2382	0.00067465
2394	0.00067465
2406	0.00067465
2418	0.000607185
2430	0.000742115
2442	0.000742115
2454	0.00114691
2466	0.00175409
2478	0.00114691
2490	0.00121437
2502	0.000742115
2514	0.00080958
2526	0.00026986
2538	0.00080958
2550	0.00026986
2562	0.0013493
2574	0.0013493
2586	0.00182156
2598	0.00202395
2610	0.00276607
2622	0.00276607
2634	0.00283353
2646	0.002901
2658	0.00249621
2670	0.00384551
2682	0.00337325
2694	0.00195648
2706	0.00283353
2718	0.00391297
2730	0.00445269
2742	0.00458762
2754	0.00546467
2766	0.00573453
2778	0.00735369
2790	0.00998482
2802	0.0158543
2814	0.0311014
2826	0.0685444
2838	0.0658458
2850	0.0427728
2862	0.051071
2874	0.0626075
2886	0.0749536
2898	0.0773824
2910	0.0879744
2922	0.103694
2934	0.121639
2946	0.125283
2958	0.107067
2970	0.132434
2982	0.192815
2994	0.126767
3006	0.0514758
3018	0.0248271
3030	0.017271
3042	0.014505
3054	0.0125485
3066	0.0105245
3078	0.00971496
3090	0.00775848
3102	0.00613932
3114	0.00512734
3126	0.00398044
3138	0.00344072
3150	0.00256367
3162	0.00222635
3174	0.00222635
3186	0.00161916
3198	0.00215888
3210	0.00236128
3222	0.000877045
3234	0.00128184
3246	0.00148423
3258	0.000337325
3270	0.000877045
3282	0.0013493
3294	0.00114691
3306	0.00040479
3318	0.000607185
3330	0.00141677
3342	0.000472255
3354	0.00013493
3366	0.00053972
3378	0.00053972
3390	0.000607185
3402	0.000607185
3414	0.00107944
3426	0.00053972
3438	0.00107944
3450	0.00107944
3462	0.00080958
3474	0.000877045
3486	0.00209142
3498	0.00209142
3510	0.00445269
3522	0.00175409
3534	0.00053972
3546	0.00053972
3558	0.00317086
3570	0.00526227
3582	0.00742115
3594	0.00593692
3606	0.00438523
3618	0.00229381
3630	0.00161916
3642	0.00040479
3654	0.00188902
3666	0.00148423
3678	0.00161916
3690	0.00141677
3702	0.00094451
3714	0.00067465
3726	0.00067465
3738	0.00094451
3750	0.00080958
3762	0.00026986
3774	0.000877045
3786	0.000337325
3798	0.00067465
3810	0.00128184
3822	0.00107944
3834	0.00107944
3846	0.00128184
3858	0.0015517
3870	0.00094451
3882	0.0013493
3894	0.00148423
3906	0.000742115
3918	0.000877045
3930	0.00141677
3942	0.00188902
3954	0.0013493
3966	0.00182156
