Infrared Spectrum: 2(3H)-Furanone, dihydro-5,5-dimethyl-4-(3-oxobutyl)-
Formula: C 10 H 16 O 3
CAS: 4436-81-1
Origin: Sadtler Research Labs Under US-EPA Contract
1/CM	ABSORBANCE
450	0.0260312
462	0.0104125
474	0.00878553
486	0.0151306
498	0.0276581
510	0.0331898
522	0.047995
534	0.0320509
546	0.0231027
558	0.0234281
570	0.0174084
582	0.0200115
594	0.0268447
606	0.0222892
618	0.0130156
630	0.015456
642	0.0231027
654	0.017083
666	0.00715858
678	0.00276582
690	0.000488085
702	0.00130156
714	0.00130156
726	0.00406737
738	0.00959901
750	0.00829745
762	0.00162695
774	0
786	0.000488085
798	0.00065078
810	0.0065078
822	0.0162695
834	0.020825
846	0.0139918
858	0.0104125
870	0.0115513
882	0.0193607
894	0.0379079
906	0.0995693
918	0.14431
930	0.134223
942	0.133085
954	0.204996
966	0.225658
978	0.134386
990	0.0819983
1002	0.0540147
1014	0.0374198
1026	0.0317255
1038	0.0297732
1050	0.0348167
1062	0.053364
1074	0.101847
1086	0.152283
1098	0.189702
1110	0.203531
1122	0.338731
1134	0.319208
1146	0.245507
1158	0.32116
1170	0.270887
1182	0.174572
1194	0.161556
1206	0.173921
1218	0.179615
1230	0.216384
1242	0.33564
1254	0.396976
1266	0.34166
1278	0.192143
1290	0.0942004
1302	0.0610106
1314	0.0548282
1326	0.0610106
1338	0.074677
1350	0.12137
1362	0.216222
1374	0.23363
1386	0.190679
1398	0.117628
1410	0.0645899
1422	0.0896449
1434	0.0966408
1446	0.0818356
1458	0.0808594
1470	0.055479
1482	0.0260312
1494	0.0148052
1506	0.0131783
1518	0.0120394
1530	0.0118767
1542	0.0135037
1554	0.0118767
1566	0.0099244
1578	0.00878553
1590	0.00748397
1602	0.00813475
1614	0.00878553
1626	0.011714
1638	0.0141545
1650	0.0200115
1662	0.025055
1674	0.0333525
1686	0.0494593
1698	0.0829745
1710	0.14187
1722	0.253967
1734	0.447086
1746	0.298057
1758	0.196698
1770	0.230213
1782	0.296756
1794	0.580008
1806	1.44245
1818	1.2386
1830	0.333199
1842	0.104287
1854	0.0450665
1866	0.0221265
1878	0.0123648
1890	0.00813475
1902	0.00683319
1914	0.0066705
1926	0.0032539
1938	0.00146426
1950	0.000813475
1962	0.000488085
1974	0.000488085
1986	0.000162695
1998	0
2010	0
2022	0.00032539
2034	0.000813475
2046	0.00113886
2058	0.000813475
2070	0.00113886
2082	0.00178965
2094	0.00178965
2106	0.00244042
2118	0.00244042
2130	0.00211503
2142	0.00195234
2154	0.00211503
2166	0.00260312
2178	0.00276582
2190	0.00244042
2202	0.00211503
2214	0.00211503
2226	0.00178965
2238	0.00178965
2250	0.00178965
2262	0.00146426
2274	0.00227773
2286	0.00374199
2298	0.00585702
2310	0.00797206
2322	0.00699589
2334	0.00553163
2346	0.0066705
2358	0.00455546
2370	0.00309121
2382	0.00504354
2394	0.00130156
2406	0.00097617
2418	0.00097617
2430	0.000813475
2442	0.00146426
2454	0.00162695
2466	0.00130156
2478	0.000813475
2490	0.00065078
2502	0.00032539
2514	0.00097617
2526	0.00032539
2538	0.00032539
2550	0.000162695
2562	0.000488085
2574	0.00032539
2586	0.00032539
2598	0
2610	0.00032539
2622	0.000813475
2634	0.00146426
2646	0.00244042
2658	0.00211503
2670	0.00195234
2682	0.00260312
2694	0.00276582
2706	0.00276582
2718	0.0032539
2730	0.00374199
2742	0.00439276
2754	0.00406737
2766	0.00406737
2778	0.00439276
2790	0.00569433
2802	0.00748397
2814	0.011714
2826	0.0148052
2838	0.0172457
2850	0.0231027
2862	0.0343286
2874	0.0528759
2886	0.0740262
2898	0.102498
2910	0.114537
2922	0.127716
2934	0.176524
2946	0.201579
2958	0.159929
2970	0.140406
2982	0.315791
2994	0.295617
3006	0.0681692
3018	0.0382333
3030	0.0201742
3042	0.0156187
3054	0.0130156
3066	0.011714
3078	0.0110633
3090	0.00862284
3102	0.00732128
3114	0.00536894
3126	0.00357929
3138	0.00244042
3150	0.00244042
3162	0.00195234
3174	0.00260312
3186	0.00227773
3198	0.00227773
3210	0.00227773
3222	0.00178965
3234	0.00162695
3246	0.00162695
3258	0.00097617
3270	0.00065078
3282	0.00032539
3294	0.000162695
3306	0.000488085
3318	0.00065078
3330	0.000162695
3342	0.00113886
3354	0.000813475
3366	0.000488085
3378	0.000813475
3390	0.00162695
3402	0.00195234
3414	0.00244042
3426	0.0034166
3438	0.00455546
3450	0.00699589
3462	0.00423007
3474	0.00178965
3486	0.00097617
3498	0.00162695
3510	0.00130156
3522	0.00097617
3534	0.00162695
3546	0.00211503
3558	0.0032539
3570	0.00601972
3582	0.00943631
3594	0.0126902
3606	0.0099244
3618	0.00520624
3630	0.00211503
3642	0.000488085
3654	0.00097617
3666	0.00065078
3678	0.00146426
3690	0.00097617
3702	0.00065078
3714	0.00032539
3726	0.00065078
3738	0.00032539
3750	0.00113886
3762	0
3774	0
3786	0.000162695
3798	0.00097617
3810	0
3822	0.00097617
3834	0.000162695
3846	0
3858	0.00178965
3870	0.00113886
3882	0
3894	0
3906	0.00065078
3918	0.00065078
3930	0.000162695
3942	0.000813475
3954	0
3966	0.00178965
