Infrared Spectrum: Benzene, 1-iodo-2-(trifluoromethyl)-
Formula: C 7 H 4 F 3 I
CAS: 444-29-1
Origin: Sadtler Research Labs Under US-EPA Contract
1/CM	ABSORBANCE
450	0.00104915
462	0.00573533
474	0.00853305
486	0.0139187
498	0.00405669
510	0.00664459
522	0.00426652
534	0.00867293
546	0.00370698
558	0.0060151
570	0.00307749
582	0.00657464
594	0.0146181
606	0.00405669
618	0.00377692
630	0.0127296
642	0.0335027
654	0.00762379
666	0.0116805
678	0.0588221
690	0.0139886
702	0.00293761
714	0.0167164
726	0.0551151
738	0.0117504
750	0.0374894
762	0.192063
774	0.0493798
786	0.0106313
798	0.00237806
810	0.00314744
822	0.00496595
834	0.000909259
846	0.000489601
858	0.00139886
870	0.00293761
882	0.00174858
894	0.000769373
906	0.00104915
918	0.00160869
930	0.00216823
942	0.0045463
954	0.00951225
966	0.00286766
978	0.00118903
990	0.00223818
1002	0.0194442
1014	0.142474
1026	0.0575631
1038	0.0763778
1050	0.0235708
1062	0.0114707
1074	0.0204933
1086	0.112049
1098	0.0953323
1110	0.124079
1122	0.0874987
1134	0.0729505
1146	0.215285
1158	0.584024
1170	0.365312
1182	0.499743
1194	0.137088
1206	0.0681944
1218	0.0214026
1230	0.0106313
1242	0.0130094
1254	0.0667956
1266	0.0835119
1278	0.0628788
1290	0.0623192
1302	0.187867
1314	0.69943
1326	0.255782
1338	0.0169262
1350	0.0120302
1362	0.0121701
1374	0.0074839
1386	0.00426652
1398	0.00405669
1410	0.0120302
1422	0.0230812
1434	0.0644874
1446	0.0793154
1458	0.0119603
1470	0.0298657
1482	0.0262986
1494	0.00671453
1506	0.00069943
1518	0.000979202
1530	0.00216823
1542	0.00167863
1554	0.00629487
1566	0.0248997
1578	0.0444138
1590	0.06134
1602	0.0307749
1614	0.0060151
1626	0.0060151
1638	0.00538561
1650	0.00069943
1662	0.00258789
1674	0.00356709
1686	0.00510584
1698	0.00230812
1710	0.0055255
1722	0.00391681
1734	0.00160869
1746	0.00279772
1758	0.00321738
1770	0.00230812
1782	0.00230812
1794	0.00223818
1806	0.00482607
1818	0.00853305
1830	0.00356709
1842	0.00475612
1854	0.00643476
1866	0.00342721
1878	0.00412664
1890	0.00447635
1902	0.00587521
1914	0.00559544
1926	0.00881282
1938	0.0101417
1950	0.0065047
1962	0.00923248
1974	0.00657464
1986	0.00531567
1998	0.00384687
2010	0.00307749
2022	0.00237806
2034	0.00167863
2046	0.00069943
2058	0.00188846
2070	0.00216823
2082	0.00440641
2094	0.00776367
2106	0.00762379
2118	0.0074839
2130	0.00657464
2142	0.00706424
2154	0.00720413
2166	0.0074839
2178	0.00734402
2190	0.00769373
2202	0.0074839
2214	0.0074839
2226	0.00832322
2238	0.00811339
2250	0.00832322
2262	0.00916253
2274	0.00916253
2286	0.0089527
2298	0.00923248
2310	0.00909259
2322	0.0089527
2334	0.00790356
2346	0.00664459
2358	0.00818333
2370	0.00468618
2382	0.00643476
2394	0.00769373
2406	0.0079735
2418	0.00734402
2430	0.00755384
2442	0.00720413
2454	0.00734402
2466	0.00664459
2478	0.00713419
2490	0.00664459
2502	0.00615498
2514	0.00545555
2526	0.00566538
2538	0.00538561
2550	0.00524573
2562	0.00531567
2574	0.00538561
2586	0.00580527
2598	0.00706424
2610	0.0079735
2622	0.00825327
2634	0.00839316
2646	0.0107712
2658	0.0105614
2670	0.0079735
2682	0.00461624
2694	0.00468618
2706	0.00216823
2718	0.00174858
2730	0.00139886
2742	0.00160869
2754	0.00153875
2766	0.00111909
2778	0.00069943
2790	0.00118903
2802	0.000839316
2814	0.000349715
2826	0.000489601
2838	6.9943e-05
2850	0.000909259
2862	6.9943e-05
2874	0.000629487
2886	0.000349715
2898	0.00167863
2910	0.000909259
2922	0.000419658
2934	0.00132892
2946	0.00237806
2958	0.00202835
2970	0.00188846
2982	0.00188846
2994	0.00202835
3006	0.00069943
3018	0.000209829
3030	0.00244801
3042	0.00342721
3054	0.00286766
3066	0.0163667
3078	0.0287466
3090	0.0179054
3102	0.0050359
3114	0.00300755
3126	0.00202835
3138	0.00307749
3150	0.00356709
3162	0.00237806
3174	0.00188846
3186	0.00167863
3198	0.00265783
3210	0.00300755
3222	0.00370698
3234	0.00426652
3246	0.00370698
3258	0.0050359
3270	0.00461624
3282	0.00524573
3294	0.00370698
3306	0.00468618
3318	0.00447635
3330	0.00412664
3342	0.0060151
3354	0.00580527
3366	0.00440641
3378	0.00559544
3390	0.00468618
3402	0.00566538
3414	0.00566538
3426	0.00615498
3438	0.00636481
3450	0.00517578
3462	0.00496595
3474	0.00496595
3486	0.0060151
3498	0.00580527
3510	0.00615498
3522	0.00664459
3534	0.00475612
3546	0.00622493
3558	0.00909259
3570	0.00594516
3582	0.0060151
3594	0.00706424
3606	0.00874288
3618	0.00776367
3630	0.00692436
3642	0.00706424
3654	0.00629487
3666	0.00692436
3678	0.0079735
3690	0.00930242
3702	0.0069943
3714	0.00643476
3726	0.00741396
3738	0.00923248
3750	0.0094423
3762	0.0107013
3774	0.0115406
3786	0.00818333
3798	0.0103516
3810	0.00860299
3822	0.00692436
3834	0.00923248
3846	0.00622493
3858	0.0102816
3870	0.00853305
3882	0.00573533
3894	0.00706424
3906	0.00580527
3918	0.0111909
3930	0.0079735
3942	0.0119603
3954	0.0107013
3966	0.00727407
