Infrared Spectrum: Cyclohexanebutyronitrile
Formula: C 10 H 17 N
CAS: 4441-66-1
Origin: Sadtler Research Labs Under US-EPA Contract
1/CM	ABSORBANCE
450	0
462	0.00459852
474	0.00643793
486	0.00245254
498	0.00413867
510	0.0029124
522	0.00367882
534	0.00567151
546	0.00582479
558	0.0038321
570	0.0029124
582	0.00398538
594	0.00367882
606	0.00444524
618	0.00444524
630	0.0029124
642	0.0029124
654	0.00275911
666	0.00199269
678	0.00306568
690	0.0038321
702	0.00444524
714	0.00613136
726	0.00981018
738	0.0116496
750	0.00720435
762	0.00597808
774	0.00490509
786	0.00613136
798	0.00521166
810	0.00551822
822	0.00889047
834	0.015635
846	0.0118029
858	0.00812405
870	0.00812405
882	0.0159415
894	0.0265181
906	0.014562
918	0.0107299
930	0.00889047
942	0.00659121
954	0.00643793
966	0.0110364
978	0.0108832
990	0.0107299
1002	0.00751092
1014	0.0067445
1026	0.00751092
1038	0.00720435
1050	0.00521166
1062	0.00536494
1074	0.00582479
1086	0.00873719
1098	0.0101167
1110	0.00720435
1122	0.00505837
1134	0.00444524
1146	0.00367882
1158	0.00429195
1170	0.00659121
1182	0.00567151
1194	0.00705106
1206	0.00659121
1218	0.00705106
1230	0.00751092
1242	0.0076642
1254	0.0125693
1266	0.0225327
1278	0.0174744
1290	0.012416
1302	0.0101167
1314	0.0108832
1326	0.0177809
1338	0.0232992
1350	0.035102
1362	0.0251386
1374	0.0188539
1386	0.013489
1398	0.00935032
1410	0.0108832
1422	0.0197736
1434	0.063153
1446	0.127839
1458	0.163554
1470	0.0737296
1482	0.0193138
1494	0.01027
1506	0.00705106
1518	0.00536494
1530	0.00444524
1542	0.00398538
1554	0.00413867
1566	0.00429195
1578	0.00444524
1590	0.00459852
1602	0.00413867
1614	0.00413867
1626	0.00398538
1638	0.0038321
1650	0.00352553
1662	0.00398538
1674	0.00367882
1686	0.00352553
1698	0.00367882
1710	0.00444524
1722	0.00505837
1734	0.00551822
1746	0.00275911
1758	0.00199269
1770	0.00245254
1782	0.00321896
1794	0.00352553
1806	0.00367882
1818	0.00337225
1830	0.00321896
1842	0.00321896
1854	0.00321896
1866	0.0029124
1878	0.00321896
1890	0.00367882
1902	0.00352553
1914	0.00321896
1926	0.00306568
1938	0.0029124
1950	0.00306568
1962	0.0029124
1974	0.0029124
1986	0.00275911
1998	0.0029124
2010	0.00352553
2022	0.00306568
2034	0.0029124
2046	0.00306568
2058	0.00306568
2070	0.0029124
2082	0.00275911
2094	0.00275911
2106	0.00321896
2118	0.0029124
2130	0.00321896
2142	0.00306568
2154	0.00306568
2166	0.00352553
2178	0.00398538
2190	0.00352553
2202	0.00321896
2214	0.00337225
2226	0.00398538
2238	0.00643793
2250	0.0168612
2262	0.0136423
2274	0.00505837
2286	0.00429195
2298	0.00505837
2310	0.00521166
2322	0.0029124
2334	0.00153284
2346	0.00321896
2358	0.0029124
2370	0.00505837
2382	0.00582479
2394	0.0038321
2406	0.00337225
2418	0.0029124
2430	0.00260583
2442	0.00214598
2454	0.00229926
2466	0.00183941
2478	0.00199269
2490	0.00229926
2502	0.00168612
2514	0.00168612
2526	0.00183941
2538	0.00245254
2550	0.00229926
2562	0.00260583
2574	0.0029124
2586	0.00429195
2598	0.00659121
2610	0.00827734
2622	0.0076642
2634	0.0076642
2646	0.00981018
2658	0.0139488
2670	0.0190072
2682	0.0162481
2694	0.0119562
2706	0.0107299
2718	0.0101167
2730	0.00843062
2742	0.00751092
2754	0.0076642
2766	0.00812405
2778	0.0104233
2790	0.0157883
2802	0.0225327
2814	0.0245254
2826	0.0311167
2838	0.0628464
2850	0.246787
2862	0.594589
2874	0.363743
2886	0.18624
2898	0.234371
2910	0.432414
2922	0.837544
2934	1.53284
2946	1.06762
2958	0.382903
2970	0.180569
2982	0.0519633
2994	0.0220729
3006	0.0142554
3018	0.0108832
3030	0.00812405
3042	0.00689778
3054	0.00490509
3066	0.0038321
3078	0.00413867
3090	0.00413867
3102	0.0038321
3114	0.00260583
3126	0.0029124
3138	0.00367882
3150	0.0047518
3162	0.00505837
3174	0.00321896
3186	0.00306568
3198	0.00275911
3210	0.00214598
3222	0.00245254
3234	0.0029124
3246	0.00321896
3258	0.00260583
3270	0.00168612
3282	0.00168612
3294	0.00183941
3306	0.00229926
3318	0.00168612
3330	0.00153284
3342	0.00275911
3354	0.00245254
3366	0.00337225
3378	0.00321896
3390	0.0029124
3402	0.0029124
3414	0.00275911
3426	0.00245254
3438	0.00214598
3450	0.00306568
3462	0.00337225
3474	0.0038321
3486	0.00367882
3498	0.0029124
3510	0.00306568
3522	0.00321896
3534	0.00306568
3546	0.00321896
3558	0.00275911
3570	0.00275911
3582	0.00260583
3594	0.00337225
3606	0.00229926
3618	0.00367882
3630	0.00321896
3642	0.00367882
3654	0.00367882
3666	0.00413867
3678	0.0038321
3690	0.0038321
3702	0.00398538
3714	0.00413867
3726	0.00444524
3738	0.0047518
3750	0.00429195
3762	0.00413867
3774	0.0047518
3786	0.0047518
3798	0.00413867
3810	0.00398538
3822	0.0047518
3834	0.00429195
3846	0.00444524
3858	0.00337225
3870	0.0038321
3882	0.00321896
3894	0.00429195
3906	0.00429195
3918	0.00337225
3930	0.00398538
3942	0.00444524
3954	0.00429195
3966	0.00444524
