Infrared Spectrum: 10-Eicosanone, 11-hydroxy-
Formula: C 20 H 40 O 2
CAS: 4443-65-6
Origin: Sadtler Research Labs Under US-EPA Contract
1/CM	ABSORBANCE
450	0.00063733
462	0.00707436
474	0.00114719
486	0.000446131
498	0.00427011
510	0.00376025
522	0.00121093
534	0.00274052
546	0.00388771
558	0.00293172
570	0.00133839
582	0.00337785
594	0.00235812
606	0.00286798
618	0.00235812
630	0.00172079
642	0.00146586
654	0.00133839
666	0.000573597
678	0.00248559
690	0.00337785
702	0.00554477
714	0.0108346
726	0.0122367
738	0.00917755
750	0.00885889
762	0.00681943
774	0.00509864
786	0.00458878
798	0.00325038
810	0.00286798
822	0.00325038
834	0.00248559
846	0.00350531
858	0.00439758
870	0.00414264
882	0.00484371
894	0.00643703
906	0.00624583
918	0.0057997
930	0.0069469
942	0.00777543
954	0.00898635
966	0.0115994
978	0.0127466
990	0.0162519
1002	0.0205858
1014	0.0264492
1026	0.0316116
1038	0.031739
1050	0.0321852
1062	0.0381123
1074	0.0452504
1086	0.0425099
1098	0.0346708
1110	0.028871
1122	0.0335873
1134	0.0274052
1146	0.019821
1158	0.0158695
1170	0.0163794
1182	0.0159332
1194	0.0152322
1206	0.0148498
1218	0.0161882
1230	0.019821
1242	0.0240273
1254	0.0284249
1266	0.0269591
1278	0.0271503
1290	0.0255569
1302	0.0267041
1314	0.0263855
1326	0.0257481
1338	0.0315478
1350	0.042255
1362	0.0413627
1374	0.0337785
1386	0.0341609
1398	0.0311017
1410	0.0283612
1422	0.0228801
1434	0.0245372
1446	0.0377937
1458	0.059208
1470	0.0495843
1482	0.0173354
1494	0.00745676
1506	0.00401518
1518	0.00242185
1530	0.00133839
1542	0.000191199
1554	0.00108346
1566	0.000254932
1578	0.00127466
1590	0.000509864
1602	0.000573597
1614	0.000764796
1626	0.00114719
1638	0.00121093
1650	0.00254932
1662	0.00356905
1674	0.00707436
1686	0.0118543
1698	0.0246647
1710	0.0771807
1722	0.148243
1734	0.0502853
1746	0.0190562
1758	0.0108346
1770	0.0101973
1782	0.00898635
1794	0.00573597
1806	0.00376025
1818	0.00229439
1830	0.00127466
1842	0.000509864
1854	0.000701063
1866	0.000509864
1878	0.000191199
1890	0.000573597
1902	0.00063733
1914	0.000191199
1926	0
1938	0.000382398
1950	0.000318665
1962	0.000318665
1974	0.000191199
1986	0.000254932
1998	0.000254932
2010	0.000382398
2022	0.000764796
2034	0.00127466
2046	0.000955995
2058	0.000764796
2070	0.000764796
2082	0.000701063
2094	0.000892262
2106	0.00063733
2118	0.000701063
2130	0.000701063
2142	0.000318665
2154	0.00063733
2166	0.000892262
2178	0.00101973
2190	0.000955995
2202	0.000955995
2214	0.000573597
2226	0.000318665
2238	0.000446131
2250	0.000254932
2262	0.000446131
2274	0.000892262
2286	0.00172079
2298	0.00325038
2310	0.00420638
2322	0.00312292
2334	0.00165706
2346	0.00433384
2358	0.00178452
2370	0.00235812
2382	0.00363278
2394	0.00146586
2406	0.00152959
2418	0.00114719
2430	0.00108346
2442	0.00121093
2454	0.00133839
2466	0.00159332
2478	0.00146586
2490	0.00172079
2502	0.00197572
2514	0.00178452
2526	0.00229439
2538	0.00248559
2550	0.00274052
2562	0.00280425
2574	0.00325038
2586	0.00356905
2598	0.00407891
2610	0.00401518
2622	0.00497117
2634	0.0054173
2646	0.00605463
2658	0.0067557
2670	0.00771169
2682	0.00834902
2694	0.00860395
2706	0.00873142
2718	0.00873142
2730	0.00936875
2742	0.0103885
2754	0.0108983
2766	0.0121093
2778	0.0140213
2790	0.0173354
2802	0.0214143
2814	0.0279151
2826	0.0369651
2838	0.0555752
2850	0.112999
2862	0.249069
2874	0.211976
2886	0.161053
2898	0.155062
2910	0.233581
2922	0.407891
2934	0.63733
2946	0.438611
2958	0.27214
2970	0.238043
2982	0.0959819
2994	0.0444856
3006	0.0263855
3018	0.0181002
3030	0.0134477
3042	0.00987861
3054	0.00764796
3066	0.00592717
3078	0.00522611
3090	0.00458878
3102	0.00395145
3114	0.00325038
3126	0.00286798
3138	0.00305918
3150	0.00223065
3162	0.00261305
3174	0.00210319
3186	0.00203946
3198	0.00165706
3210	0.00159332
3222	0.00108346
3234	0.00114719
3246	0.000764796
3258	0.000828529
3270	0.000764796
3282	0.00063733
3294	6.3733e-05
3306	0.000254932
3318	0.000446131
3330	0.000509864
3342	0.000573597
3354	0.000446131
3366	0.00101973
3378	0.000701063
3390	0.00133839
3402	0.00108346
3414	0.00229439
3426	0.00242185
3438	0.00184826
3450	0.00293172
3462	0.00331412
3474	0.00401518
3486	0.00605463
3498	0.0110258
3510	0.0216692
3522	0.0282975
3534	0.0184188
3546	0.0119818
3558	0.00771169
3570	0.00650077
3582	0.00477997
3594	0.00286798
3606	0.00216692
3618	0.00197572
3630	0.00216692
3642	0.00203946
3654	0.00388771
3666	0.00191199
3678	0.00184826
3690	0.00108346
3702	0.00101973
3714	0.000701063
3726	0.000191199
3738	0.00114719
3750	0.000318665
3762	0.000446131
3774	0.000701063
3786	0.000318665
3798	0.00152959
3810	0
3822	0.00133839
3834	0.000955995
3846	0.00108346
3858	0.00197572
3870	0.00203946
3882	0.00133839
3894	0.00172079
3906	0.00191199
3918	0.00114719
3930	0.00191199
3942	0.00229439
3954	0.000701063
3966	0.00229439
