Infrared Spectrum: 8-Hexadecanone, 9-hydroxy-
Formula: C 16 H 32 O 2
CAS: 4444-11-5
Origin: Sadtler Research Labs Under US-EPA Contract
1/CM	ABSORBANCE
450	0.00975628
462	0.00785261
474	0.0073767
486	0.00214162
498	0.00321243
510	0.00368835
522	0.0028555
534	0.0045212
546	0.0051161
558	0.00725772
570	0.00594895
582	0.0067818
594	0.00606793
606	0.00428324
618	0.00606793
630	0.00309345
642	0.00368835
654	0.00333141
666	0.00535405
678	0.00606793
690	0.0067818
702	0.0102322
714	0.0204644
726	0.0253425
738	0.0191556
750	0.0154673
762	0.0129687
774	0.0123738
786	0.00951832
798	0.00690078
810	0.00559201
822	0.00642487
834	0.00654385
846	0.00642487
858	0.00701976
870	0.00820955
882	0.0101132
894	0.0133256
906	0.0124928
918	0.0128497
930	0.0158242
942	0.0182038
954	0.0236768
966	0.028317
978	0.0320054
990	0.0447361
1002	0.0604413
1014	0.067818
1026	0.0669852
1038	0.0772174
1050	0.0998234
1062	0.120764
1074	0.126713
1086	0.110056
1098	0.0966109
1110	0.0841182
1122	0.104345
1134	0.0861408
1146	0.0638917
1158	0.0471157
1170	0.0415237
1182	0.0436653
1194	0.04545
1206	0.0443792
1218	0.0442602
1230	0.0529457
1242	0.068175
1254	0.0772174
1266	0.0811437
1278	0.073886
1290	0.0668662
1302	0.0692458
1314	0.0673421
1326	0.0667472
1338	0.0797159
1350	0.104107
1362	0.105058
1374	0.0856649
1386	0.0932795
1398	0.0863788
1410	0.0755517
1422	0.0593705
1434	0.0600844
1446	0.0835233
1458	0.124809
1470	0.111959
1482	0.0444981
1494	0.0195126
1506	0.0116599
1518	0.0067818
1530	0.00464018
1542	0.00273652
1554	0.00237958
1566	0.00142775
1578	0.00237958
1590	0.00190366
1602	0.00166571
1614	0.00273652
1626	0.00297447
1638	0.00345039
1650	0.00582997
1662	0.00844751
1674	0.0155862
1686	0.0256995
1698	0.0503281
1710	0.172758
1722	0.403101
1734	0.146225
1746	0.0531836
1758	0.0335521
1770	0.0317674
1782	0.0301017
1794	0.0180848
1806	0.00999424
1818	0.00535405
1830	0.0022606
1842	0.00118979
1854	0.000713874
1866	0.000356937
1878	0.000237958
1890	0.000356937
1902	0.000594895
1914	0.000356937
1926	0.000475916
1938	0.000594895
1950	0.000713874
1962	0.000594895
1974	0.000713874
1986	0.00118979
1998	0.00130877
2010	0.00154673
2022	0.00237958
2034	0.0028555
2046	0.00249856
2058	0.00237958
2070	0.00249856
2082	0.0022606
2094	0.00237958
2106	0.00214162
2118	0.00237958
2130	0.00190366
2142	0.00178469
2154	0.00214162
2166	0.00249856
2178	0.00261754
2190	0.00249856
2202	0.00261754
2214	0.00214162
2226	0.00190366
2238	0.00190366
2250	0.00166571
2262	0.00202264
2274	0.0022606
2286	0.00237958
2298	0.00321243
2310	0.00380733
2322	0.00416427
2334	0.00368835
2346	0.0045212
2358	0.00523508
2370	0.00475916
2382	0.00475916
2394	0.0028555
2406	0.00273652
2418	0.0022606
2430	0.00214162
2442	0.00249856
2454	0.00237958
2466	0.00273652
2478	0.0022606
2490	0.00273652
2502	0.00273652
2514	0.00309345
2526	0.00321243
2538	0.00392631
2550	0.00416427
2562	0.00440222
2574	0.00547303
2586	0.00571099
2598	0.00630589
2610	0.0067818
2622	0.00773363
2634	0.00868547
2646	0.0096373
2658	0.011303
2670	0.0127308
2682	0.0140395
2694	0.0140395
2706	0.0142775
2718	0.0143965
2730	0.0153483
2742	0.0189177
2754	0.0191556
2766	0.0211783
2778	0.0245097
2790	0.0311725
2802	0.039501
2814	0.0506851
2826	0.0682939
2838	0.101846
2850	0.198576
2862	0.449027
2874	0.455095
2886	0.369549
2898	0.321481
2910	0.458188
2922	0.771817
2934	1.18979
2946	0.954806
2958	0.664022
2970	0.65605
2982	0.264728
2994	0.11767
3006	0.0703166
3018	0.0486624
3030	0.0361696
3042	0.0273652
3054	0.0211783
3066	0.017133
3078	0.0148724
3090	0.0132067
3102	0.0116599
3114	0.0104702
3126	0.0090424
3138	0.00868547
3150	0.00785261
3162	0.00749568
3174	0.00713874
3186	0.00701976
3198	0.00594895
3210	0.00523508
3222	0.00416427
3234	0.00356937
3246	0.00309345
3258	0.00309345
3270	0.00261754
3282	0.00237958
3294	0.00190366
3306	0.00237958
3318	0.0022606
3330	0.00237958
3342	0.00261754
3354	0.00237958
3366	0.0028555
3378	0.00321243
3390	0.00380733
3402	0.00440222
3414	0.00606793
3426	0.0067818
3438	0.00547303
3450	0.00571099
3462	0.00701976
3474	0.00820955
3486	0.0138016
3498	0.0286739
3510	0.0640107
3522	0.0861408
3534	0.0558012
3546	0.0358127
3558	0.0242717
3570	0.0214162
3582	0.0178469
3594	0.00844751
3606	0.00606793
3618	0.00582997
3630	0.00654385
3642	0.0073767
3654	0.0128497
3666	0.00761466
3678	0.00392631
3690	0.00345039
3702	0.0022606
3714	0.0028555
3726	0.00261754
3738	0.00333141
3750	0.00130877
3762	0.00202264
3774	0.00321243
3786	0.00202264
3798	0.00178469
3810	0.00321243
3822	0.0022606
3834	0.00237958
3846	0.00273652
3858	0.00356937
3870	0.00309345
3882	0.00321243
3894	0.00345039
3906	0.00368835
3918	0.00321243
3930	0.00345039
3942	0.00249856
3954	0.0028555
3966	0.00297447
