Infrared Spectrum: Phosphine oxide, diethyltetra-decyl-,
Formula: C 18 H 39 O P
CAS: 4445-67-4
Origin: Sadtler Research Labs Under US-EPA Contract
1/CM	ABSORBANCE
450	0.00475861
462	0.00450312
474	0.00510992
486	0.00721776
498	0.00450312
510	0.000766488
522	0.00271465
534	0.00277852
546	0.00134135
558	0.00386438
570	0.00118167
582	0.00220365
594	0.000862299
606	0.000447118
618	0.00210784
630	0.00268271
642	0.0029382
654	0.00424762
666	0.00625965
678	0.0127429
690	0.0155533
702	0.0166072
714	0.0220365
726	0.0219407
738	0.02127
750	0.0284239
762	0.0364721
774	0.0363443
786	0.0354181
798	0.0289988
810	0.0196732
822	0.0133816
834	0.00916592
846	0.00565285
858	0.00463087
870	0.00498217
882	0.00498217
894	0.00453505
906	0.00709001
918	0.00833556
930	0.00900623
942	0.0066429
954	0.00616384
966	0.00792038
978	0.0098366
990	0.0127429
1002	0.0168947
1014	0.0205674
1026	0.0226753
1038	0.0236014
1050	0.0157449
1062	0.00782457
1074	0.0106031
1086	0.0121999
1098	0.0105392
1110	0.010635
1122	0.0115293
1134	0.012168
1146	0.0149146
1158	0.0208868
1170	0.0289669
1182	0.0343961
1194	0.0440731
1206	0.0549316
1218	0.0253899
1230	0.0169266
1242	0.0173099
1254	0.0178847
1266	0.0216852
1278	0.0200884
1290	0.0129345
1302	0.00948529
1314	0.0078565
1326	0.00670677
1338	0.00766488
1350	0.0106989
1362	0.00996434
1374	0.00935754
1386	0.00986853
1398	0.00961304
1410	0.0155533
1422	0.013669
1434	0.0125193
1446	0.0201522
1458	0.03446
1470	0.0269229
1482	0.0101879
1494	0.0087188
1506	0.00504605
1518	0.00169266
1530	0.00300208
1542	0.00396019
1554	0.000830362
1566	0.000542929
1578	6.3874e-05
1590	0.000542929
1602	0.000862299
1614	0.00095811
1626	0.000990047
1638	0.00114973
1650	0.000862299
1662	0.00095811
1674	0.00108586
1686	0.00102198
1698	0.0014691
1710	0.00188428
1722	0.00188428
1734	0.00332145
1746	0.00316176
1758	0.00159685
1770	0.00191622
1782	0.00140523
1794	0.00134135
1806	0.00140523
1818	0.00095811
1830	0.000766488
1842	0.000415181
1854	0.000606803
1866	0.000383244
1878	0.000702614
1890	0.000862299
1902	0.000862299
1914	0.000894236
1926	0.000798425
1938	0.000894236
1950	0.000798425
1962	0.000926173
1974	0.00105392
1986	0.00102198
1998	0.00118167
2010	0.00114973
2022	0.00118167
2034	0.00134135
2046	0.00105392
2058	0.00108586
2070	0.00118167
2082	0.00127748
2094	0.000990047
2106	0.000926173
2118	0.000830362
2130	0.000830362
2142	0.000766488
2154	0.000766488
2166	0.000734551
2178	0.000862299
2190	0.000894236
2202	0.000894236
2214	0.00102198
2226	0.000830362
2238	0.000894236
2250	0.000926173
2262	0.00102198
2274	0.00127748
2286	0.00245915
2298	0.00453505
2310	0.00635546
2322	0.00523767
2334	0.00328951
2346	0.00501411
2358	0.00402406
2370	0.00396019
2382	0.00495024
2394	0.000894236
2406	0.000606803
2418	0.000383244
2430	0.000287433
2442	0.000415181
2454	0.000383244
2466	0.000447118
2478	0.000510992
2490	0.000510992
2502	0.000734551
2514	0.000862299
2526	0.000894236
2538	0.00095811
2550	0.00111779
2562	0.000990047
2574	0.00108586
2586	0.00108586
2598	0.00150104
2610	0.00159685
2622	0.00198009
2634	0.00229946
2646	0.00226753
2658	0.00290627
2670	0.0031937
2682	0.00309789
2694	0.00341726
2706	0.00312983
2718	0.00332145
2730	0.00328951
2742	0.0031937
2754	0.00341726
2766	0.00354501
2778	0.00440731
2790	0.00603609
2802	0.00833556
2814	0.0115931
2826	0.0168947
2838	0.0276574
2850	0.0681536
2862	0.123149
2874	0.087188
2886	0.0754033
2898	0.092777
2910	0.136307
2922	0.227232
2934	0.31937
2946	0.195806
2958	0.105041
2970	0.0905095
2982	0.0565924
2994	0.0246554
3006	0.0108266
3018	0.00568479
3030	0.00392825
3042	0.00281046
3054	0.00207591
3066	0.00178847
3078	0.00191622
3090	0.00207591
3102	0.00213978
3114	0.00226753
3126	0.00303402
3138	0.00300208
3150	0.00220365
3162	0.00236334
3174	0.00220365
3186	0.0014691
3198	0.00204397
3210	0.00150104
3222	0.0014691
3234	0.00140523
3246	0.000926173
3258	0.00105392
3270	0.00137329
3282	0.00114973
3294	0.000862299
3306	0.00134135
3318	0.00111779
3330	0.00124554
3342	0.00108586
3354	0.00153298
3366	0.00108586
3378	0.00156491
3390	0.00140523
3402	0.00130942
3414	0.00127748
3426	0.00150104
3438	0.00175654
3450	0.00121361
3462	0.00114973
3474	0.00229946
3486	0.00188428
3498	0.00130942
3510	0.0014691
3522	0.00105392
3534	0.00150104
3546	0.000574866
3558	0.00114973
3570	0.000990047
3582	0.00105392
3594	0.00169266
3606	0.0017246
3618	0.0031937
3630	0.00322564
3642	0.00220365
3654	0.00130942
3666	0.00153298
3678	0.0017246
3690	0.000990047
3702	0.00156491
3714	0.00150104
3726	0.00150104
3738	0.000670677
3750	0.000447118
3762	0.000766488
3774	0.000734551
3786	0.00063874
3798	0.000766488
3810	0.00114973
3822	0.000287433
3834	0.000127748
3846	0.000798425
3858	0.000287433
3870	0.000223559
3882	0.00095811
3894	0.000383244
3906	0.00166072
3918	0.00194816
3930	0.00095811
3942	0.00031937
3954	0.000415181
3966	0.00255496
