Infrared Spectrum: Cycloheptanemethylamine
Formula: C 8 H 17 N
CAS: 4448-77-5
Origin: Sadtler Research Labs Under US-EPA Contract
1/CM	ABSORBANCE
450	0.00194974
462	0.00682408
474	0.00417801
486	0.00236754
498	0.00153194
510	0.00501361
522	0.00487434
534	0.00835602
546	0.00696335
558	0.00389948
570	0.00389948
582	0.00807749
594	0.0107236
606	0.00933089
618	0.00724188
630	0.00682408
642	0.00821675
654	0.00947016
666	0.0112806
678	0.0158764
690	0.0222827
702	0.0321707
714	0.049022
726	0.0664304
738	0.105564
750	0.160714
762	0.194835
774	0.15194
786	0.100829
798	0.0689372
810	0.0516681
822	0.0396911
834	0.0318921
846	0.0268785
858	0.0210293
870	0.0171298
882	0.0165728
894	0.0176869
906	0.0175476
918	0.0137874
930	0.0135089
942	0.0142052
954	0.0153194
966	0.0129518
978	0.0108628
990	0.0130911
1002	0.0147623
1014	0.0174084
1026	0.0201937
1038	0.0168513
1050	0.0207508
1062	0.0317529
1074	0.0501361
1086	0.0479078
1098	0.0235361
1110	0.0111414
1122	0.00724188
1134	0.00570995
1146	0.00445654
1158	0.00473508
1170	0.00487434
1182	0.00668482
1194	0.0100272
1206	0.0107236
1218	0.0111414
1230	0.010445
1242	0.0103058
1254	0.0103058
1266	0.0110021
1278	0.0151801
1290	0.0178262
1302	0.0136482
1314	0.0121162
1326	0.0132304
1338	0.0204722
1350	0.0325885
1362	0.0403874
1374	0.0392733
1386	0.0408052
1398	0.0257644
1410	0.0121162
1422	0.0169906
1434	0.0291068
1446	0.0913592
1458	0.143027
1470	0.106121
1482	0.0505539
1494	0.0282712
1506	0.0252073
1518	0.0183832
1530	0.0126733
1542	0.0171298
1554	0.0150408
1566	0.0151801
1578	0.0221435
1590	0.0228398
1602	0.0352346
1614	0.0568209
1626	0.065177
1638	0.0426157
1650	0.0175476
1662	0.0160157
1674	0.0118377
1686	0.0110021
1698	0.00752042
1710	0.00752042
1722	0.00974869
1734	0.016712
1746	0.00584921
1758	0.00529215
1770	0.00403874
1782	0.000417801
1794	0.00264607
1806	0.00236754
1818	0.00473508
1830	0.00417801
1842	0.00376021
1854	0.00403874
1866	0.00250681
1878	0.00334241
1890	0.00389948
1902	0.00320314
1914	0.002089
1926	0.00292461
1938	0.00292461
1950	0.00334241
1962	0.00334241
1974	0.00334241
1986	0.00348168
1998	0.00306387
2010	0.00348168
2022	0.00250681
2034	0.00320314
2046	0.00250681
2058	0.00250681
2070	0.002089
2082	0.00181047
2094	0.00181047
2106	0.00153194
2118	0.00194974
2130	0.0012534
2142	0.0016712
2154	0.00153194
2166	0.00111414
2178	0.00111414
2190	0.000974869
2202	0.000696335
2214	0.000557068
2226	0.000417801
2238	0.000417801
2250	0.000417801
2262	0.000417801
2274	0.000835602
2286	0.00139267
2298	0.00278534
2310	0.00431728
2322	0.00362094
2334	0.00334241
2346	0.00403874
2358	0.00306387
2370	0.00403874
2382	0.00570995
2394	0.00334241
2406	0.00362094
2418	0.00376021
2430	0.00376021
2442	0.00417801
2454	0.00487434
2466	0.00543141
2478	0.00570995
2490	0.00612775
2502	0.00654555
2514	0.00710262
2526	0.00765968
2538	0.00849529
2550	0.00988796
2562	0.0107236
2574	0.0116984
2586	0.0118377
2598	0.0128126
2610	0.014066
2622	0.0153194
2634	0.0172691
2646	0.0193581
2658	0.0218649
2670	0.0263215
2682	0.0309173
2694	0.0334241
2706	0.0324492
2718	0.0314743
2730	0.0330063
2742	0.0348168
2754	0.0350953
2766	0.0341204
2778	0.0350953
2790	0.0410838
2802	0.0512503
2814	0.0644806
2826	0.0867633
2838	0.138153
2850	0.297335
2862	0.517655
2874	0.446629
2886	0.29441
2898	0.375325
2910	0.700513
2922	1.18057
2934	1.33863
2946	0.712072
2958	0.242325
2970	0.11016
2982	0.061556
2994	0.0417801
3006	0.0342597
3018	0.030778
3030	0.0261822
3042	0.0236754
3054	0.0217257
3066	0.0197759
3078	0.0169906
3090	0.0144838
3102	0.0129518
3114	0.0115592
3126	0.0105843
3138	0.00919162
3150	0.00877382
3162	0.00779895
3174	0.00752042
3186	0.00682408
3198	0.00654555
3210	0.00654555
3222	0.00529215
3234	0.00515288
3246	0.00445654
3258	0.00417801
3270	0.00376021
3282	0.00362094
3294	0.00278534
3306	0.00250681
3318	0.00278534
3330	0.00362094
3342	0.00598848
3354	0.00724188
3366	0.00473508
3378	0.00306387
3390	0.00236754
3402	0.00431728
3414	0.00515288
3426	0.00529215
3438	0.00389948
3450	0.00348168
3462	0.00264607
3474	0.00250681
3486	0.000835602
3498	0.00139267
3510	0.00222827
3522	0.00222827
3534	0.0012534
3546	0.00292461
3558	0.000139267
3570	0.00417801
3582	0.00236754
3594	0.00292461
3606	0.00236754
3618	0.00292461
3630	0.00877382
3642	0.00320314
3654	0.00348168
3666	0.00403874
3678	0.00765968
3690	0.00501361
3702	0.00445654
3714	0.00459581
3726	0.00445654
3738	0.00765968
3750	0.00320314
3762	0.00473508
3774	0.00362094
3786	0.00362094
3798	0.00334241
3810	0.00431728
3822	0.00584921
3834	0.00403874
3846	0.00376021
3858	0.00612775
3870	0.00668482
3882	0.00459581
3894	0.00668482
3906	0.00612775
3918	0.00696335
3930	0.00334241
3942	0.00459581
3954	0.00403874
3966	0.00306387
