Infrared Spectrum: Benzene, 4-bromo-1-chloro-2-(trifluoromethyl)-
Formula: C 7 H 3 Br Cl F 3
CAS: 445-01-2
Origin: Sadtler Research Labs Under US-EPA Contract
1/CM	ABSORBANCE
450	0.0206359
462	0.0121746
474	0.0326888
486	0.00980055
498	0.0099223
510	0.0154617
522	0.0203925
534	0.0121746
546	0.00286103
558	0.00377413
570	0.00310452
582	0.00133921
594	0.00760912
606	0.00602643
618	0.00322627
630	0.0031654
642	0.00170444
654	0.0213055
666	0.0144269
678	0.00182619
690	0.0161313
702	0.00870484
714	0.0496724
726	0.0232535
738	0.00328714
750	0.00413936
762	0.00219143
774	0.00164357
786	0.0139399
798	0.0101658
810	0.0349411
822	0.0828482
834	0.0135138
846	0.00468722
858	0.00194794
870	0.00322627
882	0.00870484
894	0.0488201
906	0.00785262
918	0.00140008
930	0.00127833
942	0.00133921
954	0.0029219
966	0.00261754
978	0.00213056
990	0.00255667
1002	0.00298278
1014	0.035489
1026	0.160583
1038	0.0496115
1050	0.018688
1062	0.0170444
1074	0.048881
1086	0.0969707
1098	0.106223
1110	0.0624557
1122	0.0437677
1134	0.115415
1146	0.170018
1158	0.369256
1170	0.482966
1182	0.511272
1194	0.17221
1206	0.067082
1218	0.0281233
1230	0.0343932
1242	0.0626383
1254	0.0738998
1266	0.0726215
1278	0.0424285
1290	0.103606
1302	0.487775
1314	0.398901
1326	0.229309
1338	0.0424894
1350	0.017714
1362	0.0108354
1374	0.0283059
1386	0.105006
1398	0.102206
1410	0.041698
1422	0.0281233
1434	0.0164966
1446	0.0144878
1458	0.0391413
1470	0.0927096
1482	0.0217317
1494	0.0045046
1506	0.00748738
1518	0.0060873
1530	0.00426111
1542	0.00590468
1554	0.00602643
1566	0.012479
1578	0.00961793
1590	0.0147921
1602	0.0180184
1614	0.00505246
1626	0.00395675
1638	0.00852222
1650	0.00505246
1662	0.0029219
1674	0.00280016
1686	0.00340889
1698	0.00371325
1710	0.00237405
1722	0.00237405
1734	0.00328714
1746	0.0029219
1758	0.00359151
1770	0.00645254
1782	0.00797436
1794	0.00426111
1806	0.00206968
1818	0.00182619
1830	0.00213056
1842	0.00255667
1854	0.00206968
1866	0.0015827
1878	0.00152182
1890	0.00249579
1902	0.00474809
1914	0.00365238
1926	0.00121746
1938	0.00164357
1950	0.00176532
1962	0.00188706
1974	0.00200881
1986	0.00152182
1998	0.00152182
2010	0.00103484
2022	0.000913095
2034	0.00140008
2046	0.000730476
2058	0.00152182
2070	0.00176532
2082	0.00109571
2094	0.00188706
2106	0.00200881
2118	0.00200881
2130	0.00140008
2142	0.00103484
2154	0.00127833
2166	0.000791349
2178	0.000852222
2190	0.00170444
2202	0.00164357
2214	0.00140008
2226	0.0022523
2238	0.00170444
2250	0.00176532
2262	0.00261754
2274	0.00267841
2286	0.00273928
2298	0.00310452
2310	0.00255667
2322	0.00346976
2334	0.00133921
2346	0.000365238
2358	0.00219143
2370	0.0022523
2382	0.0022523
2394	0.00194794
2406	0.00176532
2418	0.00133921
2430	0.00115659
2442	0.00176532
2454	0.00121746
2466	0.00115659
2478	0.00152182
2490	0.00194794
2502	0.00133921
2514	0.00188706
2526	0.0022523
2538	0.00255667
2550	0.00231317
2562	0.00255667
2574	0.00194794
2586	0.00146095
2598	0.00127833
2610	0.00152182
2622	0.00206968
2634	0.00127833
2646	0.00188706
2658	0.00213056
2670	0.00182619
2682	0.00188706
2694	0.00243492
2706	0.00170444
2718	0.00219143
2730	0.00188706
2742	0.00188706
2754	0.00182619
2766	0.00261754
2778	0.00255667
2790	0.00304365
2802	0.00304365
2814	0.00371325
2826	0.00359151
2838	0.00280016
2850	0.00261754
2862	0.00286103
2874	0.00353063
2886	0.00401762
2898	0.00389587
2910	0.00353063
2922	0.00401762
2934	0.0045046
2946	0.00407849
2958	0.00346976
2970	0.00346976
2982	0.00353063
2994	0.00340889
3006	0.00359151
3018	0.00426111
3030	0.00389587
3042	0.003835
3054	0.00456548
3066	0.00499159
3078	0.00657428
3090	0.00846135
3102	0.00645254
3114	0.00523508
3126	0.00523508
3138	0.00480897
3150	0.00602643
3162	0.00407849
3174	0.00535682
3186	0.00529595
3198	0.00462635
3210	0.00572206
3222	0.0045046
3234	0.00480897
3246	0.0054177
3258	0.00590468
3270	0.00493071
3282	0.00420024
3294	0.00529595
3306	0.00486984
3318	0.00681778
3330	0.0051742
3342	0.00529595
3354	0.00602643
3366	0.00584381
3378	0.00462635
3390	0.00651341
3402	0.00499159
3414	0.00687865
3426	0.00493071
3438	0.00620905
3450	0.00687865
3462	0.00724389
3474	0.00505246
3486	0.00730476
3498	0.00529595
3510	0.0045046
3522	0.00578293
3534	0.00645254
3546	0.00505246
3558	0.00651341
3570	0.00578293
3582	0.00182619
3594	0.00626992
3606	0.0045046
3618	0.00249579
3630	0.00438286
3642	0.00724389
3654	0.00371325
3666	0.00614817
3678	0.00249579
3690	0.00273928
3702	0.00298278
3714	0.00371325
3726	0.00395675
3738	0.0015827
3750	0.00553944
3762	0.00840047
3774	0.003835
3786	0.000730476
3798	0.0015827
3810	0.000304365
3822	0.0022523
3834	0.00852222
3846	0.00700039
3858	0.00060873
3870	0.00249579
3882	0.00304365
3894	0.00681778
3906	0.00188706
3918	0.00760912
3930	0.00760912
3942	0.00426111
3954	0.00961793
3966	0.00718301
