Infrared Spectrum: 2H-Pyran, 3,4-dihydro-2-methoxy-
Formula: C 6 H 10 O 2
CAS: 4454-05-1
Origin: Sadtler Research Labs Under US-EPA Contract
1/CM	ABSORBANCE
450	0.00651396
462	0.00551181
474	7.1582e-05
486	0.00250537
498	0.0103078
510	0.011811
522	0.0115247
534	0.0114531
546	0.008733
558	0.0133858
570	0.0146743
582	0.0272012
594	0.0202577
606	0.010451
618	0.0151038
630	0.0128132
642	0.01131
654	0.0133858
666	0.00722978
678	0.010451
690	0.0129563
702	0.0277022
714	0.06199
726	0.076378
738	0.0401575
750	0.0341446
762	0.0483178
774	0.0386543
786	0.0190408
798	0.0146743
810	0.0207588
822	0.0483178
834	0.0709378
846	0.0590551
858	0.030136
870	0.0310666
882	0.0612026
894	0.118397
906	0.120687
918	0.0752327
930	0.0399428
942	0.0626342
954	0.059771
966	0.0363637
978	0.0278454
990	0.0307803
1002	0.0362205
1014	0.0593415
1026	0.157624
1038	0.533
1050	0.673086
1062	0.464424
1074	0.184037
1086	0.0774517
1098	0.0759485
1110	0.148604
1122	0.258053
1134	0.246672
1146	0.150752
1158	0.113959
1170	0.0905512
1182	0.106944
1194	0.125984
1206	0.182176
1218	0.326629
1230	0.359771
1242	0.234574
1254	0.0891912
1266	0.0426629
1278	0.0294918
1290	0.0219041
1302	0.0210451
1314	0.0221188
1326	0.0236936
1338	0.0296349
1350	0.0410881
1362	0.0750179
1374	0.0882606
1386	0.0765927
1398	0.0530423
1410	0.0299213
1422	0.0237652
1434	0.034073
1446	0.0599857
1458	0.0618468
1470	0.0441661
1482	0.0268432
1494	0.0171797
1506	0.0106657
1518	0.00959199
1530	0.0110952
1542	0.00629922
1554	0.00901933
1566	0.0105941
1578	0.00944882
1590	0.0116679
1602	0.0136722
1614	0.02534
1626	0.0482463
1638	0.0921976
1650	0.183536
1662	0.171582
1674	0.0543307
1686	0.015247
1698	0.0125268
1710	0.0186113
1722	0.0229062
1734	0.0397996
1746	0.0576235
1758	0.0411596
1770	0.0241231
1782	0.0168934
1794	0.0122405
1806	0.0127416
1818	0.0143164
1830	0.0113815
1842	0.00880459
1854	0.00816035
1866	0.00773086
1878	0.00851826
1890	0.00808877
1902	0.00701504
1914	0.00708662
1926	0.00773086
1938	0.00808877
1950	0.00816035
1962	0.0079456
1974	0.00694345
1986	0.00808877
1998	0.0079456
2010	0.00801718
2022	0.00937724
2034	0.00937724
2046	0.00780244
2058	0.00787402
2070	0.00730136
2082	0.00722978
2094	0.00780244
2106	0.00801718
2118	0.00830351
2130	0.00773086
2142	0.0071582
2154	0.00773086
2166	0.00758769
2178	0.0071582
2190	0.00665713
2202	0.00565498
2214	0.00479599
2226	0.00501074
2238	0.00508232
2250	0.00450967
2262	0.00472441
2274	0.00422334
2286	0.00450967
2298	0.00450967
2310	0.00379385
2322	0.00450967
2334	0.00422334
2346	0.00386543
2358	0.00529707
2370	0.00264853
2382	0.00243379
2394	0.00221904
2406	0.00221904
2418	0.00272012
2430	0.0027917
2442	0.00257695
2454	0.00264853
2466	0.00264853
2478	0.00150322
2490	0.00114531
2502	0.000572656
2514	7.1582e-05
2526	0.000501074
2538	0.000572656
2550	0.00071582
2562	0.0027917
2574	0.00243379
2586	0.00322119
2598	0.00443808
2610	0.00458125
2622	0.00522549
2634	0.00629922
2646	0.00737295
2658	0.00966357
2670	0.011811
2682	0.0129563
2694	0.0141017
2706	0.0206156
2718	0.0235505
2730	0.0186113
2742	0.0147459
2754	0.0125984
2766	0.0130995
2778	0.0136722
2790	0.016607
2802	0.0241231
2814	0.0356478
2826	0.0564066
2838	0.0968504
2850	0.118755
2862	0.101933
2874	0.0775949
2886	0.0607731
2898	0.0909807
2910	0.158339
2922	0.215175
2934	0.265354
2946	0.259342
2958	0.183823
2970	0.162348
2982	0.118826
2994	0.0716536
3006	0.0722262
3018	0.0463851
3030	0.0238368
3042	0.0208304
3054	0.02398
3066	0.0571224
3078	0.0791697
3090	0.0521117
3102	0.020043
3114	0.0107373
3126	0.00701504
3138	0.00680029
3150	0.00615605
3162	0.00529707
3174	0.00536865
3186	0.00508232
3198	0.00443808
3210	0.00443808
3222	0.00415176
3234	0.00458125
3246	0.00508232
3258	0.00465283
3270	0.00479599
3282	0.00493916
3294	0.00472441
3306	0.0043665
3318	0.0043665
3330	0.00408017
3342	0.00479599
3354	0.00536865
3366	0.00493916
3378	0.00472441
3390	0.00400859
3402	0.00350752
3414	0.00422334
3426	0.00422334
3438	0.00443808
3450	0.00472441
3462	0.00365068
3474	0.00422334
3486	0.00300644
3498	0.00264853
3510	0.00178955
3522	0.0027917
3534	0.00221904
3546	0.00236221
3558	0.00336435
3570	0.00114531
3582	0.00293486
3594	0.0015748
3606	0.00171797
3618	0.00178955
3630	0
3642	0.00365068
3654	0.00336435
3666	0.00501074
3678	0.00293486
3690	0.00393701
3702	0.00544023
3714	0.00458125
3726	0.00608447
3738	0.00529707
3750	0.0063708
3762	0.008733
3774	0.00980673
3786	0.0103794
3798	0.00944882
3810	0.00887617
3822	0.00837509
3834	0.00966357
3846	0.010451
3858	0.0103078
3870	0.0107373
3882	0.00966357
3894	0.00944882
3906	0.0071582
3918	0.00680029
3930	0.00751611
3942	0.00765927
3954	0.00393701
3966	0.00443808
