Infrared Spectrum: 1,5-Pentanediol, 3-methyl-
Formula: C 6 H 14 O 2
CAS: 4457-71-0
Origin: Sadtler Research Labs Under US-EPA Contract
1/CM	ABSORBANCE
450	0
462	0.10457
474	0.202184
486	0.126311
498	0.104353
510	0.0871782
522	0.0760907
534	0.0967439
546	0.0906566
558	0.107179
570	0.0836998
582	0.0839172
594	0.0780473
606	0.0791343
618	0.078156
630	0.0798952
642	0.0790256
654	0.0793517
666	0.0810909
678	0.0785908
690	0.0723949
702	0.0851129
714	0.0791343
726	0.0797865
738	0.0830476
750	0.0894609
762	0.0922871
774	0.0850042
786	0.0928307
798	0.0928307
810	0.0915262
822	0.0995701
834	0.11044
846	0.128593
858	0.13392
870	0.12468
882	0.112832
894	0.108918
906	0.110549
918	0.113484
930	0.124137
942	0.158051
954	0.216532
966	0.270231
978	0.29208
990	0.318059
1002	0.377519
1014	0.423064
1026	0.488067
1038	0.6971
1050	0.813518
1062	0.681012
1074	0.468393
1086	0.351213
1098	0.307733
1110	0.250121
1122	0.211206
1134	0.195336
1146	0.175335
1158	0.180118
1170	0.188161
1182	0.196749
1194	0.203162
1206	0.199901
1218	0.192618
1230	0.182292
1242	0.180118
1254	0.184139
1266	0.188814
1278	0.192618
1290	0.190879
1302	0.179791
1314	0.173378
1326	0.173595
1338	0.183813
1350	0.189683
1362	0.207184
1374	0.25523
1386	0.306428
1398	0.266317
1410	0.18664
1422	0.153703
1434	0.155877
1446	0.172074
1458	0.184683
1470	0.186096
1482	0.170117
1494	0.121419
1506	0.0916349
1518	0.085439
1530	0.0794604
1542	0.0742428
1554	0.0764168
1566	0.0729384
1578	0.0710905
1590	0.0713079
1602	0.0721775
1614	0.0707644
1626	0.0723949
1638	0.0721775
1650	0.0720688
1662	0.0705469
1674	0.0694599
1686	0.0690251
1698	0.0680468
1710	0.0694599
1722	0.0698947
1734	0.0705469
1746	0.0721775
1758	0.0735906
1770	0.0766342
1782	0.0771777
1794	0.0714166
1806	0.0701121
1818	0.0679381
1830	0.0675033
1842	0.0671772
1854	0.0655467
1866	0.0664163
1878	0.0659815
1890	0.0666337
1902	0.0670685
1914	0.0663076
1926	0.0648945
1938	0.0653293
1950	0.064351
1962	0.0645684
1974	0.0644597
1986	0.0644597
1998	0.0659815
2010	0.067612
2022	0.0690251
2034	0.0698947
2046	0.0701121
2058	0.0691338
2070	0.0678294
2082	0.0658728
2094	0.0642423
2106	0.0636988
2118	0.0631553
2130	0.0628292
2142	0.0626118
2154	0.0622857
2166	0.062177
2178	0.0620683
2190	0.0614161
2202	0.062177
2214	0.062177
2226	0.0627205
2238	0.0626118
2250	0.0631553
2262	0.063264
2274	0.0641336
2286	0.0660902
2298	0.0701121
2310	0.0719601
2322	0.0702208
2334	0.0684816
2346	0.0705469
2358	0.0688077
2370	0.0692425
2382	0.0708731
2394	0.0664163
2406	0.066525
2418	0.0669598
2430	0.0670685
2442	0.066525
2454	0.0664163
2466	0.0658728
2478	0.0653293
2490	0.0648945
2502	0.0652206
2514	0.0653293
2526	0.065438
2538	0.0660902
2550	0.0668511
2562	0.0673946
2574	0.0680468
2586	0.0694599
2598	0.0704382
2610	0.0717427
2622	0.0731558
2634	0.0735906
2646	0.075982
2658	0.0780473
2670	0.0802213
2682	0.0825041
2694	0.0851129
2706	0.0888087
2718	0.0930481
2730	0.0985918
2742	0.104027
2754	0.106636
2766	0.108918
2778	0.114027
2790	0.121419
2802	0.127615
2814	0.138594
2826	0.160986
2838	0.209141
2850	0.284036
2862	0.380454
2874	0.551005
2886	0.721557
2898	0.742428
2910	0.817758
2922	0.990484
2934	1.08701
2946	0.955808
2958	0.812105
2970	0.771016
2982	0.459697
2994	0.198923
3006	0.125984
3018	0.101309
3030	0.0884826
3042	0.0825041
3054	0.0767429
3066	0.0745689
3078	0.0734819
3090	0.0717427
3102	0.0700034
3114	0.0693512
3126	0.068699
3138	0.0675033
3150	0.0680468
3162	0.0663076
3174	0.0669598
3186	0.0679381
3198	0.0650032
3210	0.0646771
3222	0.0640249
3234	0.0622857
3246	0.062177
3258	0.0639162
3270	0.0629379
3282	0.0641336
3294	0.0646771
3306	0.0633727
3318	0.0658728
3330	0.0656554
3342	0.0642423
3354	0.0657641
3366	0.0655467
3378	0.066525
3390	0.0675033
3402	0.0679381
3414	0.0682642
3426	0.0679381
3438	0.0692425
3450	0.069786
3462	0.0691338
3474	0.072721
3486	0.0704382
3498	0.069786
3510	0.0691338
3522	0.0689164
3534	0.0669598
3546	0.0705469
3558	0.0757646
3570	0.0839172
3582	0.0831563
3594	0.0817432
3606	0.0823954
3618	0.0850042
3630	0.0902218
3642	0.115767
3654	0.189357
3666	0.2736
3678	0.227402
3690	0.117071
3702	0.084352
3714	0.0730471
3726	0.0698947
3738	0.067612
3750	0.0634814
3762	0.0675033
3774	0.0647858
3786	0.0660902
3798	0.0646771
3810	0.0635901
3822	0.0658728
3834	0.0661989
3846	0.0673946
3858	0.0658728
3870	0.0635901
3882	0.0671772
3894	0.0628292
3906	0.0653293
3918	0.0635901
3930	0.0636988
3942	0.0642423
3954	0.0639162
3966	0.0644597
