Infrared Spectrum: 2-Fluorobenzyl alcohol
Formula: C 7 H 7 F O
CAS: 446-51-5
Origin: Sadtler Research Labs Under US-EPA Contract
1/CM	ABSORBANCE
450	0.0389659
462	0.0279193
474	0.00998738
486	0.00582597
498	0.00461538
510	0.0341992
522	0.069836
534	0.0491046
546	0.0203531
558	0.00991172
570	0.00499369
582	0.000151324
594	0.0021942
606	0.00945775
618	0.0242875
630	0.0164943
642	0.00461538
654	0.00302648
666	0.0164187
678	0.0886759
690	0.185069
702	0.0892055
714	0.037831
726	0.0721815
738	0.166381
750	0.147995
762	0.135511
774	0.253392
786	0.348499
798	0.135586
810	0.0240605
822	0.0105927
834	0.0133922
846	0.0343505
858	0.107062
870	0.182421
882	0.127642
894	0.0991172
906	0.113039
918	0.198083
930	0.219798
942	0.131576
954	0.091324
966	0.12053
978	0.125826
990	0.116066
1002	0.156469
1014	0.244313
1026	0.362497
1038	0.389432
1050	0.270492
1062	0.170239
1074	0.110315
1086	0.0716519
1098	0.0562925
1110	0.065372
1122	0.11145
1134	0.223657
1146	0.236217
1158	0.135662
1170	0.0986632
1182	0.0919293
1194	0.0912484
1206	0.0893568
1218	0.0992685
1230	0.122572
1242	0.215485
1254	0.521916
1266	0.75662
1278	0.43203
1290	0.134678
1302	0.0697604
1314	0.0544766
1326	0.0530391
1338	0.0560655
1350	0.0659016
1362	0.112963
1374	0.207238
1386	0.209584
1398	0.131652
1410	0.10517
1422	0.0944262
1434	0.130593
1446	0.327011
1458	0.413493
1470	0.244767
1482	0.310668
1494	0.342219
1506	0.136343
1518	0.0578058
1530	0.043203
1542	0.0236822
1554	0.0251198
1566	0.0565195
1578	0.172131
1590	0.430971
1602	0.497856
1614	0.355006
1626	0.211248
1638	0.0458512
1650	0.0223203
1662	0.0169483
1674	0.0164943
1686	0.00764186
1698	0.00446406
1710	0.00279949
1722	0.0081715
1734	0.0155864
1746	0.0185372
1758	0.0170996
1770	0.01029
1782	0.00446406
1794	0.00302648
1806	0.000605296
1818	0.0015889
1830	0.00431273
1842	0.0069609
1854	0.0140731
1866	0.00847414
1878	0.00234552
1890	0.00136192
1902	0.00121059
1914	0.00582597
1926	0.0145271
1938	0.0132408
1950	0.00325347
1962	0.00151324
1974	0.00196721
1986	0.00325347
1998	0.0043884
2010	0.00499369
2022	0.00401009
2034	0.00408575
2046	0.00499369
2058	0.0059773
2070	0.005372
2082	0.00385876
2094	0.00272383
2106	0.00196721
2118	0.00121059
2130	0.000832282
2142	0.000832282
2154	0.00136192
2166	0.00189155
2178	0.00264817
2190	0.00279949
2202	0.00181589
2214	0.00121059
2226	0.00105927
2238	0.00075662
2250	0.000302648
2262	0.000226986
2274	0.00121059
2286	0.00113493
2298	0.000529634
2310	0.00211854
2322	0.00431273
2334	0.00522068
2346	0.0037831
2358	0.00416141
2370	0.00401009
2382	0.00461538
2394	0.00680958
2406	0.00779319
2418	0.00650693
2430	0.00469104
2442	0.0037831
2454	0.00287516
2466	0.00249685
2478	0.00226986
2490	0.0031778
2502	0.00401009
2514	0.00499369
2526	0.00567465
2538	0.00416141
2550	0.00302648
2562	0.00287516
2574	0.0031778
2586	0.00363178
2598	0.00393442
2610	0.00431273
2622	0.00401009
2634	0.00348045
2646	0.00332913
2658	0.00325347
2670	0.00370744
2682	0.00431273
2694	0.00484237
2706	0.00627995
2718	0.00786885
2730	0.00870113
2742	0.010063
2754	0.0103657
2766	0.0103657
2778	0.0118033
2790	0.0138461
2802	0.0161917
2814	0.0195208
2826	0.0265574
2838	0.0395712
2850	0.059092
2862	0.0843631
2874	0.131349
2886	0.177881
2898	0.159269
2910	0.129231
2922	0.130593
2934	0.136646
2946	0.123329
2958	0.103052
2970	0.0739974
2982	0.0446406
2994	0.0263304
3006	0.0170239
3018	0.0174779
3030	0.0333669
3042	0.0690037
3054	0.0941992
3066	0.0892055
3078	0.0843631
3090	0.0767969
3102	0.0408575
3114	0.0204287
3126	0.0127869
3138	0.0059773
3150	0.00340479
3162	0.00242118
3174	0.00151324
3186	0.00196721
3198	0.00234552
3210	0.00211854
3222	0.00204287
3234	0.00211854
3246	0.0021942
3258	0.00264817
3270	0.00264817
3282	0.00257251
3294	0.00257251
3306	0.00204287
3318	0.00196721
3330	0.0021942
3342	0.00211854
3354	0.00242118
3366	0.00249685
3378	0.00264817
3390	0.00264817
3402	0.00302648
3414	0.00279949
3426	0.0031778
3438	0.00332913
3450	0.00295082
3462	0.00249685
3474	0.00332913
3486	0.0021942
3498	0.00211854
3510	0.0021942
3522	0.00189155
3534	0.000907944
3546	0.00075662
3558	0.0021942
3570	0.00166456
3582	0.00340479
3594	0.005372
3606	0.0069609
3618	0.0129382
3630	0.0305674
3642	0.070971
3654	0.114325
3666	0.103354
3678	0.0755107
3690	0.043203
3702	0.0196721
3714	0.00832282
3726	0.00302648
3738	0.00242118
3750	0
3762	0.000226986
3774	0.00121059
3786	0.00121059
3798	0.0015889
3810	0.000151324
3822	0.00113493
3834	0.000605296
3846	0.000453972
3858	0.00272383
3870	0.00113493
3882	0.000832282
3894	0.00279949
3906	0.00121059
3918	0.00234552
3930	0.00355611
3942	0.00272383
3954	0.005372
3966	0.0021942
