Infrared Spectrum: 3-Fluoro-4-nitrotoluene
Formula: C 7 H 6 F N O 2
CAS: 446-34-4
Origin: Sadtler Research Labs Under US-EPA Contract
1/CM	ABSORBANCE
450	0.0453167
462	0.030275
474	0.0258679
486	0.0147543
498	0
510	0.0348737
522	0.0181075
534	0.0498196
546	0.0340115
558	0.027784
570	0.0294127
582	0.0346821
594	0.0548974
606	0.108549
618	0.0754959
630	0.0338199
642	0.0287421
654	0.0241434
666	0.0274966
678	0.0337241
690	0.0265385
702	0.0250056
714	0.0271134
726	0.0876634
738	0.101939
750	0.123687
762	0.062562
774	0.0266343
786	0.0206943
798	0.0270176
810	0.0994477
822	0.220452
834	0.350175
846	0.255517
858	0.0682146
870	0.087376
882	0.0371731
894	0.0209817
906	0.0222272
918	0.0219398
930	0.0343947
942	0.144764
954	0.133363
966	0.0266343
978	0.0199279
990	0.0249098
1002	0.0231853
1014	0.0186824
1026	0.0136046
1038	0.0180117
1050	0.0233769
1062	0.0131256
1074	0.0240476
1086	0.0722385
1098	0.0841185
1110	0.0244308
1122	0.0264427
1134	0.0197362
1146	0.0289337
1158	0.0772204
1170	0.0950405
1182	0.0354486
1194	0.0150417
1206	0.0280715
1218	0.0263469
1230	0.015904
1242	0.0549932
1254	0.139782
1266	0.249386
1278	0.21844
1290	0.0905376
1302	0.0832563
1314	0.0770288
1326	0.118896
1338	0.3953
1350	0.899053
1362	0.650721
1374	0.169674
1386	0.0786575
1398	0.068023
1410	0.107783
1422	0.172932
1434	0.169387
1446	0.103855
1458	0.0703223
1470	0.0672565
1482	0.120334
1494	0.248332
1506	0.259541
1518	0.278032
1530	0.4684
1542	0.692397
1554	0.691056
1566	0.529334
1578	0.386581
1590	0.418198
1602	0.645164
1614	0.779773
1626	0.463131
1638	0.127711
1650	0.041676
1662	0.0189698
1674	0.0211733
1686	0.0202153
1698	0.018874
1710	0.0147543
1722	0.0153291
1734	0.0164788
1746	0.0116885
1758	0.0127423
1770	0.0151375
1782	0.0122633
1794	0.00651488
1806	0.00584423
1818	0.00843102
1830	0.00651488
1842	0.00182033
1854	0.0013413
1866	0.00373647
1878	0.00373647
1890	0.0082394
1902	0.0108262
1914	0.0082394
1926	0.00479035
1938	0.00354486
1950	0.00383228
1962	0.00440712
1974	0.00392809
1986	0.0041197
1998	0.0041197
2010	0.00392809
2022	0.00325744
2034	0.0026826
2046	0.00306582
2058	0.00220356
2070	0.00220356
2082	0.00162872
2094	0.00239517
2106	0.00344905
2118	0.00316163
2130	0.00201195
2142	0.00172453
2154	0.00105388
2166	0.00124549
2178	0.00182033
2190	0.00201195
2202	0.00172453
2214	0.00191614
2226	0.00162872
2238	0.00162872
2250	0.00239517
2262	0.00201195
2274	0.000574842
2286	0.00124549
2298	0.00306582
2310	0.00373647
2322	0.00316163
2334	0.00459874
2346	0.00862263
2358	0.00603584
2370	0.00699391
2382	0.00613165
2394	0.00383228
2406	0.00565261
2418	0.00641907
2430	0.00651488
2442	0.00699391
2454	0.00479035
2466	0.00306582
2478	0.00210775
2490	0.00239517
2502	0.00297002
2514	0.00498196
2526	0.00450293
2538	0.00383228
2550	0.00287421
2562	0.00325744
2574	0.00373647
2586	0.00392809
2598	0.00344905
2610	0.00306582
2622	0.00316163
2634	0.00306582
2646	0.00325744
2658	0.0041197
2670	0.00526938
2682	0.00661068
2694	0.00871844
2706	0.00862263
2718	0.00737714
2730	0.00651488
2742	0.00843102
2754	0.00977231
2766	0.00795198
2778	0.00622745
2790	0.00498196
2802	0.0068023
2814	0.00881424
2826	0.00900586
2838	0.0115926
2850	0.0182991
2862	0.0317121
2874	0.0481909
2886	0.0469454
2898	0.0418677
2910	0.0444544
2922	0.05461
2934	0.0888131
2946	0.0835437
2958	0.0503945
2970	0.0331492
2982	0.0274008
2994	0.0272092
3006	0.0339157
3018	0.035257
3030	0.0308499
3042	0.0383228
3054	0.0451251
3066	0.0425383
3078	0.0363109
3090	0.0259637
3102	0.0126465
3114	0.00756875
3126	0.00507777
3138	0.00431131
3150	0.00287421
3162	0.00162872
3174	0.0014371
3186	0.00210775
3198	0.00220356
3210	0.00316163
3222	0.00344905
3234	0.00306582
3246	0.00182033
3258	0.00124549
3270	0.00124549
3282	0.000574842
3294	0.00095807
3306	0.00124549
3318	0.00201195
3330	0.00114968
3342	0.00249098
3354	0.000766456
3366	0.000862263
3378	0.00124549
3390	0.0027784
3402	0.000862263
3414	0.00105388
3426	0.00191614
3438	0.0027784
3450	0.00239517
3462	0.00258679
3474	0.00124549
3486	0.00344905
3498	0.00297002
3510	0.00201195
3522	0.00297002
3534	0.000670649
3546	0.00344905
3558	0.00297002
3570	0.00517358
3582	0.00507777
3594	0.00287421
3606	0.00526938
3618	0.00229937
3630	0.00182033
3642	0.0026826
3654	0.00306582
3666	0.00258679
3678	0.00440712
3690	0.00229937
3702	0.00297002
3714	0.00239517
3726	0.00354486
3738	0.00297002
3750	0.000766456
3762	0.00153291
3774	0.00210775
3786	0.00249098
3798	0.00172453
3810	0.00220356
3822	0.00325744
3834	0.00153291
3846	0.00153291
3858	0.00383228
3870	0.00459874
3882	0.00105388
3894	0.00201195
3906	0.00661068
3918	0.00220356
3930	0.00622745
3942	0.00517358
3954	0.005461
3966	0.00258679
