Infrared Spectrum: 4-Fluoro-3-nitrotoluene
Formula: C 7 H 6 F N O 2
CAS: 446-11-7
Origin: Sadtler Research Labs Under US-EPA Contract
1/CM	ABSORBANCE
450	0.00303086
462	0.0178575
474	0.0231
486	0.0117958
498	0.0407937
510	0.0407937
522	0.0572586
534	0.0456267
546	0.0294894
558	0.0263766
570	0.0278511
582	0.031783
594	0.0267043
606	0.0198234
618	0.0203149
630	0.0213798
642	0.0204788
654	0.0248202
666	0.0411213
678	0.0625011
690	0.0267862
702	0.0281788
714	0.0318649
726	0.0308
738	0.0511969
750	0.0784746
762	0.0842905
774	0.103049
786	0.0841267
798	0.066515
810	0.227642
822	0.321271
834	0.0947757
846	0.025066
858	0.0230181
870	0.0312096
882	0.0396469
894	0.0351415
906	0.0321107
918	0.0431692
930	0.0322745
942	0.0249022
954	0.0251479
966	0.0216256
978	0.018349
990	0.0187585
1002	0.0213798
1014	0.0172841
1026	0.0159734
1038	0.0213798
1050	0.027032
1062	0.0244926
1074	0.0408756
1086	0.0602894
1098	0.0427596
1110	0.027032
1122	0.0384181
1134	0.0692182
1146	0.0516065
1158	0.0206426
1170	0.0189224
1182	0.0200692
1194	0.0283426
1206	0.0330937
1218	0.0457905
1230	0.0444798
1242	0.101657
1254	0.233212
1266	0.257049
1278	0.171202
1290	0.107636
1302	0.0782288
1314	0.0612724
1326	0.091581
1338	0.258442
1350	0.482397
1362	0.356248
1374	0.183899
1386	0.107964
1398	0.0741331
1410	0.0625831
1422	0.0471011
1434	0.0372713
1446	0.0383362
1458	0.0439884
1470	0.0584054
1482	0.0729863
1494	0.147693
1506	0.294403
1518	0.292928
1530	0.341995
1542	0.540639
1554	0.81915
1566	0.63992
1578	0.320533
1590	0.208801
1602	0.133603
1614	0.143679
1626	0.168171
1638	0.0835533
1650	0.0284245
1662	0.0185947
1674	0.0165468
1686	0.013516
1698	0.0145809
1710	0.0139256
1722	0.0111404
1734	0.0113862
1746	0.0146628
1758	0.0180213
1770	0.0177756
1782	0.0110585
1794	0.00999363
1806	0.00810959
1818	0.00933831
1830	0.0124511
1842	0.0122873
1854	0.0081915
1866	0.00745427
1878	0.00933831
1890	0.0130245
1902	0.0136798
1914	0.00843725
1926	0.00696278
1938	0.00745427
1950	0.00671703
1962	0.00647129
1974	0.00524256
1986	0.00581597
1998	0.00671703
2010	0.00622554
2022	0.0065532
2034	0.0059798
2046	0.00557022
2058	0.00516065
2070	0.00540639
2082	0.00475107
2094	0.00475107
2106	0.00385001
2118	0.00344043
2130	0.00311277
2142	0.00294894
2154	0.00237554
2166	0.00294894
2178	0.00319469
2190	0.00286703
2202	0.00262128
2214	0.00196596
2226	0.00172022
2238	0.00229362
2250	0.00221171
2262	0.00319469
2274	0.00344043
2286	0.00311277
2298	0.00360426
2310	0.00548831
2322	0.00548831
2334	0.00622554
2346	0.0100755
2358	0.00966597
2370	0.00966597
2382	0.00786384
2394	0.00475107
2406	0.00376809
2418	0.00458724
2430	0.00540639
2442	0.00540639
2454	0.00466916
2466	0.00458724
2478	0.00442341
2490	0.00385001
2502	0.00516065
2514	0.00557022
2526	0.00499681
2538	0.00483299
2550	0.00516065
2562	0.00507873
2574	0.00458724
2586	0.00458724
2598	0.00557022
2610	0.00499681
2622	0.00573405
2634	0.00606171
2646	0.00606171
2658	0.00540639
2670	0.00614363
2682	0.00696278
2694	0.00770001
2706	0.00745427
2718	0.00647129
2730	0.00606171
2742	0.00745427
2754	0.00917448
2766	0.00958406
2778	0.0076181
2790	0.00794576
2802	0.00770001
2814	0.00909257
2826	0.0103213
2838	0.0117138
2850	0.0159734
2862	0.0234277
2874	0.0362883
2886	0.0430873
2898	0.0397288
2910	0.0366979
2922	0.0429235
2934	0.0670884
2946	0.0698735
2958	0.0384181
2970	0.0273596
2982	0.0226905
2994	0.0237554
3006	0.0287522
3018	0.0319468
3030	0.0320288
3042	0.0368617
3054	0.0395649
3066	0.0264585
3078	0.0209702
3090	0.0159734
3102	0.0117958
3114	0.00999363
3126	0.00704469
3138	0.00671703
3150	0.0059798
3162	0.00589788
3174	0.00573405
3186	0.00589788
3198	0.00581597
3210	0.00565213
3222	0.00696278
3234	0.00622554
3246	0.00638937
3258	0.00614363
3270	0.00663512
3282	0.00704469
3294	0.00704469
3306	0.00720852
3318	0.00696278
3330	0.00688086
3342	0.00794576
3354	0.0065532
3366	0.00671703
3378	0.00679895
3390	0.00630746
3402	0.00720852
3414	0.00679895
3426	0.00786384
3438	0.00630746
3450	0.00737235
3462	0.00688086
3474	0.00696278
3486	0.00696278
3498	0.00778193
3510	0.00737235
3522	0.00770001
3534	0.00729044
3546	0.00737235
3558	0.00810959
3570	0.00606171
3582	0.00901065
3594	0.00606171
3606	0.00794576
3618	0.00851916
3630	0.00557022
3642	0.00860107
3654	0.00311277
3666	0.0102394
3678	0.00737235
3690	0.00368618
3702	0.0087649
3714	0.00671703
3726	0.00917448
3738	0.0098298
3750	0.00286703
3762	0.00991171
3774	0.00884682
3786	0.00942023
3798	0.00810959
3810	0.0122873
3822	0.00688086
3834	0.00835533
3846	0.00794576
3858	0.00778193
3870	0.0108128
3882	0.00786384
3894	0.0103213
3906	0.00696278
3918	0.0112224
3930	0.0112224
3942	0.0100755
3954	0.010567
3966	0.0101575
