Infrared Spectrum: 1,2-Cyclobutanedicarboxylic anhydride, cis-,
Formula: C 6 H 6 O 3
CAS: 4462-96-8
Origin: Sadtler Research Labs Under US-EPA Contract
1/CM	ABSORBANCE
450	0.0110059
462	0.00251563
474	0
486	0.00550294
498	0.00801858
510	0.00628908
522	0.00770412
534	0.00550294
546	0.00440236
558	0.0122637
570	0.0141504
582	0.0323888
594	0.104242
606	0.119964
618	0.0566017
630	0.0183956
642	0.0144649
654	0.0144649
666	0.0132071
678	0.00959085
690	0.0155655
702	0.027043
714	0.0213829
726	0.0127354
738	0.00738967
750	0.00660353
762	0.00613185
774	0.00471681
786	0.00503126
798	0.0102198
810	0.0158799
822	0.0144649
834	0.0171377
846	0.0243702
858	0.0249991
870	0.0287725
882	0.0726389
894	0.229237
906	0.644316
918	0.92591
930	0.620261
942	0.134272
954	0.0529855
966	0.0382062
978	0.104556
990	0.180811
1002	0.134901
1014	0.0347472
1026	0.0246846
1038	0.024213
1050	0.0196534
1062	0.0183956
1074	0.0482687
1086	0.243073
1098	0.360207
1110	0.2143
1122	0.029087
1134	0.0251563
1146	0.0369483
1158	0.0583312
1170	0.0842737
1182	0.0828586
1194	0.0775129
1206	0.134429
1218	0.217602
1230	0.251406
1242	0.189301
1254	0.162887
1266	0.151724
1278	0.0926067
1290	0.0473253
1302	0.0459103
1314	0.0485831
1326	0.0427657
1338	0.0216973
1350	0.0125782
1362	0.0113203
1374	0.00927639
1386	0.0102198
1398	0.0106914
1410	0.00896194
1422	0.00801858
1434	0.0128926
1446	0.0213829
1458	0.0213829
1470	0.0144649
1482	0.0100625
1494	0.00959085
1506	0.011792
1518	0.00943362
1530	0.00676076
1542	0.00330177
1554	0.00330177
1566	0.00345899
1578	0.00440236
1590	0.00660353
1602	0.00770412
1614	0.00613185
1626	0.0058174
1638	0.00723244
1650	0.00896194
1662	0.0119493
1674	0.011792
1686	0.0163516
1698	0.0249991
1710	0.0273575
1722	0.0260997
1734	0.0311309
1746	0.0380489
1758	0.0510988
1770	0.109273
1782	0.355176
1794	1.0987
1806	1.57227
1818	1.08062
1830	0.421368
1842	0.215558
1854	0.199993
1866	0.279864
1878	0.287254
1890	0.158956
1902	0.0603752
1914	0.0382062
1926	0.0238985
1938	0.0157227
1950	0.0106914
1962	0.0075469
1974	0.0075469
1986	0.00770412
1998	0.00880471
2010	0.00864748
2022	0.00676076
2034	0.00487404
2046	0.00487404
2058	0.00628908
2070	0.00786135
2082	0.00911917
2094	0.00911917
2106	0.00786135
2118	0.0081758
2130	0.0110059
2142	0.0127354
2154	0.0111631
2166	0.0081758
2178	0.00660353
2190	0.00550294
2202	0.00471681
2214	0.00471681
2226	0.00440236
2238	0.00361622
2250	0.00283009
2262	0.00298731
2274	0.00251563
2286	0.00157227
2298	0.00110059
2310	0.00110059
2322	0.00235841
2334	0.00251563
2346	0.00157227
2358	0.0017295
2370	0.0017295
2382	0.00157227
2394	0.00188672
2406	0.00267286
2418	0.00298731
2430	0.00235841
2442	0.00157227
2454	0.000786135
2466	0.000628908
2478	0.000786135
2490	0.00125782
2502	0.00110059
2514	0.000628908
2526	0.000628908
2538	0.000628908
2550	0.000786135
2562	0
2574	0
2586	0.000314454
2598	0.000471681
2610	0.000786135
2622	0.000314454
2634	0.000471681
2646	0.000628908
2658	0.000786135
2670	0.000628908
2682	0.000786135
2694	0.000943362
2706	0.00141504
2718	0.000786135
2730	0.00110059
2742	0.00110059
2754	0.000628908
2766	0.000786135
2778	0.000943362
2790	0.000628908
2802	0.000786135
2814	0.00125782
2826	0.0017295
2838	0.00267286
2850	0.00283009
2862	0.00566017
2874	0.013836
2886	0.0215401
2898	0.0201251
2910	0.0161944
2922	0.0177667
2934	0.020754
2946	0.0286153
2958	0.0622619
2970	0.0973235
2982	0.0841164
2994	0.0845881
3006	0.107072
3018	0.0580168
3030	0.0185528
3042	0.00927639
3054	0.010377
3066	0.00849026
3078	0.00503126
3090	0.00298731
3102	0.00157227
3114	0.0017295
3126	0.00157227
3138	0.00125782
3150	0.00110059
3162	0.00125782
3174	0.00110059
3186	0.00110059
3198	0.00141504
3210	0.00141504
3222	0.00220118
3234	0.00204395
3246	0.00125782
3258	0.000628908
3270	0.000471681
3282	0.000628908
3294	0.000471681
3306	0.000157227
3318	0.000471681
3330	0.000314454
3342	0.000471681
3354	0.000786135
3366	0.000314454
3378	0.000471681
3390	0.000314454
3402	0.000628908
3414	0.000314454
3426	0.000628908
3438	0.000786135
3450	0.000471681
3462	0.000628908
3474	0.000471681
3486	0.000786135
3498	0.00110059
3510	0.000314454
3522	0
3534	0
3546	0.000314454
3558	0.000157227
3570	0.00220118
3582	0.00314454
3594	0.00314454
3606	0.00393067
3618	0.00518849
3630	0.0075469
3642	0.0102198
3654	0.0160372
3666	0.0168233
3678	0.0106914
3690	0.00455958
3702	0.00314454
3714	0.0017295
3726	0.00188672
3738	0.00110059
3750	0.000314454
3762	0.00110059
3774	0.000314454
3786	0.000786135
3798	0.00157227
3810	0.00110059
3822	0.000786135
3834	0.00110059
3846	0.000628908
3858	0
3870	0.00110059
3882	0.000943362
3894	0.000628908
3906	0.000786135
3918	0.000471681
3930	0.000943362
3942	0.000786135
3954	0.000471681
3966	0.00110059
