Infrared Spectrum: Aniline, o-butoxy-,
Formula: C 10 H 15 N O
CAS: 4469-81-2
Origin: Sadtler Research Labs Under US-EPA Contract
1/CM	ABSORBANCE
450	0
462	0.0923751
474	0.0832936
486	0.0655891
498	0.0583422
510	0.0521043
522	0.0610024
534	0.0611859
546	0.0617363
558	0.0676072
570	0.0623784
582	0.0671486
594	0.0684328
606	0.0644883
618	0.0617363
630	0.0581587
642	0.0791656
654	0.0745789
666	0.0627454
678	0.060819
690	0.0644883
702	0.0729277
714	0.106043
726	0.29483
738	0.458206
750	0.232451
762	0.120904
774	0.0980626
786	0.0801746
798	0.064947
810	0.0581587
822	0.0647635
834	0.0567827
846	0.0582505
858	0.0563241
870	0.066323
882	0.0770557
894	0.0662312
906	0.0710013
918	0.0610024
930	0.0543977
942	0.0616446
954	0.0832936
966	0.109162
978	0.121546
990	0.10797
1002	0.123931
1014	0.180622
1026	0.205023
1038	0.233277
1050	0.184567
1062	0.157322
1074	0.182273
1086	0.160166
1098	0.111823
1110	0.0967783
1122	0.105952
1134	0.146314
1146	0.194199
1158	0.105126
1170	0.091733
1182	0.140443
1194	0.314644
1206	0.721755
1218	0.91733
1230	0.468847
1242	0.229608
1254	0.226305
1266	0.475727
1278	0.505082
1290	0.21493
1302	0.136499
1314	0.11008
1326	0.142828
1338	0.142278
1350	0.0909074
1362	0.0713683
1374	0.0803581
1386	0.137416
1398	0.101548
1410	0.0680659
1422	0.0636627
1434	0.0765971
1446	0.103291
1458	0.175852
1470	0.226489
1482	0.248688
1494	0.414725
1506	0.803673
1518	0.477929
1530	0.153378
1542	0.0888893
1554	0.094485
1566	0.110447
1578	0.127784
1590	0.20484
1602	0.282813
1614	0.402708
1626	0.36152
1638	0.161542
1650	0.0897149
1662	0.0765971
1674	0.0665982
1686	0.059443
1698	0.0577001
1710	0.0605438
1722	0.0626536
1734	0.0643966
1746	0.0620115
1758	0.0597182
1770	0.0577001
1782	0.0588009
1794	0.0583422
1806	0.0588926
1818	0.0586174
1830	0.0561406
1842	0.0597182
1854	0.0633875
1866	0.0605438
1878	0.0592595
1890	0.0623784
1902	0.0665064
1914	0.0592595
1926	0.0565993
1938	0.0570579
1950	0.0568745
1962	0.0568745
1974	0.0575166
1986	0.0579753
1998	0.0586174
2010	0.0576083
2022	0.0571497
2034	0.0586174
2046	0.0588009
2058	0.058067
2070	0.0559571
2082	0.0547646
2094	0.0550398
2106	0.0542142
2118	0.0534803
2130	0.0524713
2142	0.0521043
2154	0.0521043
2166	0.0521043
2178	0.0521043
2190	0.0514622
2202	0.0521043
2214	0.0518291
2226	0.0519209
2238	0.0518291
2250	0.0515539
2262	0.0520126
2274	0.0527465
2286	0.0536638
2298	0.0543059
2310	0.0540307
2322	0.0521043
2334	0.0514622
2346	0.0516457
2358	0.0516457
2370	0.0514622
2382	0.0526547
2394	0.0523795
2406	0.0534803
2418	0.0542142
2430	0.0548563
2442	0.0552233
2454	0.053939
2466	0.0536638
2478	0.0545811
2490	0.0546729
2502	0.0544894
2514	0.0546729
2526	0.0554067
2538	0.055315
2550	0.0554067
2562	0.0541225
2574	0.0532969
2586	0.053939
2598	0.0552233
2610	0.0577918
2622	0.0573331
2634	0.0558654
2646	0.0551315
2658	0.0552233
2670	0.0565993
2682	0.0559571
2694	0.0554985
2706	0.0558654
2718	0.0572414
2730	0.0593513
2742	0.063204
2754	0.0652222
2766	0.0626536
2778	0.0617363
2790	0.0606355
2802	0.0629288
2814	0.0666899
2826	0.0722856
2838	0.0847613
2850	0.112189
2862	0.151176
2874	0.233919
2886	0.302719
2898	0.24933
2910	0.264283
2922	0.308498
2934	0.373812
2946	0.472517
2958	0.434172
2970	0.516182
2982	0.309599
2994	0.144113
3006	0.105401
3018	0.10797
3030	0.156313
3042	0.183099
3054	0.15402
3066	0.174843
3078	0.169156
3090	0.128977
3102	0.0912743
3114	0.0734781
3126	0.0636627
3138	0.0592595
3150	0.0576083
3162	0.0568745
3174	0.0577918
3186	0.0585257
3198	0.0584339
3210	0.0571497
3222	0.0545811
3234	0.0535721
3246	0.0528382
3258	0.0526547
3270	0.0532051
3282	0.0523795
3294	0.052563
3306	0.0526547
3318	0.0535721
3330	0.0532969
3342	0.0535721
3354	0.0542142
3366	0.0555902
3378	0.0598099
3390	0.0733864
3402	0.112832
3414	0.115308
3426	0.0744872
3438	0.062195
3450	0.0611859
3462	0.0650387
3474	0.0771475
3486	0.10852
3498	0.147782
3510	0.121088
3522	0.0773309
3534	0.0632958
3546	0.0591678
3558	0.0583422
3570	0.056691
3582	0.0570579
3594	0.0552233
3606	0.0575166
3618	0.0573331
3630	0.0554067
3642	0.0578835
3654	0.0551315
3666	0.0583422
3678	0.0573331
3690	0.0565075
3702	0.0587091
3714	0.0560489
3726	0.0590761
3738	0.056691
3750	0.0540307
3762	0.0578835
3774	0.0579753
3786	0.0587091
3798	0.0569662
3810	0.0583422
3822	0.055315
3834	0.055315
3846	0.0567827
3858	0.0591678
3870	0.0575166
3882	0.0579753
3894	0.0577001
3906	0.0581587
3918	0.0607272
3930	0.0571497
3942	0.060452
3954	0.0587091
3966	0.0581587
