Infrared Spectrum: N,N-Dimethylforamide
Formula: C 3 D 7 N O
CAS: 4472-41-7
Origin: Sadtler Research Labs Under US-EPA Contract
1/CM	ABSORBANCE
450	0
462	0.00523936
474	0.00933261
486	0.00671293
498	0.00671293
510	0.00769531
522	0.00687666
534	0.0112974
546	0.0124435
558	0.0114611
570	0.0119523
582	0.0116248
594	0.0140808
606	0.0306175
618	0.0319274
630	0.0275066
642	0.0117886
654	0.0112974
666	0.00998753
678	0.0109699
690	0.0108062
702	0.0111336
714	0.0098238
726	0.0119523
738	0.0124435
750	0.0178466
762	0.0222673
774	0.0240683
786	0.0209574
798	0.0183378
810	0.0199751
822	0.0253782
834	0.0302901
846	0.0361843
858	0.0499377
870	0.118868
882	0.173226
894	0.180103
906	0.112483
918	0.0609076
930	0.0407688
942	0.0338921
954	0.0263605
966	0.0230859
978	0.0227585
990	0.0227585
1002	0.0240683
1014	0.0317636
1026	0.0474817
1038	0.0535397
1050	0.0640184
1062	0.0635272
1074	0.0494465
1086	0.0397864
1098	0.030945
1110	0.0297989
1122	0.0368393
1134	0.0378216
1146	0.0322548
1158	0.0214486
1170	0.0191564
1182	0.0175191
1194	0.0170279
1206	0.0180103
1218	0.0222673
1230	0.0278341
1242	0.0484641
1254	0.089724
1266	0.129674
1278	0.138352
1290	0.0882505
1302	0.037003
1314	0.0337284
1326	0.059434
1338	0.143591
1350	0.351037
1362	0.552261
1374	0.562249
1386	0.363644
1398	0.109044
1410	0.0365118
1422	0.0216124
1434	0.0142445
1446	0.0152269
1458	0.00736785
1470	0.0137533
1482	0.0152269
1494	0.0134259
1506	0.00884142
1518	0.0106425
1530	0.0140808
1542	0.00966007
1554	0.0137533
1566	0.0142445
1578	0.0148994
1590	0.0165367
1602	0.0193201
1614	0.0225947
1626	0.0340558
1638	0.0844847
1650	0.167496
1662	0.440597
1674	1.00154
1686	1.22061
1698	1.6373
1710	1.24369
1722	0.955528
1734	0.153088
1746	0.0450258
1758	0.0332372
1770	0.0289802
1782	0.0273429
1794	0.0175191
1806	0.0162093
1818	0.0152269
1830	0.0132621
1842	0.014572
1854	0.0158818
1866	0.0130984
1878	0.0139171
1890	0.0130984
1902	0.0147357
1914	0.0140808
1926	0.0148994
1938	0.0157181
1950	0.0173554
1962	0.0222673
1974	0.0263605
1986	0.0260331
1998	0.0214486
2010	0.0171916
2022	0.0178466
2034	0.026688
2046	0.0558319
2058	0.109044
2070	0.161438
2082	0.158818
2094	0.148503
2106	0.18305
2118	0.263442
2130	0.247887
2142	0.200897
2154	0.110518
2166	0.075807
2178	0.0699127
2190	0.0826836
2202	0.108062
2214	0.154889
2226	0.121651
2238	0.0998753
2250	0.0759707
2262	0.0456807
2274	0.0325823
2286	0.0278341
2298	0.0253782
2310	0.0225947
2322	0.0180103
2334	0.0144082
2346	0.0132621
2358	0.0119523
2370	0.0111336
2382	0.0126072
2394	0.0122798
2406	0.0127709
2418	0.0104787
2430	0.00900515
2442	0.0081865
2454	0.00769531
2466	0.00753158
2478	0.00785904
2490	0.00884142
2502	0.00933261
2514	0.010315
2526	0.0111336
2538	0.0109699
2550	0.00966007
2562	0.00867769
2574	0.00785904
2586	0.00769531
2598	0.00785904
2610	0.00802277
2622	0.0081865
2634	0.00802277
2646	0.00785904
2658	0.00753158
2670	0.00687666
2682	0.0065492
2694	0.00671293
2706	0.0081865
2718	0.00949634
2730	0.00916888
2742	0.00851396
2754	0.00720412
2766	0.00589428
2778	0.00556682
2790	0.00605801
2802	0.00589428
2814	0.00605801
2826	0.00622174
2838	0.00671293
2850	0.00720412
2862	0.00736785
2874	0.00638547
2886	0.00589428
2898	0.00638547
2910	0.00736785
2922	0.00916888
2934	0.00884142
2946	0.0081865
2958	0.00736785
2970	0.00687666
2982	0.00671293
2994	0.00687666
3006	0.00704039
3018	0.00802277
3030	0.00949634
3042	0.0109699
3054	0.0116248
3066	0.0119523
3078	0.0101513
3090	0.00933261
3102	0.00736785
3114	0.00720412
3126	0.00753158
3138	0.00785904
3150	0.00769531
3162	0.00753158
3174	0.00704039
3186	0.00720412
3198	0.00687666
3210	0.00720412
3222	0.0065492
3234	0.00638547
3246	0.00671293
3258	0.00769531
3270	0.00785904
3282	0.00769531
3294	0.00769531
3306	0.00769531
3318	0.00802277
3330	0.0081865
3342	0.0106425
3354	0.0126072
3366	0.0167005
3378	0.0167005
3390	0.0142445
3402	0.00900515
3414	0.0081865
3426	0.00753158
3438	0.00523936
3450	0.00589428
3462	0.00720412
3474	0.00753158
3486	0.00720412
3498	0.00753158
3510	0.00671293
3522	0.00736785
3534	0.00622174
3546	0.00622174
3558	0.00638547
3570	0.00589428
3582	0.0065492
3594	0.00720412
3606	0.00687666
3618	0.0065492
3630	0.00622174
3642	0.00687666
3654	0.00589428
3666	0.00573055
3678	0.00589428
3690	0.00704039
3702	0.00605801
3714	0.00687666
3726	0.00638547
3738	0.00753158
3750	0.0065492
3762	0.00769531
3774	0.00769531
3786	0.00785904
3798	0.00933261
3810	0.00933261
3822	0.00867769
3834	0.0106425
3846	0.00884142
3858	0.00867769
3870	0.00720412
3882	0.00540309
3894	0.00704039
3906	0.00753158
3918	0.00769531
3930	0.00753158
3942	0.00835023
3954	0.00753158
3966	0.00720412
