Infrared Spectrum: Benzoic acid, 4-fluoro-, ethyl ester
Formula: C 9 H 9 F O 2
CAS: 451-46-7
Origin: Sadtler Research Labs Under US-EPA Contract
1/CM	ABSORBANCE
450	0.00227527
462	0.00581458
474	0.00985951
486	0.00973311
498	0.0218679
510	0.0169381
522	0.00733143
534	0.00391852
546	0.00252808
558	0.00922749
570	0.00366572
582	0.0063202
594	0.0142837
606	0.0940446
618	0.0265448
630	0.00846907
642	0.00379212
654	0.00492976
666	0.0061938
678	0.0185814
690	0.0273033
702	0.0136516
714	0.00391852
726	0.00429774
738	0.00480335
750	0.0142837
762	0.0629492
774	0.0983423
786	0.0340027
798	0.0182022
810	0.0317274
822	0.0230055
834	0.0267976
846	0.0728087
858	0.118188
870	0.0365308
882	0.01125
894	0.00796345
906	0.00720503
918	0.00745784
930	0.00834266
942	0.00556178
954	0.00530897
966	0.00720503
978	0.00808986
990	0.0115028
1002	0.020351
1014	0.0702806
1026	0.0613059
1038	0.0221207
1050	0.0135252
1062	0.0182022
1074	0.0400701
1086	0.164072
1098	0.273033
1110	0.600293
1122	0.206165
1134	0.0630756
1146	0.0608003
1158	0.251923
1170	0.0458847
1182	0.0455054
1194	0.0273033
1206	0.0367836
1218	0.0541009
1230	0.0748312
1242	0.397414
1254	0.235491
1266	0.764112
1278	1.14168
1290	0.197949
1302	0.121348
1314	0.0581458
1326	0.0385532
1338	0.0163061
1350	0.0151685
1362	0.0336235
1374	0.0855755
1386	0.0304634
1398	0.0334971
1410	0.05132
1422	0.0424717
1434	0.0176966
1446	0.0230055
1458	0.0265448
1470	0.038806
1482	0.0302106
1494	0.0240168
1506	0.154339
1518	0.135758
1530	0.0122612
1542	0.00657301
1554	0.00973311
1566	0.00985951
1578	0.0187078
1590	0.0530897
1602	0.195041
1614	0.187963
1626	0.044115
1638	0.0150421
1650	0.00556178
1662	0.0115028
1674	0.0128932
1686	0.0126404
1698	0.0179494
1710	0.0289465
1722	0.0690166
1734	0.319044
1746	0.574885
1758	0.170645
1770	0.0266712
1782	0.0151685
1794	0.00985951
1806	0.00884828
1818	0.00530897
1830	0.00278089
1842	0.00227527
1854	0.0031601
1866	0.00214887
1878	0.00379212
1890	0.00417133
1902	0.0063202
1914	0.00884828
1926	0.00695222
1938	0.0030337
1950	0.00278089
1962	0.00455054
1974	0.00404493
1986	0.0030337
1998	0.00164325
2010	0.00176966
2022	0.00164325
2034	0.00353931
2046	0.00379212
2058	0.0032865
2070	0.00164325
2082	0.00126404
2094	0.00164325
2106	0.00202246
2118	0.00341291
2130	0.00391852
2142	0.00214887
2154	0.00063202
2166	0.000126404
2178	0.000126404
2190	0.000126404
2202	0.000126404
2214	0.00063202
2226	0.00101123
2238	0.00151685
2250	0.00176966
2262	0.00139044
2274	0.000884828
2286	0.00113764
2298	0.00139044
2310	0.000758424
2322	0
2334	0
2346	0.00176966
2358	0.00164325
2370	0.0032865
2382	0.00442414
2394	0.00379212
2406	0.00366572
2418	0.00265448
2430	0.00151685
2442	0.00139044
2454	0.00176966
2466	0.00290729
2478	0.00341291
2490	0.00240168
2502	0.00139044
2514	0.000505616
2526	0.00139044
2538	0.00101123
2550	0.00164325
2562	0.00214887
2574	0.0031601
2586	0.0032865
2598	0.0031601
2610	0.00240168
2622	0.00214887
2634	0.00113764
2646	0.00126404
2658	0.000884828
2670	0.000758424
2682	0.000758424
2694	0.00063202
2706	0.000758424
2718	0.000758424
2730	0.00151685
2742	0.00214887
2754	0.00240168
2766	0.00240168
2778	0.0030337
2790	0.00278089
2802	0.00252808
2814	0.00240168
2826	0.00366572
2838	0.00379212
2850	0.00505616
2862	0.00669941
2874	0.0102387
2886	0.018455
2898	0.018455
2910	0.0228791
2922	0.025028
2934	0.0255336
2946	0.0462639
2958	0.0379212
2970	0.0456318
2982	0.0839323
2994	0.0966991
3006	0.0496768
3018	0.0246488
3030	0.0107443
3042	0.00606739
3054	0.00543537
3066	0.00695222
3078	0.0113764
3090	0.0173173
3102	0.00480335
3114	0.00429774
3126	0.00505616
3138	0.00278089
3150	0.00176966
3162	0.00139044
3174	0.00164325
3186	0.00176966
3198	0.00227527
3210	0.00113764
3222	0.00126404
3234	0.00113764
3246	0.000884828
3258	0.000884828
3270	0.00126404
3282	0.000884828
3294	0.00101123
3306	0.000758424
3318	0.000758424
3330	0.00126404
3342	0.00126404
3354	0.00164325
3366	0.00151685
3378	0.00126404
3390	0.00151685
3402	0.00113764
3414	0.000379212
3426	0.000758424
3438	0.00139044
3450	0.00202246
3462	0.00391852
3474	0.00278089
3486	0.00063202
3498	0.00113764
3510	0.000126404
3522	0.000758424
3534	0.00063202
3546	0.00101123
3558	0.000505616
3570	0.000884828
3582	0.00113764
3594	0.00164325
3606	0.00063202
3618	0.000758424
3630	0.000126404
3642	0.00139044
3654	0.00151685
3666	0.000758424
3678	0.00139044
3690	0.00227527
3702	0.000758424
3714	0.00151685
3726	0
3738	0.000884828
3750	0.00214887
3762	0.00176966
3774	0.000379212
3786	0.000126404
3798	0.00139044
3810	0.00063202
3822	0.00176966
3834	0.00063202
3846	0.00227527
3858	0.000505616
3870	0.00240168
3882	0.00126404
3894	0.00101123
3906	0.00202246
3918	0.00126404
3930	0.00126404
3942	0.00063202
3954	0.000758424
3966	0.00176966
