Infrared Spectrum: Benzenamine, 4-fluoro-2-methyl-
Formula: C 7 H 8 F N
CAS: 452-71-1
Origin: Sadtler Research Labs Under US-EPA Contract
1/CM	ABSORBANCE
450	0.0585839
462	0.0369039
474	0.0267015
486	0.0418456
498	0.0315636
510	0.0213612
522	0.0213612
534	0.0217597
546	0.045831
558	0.068308
570	0.0389762
582	0.0280565
594	0.0293318
606	0.0412877
618	0.0525263
630	0.0573883
642	0.0690254
654	0.0781119
666	0.0707789
678	0.0507727
690	0.0435992
702	0.046628
714	0.0784307
726	0.0708586
738	0.031723
750	0.031723
762	0.0498162
774	0.0467874
786	0.0392154
798	0.104016
810	0.115733
822	0.0540407
834	0.0217597
846	0.0386574
858	0.0865607
870	0.101306
882	0.0429615
894	0.0118762
906	0.00852854
918	0.00868795
930	0.0111588
942	0.0325998
954	0.0722136
966	0.0465483
978	0.0220786
990	0.0542001
1002	0.0682283
1014	0.0264624
1026	0.0129124
1038	0.0116371
1050	0.0129921
1062	0.0138688
1074	0.0131515
1086	0.0133906
1098	0.014108
1110	0.0192091
1122	0.0397733
1134	0.0660763
1146	0.143232
1158	0.125457
1170	0.0157021
1182	0.00916619
1194	0.0172165
1206	0.0551566
1218	0.145384
1230	0.297622
1242	0.219191
1254	0.0765178
1266	0.156303
1278	0.148014
1290	0.0465483
1302	0.0265421
1314	0.0184918
1326	0.00948501
1338	0.00143471
1350	0.00406501
1362	0.00502148
1374	0.00709383
1386	0.0123544
1398	0.00820972
1410	0.0209627
1422	0.0923793
1434	0.102422
1446	0.0472657
1458	0.0530842
1470	0.072373
1482	0.115414
1494	0.338193
1506	0.787894
1518	0.557862
1530	0.0750033
1542	0.0197671
1554	0.0205641
1566	0.0216003
1578	0.0292521
1590	0.0595404
1602	0.123305
1614	0.177346
1626	0.150326
1638	0.0871984
1650	0.0373821
1662	0.0184121
1674	0.00709383
1686	0.00430412
1698	0.00159412
1710	0.00980384
1722	0.0138688
1734	0.00629677
1746	0.00286942
1758	0.00247089
1770	0.00143471
1782	0.00223177
1794	0.000637648
1806	0.00207236
1818	0.00597795
1830	0.0119559
1842	0.0124341
1854	0.00789089
1866	0.00470265
1878	0.00462295
1890	0.00255059
1902	0.00286942
1914	0.00175353
1926	0.00175353
1938	0.00231147
1950	0.00334765
1962	0.00271
1974	0.00247089
1986	0.00294912
1998	0.00271
2010	0.00239118
2022	0.00143471
2034	0.00159412
2046	0.00223177
2058	0.00278971
2070	0.00191294
2082	0.00151441
2094	0.00143471
2106	0.00175353
2118	0.00159412
2130	0.000876766
2142	0.000557942
2154	0.00167383
2166	0.00207236
2178	0.0026303
2190	0.00286942
2202	0.001355
2214	0.0012753
2226	0.00191294
2238	0.00191294
2250	0.00143471
2262	0.00143471
2274	0.00215206
2286	0.00247089
2298	0.00167383
2310	0.00278971
2322	0.00342736
2334	0.00366648
2346	0.00255059
2358	0.0026303
2370	0.00111588
2382	0.00111588
2394	0.00119559
2406	0.00207236
2418	0.00247089
2430	0.00247089
2442	0.00159412
2454	0.0012753
2466	0.00143471
2478	0.00143471
2490	0.00223177
2502	0.00286942
2514	0.00366648
2526	0.0026303
2538	0.00255059
2550	0.00286942
2562	0.00223177
2574	0.00231147
2586	0.00223177
2598	0.00151441
2610	0.00199265
2622	0.00175353
2634	0.00159412
2646	0.00175353
2658	0.00175353
2670	0.00191294
2682	0.00159412
2694	0.00111588
2706	0.00175353
2718	0.00191294
2730	0.00223177
2742	0.00693442
2754	0.00637648
2766	0.00310853
2778	0.00326795
2790	0.00374618
2802	0.00390559
2814	0.00565913
2826	0.00701413
2838	0.010043
2850	0.0151441
2862	0.0296506
2874	0.0491786
2886	0.0437586
2898	0.0396936
2910	0.0546783
2922	0.0632069
2934	0.0674313
2946	0.0667139
2958	0.0424833
2970	0.0368242
2982	0.0454324
2994	0.0375415
3006	0.0224771
3018	0.0219191
3030	0.0495771
3042	0.0697427
3054	0.0396139
3066	0.0202453
3078	0.022238
3090	0.0197671
3102	0.01355
3114	0.0106806
3126	0.0106009
3138	0.00805031
3150	0.00605766
3162	0.00542001
3174	0.00438383
3186	0.0039853
3198	0.00454324
3210	0.00542001
3222	0.00653589
3234	0.00685472
3246	0.00685472
3258	0.0053403
3270	0.00486207
3282	0.00358677
3294	0.00326795
3306	0.00374618
3318	0.00374618
3330	0.00414471
3342	0.00406501
3354	0.00342736
3366	0.00494177
3378	0.00518089
3390	0.01084
3402	0.0253465
3414	0.0235133
3426	0.0102821
3438	0.00677501
3450	0.00789089
3462	0.0119559
3474	0.0263827
3486	0.0362662
3498	0.0290927
3510	0.014108
3522	0.0093256
3534	0.00549971
3546	0.00486207
3558	0.00382589
3570	0.00294912
3582	0.00318824
3594	0.00446354
3606	0.00286942
3618	0.00350706
3630	0.00302883
3642	0.00151441
3654	0.00239118
3666	0.00239118
3678	0.00151441
3690	0.00302883
3702	0.00215206
3714	0.00223177
3726	0.00446354
3738	0.00310853
3750	0.0039853
3762	0.00302883
3774	0.00255059
3786	0.00486207
3798	0.00366648
3810	0.00358677
3822	0.00510118
3834	0.0052606
3846	0.0053403
3858	0.0053403
3870	0.00685472
3882	0.00286942
3894	0.00589824
3906	0.00215206
3918	0.00709383
3930	0.00773148
3942	0.00549971
3954	0.0026303
3966	0.00438383
