Infrared Spectrum: 4-Fluoro-3-methylaniline
Formula: C 7 H 8 F N
CAS: 452-69-7
Origin: Sadtler Research Labs Under US-EPA Contract
1/CM	ABSORBANCE
450	0.0685565
462	0.0861577
474	0.0575456
486	0.0552952
498	0.0519197
510	0.035524
522	0.0285317
534	0.0478207
546	0.0517589
558	0.0410696
570	0.0434807
582	0.0324699
594	0.0210572
606	0.0167172
618	0.0410696
630	0.0572242
642	0.156563
654	0.204303
666	0.144909
678	0.145713
690	0.114529
702	0.073218
714	0.0555364
726	0.0592334
738	0.0415518
750	0.0640557
762	0.145713
774	0.0771562
786	0.061082
798	0.136309
810	0.124575
822	0.0517589
834	0.0364884
846	0.0854344
858	0.0777991
870	0.0365688
882	0.013422
894	0.00425966
906	0.00217002
918	0.0131808
930	0.0150294
942	0.00594745
954	0.00586708
966	0.0101267
978	0.00940341
990	0.0178424
1002	0.0312643
1014	0.0180031
1026	0.0126986
1038	0.0131808
1050	0.0186461
1062	0.0203339
1074	0.0319877
1086	0.0410696
1098	0.0343988
1110	0.0430789
1122	0.0401051
1134	0.0256383
1146	0.0210572
1158	0.0219413
1170	0.014949
1182	0.0138238
1194	0.0656631
1206	0.173682
1218	0.512204
1230	0.582047
1242	0.118306
1254	0.0421948
1266	0.0268439
1278	0.0238702
1290	0.0489459
1302	0.078201
1314	0.0589119
1326	0.0107697
1338	0.00281298
1350	0.00474189
1362	0.0104482
1374	0.00956415
1386	0.0136631
1398	0.0183246
1410	0.0151901
1422	0.0353632
1434	0.0652613
1446	0.0784421
1458	0.0753076
1470	0.0605997
1482	0.129558
1494	0.341175
1506	0.792458
1518	0.633484
1530	0.152464
1542	0.0841484
1554	0.0445255
1566	0.0297373
1578	0.0434807
1590	0.0578671
1602	0.0835858
1614	0.164439
1626	0.233076
1638	0.196346
1650	0.0949985
1662	0.035524
1674	0.0250758
1686	0.0261206
1698	0.0264421
1710	0.0163957
1722	0.0138238
1734	0.0252365
1746	0.0180031
1758	0.0189676
1770	0.0167975
1782	0.0118949
1794	0.0131005
1806	0.00466152
1818	0.00731376
1830	0.0170387
1842	0.0141453
1854	0.00940341
1866	0.00618857
1878	0.00401855
1890	0.00570634
1902	0.00434003
1914	0.00297373
1926	0.00136631
1938	0.0030541
1950	0.00393818
1962	0.00337558
1974	0.00546523
1986	0.00755487
1998	0.00434003
2010	0.00297373
2022	0.0044204
2034	0.00377744
2046	0.00297373
2058	0.00409892
2070	0.00313447
2082	0.00225039
2094	0.00458115
2106	0.00225039
2118	0.000723339
2130	0.00273261
2142	0.00393818
2154	0.00184853
2166	0.00233076
2178	0.00417929
2190	0.00273261
2202	0.00257187
2214	0.00313447
2226	0.00208965
2238	0.00353632
2250	0.00562597
2262	0.00474189
2274	0.00482226
2286	0.00570634
2298	0.00401855
2310	0.00136631
2322	0.000482226
2334	0.000642968
2346	0.000642968
2358	0.000642968
2370	0.000642968
2382	0.000884081
2394	0.00257187
2406	0.00401855
2418	0.00522411
2430	0.00474189
2442	0.00546523
2454	0.00586708
2466	0.00490263
2478	0.00651005
2490	0.00466152
2502	0.00257187
2514	0.00482226
2526	0.00731376
2538	0.00530449
2550	0.0044204
2562	0.00578671
2574	0.00482226
2586	0.00313447
2598	0.00530449
2610	0.004983
2622	0.00208965
2634	0.00337558
2646	0.00458115
2658	0.00257187
2670	0.00377744
2682	0.00514374
2694	0.00546523
2706	0.00562597
2718	0.00651005
2730	0.00506337
2742	0.00731376
2754	0.0107697
2766	0.00659042
2778	0.00241113
2790	0.00538486
2802	0.00651005
2814	0.00490263
2826	0.00634931
2838	0.00988563
2850	0.0115734
2862	0.0213787
2874	0.0360062
2886	0.0359258
2898	0.0308625
2910	0.0358455
2922	0.0493478
2934	0.0811747
2946	0.0820588
2958	0.0492674
2970	0.04332
2982	0.0463741
2994	0.0401051
3006	0.0319877
3018	0.0665472
3030	0.107054
3042	0.0827018
3054	0.0591531
3066	0.0440433
3078	0.0291747
3090	0.0188068
3102	0.0140649
3114	0.010609
3126	0.00843895
3138	0.00956415
3150	0.00827821
3162	0.0044204
3174	0.00353632
3186	0.00667079
3198	0.00401855
3210	0.00586708
3222	0.00980526
3234	0.00642968
3246	0.00602782
3258	0.0100464
3270	0.00811747
3282	0.00120556
3294	0.00321484
3306	0.00683153
3318	0.00241113
3330	0.0030541
3342	0.00385781
3354	0.00265224
3366	0.00458115
3378	0.0100464
3390	0.0147883
3402	0.0297373
3414	0.039864
3426	0.0187264
3438	0.0055456
3450	0.0104482
3462	0.0155116
3474	0.0216198
3486	0.0321484
3498	0.0337558
3510	0.017119
3522	0.00651005
3534	0.00948378
3546	0.00900155
3558	0.00313447
3570	0.00851933
3582	0.00586708
3594	0.00578671
3606	0.00691191
3618	0.00851933
3630	0.0111716
3642	0.00739413
3654	0.0112519
3666	0.004983
3678	0.0123771
3690	0.0150294
3702	0.00691191
3714	0.00916229
3726	0.00980526
3738	0.015592
3750	0.0170387
3762	0.00900155
3774	0.00731376
3786	0.00699228
3798	0.0107697
3810	0.0116538
3822	0.0126182
3834	0.0157527
3846	0.0142257
3858	0.0126182
3870	0.0164761
3882	0.0164761
3894	0.0119753
3906	0.0103679
3918	0.014949
3930	0.0131005
3942	0.00602782
3954	0
3966	0.000642968
