Infrared Spectrum: 2,5-Difluorotoluene
Formula: C 7 H 6 F 2
CAS: 452-67-5
Origin: Sadtler Research Labs Under US-EPA Contract
1/CM	ABSORBANCE
450	0
462	0.022025
474	0.012389
486	0.0231434
498	0.014626
510	0.0118728
522	0.0203903
534	0.0131634
546	0.0209925
558	0.027101
570	0.0337257
582	0.0205624
594	0.0152282
606	0.0143678
618	0.0141097
630	0.0154003
642	0.0112706
654	0.0141958
666	0.0133354
678	0.0142818
690	0.0188417
702	0.0265848
714	0.12845
726	0.157014
738	0.0365649
750	0.0616011
762	0.154949
774	0.118986
786	0.0330374
798	0.0911971
810	0.209409
822	0.0925737
834	0.0237457
846	0.0381995
858	0.0970475
870	0.164069
882	0.0622033
894	0.0208205
906	0.0143678
918	0.0137656
930	0.0210786
942	0.0423292
954	0.0506746
966	0.0283055
978	0.0287357
990	0.044222
1002	0.0536858
1014	0.0355325
1026	0.019788
1038	0.0174651
1050	0.0168629
1062	0.0177232
1074	0.0173791
1086	0.0229713
1098	0.0355325
1110	0.029424
1122	0.0193579
1134	0.0622033
1146	0.100489
1158	0.0461148
1170	0.0308866
1182	0.0776896
1194	0.395761
1206	0.617903
1218	0.334246
1230	0.0867233
1242	0.1035
1254	0.093348
1266	0.0548903
1278	0.0609988
1290	0.0622033
1302	0.0305424
1314	0.0153142
1326	0.0137656
1338	0.0153142
1350	0.0160025
1362	0.0184115
1374	0.0240038
1386	0.0276172
1398	0.0274452
1410	0.0459427
1422	0.100833
1434	0.104446
1446	0.0588479
1458	0.039318
1470	0.0480936
1482	0.186524
1494	0.594244
1506	0.840906
1518	0.378382
1530	0.113222
1542	0.0646983
1554	0.0414689
1566	0.0340699
1578	0.0336397
1590	0.0454265
1602	0.0484377
1614	0.0412968
1626	0.0484377
1638	0.0437058
1650	0.0254664
1662	0.0170349
1674	0.0166048
1686	0.0139377
1698	0.0121309
1710	0.0152282
1722	0.0226272
1734	0.0236596
1746	0.0154003
1758	0.0114427
1770	0.0113566
1782	0.0117868
1794	0.0113566
1806	0.0114427
1818	0.012303
1830	0.0135935
1842	0.022025
1854	0.0250362
1866	0.0178092
1878	0.0126471
1890	0.0111845
1902	0.0110125
1914	0.0112706
1926	0.0109264
1938	0.0109264
1950	0.012217
1962	0.012217
1974	0.0119589
1986	0.0135935
1998	0.0144539
2010	0.0140237
2022	0.0125611
2034	0.0110985
2046	0.012217
2058	0.0118728
2070	0.00937781
2082	0.0108404
2094	0.0115287
2106	0.00998006
2118	0.0106683
2130	0.0104963
2142	0.0113566
2154	0.0119589
2166	0.0108404
2178	0.00989402
2190	0.0113566
2202	0.0110125
2214	0.0109264
2226	0.0113566
2238	0.0116147
2250	0.0114427
2262	0.012217
2274	0.0118728
2286	0.0119589
2298	0.0115287
2310	0.0108404
2322	0.0116147
2334	0.0110125
2346	0.0110125
2358	0.00998006
2370	0.0140237
2382	0.0134215
2394	0.012217
2406	0.0118728
2418	0.0126471
2430	0.0129913
2442	0.0125611
2454	0.0121309
2466	0.0119589
2478	0.0129913
2490	0.0125611
2502	0.0118728
2514	0.0106683
2526	0.0115287
2538	0.0112706
2550	0.0104963
2562	0.0111845
2574	0.0105823
2586	0.0101521
2598	0.00980799
2610	0.00998006
2622	0.00946385
2634	0.00989402
2646	0.00868953
2658	0.00980799
2670	0.0105823
2682	0.00929178
2694	0.00972195
2706	0.0107544
2718	0.0100661
2730	0.0108404
2742	0.0117868
2754	0.0126471
2766	0.0119589
2778	0.0117008
2790	0.0104963
2802	0.0112706
2814	0.0120449
2826	0.012303
2838	0.0137656
2850	0.0158304
2862	0.0210786
2874	0.0300262
2886	0.0312307
2898	0.0288217
2910	0.0318329
2922	0.0361347
2934	0.05902
2946	0.0699465
2958	0.0456846
2970	0.0380275
2982	0.0380275
2994	0.0374252
3006	0.0282195
3018	0.0195299
3030	0.0203043
3042	0.0268429
3054	0.0379414
3066	0.0350162
3078	0.0226272
3090	0.0198741
3102	0.0173791
3114	0.014626
3126	0.012303
3138	0.012217
3150	0.012389
3162	0.0100661
3174	0.0105823
3186	0.0102382
3198	0.0106683
3210	0.0116147
3222	0.00929178
3234	0.0118728
3246	0.0106683
3258	0.0111845
3270	0.00998006
3282	0.0111845
3294	0.0108404
3306	0.00972195
3318	0.0100661
3330	0.0108404
3342	0.0110125
3354	0.0107544
3366	0.00980799
3378	0.00963592
3390	0.00989402
3402	0.00980799
3414	0.0117868
3426	0.0110985
3438	0.0116147
3450	0.00946385
3462	0.0107544
3474	0.00937781
3486	0.0115287
3498	0.0110125
3510	0.00998006
3522	0.0121309
3534	0.0112706
3546	0.0117868
3558	0.0102382
3570	0.0142818
3582	0.0109264
3594	0.0118728
3606	0.0127332
3618	0.0128192
3630	0.0113566
3642	0.0125611
3654	0.0126471
3666	0.0129053
3678	0.0135075
3690	0.0129913
3702	0.0129913
3714	0.0140237
3726	0.0117008
3738	0.0133354
3750	0.0124751
3762	0.0130773
3774	0.012217
3786	0.0152282
3798	0.0144539
3810	0.0143678
3822	0.0131634
3834	0.0144539
3846	0.0126471
3858	0.0115287
3870	0.0163467
3882	0.0141958
3894	0.012303
3906	0.0141097
3918	0.0115287
3930	0.0107544
3942	0.0135935
3954	0.0173791
3966	0.0125611
