Infrared Spectrum: Ethanol, 2-(dodecyloxy)-
Formula: C 14 H 30 O 2
CAS: 4536-30-5
Origin: Sadtler Research Labs Under US-EPA Contract
1/CM	ABSORBANCE
450	0.0329825
462	0.0429618
474	0.022834
486	0.0250329
498	0.0350122
510	0.00981018
522	0.0231723
534	0.0238489
546	0.0201278
558	0.0164067
570	0.0265551
582	0.0148844
594	0.0140387
606	0.0179289
618	0.00964104
630	0.0150535
642	0.0140387
654	0.0162375
666	0.0180981
678	0.0204661
690	0.0209735
702	0.0223266
714	0.0399173
726	0.0306145
738	0.0065965
750	0.0368727
762	0.0231723
774	0.0204661
786	0.0277391
798	0.0274008
810	0.0179289
822	0.0289231
834	0.0289231
846	0.0351813
858	0.0456681
870	0.0468521
882	0.0556474
894	0.0568314
906	0.0485435
918	0.0446532
930	0.0399173
942	0.0343356
954	0.0387333
966	0.0449915
978	0.0485435
990	0.0532794
1002	0.0657958
1014	0.0857545
1026	0.125333
1038	0.18115
1050	0.259462
1062	0.318831
1074	0.253712
1086	0.18707
1098	0.200601
1110	0.327964
1122	0.495245
1134	0.403063
1146	0.197557
1158	0.116538
1170	0.092351
1182	0.0850779
1194	0.0707009
1206	0.0619056
1218	0.0652884
1230	0.0605525
1242	0.0652884
1254	0.0691787
1266	0.0678255
1278	0.0681638
1290	0.0634279
1302	0.064781
1314	0.0598759
1326	0.0598759
1338	0.0825408
1350	0.132099
1362	0.152227
1374	0.105544
1386	0.092351
1398	0.0762826
1410	0.0588611
1422	0.048036
1434	0.0548017
1446	0.0869385
1458	0.145123
1470	0.133791
1482	0.0685021
1494	0.0323059
1506	0.0201278
1518	0.013193
1530	0.00981018
1542	0.00727306
1554	0.00727306
1566	0.00676564
1578	0.00591994
1590	0.00541251
1602	0.00422853
1614	0.00405938
1626	0.00321368
1638	0.00270626
1650	0.00202969
1662	0.00422853
1674	0.00321368
1686	0.00236797
1698	0.0028754
1710	0.00591994
1722	0.00913361
1734	0.0162375
1746	0.0319676
1758	0.0290923
1770	0.0177598
1782	0.0126856
1794	0.00896447
1806	0.00591994
1818	0.00389024
1830	0.00169141
1842	0.00169141
1854	0.00118399
1866	0.00152227
1878	0.00219883
1890	0.00219883
1902	0.00202969
1914	0.0028754
1926	0.00321368
1938	0.0037211
1950	0.00439767
1962	0.00456681
1974	0.0037211
1986	0.00270626
1998	0.00219883
2010	0.00236797
2022	0.00304454
2034	0.00304454
2046	0.00304454
2058	0.00270626
2070	0.0028754
2082	0.00270626
2094	0.00304454
2106	0.0028754
2118	0.00270626
2130	0.00253712
2142	0.00219883
2154	0.00236797
2166	0.00169141
2178	0.00169141
2190	0.000676564
2202	0.000676564
2214	0.000338282
2226	0.000338282
2238	0.00101485
2250	0.00135313
2262	0.00118399
2274	0.000676564
2286	0.00186055
2298	0.00253712
2310	0.00338282
2322	0.00456681
2334	0.00507423
2346	0.0037211
2358	0.00507423
2370	0.00405938
2382	0.00236797
2394	0.00135313
2406	0.00118399
2418	0.000845705
2430	0.000676564
2442	0.00101485
2454	0.00101485
2466	0.00118399
2478	0.000845705
2490	0.00118399
2502	0.00135313
2514	0.00236797
2526	0.00304454
2538	0.00422853
2550	0.00422853
2562	0.00422853
2574	0.00507423
2586	0.00591994
2598	0.00676564
2610	0.00761135
2622	0.00879533
2634	0.00997932
2646	0.0118399
2658	0.0145461
2670	0.0180981
2682	0.02165
2694	0.0243563
2706	0.0246946
2718	0.026386
2730	0.0295997
2742	0.0323059
2754	0.0336591
2766	0.0375493
2778	0.0449915
2790	0.0546325
2802	0.0661341
2814	0.081526
2826	0.109942
2838	0.169818
2850	0.344709
2862	0.774158
2874	0.717496
2886	0.558334
2898	0.492369
2910	0.645442
2922	1.07591
2934	1.69141
2946	1.20801
2958	0.68316
2970	0.5218
2982	0.22834
2994	0.11231
3006	0.0676564
3018	0.0461755
3030	0.0339973
3042	0.0255403
3054	0.0191129
3066	0.0152227
3078	0.0125164
3090	0.0104867
3102	0.00896447
3114	0.00828791
3126	0.00794963
3138	0.0065965
3150	0.00558165
3162	0.00439767
3174	0.00507423
3186	0.00456681
3198	0.00389024
3210	0.00270626
3222	0.00186055
3234	0.00169141
3246	0.00135313
3258	0.00186055
3270	0.00186055
3282	0.00118399
3294	0.00152227
3306	0.00152227
3318	0.00118399
3330	0.000676564
3342	0.00219883
3354	0.00152227
3366	0.000676564
3378	0.00101485
3390	0.000507423
3402	0.00118399
3414	0.00169141
3426	0.00169141
3438	0.00169141
3450	0.00101485
3462	0.00152227
3474	0.00169141
3486	0.00236797
3498	0.00186055
3510	0.00270626
3522	0.00186055
3534	0.00202969
3546	0.00270626
3558	0.00338282
3570	0.00625822
3582	0.00778049
3594	0.00845705
3606	0.0140387
3618	0.0309528
3630	0.0625822
3642	0.0429618
3654	0.0248637
3666	0.0262169
3678	0.0191129
3690	0.013193
3702	0.00913361
3714	0.00558165
3726	0.00490509
3738	0.00473595
3750	0.00321368
3762	0.00355196
3774	0.0037211
3786	0.00405938
3798	0.00202969
3810	0.00253712
3822	0.000676564
3834	0.00253712
3846	0.00270626
3858	0.00135313
3870	0.00270626
3882	0.00135313
3894	0.00118399
3906	0.00219883
3918	0.00219883
3930	0.00389024
3942	0.00389024
3954	0.000169141
3966	0.00219883
