Infrared Spectrum: Heptane, 1,7-dibromo-
Formula: C 7 H 14 Br 2
CAS: 4549-31-9
Origin: Sadtler Research Labs Under US-EPA Contract
1/CM	ABSORBANCE
450	0.0181532
462	0.020994
474	0.0151739
486	0.0155896
498	0.0160053
510	0.0228647
522	0.00679013
534	0.0200239
546	0.0351285
558	0.0588247
570	0.10885
582	0.0422651
594	0.0187075
606	0.00207861
618	0.0152431
630	0.0400479
642	0.0839066
654	0.116956
666	0.0356828
678	0.00831444
690	0.0101159
702	0.0138574
714	0.0319413
726	0.0601411
738	0.0457987
750	0.0277148
762	0.0217561
774	0.0153817
786	0.0157281
798	0.0198854
810	0.0188461
822	0.0207168
834	0.0125409
846	0.00595868
858	0.0122638
870	0.0146196
882	0.0143424
894	0.00866088
906	0.00900731
918	0.00706727
930	0.00997733
942	0.00762157
954	0.0112938
966	0.0112245
978	0.00720585
990	0.00602797
1002	0.00859159
1014	0.00949232
1026	0.0105316
1038	0.00866088
1050	0.00893802
1062	0.00824515
1074	0.0085223
1086	0.00644369
1098	0.00672084
1110	0.00291005
1122	0.000346435
1134	0.00145503
1146	0.0021479
1158	0.0058894
1170	0.00997733
1182	0.0170446
1194	0.0302091
1206	0.0766314
1218	0.114324
1230	0.112522
1242	0.156381
1254	0.186105
1266	0.186936
1278	0.178068
1290	0.111483
1302	0.0780172
1314	0.0568846
1326	0.0372764
1338	0.0381078
1350	0.0457294
1362	0.0446901
1374	0.0327728
1386	0.0175989
1398	0.013996
1410	0.0131645
1422	0.0302784
1434	0.0740678
1446	0.133031
1458	0.126864
1470	0.0773243
1482	0.029932
1494	0.0188461
1506	0.0342971
1518	0.0223104
1530	0.0117095
1542	0.0245969
1554	0.0126795
1566	0.00803729
1578	0.0128874
1590	0.00817587
1602	0.0156589
1614	0.0133724
1626	0.0127488
1638	0.015936
1650	0.0126102
1662	0.00762157
1674	0.0103931
1686	0.0208554
1698	0.0191232
1710	0.00949232
1722	0.00741371
1734	0.0153817
1746	0.00644369
1758	0.00297934
1770	0.00644369
1782	0.00893802
1794	0.013511
1806	0.00769086
1818	0.00595868
1830	0.00900731
1842	0.00776014
1854	0.00554296
1866	0.00679013
1878	0.00665155
1890	0.007483
1902	0.0047808
1914	0.00471152
1926	0.00630512
1938	0.00630512
1950	0.00575082
1962	0.00540439
1974	0.00568153
1986	0.00609726
1998	0.00408793
2010	0.00429579
2022	0.00568153
2034	0.00540439
2046	0.00561225
2058	0.00616654
2070	0.00595868
2082	0.0047808
2094	0.00263291
2106	0.00297934
2118	0.0047808
2130	0.00429579
2142	0.00443437
2154	0.00498866
2166	0.00485009
2178	0.00394936
2190	0.00228647
2202	0.00360292
2214	0.00450366
2226	0.00498866
2238	0.00443437
2250	0.00464223
2262	0.00381079
2274	0.00339506
2286	0.00388007
2298	0.00595868
2310	0.00789872
2322	0.00727514
2334	0.00727514
2346	0.00699799
2358	0.00734442
2370	0.00401865
2382	0.00415722
2394	0.00291005
2406	0.00200932
2418	0.00200932
2430	0.00228647
2442	0.00270219
2454	0.00200932
2466	0.0015936
2478	0.00249433
2490	0.00263291
2502	0.00242505
2514	0.00207861
2526	0.00187075
2538	0.00207861
2550	0.000138574
2562	0.000554296
2574	0.00291005
2586	0.00346435
2598	0.0037415
2610	0.00381079
2622	0.00408793
2634	0.00381079
2646	0.00429579
2658	0.00644369
2670	0.00886874
2682	0.0105316
2694	0.00997733
2706	0.00866088
2718	0.0058894
2730	0.00540439
2742	0.00623583
2754	0.00796801
2766	0.0102545
2778	0.0106702
2790	0.0112245
2802	0.0168367
2814	0.0223797
2826	0.0310406
2838	0.0584089
2850	0.124301
2862	0.237031
2874	0.25075
2886	0.158529
2898	0.173703
2910	0.213889
2922	0.314286
2934	0.55589
2946	0.689891
2958	0.357105
2970	0.29149
2982	0.179176
2994	0.075315
3006	0.0823822
3018	0.116818
3030	0.0345049
3042	0.0187768
3054	0.0126795
3066	0.00845301
3078	0.00616654
3090	0.00443437
3102	0.00429579
3114	0.00353364
3126	0.00547367
3138	0.00672084
3150	0.00277148
3162	0.00145503
3174	0.00152431
3186	0.00263291
3198	0.00325649
3210	0.00401865
3222	0.00526581
3234	0.00221718
3246	0.000207861
3258	6.9287e-05
3270	0.0031872
3282	0.0031872
3294	0.0037415
3306	0.00429579
3318	0.00221718
3330	0.00263291
3342	0.000970018
3354	0.00311792
3366	0.00575082
3378	0.00381079
3390	0.00491938
3402	0.00381079
3414	0.00401865
3426	0.00263291
3438	0.00332578
3450	0.00353364
3462	0.00526581
3474	0.00304863
3486	0.00381079
3498	0.00547367
3510	0.00505795
3522	0.00228647
3534	0.00304863
3546	0.00672084
3558	0.0053351
3570	0.0103238
3582	0.00755228
3594	0.00803729
3606	0.00464223
3618	0.00582011
3630	0.0137188
3642	0.00838373
3654	0.0103238
3666	0.00900731
3678	0.0153124
3690	0.0115016
3702	0.00665155
3714	0.00762157
3726	0.0102545
3738	0.0162824
3750	0.0164903
3762	0.00956161
3774	0.00568153
3786	0.00471152
3798	0.00651298
3810	0.00762157
3822	0.0137881
3834	0.0124024
3846	0.00990804
3858	0.00893802
3870	0.0113631
3882	0.00970018
3894	0.0104623
3906	0.0103931
3918	0.00762157
3930	0.00346435
3942	0.0031872
3954	0.0021479
3966	0.00263291
