Infrared Spectrum: Octane, 1,8-dibromo-
Formula: C 8 H 16 Br 2
CAS: 4549-32-0
Origin: Sadtler Research Labs Under US-EPA Contract
1/CM	ABSORBANCE
450	0
462	0.0156883
474	0.0177491
486	0.0127634
498	0.0124975
510	0.0157548
522	0.0152895
534	0.016619
546	0.0247291
558	0.0383567
570	0.080303
582	0.0426111
594	0.0184139
606	0.0157548
618	0.0190121
630	0.0263245
642	0.0556404
654	0.0893437
666	0.0390214
678	0.0214717
690	0.018015
702	0.0210064
714	0.0355647
726	0.0450707
738	0.0330386
750	0.0339028
762	0.0326397
774	0.0307119
786	0.0268563
798	0.0247291
810	0.026258
822	0.0236655
834	0.0223359
846	0.0221365
858	0.0222695
870	0.0210064
882	0.0218706
894	0.0220036
906	0.0211394
918	0.0200758
930	0.019411
942	0.0196104
954	0.0210729
966	0.0209399
978	0.0202752
990	0.0196104
1002	0.0188792
1014	0.0187462
1026	0.0201422
1038	0.0212058
1050	0.0213388
1062	0.0200093
1074	0.0183474
1086	0.0175497
1098	0.0166855
1110	0.0162866
1122	0.0165525
1134	0.0168184
1146	0.0179485
1158	0.0186133
1170	0.020674
1182	0.024862
1194	0.034501
1206	0.0607591
1218	0.0752508
1230	0.11507
1242	0.140331
1254	0.138204
1266	0.140996
1278	0.112411
1290	0.0977862
1302	0.0757826
1314	0.051253
1326	0.0370936
1338	0.0358306
1350	0.0442065
1362	0.0434753
1374	0.0335039
1386	0.0220036
1398	0.019278
1410	0.0202752
1422	0.0285182
1434	0.0628198
1446	0.108223
1458	0.0992487
1470	0.0714617
1482	0.0308449
1494	0.0185468
1506	0.0172838
1518	0.0158878
1530	0.0144918
1542	0.0147577
1554	0.0136276
1566	0.0133617
1578	0.0129628
1590	0.012431
1602	0.0120322
1614	0.0127634
1626	0.0124975
1638	0.0126969
1650	0.0123645
1662	0.0123645
1674	0.012564
1686	0.0126304
1698	0.0126969
1710	0.0124975
1722	0.0123645
1734	0.0127634
1746	0.0126304
1758	0.0122316
1770	0.0124975
1782	0.012564
1794	0.012564
1806	0.0122981
1818	0.0123645
1830	0.0122981
1842	0.0124975
1854	0.0122316
1866	0.0121651
1878	0.0123645
1890	0.0122316
1902	0.0122316
1914	0.0121651
1926	0.0120322
1938	0.0122316
1950	0.0122316
1962	0.0122316
1974	0.0121651
1986	0.0120986
1998	0.0126304
2010	0.0127634
2022	0.0126969
2034	0.0129628
2046	0.0129628
2058	0.0128299
2070	0.012431
2082	0.0124975
2094	0.0122981
2106	0.012431
2118	0.0126304
2130	0.012431
2142	0.012564
2154	0.0127634
2166	0.0130958
2178	0.0130958
2190	0.0130293
2202	0.0130958
2214	0.0131622
2226	0.0129628
2238	0.0131622
2250	0.0130958
2262	0.0131622
2274	0.0130958
2286	0.0132287
2298	0.0134282
2310	0.0146247
2322	0.0140264
2334	0.0128299
2346	0.0134946
2358	0.0140929
2370	0.0131622
2382	0.0127634
2394	0.012431
2406	0.0123645
2418	0.0122981
2430	0.0122316
2442	0.0122316
2454	0.0121651
2466	0.0120986
2478	0.0122316
2490	0.0122981
2502	0.012564
2514	0.0126304
2526	0.0127634
2538	0.0127634
2550	0.012431
2562	0.0128299
2574	0.0127634
2586	0.0134282
2598	0.0136276
2610	0.0144918
2622	0.0147577
2634	0.0156219
2646	0.0162866
2658	0.0162201
2670	0.0173502
2682	0.0182809
2694	0.0191451
2706	0.0181479
2718	0.0172838
2730	0.016752
2742	0.0169514
2754	0.0170843
2766	0.0174167
2778	0.0185468
2790	0.0212723
2802	0.0241973
2814	0.0281193
2826	0.0364288
2838	0.0563716
2850	0.114405
2862	0.240244
2874	0.239447
2886	0.141993
2898	0.154357
2910	0.196171
2922	0.316426
2934	0.574685
2946	0.617363
2958	0.284185
2970	0.234926
2982	0.139998
2994	0.0670743
3006	0.0733895
3018	0.101509
3030	0.0360965
3042	0.0251944
3054	0.0202752
3066	0.0177491
3078	0.0159542
3090	0.015223
3102	0.0145582
3114	0.0143588
3126	0.0140929
3138	0.0142259
3150	0.0136276
3162	0.0136941
3174	0.0136941
3186	0.0131622
3198	0.0128963
3210	0.0127634
3222	0.0126969
3234	0.0126969
3246	0.012564
3258	0.0126969
3270	0.012431
3282	0.0122316
3294	0.0122316
3306	0.0122316
3318	0.012564
3330	0.012564
3342	0.0128299
3354	0.0128299
3366	0.0128963
3378	0.0126304
3390	0.0124975
3402	0.0128299
3414	0.0124975
3426	0.012564
3438	0.012431
3450	0.0121651
3462	0.0123645
3474	0.0120986
3486	0.0122981
3498	0.0124975
3510	0.0124975
3522	0.012564
3534	0.0122316
3546	0.0121651
3558	0.0128299
3570	0.0122316
3582	0.0132952
3594	0.0126304
3606	0.0126304
3618	0.0134946
3630	0.0135611
3642	0.0130958
3654	0.0131622
3666	0.0132952
3678	0.0137605
3690	0.0131622
3702	0.0121651
3714	0.0122316
3726	0.0128963
3738	0.0130293
3750	0.0138935
3762	0.012431
3774	0.0127634
3786	0.0134282
3798	0.0126969
3810	0.0128299
3822	0.0136941
3834	0.0127634
3846	0.0133617
3858	0.0140264
3870	0.0135611
3882	0.0135611
3894	0.0134946
3906	0.0143588
3918	0.01396
3930	0.01396
3942	0.0140929
3954	0.0140929
3966	0.0129628
