Infrared Spectrum: Nonane, 1,9-dibromo-
Formula: C 9 H 18 Br 2
CAS: 4549-33-1
Origin: Sadtler Research Labs Under US-EPA Contract
1/CM	ABSORBANCE
450	0.0413247
462	0.0169587
474	0.0103312
486	0.00497066
498	0.00877176
510	0.00399602
522	0.00847937
534	0.0104286
546	0.0132551
558	0.0399602
570	0.0935654
582	0.0409349
594	0.0180308
606	0.0117931
618	0.0133526
630	0.0254381
642	0.056724
654	0.10224
666	0.0441512
678	0.0145221
690	0.0157892
702	0.0190055
714	0.0340149
726	0.0456132
738	0.0443461
750	0.0413247
762	0.0330403
774	0.0225142
786	0.0209548
798	0.0219294
810	0.0206624
822	0.02037
834	0.0171537
846	0.0169587
858	0.0188106
870	0.0174461
882	0.0177384
894	0.0188106
906	0.0179334
918	0.0174461
930	0.0155942
942	0.0145221
954	0.0153018
966	0.016179
978	0.0156917
990	0.0153018
1002	0.0145221
1014	0.0141323
1026	0.014912
1038	0.0169587
1050	0.0166663
1062	0.0142297
1074	0.0122805
1086	0.0118906
1098	0.00935654
1110	0.00857683
1122	0.00935654
1134	0.00984386
1146	0.0108185
1158	0.0122805
1170	0.0156917
1182	0.0228066
1194	0.0358668
1206	0.0670552
1218	0.0923959
1230	0.121245
1242	0.12875
1254	0.171926
1266	0.175435
1278	0.12144
1290	0.102727
1302	0.0853785
1314	0.0578936
1326	0.0379135
1338	0.035282
1350	0.0486345
1362	0.0470751
1374	0.0344048
1386	0.0178359
1398	0.0133526
1410	0.0152044
1422	0.0237812
1434	0.0655933
1446	0.125923
1458	0.120953
1470	0.0859632
1482	0.0286544
1494	0.0120855
1506	0.00896669
1518	0.00682248
1530	0.00497066
1542	0.00536052
1554	0.00399602
1566	0.00360617
1578	0.00321631
1590	0.00282646
1602	0.00272899
1614	0.00311885
1626	0.00282646
1638	0.00360617
1650	0.00311885
1662	0.00419095
1674	0.00477574
1686	0.0038011
1698	0.00341124
1710	0.00292392
1722	0.00253406
1734	0.00341124
1746	0.00302138
1758	0.00272899
1770	0.0024366
1782	0.00253406
1794	0.00263153
1806	0.00311885
1818	0.0024366
1830	0.00224167
1842	0.00175435
1854	0.00194928
1866	0.00194928
1878	0.00214421
1890	0.00194928
1902	0.00214421
1914	0.00175435
1926	0.00233914
1938	0.00204674
1950	0.0024366
1962	0.0024366
1974	0.00263153
1986	0.0024366
1998	0.00302138
2010	0.00292392
2022	0.00292392
2034	0.00370363
2046	0.00311885
2058	0.00253406
2070	0.00224167
2082	0.0024366
2094	0.00263153
2106	0.00272899
2118	0.00292392
2130	0.00292392
2142	0.00292392
2154	0.00321631
2166	0.00331378
2178	0.00282646
2190	0.00311885
2202	0.00360617
2214	0.00311885
2226	0.00321631
2238	0.00331378
2250	0.0035087
2262	0.00321631
2274	0.0035087
2286	0.00302138
2298	0.00224167
2310	0.0010721
2322	9.7464e-05
2334	0.00097464
2346	0.00155942
2358	0.000292392
2370	0.00448334
2382	0.00477574
2394	0.00409349
2406	0.00341124
2418	0.00292392
2430	0.00302138
2442	0.00292392
2454	0.00341124
2466	0.00360617
2478	0.0035087
2490	0.00370363
2502	0.00389856
2514	0.0038011
2526	0.00399602
2538	0.00438588
2550	0.00438588
2562	0.00360617
2574	0.00302138
2586	0.00370363
2598	0.0048732
2610	0.00555545
2622	0.00740726
2634	0.0073098
2646	0.00750473
2658	0.00916162
2670	0.0102337
2682	0.0113058
2694	0.0117931
2706	0.0115008
2718	0.00964894
2730	0.00925908
2742	0.00925908
2754	0.0097464
2766	0.0106236
2778	0.0118906
2790	0.0157892
2802	0.0199801
2814	0.0263153
2826	0.0379135
2838	0.0644237
2850	0.145026
2862	0.351455
2874	0.33089
2886	0.185571
2898	0.200483
2910	0.269585
2922	0.464221
2934	0.891211
2946	0.851056
2958	0.371143
2970	0.292782
2982	0.166371
2994	0.0791408
3006	0.0804078
3018	0.109452
3030	0.0341124
3042	0.0195903
3054	0.0133526
3066	0.0101363
3078	0.00818698
3090	0.00760219
3102	0.00516559
3114	0.00526306
3126	0.00467827
3138	0.00399602
3150	0.00409349
3162	0.00458081
3174	0.0038011
3186	0.00370363
3198	0.00311885
3210	0.00409349
3222	0.00331378
3234	0.00321631
3246	0.00263153
3258	0.00194928
3270	0.00175435
3282	0.0024366
3294	0.00185182
3306	0.00175435
3318	0.00302138
3330	0.000682248
3342	0.000877176
3354	0.00185182
3366	0.00194928
3378	0.00204674
3390	0.00146196
3402	0.00175435
3414	0.00233914
3426	0.0024366
3438	0.00155942
3450	0.00341124
3462	0.00224167
3474	0.00272899
3486	0.0024366
3498	0.00331378
3510	0.00282646
3522	0.00272899
3534	0.00370363
3546	0.00321631
3558	0.00272899
3570	0.00389856
3582	0.00516559
3594	0.00360617
3606	0.00497066
3618	0.00282646
3630	0.00633516
3642	0.0073098
3654	0.00506813
3666	0.00653009
3678	0.00828444
3690	0.00711487
3702	0.00575038
3714	0.00565291
3726	0.00584784
3738	0.00740726
3750	0.00906415
3762	0.00526306
3774	0.00886922
3786	0.00575038
3798	0.00672502
3810	0.00769966
3822	0.00877176
3834	0.00555545
3846	0.00750473
3858	0.00750473
3870	0.00799205
3882	0.0108185
3894	0.0117931
3906	0.00877176
3918	0.00477574
3930	0.00555545
3942	0.0073098
3954	0.00370363
3966	0.00740726
