Infrared Spectrum: Benzene, 1-fluoro-4-(methylsulfonyl)-
Formula: C 7 H 7 F O 2 S
CAS: 455-15-2
Origin: Sadtler Research Labs Under US-EPA Contract
1/CM	ABSORBANCE
450	0
462	0.0473513
474	0.0508444
486	0.0558124
498	0.0461869
510	0.197789
522	0.369417
534	0.201437
546	0.124045
558	0.0475065
570	0.0297304
582	0.0291094
594	0.0236756
606	0.026703
618	0.0299633
630	0.038502
642	0.0294975
654	0.0216574
666	0.0259268
678	0.0257715
690	0.0343103
702	0.039744
714	0.0291094
726	0.0367166
738	0.114575
750	0.230003
762	0.215953
774	0.0618671
786	0.0296528
798	0.0419175
810	0.0674561
822	0.110616
834	0.217428
846	0.14578
858	0.0551138
870	0.0402874
882	0.0395887
894	0.0357075
906	0.0327578
918	0.0345431
930	0.0361733
942	0.0738214
954	0.197478
966	0.102698
978	0.0363285
990	0.025461
1002	0.0293423
1014	0.0378034
1026	0.0286436
1038	0.021114
1050	0.0220455
1062	0.031671
1074	0.0609356
1086	0.112634
1098	0.112944
1110	0.0514654
1122	0.0386573
1134	0.0525521
1146	0.232021
1158	0.70763
1170	0.51543
1182	0.139958
1194	0.0530955
1206	0.0424609
1218	0.0728899
1230	0.14151
1242	0.328354
1254	0.175821
1266	0.0801866
1278	0.0711821
1290	0.0938486
1302	0.0811957
1314	0.105725
1326	0.153387
1338	0.271998
1350	0.496024
1362	0.335418
1374	0.0831364
1386	0.0492143
1398	0.0640406
1410	0.0609356
1422	0.0478946
1434	0.0392783
1446	0.0392783
1458	0.0381139
1470	0.0497576
1482	0.0922185
1494	0.235514
1506	0.191268
1518	0.0402098
1530	0.0284108
1542	0.0362509
1554	0.0361733
1566	0.058374
1578	0.107976
1590	0.23924
1602	0.20493
1614	0.0685429
1626	0.0382691
1638	0.0365614
1650	0.0388901
1662	0.036018
1674	0.0358627
1686	0.0322144
1698	0.0313605
1710	0.03105
1722	0.0306619
1734	0.0308171
1746	0.029808
1758	0.0299633
1770	0.0333011
1782	0.031671
1794	0.0271688
1806	0.0246071
1818	0.02484
1830	0.0237533
1842	0.0260044
1854	0.0253058
1866	0.0270135
1878	0.0259268
1890	0.0291094
1902	0.0339221
1914	0.0324473
1926	0.0256939
1938	0.0249176
1950	0.023598
1962	0.0239085
1974	0.0238309
1986	0.0243743
1998	0.0242966
2010	0.022977
2022	0.0246071
2034	0.0242966
2046	0.0249176
2058	0.0268583
2070	0.027324
2082	0.0261596
2094	0.0240638
2106	0.023598
2118	0.0232099
2130	0.0227441
2142	0.0226665
2154	0.0228218
2166	0.0233651
2178	0.0232875
2190	0.0234428
2202	0.0228218
2214	0.0228218
2226	0.0235204
2238	0.0247624
2250	0.0261596
2262	0.0267806
2274	0.0253058
2286	0.0244519
2298	0.0249176
2310	0.0253058
2322	0.0242966
2334	0.0228994
2346	0.0230546
2358	0.0240638
2370	0.0234428
2382	0.0239861
2394	0.024219
2406	0.0246848
2418	0.0253834
2430	0.0255386
2442	0.0240638
2454	0.024219
2466	0.0244519
2478	0.0253058
2490	0.0253834
2502	0.0249953
2514	0.0253058
2526	0.0235204
2538	0.022977
2550	0.0233651
2562	0.0240638
2574	0.0252281
2586	0.0253058
2598	0.0232875
2610	0.0232099
2622	0.0221231
2634	0.0220455
2646	0.0218902
2658	0.0218126
2670	0.0225889
2682	0.0220455
2694	0.0226665
2706	0.0220455
2718	0.0220455
2730	0.0224336
2742	0.0225889
2754	0.0222784
2766	0.022356
2778	0.0226665
2790	0.0222784
2802	0.0213469
2814	0.0225113
2826	0.0222784
2838	0.0215798
2850	0.0212692
2862	0.0214245
2874	0.0222008
2886	0.0216574
2898	0.0219679
2910	0.0224336
2922	0.0218902
2934	0.0225113
2946	0.0245295
2958	0.0228218
2970	0.0230546
2982	0.0231323
2994	0.0234428
3006	0.0243743
3018	0.0270135
3030	0.0268583
3042	0.0251505
3054	0.0240638
3066	0.0239085
3078	0.033534
3090	0.0371047
3102	0.02484
3114	0.0232099
3126	0.0227441
3138	0.0227441
3150	0.0220455
3162	0.0220455
3174	0.0225113
3186	0.0226665
3198	0.0226665
3210	0.0222008
3222	0.0224336
3234	0.0226665
3246	0.0215798
3258	0.0222008
3270	0.022356
3282	0.0209588
3294	0.0218902
3306	0.0218902
3318	0.0222784
3330	0.022356
3342	0.022977
3354	0.0224336
3366	0.0225113
3378	0.0226665
3390	0.0235204
3402	0.0224336
3414	0.0224336
3426	0.0222008
3438	0.0224336
3450	0.0222784
3462	0.022977
3474	0.0222008
3486	0.0245295
3498	0.0227441
3510	0.0228218
3522	0.0232875
3534	0.0222008
3546	0.024219
3558	0.0237533
3570	0.0241414
3582	0.021735
3594	0.0237533
3606	0.0232875
3618	0.0219679
3630	0.0230546
3642	0.0241414
3654	0.0237533
3666	0.0228994
3678	0.0227441
3690	0.0239861
3702	0.0239861
3714	0.0244519
3726	0.0236756
3738	0.0243743
3750	0.0230546
3762	0.0225113
3774	0.0225889
3786	0.0239085
3798	0.0230546
3810	0.0233651
3822	0.0208035
3834	0.0250729
3846	0.0241414
3858	0.0237533
3870	0.022977
3882	0.0247624
3894	0.0260044
3906	0.0232099
3918	0.0251505
3930	0.0209588
3942	0.026082
3954	0.021114
3966	0.0242966
