Infrared Spectrum: Benzoyl fluoride
Formula: C 7 H 5 F O
CAS: 455-32-3
Origin: Sadtler Research Labs Under US-EPA Contract
1/CM	ABSORBANCE
450	0
462	0.0101433
474	0.00864059
486	0.0028802
498	0.00550994
510	0.0057604
522	0.00400723
534	0.00688743
546	0.00738833
558	0.00550994
570	0.00826492
582	0.00939195
594	0.0067622
606	0.00864059
618	0.00951718
630	0.0162794
642	0.0929177
654	0.0957979
666	0.0140253
678	0.0428273
690	0.187964
702	0.53484
714	0.236051
726	0.0556003
738	0.0147767
750	0.0204118
762	0.0524697
774	0.053722
786	0.0219146
798	0.0196605
810	0.0118965
822	0.00776401
834	0.00738833
846	0.00826492
858	0.00851537
870	0.00839014
882	0.00813969
894	0.00701266
906	0.00738833
918	0.00889105
930	0.0127731
942	0.0196605
954	0.0206623
966	0.0164046
978	0.0212884
990	0.031557
1002	0.115458
1014	0.433407
1026	0.465465
1038	0.290524
1050	0.185585
1062	0.0532211
1074	0.0438291
1086	0.0314317
1098	0.0257966
1110	0.0176569
1122	0.0159037
1134	0.0187839
1146	0.0192848
1158	0.0166551
1170	0.0388201
1182	0.0869068
1194	0.0425768
1206	0.0293029
1218	0.084778
1230	0.247572
1242	0.435786
1254	0.602337
1266	0.418255
1278	0.0839014
1290	0.035439
1302	0.0276749
1314	0.0306804
1326	0.0197857
1338	0.0159037
1350	0.0161542
1362	0.0108947
1374	0.010519
1386	0.0120217
1398	0.013274
1410	0.0133992
1422	0.011646
1434	0.0165298
1446	0.0460832
1458	0.0523445
1470	0.0255461
1482	0.0136496
1494	0.0128983
1506	0.0115208
1518	0.00788924
1530	0.0096424
1542	0.0121469
1554	0.010519
1566	0.00801446
1578	0.011646
1590	0.0230416
1602	0.0522192
1614	0.0463336
1626	0.0180325
1638	0.0185334
1650	0.0137749
1662	0.00788924
1674	0.00839014
1686	0.00851537
1698	0.00839014
1710	0.00776401
1722	0.00951718
1734	0.0111451
1746	0.0169055
1758	0.0394462
1770	0.052094
1782	0.0450814
1794	0.0453318
1806	0.0651175
1818	0.283887
1830	1.17212
1842	1.08521
1854	0.106818
1866	0.0250452
1878	0.0199109
1890	0.0225407
1902	0.0236677
1914	0.0174064
1926	0.0130235
1938	0.00788924
1950	0.00751356
1962	0.0113956
1974	0.0141505
1986	0.0101433
1998	0.00738833
2010	0.00864059
2022	0.0113956
2034	0.0130235
2046	0.0123974
2058	0.0101433
2070	0.00701266
2082	0.00525949
2094	0.00438291
2106	0.00400723
2118	0.00400723
2130	0.00363155
2142	0.00375678
2154	0.00363155
2166	0.00363155
2178	0.00363155
2190	0.00388201
2202	0.00525949
2214	0.00488381
2226	0.00388201
2238	0.00425768
2250	0.00488381
2262	0.00588562
2274	0.00601085
2286	0.00601085
2298	0.00588562
2310	0.0057604
2322	0.0057604
2334	0.00638653
2346	0.00751356
2358	0.00500904
2370	0.00889105
2382	0.00726311
2394	0.00363155
2406	0.00350633
2418	0.0028802
2430	0.0028802
2442	0.00325588
2454	0.00313065
2466	0.00400723
2478	0.00438291
2490	0.00563517
2502	0.00563517
2514	0.00425768
2526	0.00375678
2538	0.0033811
2550	0.00413246
2562	0.00400723
2574	0.00438291
2586	0.00463336
2598	0.0062613
2610	0.0062613
2622	0.00475859
2634	0.00425768
2646	0.00413246
2658	0.00363155
2670	0.00375678
2682	0.00363155
2694	0.00363155
2706	0.00363155
2718	0.00388201
2730	0.00450814
2742	0.00488381
2754	0.00475859
2766	0.00438291
2778	0.00425768
2790	0.00400723
2802	0.00400723
2814	0.00400723
2826	0.00475859
2838	0.0057604
2850	0.0062613
2862	0.0062613
2874	0.0057604
2886	0.00525949
2898	0.00525949
2910	0.00488381
2922	0.00425768
2934	0.00475859
2946	0.00513427
2958	0.00488381
2970	0.00463336
2982	0.00538472
2994	0.00525949
3006	0.00588562
3018	0.00813969
3030	0.0118965
3042	0.0199109
3054	0.029929
3066	0.0408237
3078	0.0646166
3090	0.0532211
3102	0.0281759
3114	0.0214136
3126	0.0103938
3138	0.00500904
3150	0.00500904
3162	0.00500904
3174	0.00638653
3186	0.0057604
3198	0.00425768
3210	0.00463336
3222	0.00425768
3234	0.00413246
3246	0.00400723
3258	0.00388201
3270	0.00463336
3282	0.00450814
3294	0.00450814
3306	0.00425768
3318	0.00488381
3330	0.00463336
3342	0.00463336
3354	0.00438291
3366	0.00438291
3378	0.00488381
3390	0.00463336
3402	0.00475859
3414	0.00463336
3426	0.00563517
3438	0.00638653
3450	0.00588562
3462	0.00513427
3474	0.00500904
3486	0.00488381
3498	0.00500904
3510	0.00475859
3522	0.00513427
3534	0.00525949
3546	0.00500904
3558	0.00513427
3570	0.00588562
3582	0.0118965
3594	0.0117712
3606	0.00538472
3618	0.00588562
3630	0.00751356
3642	0.0137749
3654	0.0139001
3666	0.00513427
3678	0.0028802
3690	0.00450814
3702	0.00588562
3714	0.00688743
3726	0.00638653
3738	0.0067622
3750	0.00601085
3762	0.00601085
3774	0.0057604
3786	0.00613607
3798	0.0057604
3810	0.00550994
3822	0.00550994
3834	0.00613607
3846	0.00663698
3858	0.0067622
3870	0.00601085
3882	0.0062613
3894	0.00688743
3906	0.00563517
3918	0.0062613
3930	0.00638653
3942	0.00613607
3954	0.00613607
3966	0.0057604
