Infrared Spectrum: Benzene, 1-fluoro-2-methyl-4-nitro-
Formula: C 7 H 6 F N O 2
CAS: 455-88-9
Origin: Sadtler Research Labs Under US-EPA Contract
1/CM	ABSORBANCE
450	0.019317
462	0.00411536
474	0.00083987
486	0.00142778
498	0.00209967
510	0.00293955
522	0.00495523
534	0.0132699
546	0.00209967
558	0.00344347
570	0.00562713
582	0.00134379
594	0.00184771
606	0.0038634
618	0.0189811
630	0.102632
642	0.113802
654	0.00823073
666	0.00134379
678	0.00209967
690	0.00957452
702	0.0112543
714	0.00319151
726	0.013186
738	0.0695412
750	0.150589
762	0.134379
774	0.0351066
786	0.00638301
798	0.00999445
810	0.113382
822	0.14429
834	0.0786118
846	0.0200729
858	0.00554314
870	0.00419935
882	0.0224245
894	0.0666857
906	0.0750844
918	0.0691213
930	0.0867586
942	0.0151177
954	0.00369543
966	0.00226765
978	0.00285556
990	0.00680295
1002	0.0117582
1014	0.00949053
1026	0.00697092
1038	0.00671896
1050	0.0134379
1062	0.0221726
1074	0.032167
1086	0.123713
1098	0.141518
1110	0.0561033
1122	0.0956612
1134	0.0408177
1146	0.00764282
1158	0.00344347
1170	0.0115902
1182	0.0507281
1194	0.1007
1206	0.0360304
1218	0.0170494
1230	0.0409017
1242	0.290763
1254	0.446307
1266	0.0883543
1278	0.0676095
1290	0.0448491
1302	0.0480406
1314	0.0550115
1326	0.100113
1338	0.27321
1350	0.67198
1362	0.749584
1374	0.129172
1386	0.0521559
1398	0.0396419
1410	0.0293954
1422	0.0361984
1434	0.0477046
1446	0.064418
1458	0.0587909
1470	0.102212
1482	0.213915
1494	0.465456
1506	0.291687
1518	0.162431
1530	0.357533
1542	0.64376
1554	0.570524
1566	0.357533
1578	0.231972
1590	0.2313
1602	0.14261
1614	0.0788638
1626	0.0696252
1638	0.0464448
1650	0.0245242
1662	0.0138579
1674	0.0109183
1686	0.0108343
1698	0.0105824
1710	0.00722288
1722	0.00781079
1734	0.0102464
1746	0.00562713
1758	0.00613105
1770	0.0118422
1782	0.00940654
1794	0.00898661
1806	0.00655099
1818	0.00243562
1830	0.00293955
1842	0.0019317
1854	0.00117582
1866	0.00293955
1878	0.00671896
1890	0.0124301
1902	0.00923857
1914	0.00277157
1926	0.0012598
1938	0.00167974
1950	0.0012598
1962	0.000755883
1974	0.000503922
1986	0.00142778
1998	0.00403138
2010	0.00596308
2022	0.00361144
2034	0.00134379
2046	0.000923857
2058	0.00176373
2070	0.00134379
2082	0.000251961
2094	0.000167974
2106	0.000335948
2118	0
2130	0.000251961
2142	0.000335948
2154	0.000251961
2166	0.000587909
2178	0.00100784
2190	0.000503922
2202	8.3987e-05
2214	0
2226	0.000335948
2238	0.00151177
2250	0.00285556
2262	0.00268758
2274	0.00235164
2286	0.00285556
2298	0.00310752
2310	0.00470327
2322	0.00470327
2334	0.00445131
2346	0.00697092
2358	0.00503922
2370	0.00319151
2382	0.00377941
2394	0.00176373
2406	0.00167974
2418	0.00167974
2430	0.00285556
2442	0.00411536
2454	0.00310752
2466	0.00209967
2478	0.00235164
2490	0.00470327
2502	0.00545915
2514	0.00436732
2526	0.00335948
2538	0.00302353
2550	0.00327549
2562	0.00235164
2574	0.00176373
2586	0.0026036
2598	0.00461928
2610	0.00747484
2622	0.006467
2634	0.00310752
2646	0.0019317
2658	0.00209967
2670	0.0026036
2682	0.00377941
2694	0.00419935
2706	0.00411536
2718	0.00428334
2730	0.00377941
2742	0.0038634
2754	0.00478726
2766	0.00428334
2778	0.00344347
2790	0.00344347
2802	0.00419935
2814	0.00529118
2826	0.00621504
2838	0.00781079
2850	0.00999445
2862	0.0163775
2874	0.0244402
2886	0.0277157
2898	0.0246922
2910	0.0246922
2922	0.0263719
2934	0.0392219
2946	0.0526598
2958	0.0335948
2970	0.0240203
2982	0.0229285
2994	0.0228445
3006	0.0176373
3018	0.00999445
3030	0.00831471
3042	0.00999445
3054	0.012598
3066	0.012934
3078	0.0181412
3090	0.0188131
3102	0.0124301
3114	0.00697092
3126	0.00352745
3138	0.00243562
3150	0.00167974
3162	0.00100784
3174	0.00109183
3186	0.000671896
3198	0.00151177
3210	0.00142778
3222	0.00167974
3234	0.00134379
3246	0.00151177
3258	0.00209967
3270	0.00151177
3282	0.00142778
3294	0.00134379
3306	0.00151177
3318	0.00109183
3330	0.0012598
3342	0.00083987
3354	0.0012598
3366	0.00117582
3378	0.00109183
3390	0.00151177
3402	0.000755883
3414	0.00083987
3426	0.00142778
3438	0.00134379
3450	8.3987e-05
3462	0.000923857
3474	0.000335948
3486	0.00109183
3498	0.00151177
3510	0.000755883
3522	0.000335948
3534	0.00159575
3546	0.00109183
3558	0.00083987
3570	0.00134379
3582	0.00159575
3594	0.00142778
3606	0.00117582
3618	0.0012598
3630	0.0019317
3642	0.00209967
3654	0.00151177
3666	0.000671896
3678	0.00167974
3690	0.00134379
3702	0.00134379
3714	0.00134379
3726	0.00209967
3738	0.00218366
3750	0.0012598
3762	0.00142778
3774	0.00083987
3786	0.000755883
3798	0.00109183
3810	0.00117582
3822	0.00100784
3834	0.00142778
3846	0.00151177
3858	0.00151177
3870	0.00218366
3882	0.0019317
3894	0.00226765
3906	0.00319151
3918	0.00209967
3930	0.00100784
3942	0.00235164
3954	0.00117582
3966	0.00083987
