Infrared Spectrum: Acetophenone, 3'-fluoro-4'-methoxy-
Formula: C 9 H 9 F O 2
CAS: 455-91-4
Origin: Sadtler Research Labs Under US-EPA Contract
1/CM	ABSORBANCE
450	0
462	0.00985073
474	0.0114481
486	0.00878579
498	0.0107826
510	0.01238
522	0.01238
534	0.015841
546	0.0427309
558	0.0588382
570	0.0621661
582	0.0660265
594	0.0557764
606	0.050718
618	0.0231625
630	0.0375393
642	0.04739
654	0.0194352
666	0.00865267
678	0.0131787
690	0.00785396
702	0.00465913
714	0.00559096
726	0.00838643
738	0.0212989
750	0.0745461
762	0.0927832
774	0.0334126
786	0.0178378
798	0.0386042
810	0.0664259
822	0.0790721
834	0.0521823
846	0.0275554
858	0.0328801
870	0.0666921
882	0.0961112
894	0.138176
906	0.0877248
918	0.0524485
930	0.0230294
942	0.0262242
954	0.0560427
966	0.0540459
978	0.0440621
990	0.0421984
1002	0.0693545
1014	0.150423
1026	0.165199
1038	0.117011
1050	0.0600362
1062	0.0696207
1074	0.0605687
1086	0.0392698
1098	0.0367406
1110	0.0768091
1122	0.185566
1134	0.23695
1146	0.15242
1158	0.0705525
1170	0.135514
1182	0.250129
1194	0.272626
1206	0.180242
1218	0.0764097
1230	0.099306
1242	0.132053
1254	0.178112
1266	0.455264
1278	1.15986
1290	1.20219
1302	0.58958
1314	0.306305
1326	0.144433
1338	0.0906534
1350	0.142037
1362	0.266902
1374	0.124332
1386	0.0501855
1398	0.0617668
1410	0.149891
1422	0.290463
1434	0.249463
1446	0.17079
1458	0.112618
1470	0.0967768
1482	0.0696207
1494	0.117277
1506	0.390701
1518	0.485481
1530	0.156547
1542	0.074413
1554	0.0669584
1566	0.110222
1578	0.182105
1590	0.181174
1602	0.234421
1614	0.353828
1626	0.138176
1638	0.0407341
1650	0.0323477
1662	0.0467244
1674	0.0463251
1686	0.11142
1698	0.513436
1710	0.567083
1722	0.103566
1734	0.0335457
1746	0.0367406
1758	0.0298184
1770	0.0137112
1782	0.0105163
1794	0.00798708
1806	0.00745461
1818	0.00692214
1830	0.00505848
1842	0.00492537
1854	0.00678902
1866	0.00638966
1878	0.00785396
1890	0.00625655
1902	0.00678902
1914	0.00625655
1926	0.0051916
1938	0.00572407
1950	0.00825332
1962	0.00745461
1974	0.00545784
1986	0.00545784
1998	0.00625655
2010	0.00865267
2022	0.0147761
2034	0.0195683
2046	0.0167729
2058	0.01238
2070	0.00971761
2082	0.00732149
2094	0.00638966
2106	0.00465913
2118	0.00359419
2130	0.00332795
2142	0.00332795
2154	0.0037273
2166	0.00452601
2178	0.00545784
2190	0.0051916
2202	0.00425978
2214	0.00425978
2226	0.00425978
2238	0.00532472
2250	0.00772084
2262	0.00931826
2274	0.00931826
2286	0.00798708
2298	0.00732149
2310	0.00772084
2322	0.00905202
2334	0.00931826
2346	0.00865267
2358	0.00945138
2370	0.00998385
2382	0.0066559
2394	0.00425978
2406	0.0037273
2418	0.00386042
2430	0.00359419
2442	0.00439289
2454	0.00425978
2466	0.00559096
2478	0.00559096
2490	0.00612343
2502	0.00692214
2514	0.00705525
2526	0.00692214
2538	0.00798708
2550	0.00998385
2562	0.0119806
2574	0.0142436
2586	0.0175716
2598	0.0174385
2610	0.0117144
2622	0.00772084
2634	0.00745461
2646	0.00692214
2658	0.00625655
2670	0.00559096
2682	0.00559096
2694	0.00532472
2706	0.00532472
2718	0.0051916
2730	0.00585719
2742	0.00625655
2754	0.00612343
2766	0.00692214
2778	0.00878579
2790	0.0102501
2802	0.0105163
2814	0.0125131
2826	0.0177047
2838	0.0326139
2850	0.0713512
2862	0.0509842
2874	0.0308834
2886	0.0296853
2898	0.0359419
2910	0.0491205
2922	0.0608349
2934	0.0724162
2946	0.107692
2958	0.108891
2970	0.101968
2982	0.0746792
2994	0.0573739
3006	0.0722831
3018	0.106361
3030	0.0532472
3042	0.0300847
3054	0.0288866
3066	0.0344776
3078	0.048455
3090	0.0380717
3102	0.0232956
3114	0.0155748
3126	0.0114481
3138	0.0095845
3150	0.00851955
3162	0.00718837
3174	0.00678902
3186	0.00559096
3198	0.00559096
3210	0.00479225
3222	0.00479225
3234	0.00492537
3246	0.00465913
3258	0.00412666
3270	0.00425978
3282	0.00439289
3294	0.00479225
3306	0.00452601
3318	0.0051916
3330	0.00492537
3342	0.0051916
3354	0.0051916
3366	0.00572407
3378	0.010117
3390	0.0142436
3402	0.00971761
3414	0.00492537
3426	0.00425978
3438	0.00479225
3450	0.0037273
3462	0.00412666
3474	0.00386042
3486	0.00359419
3498	0.00425978
3510	0.00386042
3522	0.00439289
3534	0.00386042
3546	0.00425978
3558	0.00399354
3570	0.0037273
3582	0.0037273
3594	0.00399354
3606	0.00425978
3618	0.00599031
3630	0.00625655
3642	0.00492537
3654	0.00439289
3666	0.00439289
3678	0.00425978
3690	0.00439289
3702	0.00412666
3714	0.00412666
3726	0.00532472
3738	0.00479225
3750	0.00439289
3762	0.00425978
3774	0.00439289
3786	0.00386042
3798	0.00399354
3810	0.00452601
3822	0.00479225
3834	0.0051916
3846	0.0051916
3858	0.00465913
3870	0.00399354
3882	0.00412666
3894	0.00332795
3906	0.00505848
3918	0.00359419
3930	0.00532472
3942	0.00425978
3954	0.00692214
3966	0.00479225
