Infrared Spectrum: Urea, tetrabutyl-
Formula: C 17 H 36 N 2 O
CAS: 4559-86-8
Origin: Sadtler Research Labs Under US-EPA Contract
1/CM	ABSORBANCE
450	0.0203154
462	0.0104438
474	0.0219606
486	0.029257
498	0.0160949
510	0.0102292
522	0.0140205
534	0.00436351
546	0.00836936
558	0.0155227
570	0.00686717
582	0.0244643
594	0.0227475
606	0.0231052
618	0.024822
630	0.0266818
642	0.0193139
654	0.0181694
666	0.0168103
678	0.00808323
690	0.0183124
702	0.0125183
714	0.0192424
726	0.0321898
738	0.0366249
750	0.0375548
762	0.0302585
774	0.032619
786	0.032619
798	0.0395577
810	0.0267533
822	0.0207446
834	0.0198862
846	0.0155227
858	0.0186701
870	0.0206015
882	0.0253942
894	0.0304731
906	0.0405592
918	0.037984
930	0.0339066
942	0.0418468
954	0.0340497
966	0.033692
978	0.0285417
990	0.0202438
1002	0.0215314
1014	0.0223898
1026	0.0207446
1038	0.029257
1050	0.0396293
1062	0.0420614
1074	0.0524337
1086	0.0655958
1098	0.102507
1110	0.111949
1122	0.128259
1134	0.161593
1146	0.0751097
1158	0.0615899
1170	0.0799739
1182	0.100432
1194	0.111234
1206	0.188633
1218	0.236273
1230	0.115025
1242	0.104796
1254	0.129904
1266	0.135484
1278	0.153009
1290	0.186415
1302	0.138846
1314	0.123537
1326	0.107013
1338	0.116456
1350	0.137629
1362	0.162738
1374	0.180192
1386	0.148431
1398	0.165885
1410	0.239063
1422	0.135555
1434	0.0913476
1446	0.108444
1458	0.16331
1470	0.209592
1482	0.12039
1494	0.0567257
1506	0.0434921
1518	0.028184
1530	0.0275402
1542	0.0245358
1554	0.0188132
1566	0.0242497
1578	0.0259665
1590	0.0253227
1602	0.0293285
1614	0.036768
1626	0.0443505
1638	0.0688147
1650	0.129904
1662	0.355877
1674	0.504808
1686	0.138488
1698	0.0595155
1710	0.0374833
1722	0.0282555
1734	0.022676
1746	0.0188132
1758	0.0156657
1770	0.0113022
1782	0.0126613
1794	0.00929929
1806	0.00887009
1818	0.00815476
1830	0.00643797
1842	0.00636644
1854	0.00600877
1866	0.0065095
1878	0.00486424
1890	0.00701023
1902	0.00579417
1914	0.00622337
1926	0.00836936
1938	0.00515038
1950	0.00665257
1962	0.00593724
1974	0.00593724
1986	0.00515038
1998	0.00472118
2010	0.00436351
2022	0.00600877
2034	0.00565111
2046	0.00500731
2058	0.00751096
2070	0.00615184
2082	0.00472118
2094	0.00622337
2106	0.00479271
2118	0.00450658
2130	0.00429198
2142	0.00429198
2154	0.00364818
2166	0.00486424
2178	0.00407738
2190	0.00400585
2202	0.00429198
2214	0.00386278
2226	0.00386278
2238	0.00522191
2250	0.00472118
2262	0.00371972
2274	0.00515038
2286	0.00329052
2298	0.00329052
2310	0.00615184
2322	0.00379125
2334	0.00836936
2346	0.010873
2358	0.0131621
2370	0.0135913
2382	0.00794016
2394	0.00271825
2406	0.00307592
2418	0.00293285
2430	0.000929929
2442	0.00293285
2454	0.000643797
2466	0.000786863
2478	0.00200292
2490	0.00207446
2502	0.00250365
2514	0.00293285
2526	0.00357665
2538	0.00243212
2550	0.00529344
2562	0.00300439
2574	0.00314745
2586	0.00565111
2598	0.00357665
2610	0.00429198
2622	0.00579417
2634	0.00615184
2646	0.00579417
2658	0.00987155
2670	0.00929929
2682	0.0104438
2694	0.0117314
2706	0.0113737
2718	0.013019
2730	0.0135197
2742	0.0163095
2754	0.0156657
2766	0.0165957
2778	0.0175256
2790	0.0218176
2802	0.0286132
2814	0.0324044
2826	0.0461388
2838	0.0685286
2850	0.109302
2862	0.1862
2874	0.312814
2886	0.311884
2898	0.215028
2910	0.265674
2922	0.339567
2934	0.498943
2946	0.52448
2958	0.434205
2970	0.71533
2982	0.267963
2994	0.128473
3006	0.0784002
3018	0.052076
3030	0.0371972
3042	0.0300439
3054	0.0197431
3066	0.0166672
3078	0.0170964
3090	0.0137343
3102	0.015165
3114	0.0134482
3126	0.0123037
3138	0.0110876
3150	0.0128044
3162	0.00865549
3174	0.00829783
3186	0.0106584
3198	0.00600877
3210	0.00879856
3222	0.0067241
3234	0.00722483
3246	0.0069387
3258	0.00929929
3270	0.00643797
3282	0.00529344
3294	0.00879856
3306	0.00414891
3318	0.00808323
3330	0.00500731
3342	0.00436351
3354	0.00572264
3366	0.00486424
3378	0.00364818
3390	0.00586571
3402	0.00679563
3414	0.00486424
3426	0.00922776
3438	0.00522191
3450	0.00400585
3462	0.00643797
3474	0.00221752
3486	0.00307592
3498	0.00486424
3510	0.00386278
3522	0.00214599
3534	0.00729637
3546	0.00500731
3558	0.00615184
3570	0.00980002
3582	0.00615184
3594	0.0075825
3606	0.00593724
3618	0.00522191
3630	0.00572264
3642	0.00658104
3654	0.00529344
3666	0.00844089
3678	0.0104438
3690	0.00965696
3702	0.0118745
3714	0.0120175
3726	0.0118745
3738	0.0147358
3750	0.0123752
3762	0.0120175
3774	0.0123037
3786	0.0132336
3798	0.0126613
3810	0.0169533
3822	0.0158803
3834	0.0173825
3846	0.0206015
3858	0.0193854
3870	0.0197431
3882	0.0211738
3894	0.0201008
3906	0.0178117
3918	0.0188132
3930	0.0165241
3942	0.0150935
3954	0.00107299
3966	0.00250365
