Infrared Spectrum: Benzoic acid, 4-fluoro-
Formula: C 7 H 5 F O 2
CAS: 456-22-4
Origin: Sadtler Research Labs Under US-EPA Contract
1/CM	ABSORBANCE
450	0.00430397
462	0.00754462
474	0.021773
486	0.0498755
498	0.0482552
510	0.0198996
522	0.0114941
534	0.0204059
546	0.0347862
558	0.0487109
570	0.0812692
582	0.173931
594	0.111397
606	0.0104308
618	0.00749398
630	0.0105827
642	0.0081016
654	0.00612683
666	0.0107346
678	0.0258745
690	0.0446601
702	0.029267
714	0.02233
726	0.0190388
738	0.00997509
750	0.0276973
762	0.0670407
774	0.0728638
786	0.0402548
798	0.0168615
810	0.0195451
822	0.0234946
834	0.0483058
846	0.0693699
858	0.0513439
870	0.0222288
882	0.00496223
894	0.00237984
906	0.00237984
918	0.00177222
930	0.00060762
942	0.000658255
954	0.00334191
966	0.00384826
978	0.00415207
990	0.0030381
1002	0.00516477
1014	0.0190388
1026	0.016507
1038	0.0155449
1050	0.0326089
1062	0.0898265
1074	0.261327
1086	0.247251
1098	0.076712
1110	0.031495
1122	0.021773
1134	0.0205578
1146	0.0796995
1158	0.184615
1170	0.12755
1182	0.232465
1194	0.130436
1206	0.0306342
1218	0.0368623
1230	0.106637
1242	0.262289
1254	0.16507
1266	0.0685092
1278	0.0304316
1290	0.032457
1302	0.0355964
1314	0.0469893
1326	0.106637
1338	0.0831427
1350	0.0415207
1362	0.1196
1374	0.093776
1386	0.0210135
1398	0.0215705
1410	0.0317988
1422	0.0225326
1434	0.0108359
1446	0.00653192
1458	0.00648128
1470	0.00546858
1482	0.00860795
1494	0.0261783
1506	0.117271
1518	0.101219
1530	0.0163045
1542	0.00749398
1554	0.00612683
1566	0.0104814
1578	0.0260264
1590	0.0670407
1602	0.160665
1614	0.123094
1626	0.034128
1638	0.0113929
1650	0.00764588
1662	0.00977256
1674	0.0105827
1686	0.011646
1698	0.0179248
1710	0.0229377
1722	0.0253681
1734	0.042179
1746	0.15869
1758	0.472728
1770	0.444626
1782	0.134689
1794	0.0295202
1806	0.0160513
1818	0.0150386
1830	0.0120005
1842	0.00541794
1854	0.00197476
1866	0.00146842
1878	0.00151905
1890	0.00344318
1902	0.00769652
1914	0.00881049
1926	0.00622811
1938	0.00298746
1950	0.00278492
1962	0.00349381
1974	0.00197476
1986	0.00151905
1998	0.00151905
2010	0.000556985
2022	0.00050635
2034	0.000962065
2046	0.000759525
2058	0.000962065
2070	0.00156968
2082	0.00156968
2094	0.00151905
2106	0.00106333
2118	0.00060762
2130	0.000556985
2142	0.00151905
2154	0.0020254
2166	0.00156968
2178	0.000556985
2190	0.000151905
2202	0.000151905
2214	0.000658255
2226	0.00111397
2238	0.00111397
2250	0.0011646
2262	0.0011646
2274	0.0011646
2286	0.00060762
2298	0.00111397
2310	0.00167096
2322	0.00162032
2334	0.00227858
2346	0.00258238
2358	0.0040508
2370	0.00293683
2382	0.00172159
2394	0.00167096
2406	0.00212667
2418	0.00182286
2430	0.00212667
2442	0.00268366
2454	0.00212667
2466	0.00268366
2478	0.00319001
2490	0.00187349
2502	0.00126588
2514	0.00121524
2526	0.00121524
2538	0.00121524
2550	0.00141778
2562	0.00121524
2574	0.00217731
2586	0.00268366
2598	0.00227858
2610	0.00227858
2622	0.00126588
2634	0.000759525
2646	0.000759525
2658	0.00081016
2670	0.00081016
2682	0.00131651
2694	0.00131651
2706	0.00131651
2718	0.00081016
2730	0.00126588
2742	0.00136714
2754	0.00131651
2766	0.000962065
2778	0.00131651
2790	0.00131651
2802	0.00136714
2814	0.0010127
2826	0.000759525
2838	0.00182286
2850	0.00187349
2862	0.00187349
2874	0.00182286
2886	0.00141778
2898	0.00136714
2910	0.00136714
2922	0.00136714
2934	0.00192413
2946	0.00136714
2958	0.00141778
2970	0.0011646
2982	0.00136714
2994	0.00136714
3006	0.00187349
3018	0.00237984
3030	0.00192413
3042	0.00192413
3054	0.00237984
3066	0.00384826
3078	0.00648128
3090	0.00941811
3102	0.00450651
3114	0.00288619
3126	0.00273429
3138	0.00217731
3150	0.00146842
3162	0.0010127
3174	0.00146842
3186	0.00151905
3198	0.00151905
3210	0.00151905
3222	0.00106333
3234	0.00106333
3246	0.00070889
3258	0.00106333
3270	0.00106333
3282	0.00106333
3294	0.000962065
3306	0.000962065
3318	0.00111397
3330	0.00060762
3342	0.000556985
3354	0.00111397
3366	0.00162032
3378	0.00156968
3390	0.00106333
3402	0.00060762
3414	0.00060762
3426	0.00060762
3438	0.00111397
3450	0.00060762
3462	0.000860795
3474	0.00141778
3486	0.00207603
3498	0.00354445
3510	0.00410143
3522	0.00288619
3534	0.00172159
3546	0.00167096
3558	0.00475969
3570	0.0312418
3582	0.169273
3594	0.135955
3606	0.00840541
3618	0.00207603
3630	0.00217731
3642	0.00121524
3654	0.00167096
3666	0.0011646
3678	0.00232921
3690	0.00258238
3702	0.00222794
3714	0.00217731
3726	0.00172159
3738	0.00243048
3750	0.00217731
3762	0.00126588
3774	0.00136714
3786	0.00121524
3798	0.00172159
3810	0.00126588
3822	0.00222794
3834	0.00172159
3846	0.00192413
3858	0.00237984
3870	0.00177222
3882	0.00227858
3894	0.00232921
3906	0.00177222
3918	0.00177222
3930	0.00177222
3942	0.00177222
3954	0
3966	0.000151905
