Infrared Spectrum: Benzene, 1-(chloromethyl)-3-fluoro-
Formula: C 7 H 6 Cl F
CAS: 456-42-8
Origin: Sadtler Research Labs Under US-EPA Contract
1/CM	ABSORBANCE
450	0.0593196
462	0.0399933
474	0.0304976
486	0.012847
498	0.0226777
510	0.0588728
522	0.121655
534	0.0849019
546	0.0242417
558	0.021002
570	0.0220075
582	0.0683684
594	0.142993
606	0.064235
618	0.0242417
630	0.0188795
642	0.0122884
654	0.0126236
666	0.0454672
678	0.146344
690	0.124113
702	0.171368
714	0.417807
726	0.660112
738	0.689716
750	0.842875
762	0.519354
774	0.378372
786	0.422834
798	0.175501
810	0.0455789
822	0.0240183
834	0.0157515
846	0.0319499
858	0.0800982
870	0.137184
882	0.151259
894	0.10892
906	0.0475897
918	0.0268111
930	0.0409987
942	0.138971
954	0.251913
966	0.126012
978	0.0315031
990	0.00647935
1002	0.00927218
1014	0.00659107
1026	0.000223426
1038	0.00134056
1050	0.00301625
1062	0.0157515
1074	0.0501591
1086	0.0358599
1098	0.0127353
1110	0.022566
1122	0.0574205
1134	0.230017
1146	0.339384
1158	0.151148
1170	0.061107
1182	0.0471429
1194	0.0364184
1206	0.0608836
1218	0.108585
1230	0.132938
1242	0.25828
1254	0.568061
1266	0.935038
1278	1.11713
1290	0.680779
1302	0.175278
1314	0.0826676
1326	0.0386527
1338	0.0224543
1350	0.0146344
1362	0.0113947
1374	0.0108362
1386	0.0154164
1398	0.0342959
1410	0.0566385
1422	0.0757414
1434	0.192258
1446	0.54974
1458	0.537004
1470	0.279953
1482	0.419929
1494	0.612746
1506	0.246662
1518	0.1154
1530	0.065799
1542	0.038541
1554	0.0536222
1566	0.104452
1578	0.2537
1590	0.591409
1602	0.768809
1614	0.614757
1626	0.373345
1638	0.0592079
1650	0.0230129
1662	0.025694
1674	0.0307211
1686	0.0173155
1698	0.0109479
1710	0.0116182
1722	0.0220075
1734	0.0339608
1746	0.0340725
1758	0.0379824
1770	0.0342959
1782	0.0182092
1794	0.0118416
1806	0.00703792
1818	0.00703792
1830	0.00748477
1842	0.00893704
1854	0.0259174
1866	0.0169804
1878	0.00703792
1890	0.00647935
1902	0.00592079
1914	0.00904875
1926	0.0242417
1938	0.021784
1950	0.00357482
1962	0.00178741
1974	0.00245769
1986	0.0025694
1998	0.00435681
2010	0.00469195
2022	0.00502709
2034	0.00547394
2046	0.00312796
2058	0.00134056
2070	0.00189912
2082	0.00145227
2094	0.00301625
2106	0.0034631
2118	0.00156398
2130	0
2142	0.000670278
2154	0.000893704
2166	0.000223426
2178	0.00100542
2190	0.0025694
2202	0.00402167
2214	0.00357482
2226	0.00312796
2238	0.0025694
2250	0.00189912
2262	0.00100542
2274	0.00212255
2286	0.00368653
2298	0.00413338
2310	0.00469195
2322	0.00536222
2334	0.00469195
2346	0.00625593
2358	0.00301625
2370	0.00849019
2382	0.0086019
2394	0.00681449
2406	0.0077082
2418	0.00781991
2430	0.00703792
2442	0.00558565
2454	0.00413338
2466	0.00201083
2478	0.00212255
2490	0.00268111
2502	0.00323968
2514	0.00580908
2526	0.00681449
2538	0.00580908
2550	0.00502709
2562	0.00491537
2574	0.00525051
2586	0.0051388
2598	0.00536222
2610	0.00580908
2622	0.00491537
2634	0.00368653
2646	0.00379824
2658	0.00134056
2670	0.000558565
2682	0.00223426
2694	0.00379824
2706	0.00558565
2718	0.00692621
2730	0.00781991
2742	0.00670278
2754	0.00469195
2766	0.00245769
2778	0.00201083
2790	0.00290454
2802	0.00201083
2814	0.0025694
2826	0.00335139
2838	0.00491537
2850	0.00737306
2862	0.00960732
2874	0.0157515
2886	0.0220075
2898	0.0179858
2910	0.0118416
2922	0.0102776
2934	0.0193263
2946	0.036195
2958	0.0640115
2970	0.109926
2982	0.0834496
2994	0.0488186
3006	0.0519465
3018	0.0420041
3030	0.0344076
3042	0.0693738
3054	0.108697
3066	0.113389
3078	0.107244
3090	0.0981957
3102	0.0510528
3114	0.024912
3126	0.0178741
3138	0.00547394
3150	0.0016757
3162	0.00145227
3174	0.00100542
3186	0.00145227
3198	0.00145227
3210	0.00145227
3222	0.00156398
3234	0.00134056
3246	0.0016757
3258	0.000558565
3270	0.00212255
3282	0.00245769
3294	0.00212255
3306	0.00134056
3318	0.00178741
3330	0.00201083
3342	0.000781991
3354	0.00245769
3366	0.00145227
3378	0.00323968
3390	0.00100542
3402	0.00100542
3414	0.000446852
3426	0.00178741
3438	0.00111713
3450	0.00212255
3462	0.000893704
3474	0.000781991
3486	0.00189912
3498	0.00268111
3510	0.00156398
3522	0.00212255
3534	0.00268111
3546	0.00301625
3558	0.00312796
3570	0.00502709
3582	0.00882533
3594	0.00759648
3606	0.00480366
3618	0.0034631
3630	0.00290454
3642	0.0034631
3654	0.00390996
3666	0.00625593
3678	0.00458023
3690	0.00435681
3702	0.00212255
3714	0.00301625
3726	0.00390996
3738	0.00323968
3750	0.0025694
3762	0.00323968
3774	0.00458023
3786	0.00446852
3798	0.00323968
3810	0.00402167
3822	0.00312796
3834	0.00290454
3846	0.00279283
3858	0.00312796
3870	0.00312796
3882	0.0016757
3894	0.00290454
3906	0.00145227
3918	0.0034631
3930	0.00781991
3942	0.00357482
3954	0.000335139
3966	0.00122884
