Infrared Spectrum: 1-Propanone, 1-(4-fluorophenyl)-
Formula: C 9 H 9 F O
CAS: 456-03-1
Origin: Sadtler Research Labs Under US-EPA Contract
1/CM	ABSORBANCE
450	0.0143502
462	0.0087592
474	0.00267125
486	0.020376
498	0.022923
510	0.0201275
522	0.0198169
534	0.0286382
546	0.0324898
558	0.0749813
570	0.0632402
582	0.0826844
594	0.0610038
606	0.0279549
618	0.015779
630	0.013232
642	0.0103744
654	0.0120517
666	0.0067713
678	0.0115547
690	0.00521825
702	0.00298186
714	0
726	0.00465915
738	0.00478339
750	0.0161517
762	0.017829
774	0.0196927
786	0.0370868
798	0.0790813
810	0.107285
822	0.0810692
834	0.129276
846	0.181086
858	0.0959164
870	0.0213078
882	0.0126729
894	0.0117411
906	0.00844859
918	0.0164623
930	0.0551022
942	0.145925
954	0.15692
966	0.0329247
978	0.0149714
990	0.0185745
1002	0.0475233
1014	0.100141
1026	0.0314959
1038	0.0116789
1050	0.0129214
1062	0.0177048
1074	0.0272716
1086	0.036155
1098	0.0383914
1110	0.0296943
1122	0.0163381
1134	0.0141017
1146	0.0516234
1158	0.326948
1170	0.0541083
1182	0.0327383
1194	0.0708812
1206	0.215874
1218	0.544561
1230	0.559284
1242	0.549345
1254	0.190031
1266	0.0905118
1278	0.10567
1290	0.0747949
1302	0.0669054
1314	0.0869087
1326	0.0897663
1338	0.101072
1350	0.159405
1362	0.102129
1374	0.0507537
1386	0.0457218
1398	0.0565931
1410	0.0846102
1422	0.0575871
1434	0.0372732
1446	0.0450385
1458	0.0596992
1470	0.0708812
1482	0.0384535
1494	0.0670296
1506	0.255818
1518	0.146173
1530	0.025967
1542	0.0170214
1554	0.0188851
1566	0.0333595
1578	0.0735524
1590	0.198293
1602	0.559657
1614	0.304336
1626	0.0529901
1638	0.0260291
1650	0.0295079
1662	0.0378944
1674	0.0442309
1686	0.111509
1698	0.427399
1710	0.543195
1722	0.137662
1734	0.0352853
1746	0.0318686
1758	0.0296943
1770	0.0246624
1782	0.0163381
1794	0.010188
1806	0.00993952
1818	0.00701979
1830	0.00304398
1842	0.00298186
1854	0.00329247
1866	0.00627432
1878	0.00776525
1890	0.00851071
1902	0.00751676
1914	0.00658493
1926	0.00788949
1938	0.00546674
1950	0.00316822
1962	0.00291973
1974	0.0036652
1986	0.00397581
1998	0.002547
2010	0.00105607
2022	0.00155305
2034	0.00273337
2046	0.00385156
2058	0.00484552
2070	0.00490764
2082	0.00267125
2094	0.0011182
2106	0.00186366
2118	0.00105607
2130	0.000807586
2142	6.2122e-05
2154	0.00130456
2166	0.00118032
2178	0.00180154
2190	0.000993952
2202	0.000496976
2214	0.000683342
2226	0.00105607
2238	0.00192578
2250	0.00236064
2262	0.00173942
2274	0.00167729
2286	0.00205003
2298	0.00304398
2310	0.00385156
2322	0.00118032
2334	0.00118032
2346	0.00236064
2358	0.000807586
2370	0.00211215
2382	0.00248488
2394	0.00360308
2406	0.00434854
2418	0.00453491
2430	0.00577735
2442	0.00515613
2454	0.00416217
2466	0.00503188
2478	0.00552886
2490	0.00323034
2502	0.00167729
2514	0.00211215
2526	0.00248488
2538	0.00217427
2550	0.00223639
2562	0.00378944
2574	0.00546674
2586	0.00701979
2598	0.00559098
2610	0.00385156
2622	0.00248488
2634	0.00173942
2646	0.00217427
2658	0.00248488
2670	0.00205003
2682	0.00248488
2694	0.00285761
2706	0.00304398
2718	0.00298186
2730	0.00397581
2742	0.00490764
2754	0.00515613
2766	0.00341671
2778	0.00416217
2790	0.00515613
2802	0.0062122
2814	0.00782737
2826	0.0101259
2838	0.010685
2850	0.00944254
2862	0.0119274
2874	0.019879
2886	0.0425536
2898	0.0511264
2910	0.0561583
2922	0.0764101
2934	0.0567174
2946	0.0938663
2958	0.0958542
2970	0.0546674
2982	0.118653
2994	0.13263
3006	0.0547916
3018	0.0225503
3030	0.0169593
3042	0.0158411
3054	0.0241033
3066	0.0308746
3078	0.0336701
3090	0.0299428
3102	0.0127971
3114	0.013232
3126	0.0103123
3138	0.00602583
3150	0.00416217
3162	0.00465915
3174	0.00385156
3186	0.00410005
3198	0.00360308
3210	0.00267125
3222	0.00267125
3234	0.00285761
3246	0.00229851
3258	0.00242276
3270	0.00304398
3282	0.00273337
3294	0.00304398
3306	0.00285761
3318	0.00273337
3330	0.00229851
3342	0.00323034
3354	0.00304398
3366	0.00453491
3378	0.00739252
3390	0.0114304
3402	0.0103123
3414	0.00472127
3426	0.00304398
3438	0.0031061
3450	0.00316822
3462	0.00316822
3474	0.00323034
3486	0.00335459
3498	0.002547
3510	0.00260912
3522	0.00335459
3534	0.0036652
3546	0.002547
3558	0.00211215
3570	0.005094
3582	0.0073304
3594	0.00583947
3606	0.0011182
3618	0.00236064
3630	0.00118032
3642	0.0031061
3654	0.00304398
3666	0.00236064
3678	0.0031061
3690	0.00173942
3702	0.00273337
3714	0.00291973
3726	0.00323034
3738	0.0019879
3750	0.00229851
3762	0.0036652
3774	0.00372732
3786	0.00242276
3798	0.0019879
3810	0.00341671
3822	0.00267125
3834	0.00304398
3846	0.00335459
3858	0.00329247
3870	0.0031061
3882	0.00403793
3894	0.00428642
3906	0.00441066
3918	0.00403793
3930	0.00434854
3942	0.00105607
3954	0.00341671
3966	0.00888345
