Infrared Spectrum: Carbostyril, 3,4-dihydro-7-fluoro-,
Formula: C 9 H 8 F N O
CAS: 4590-52-7
Origin: Sadtler Research Labs Under US-EPA Contract
1/CM	ABSORBANCE
450	0.0564264
462	0
474	0.0313287
486	0.0129815
498	0.033752
510	0.0602343
522	0.144874
534	0.111468
546	0.0887936
558	0.175337
570	0.136393
582	0.059715
594	0.0332327
606	0.0531377
618	0.0529646
630	0.0846395
642	0.0678501
654	0.0311557
666	0.0292517
678	0.0534839
690	0.0368675
702	0.0415409
714	0.0382522
726	0.0202512
738	0.021809
750	0.035829
762	0.0365214
774	0.0434448
786	0.0339251
798	0.10039
810	0.185376
822	0.115276
834	0.123238
846	0.253399
858	0.101429
870	0.0228475
882	0.0105583
894	0.0200781
906	0.0321942
918	0.0680232
930	0.018001
942	0.0121161
954	0.00830818
966	0.0346174
978	0.0427525
990	0.0694079
1002	0.0401562
1014	0.0313287
1026	0.063696
1038	0.0320211
1050	0.018001
1062	0.0205974
1074	0.0221551
1086	0.0295979
1098	0.0579841
1110	0.102468
1122	0.0548686
1134	0.0565994
1146	0.252361
1158	0.298748
1170	0.328692
1182	0.60217
1194	0.309306
1206	0.105237
1218	0.0600612
1230	0.0569456
1242	0.144528
1254	0.403466
1266	0.414716
1278	0.291825
1290	0.466296
1302	0.416101
1314	0.148855
1326	0.158028
1338	0.364694
1350	0.550763
1362	0.19178
1374	0.100217
1386	0.0749467
1398	0.0593688
1410	0.0711388
1422	0.0768506
1434	0.0900052
1446	0.17776
1458	0.267766
1470	0.499529
1482	0.239552
1494	0.116314
1506	0.312249
1518	0.460931
1530	0.132931
1542	0.103506
1554	0.110083
1566	0.127392
1578	0.114237
1590	0.167202
1602	0.32523
1614	0.527223
1626	0.661885
1638	0.177414
1650	0.0884475
1662	0.0687155
1674	0.0661192
1686	0.112333
1698	0.129642
1710	0.200089
1722	0.620863
1734	1.45237
1746	1.27167
1758	0.374387
1770	0.138816
1782	0.0623113
1794	0.0432717
1806	0.0420601
1818	0.0436179
1830	0.0332327
1842	0.021809
1854	0.0205974
1866	0.0195588
1878	0.0112507
1890	0.00917361
1902	0.00744274
1914	0.00830818
1926	0.00778891
1938	0.00553878
1950	0.00519261
1962	0.00692348
1974	0.00553878
1986	0.00432717
1998	0.00467335
2010	0.00501952
2022	0.00571187
2034	0.00675039
2046	0.00501952
2058	0.00450026
2070	0.00467335
2082	0.0053657
2094	0.00484644
2106	0.00553878
2118	0.00432717
2130	0.003981
2142	0.00415409
2154	0.00380791
2166	0.00346174
2178	0.003981
2190	0.00519261
2202	0.00571187
2214	0.00709657
2226	0.00519261
2238	0.00450026
2250	0.00571187
2262	0.00605804
2274	0.00588496
2286	0.00415409
2298	0.00380791
2310	0.00242322
2322	0.00450026
2334	0.00553878
2346	0.00588496
2358	0.00553878
2370	0.00571187
2382	0.00415409
2394	0.00519261
2406	0.00726965
2418	0.00813509
2430	0.00986596
2442	0.0103852
2454	0.00830818
2466	0.00623113
2478	0.00519261
2490	0.00484644
2502	0.00432717
2514	0.00484644
2526	0.00519261
2538	0.00605804
2550	0.00675039
2562	0.00692348
2574	0.007962
2586	0.00709657
2598	0.00709657
2610	0.007962
2622	0.00726965
2634	0.00726965
2646	0.00623113
2658	0.00605804
2670	0.00571187
2682	0.00484644
2694	0.00501952
2706	0.00484644
2718	0.00467335
2730	0.00640422
2742	0.007962
2754	0.00900052
2766	0.0109045
2778	0.0093467
2790	0.0103852
2802	0.0122892
2814	0.0136739
2826	0.015924
2838	0.023886
2850	0.041714
2862	0.0591958
2874	0.037733
2886	0.0309826
2898	0.0432717
2910	0.0746005
2922	0.0908707
2934	0.0619651
2946	0.0723504
2958	0.0984865
2970	0.0673308
2982	0.0706195
2994	0.0799662
3006	0.0391177
3018	0.0365214
3030	0.0462142
3042	0.0619651
3054	0.0514068
3066	0.0384253
3078	0.0405024
3090	0.0443103
3102	0.03981
3114	0.0405024
3126	0.0399831
3138	0.033752
3150	0.0315018
3162	0.0335789
3174	0.0325404
3186	0.0264823
3198	0.0221551
3210	0.0235398
3222	0.0275208
3234	0.0271747
3246	0.0245784
3258	0.0270016
3270	0.0249245
3282	0.01402
3294	0.00900052
3306	0.00761583
3318	0.00553878
3330	0.00519261
3342	0.00553878
3354	0.00588496
3366	0.00571187
3378	0.00605804
3390	0.00623113
3402	0.00830818
3414	0.021982
3426	0.0784084
3438	0.132758
3450	0.0740812
3462	0.0290786
3474	0.0143662
3486	0.0103852
3498	0.00830818
3510	0.00692348
3522	0.00588496
3534	0.00640422
3546	0.00571187
3558	0.00623113
3570	0.00709657
3582	0.003981
3594	0.00553878
3606	0.00328865
3618	0.00571187
3630	0.00709657
3642	0.00450026
3654	0.00778891
3666	0.00207704
3678	0.00640422
3690	0.00623113
3702	0.00311557
3714	0.00882744
3726	0.00484644
3738	0.00571187
3750	0.0102121
3762	0.00484644
3774	0.00588496
3786	0.00726965
3798	0.00761583
3810	0.00519261
3822	0.00675039
3834	0.00623113
3846	0.00380791
3858	0.00900052
3870	0.00848126
3882	0.00692348
3894	0.00951978
3906	0.00830818
3918	0.00951978
3930	0.00588496
3942	0.00432717
3954	0.00848126
3966	0.0147124
