Infrared Spectrum: 3-Phenylbutyric acid
Formula: C 10 H 12 O 2
CAS: 4593-90-2
Origin: Sadtler Research Labs Under US-EPA Contract
1/CM	ABSORBANCE
450	0.0137711
462	0.0158812
474	0.0111057
486	0.0204345
498	0.0309849
510	0.0550843
522	0.0804053
534	0.112723
546	0.155036
558	0.263427
570	0.314624
582	0.165808
594	0.115721
606	0.129937
618	0.156924
630	0.169473
642	0.136933
654	0.0956201
666	0.0894009
678	0.105726
690	0.247768
702	0.304629
714	0.10406
726	0.050753
738	0.0488651
750	0.107392
762	0.164475
774	0.062303
786	0.0229888
798	0.00844033
810	0.00222114
822	0.000444228
834	0.00322065
846	0.00888456
858	0.0129937
870	0.0177691
882	0.0166586
894	0.0182133
906	0.0307628
918	0.0266537
930	0.0145485
942	0.00844033
954	0.00510862
966	0.00544179
978	0.00621919
990	0.0108836
1002	0.0247657
1014	0.100507
1026	0.116388
1038	0.0852918
1050	0.109946
1062	0.164586
1074	0.251544
1086	0.307406
1098	0.337835
1110	0.376372
1122	0.522412
1134	0.671673
1146	0.445116
1158	0.292524
1170	0.183022
1182	0.125494
1194	0.129826
1206	0.124273
1218	0.0982854
1230	0.0879571
1242	0.0856249
1254	0.0874019
1266	0.0911778
1278	0.0866245
1290	0.0862913
1302	0.0875129
1314	0.0824043
1326	0.081738
1338	0.0951758
1350	0.121718
1362	0.153481
1374	0.213896
1386	0.185576
1398	0.0923994
1410	0.0519747
1422	0.0633025
1434	0.0769625
1446	0.079961
1458	0.101395
1470	0.0580828
1482	0.0443117
1494	0.0971749
1506	0.056417
1518	0.0132158
1530	0.00755188
1542	0.00610814
1554	0.0031096
1566	0.00455334
1578	0.0107725
1590	0.0278753
1602	0.0556396
1614	0.0302075
1626	0.00566391
1638	0.00510862
1650	0.00677448
1662	0.0109946
1674	0.0121052
1686	0.0168807
1698	0.0274311
1710	0.046755
1722	0.0865134
1734	0.160588
1746	0.255098
1758	0.441563
1770	0.923217
1782	1.0396
1794	0.52319
1806	0.247324
1818	0.119386
1830	0.0563059
1842	0.0299854
1854	0.0206566
1866	0.0191018
1878	0.0171028
1890	0.0115499
1902	0.00633025
1914	0.00633025
1926	0.0101062
1938	0.0166586
1950	0.0163254
1962	0.0109946
1974	0.003887
1986	0.00366488
1998	0.0031096
2010	0.00277642
2022	0.00199903
2034	0.00166586
2046	0.00133268
2058	0.000999513
2070	0.000555285
2082	0.000222114
2094	0.000111057
2106	0.000111057
2118	0.000111057
2130	0.000444228
2142	0.000666342
2154	0.000888456
2166	0.000999513
2178	0.00144374
2190	0.00188797
2202	0.00211008
2214	0.00266537
2226	0.00288748
2238	0.00288748
2250	0.0023322
2262	0.0023322
2274	0.00188797
2286	0.0023322
2298	0.00255431
2310	0.00355382
2322	0.00333171
2334	0.00244325
2346	0.00433122
2358	0.0023322
2370	0.00288748
2382	0.00255431
2394	0.000888456
2406	0.000777399
2418	0.00111057
2430	0.00111057
2442	0.00122163
2454	0.00133268
2466	0.000888456
2478	0.00111057
2490	0.000888456
2502	0.000666342
2514	0.000444228
2526	0.000222114
2538	0
2550	0.000111057
2562	0.000222114
2574	0.000333171
2586	0.000666342
2598	0.000888456
2610	0.000777399
2622	0.00111057
2634	0.00133268
2646	0.00122163
2658	0.00133268
2670	0.000888456
2682	0.00144374
2694	0.0015548
2706	0.00111057
2718	0.00122163
2730	0.00222114
2742	0.0031096
2754	0.00299854
2766	0.0023322
2778	0.0023322
2790	0.00288748
2802	0.00410911
2814	0.00566391
2826	0.0079961
2838	0.0118831
2850	0.0143264
2862	0.0192129
2874	0.0415353
2886	0.0721871
2898	0.0667453
2910	0.0653015
2922	0.0968417
2934	0.143375
2946	0.132269
2958	0.124828
2970	0.251211
2982	0.267536
2994	0.0989518
3006	0.0518636
3018	0.0665231
3030	0.149261
3042	0.163254
3054	0.0905115
3066	0.145485
3078	0.169806
3090	0.100729
3102	0.0638578
3114	0.0387589
3126	0.0178802
3138	0.00855139
3150	0.00699659
3162	0.00766293
3174	0.00655236
3186	0.00510862
3198	0.00533074
3210	0.00477545
3222	0.003887
3234	0.00355382
3246	0.0023322
3258	0.0023322
3270	0.0023322
3282	0.00199903
3294	0.00166586
3306	0.000777399
3318	0.000666342
3330	0.000999513
3342	0.00111057
3354	0.00111057
3366	0.000888456
3378	0.000777399
3390	0.000999513
3402	0.000555285
3414	0.000666342
3426	0.000888456
3438	0.000555285
3450	0.00111057
3462	0.000666342
3474	0.000888456
3486	0.0015548
3498	0.003887
3510	0.00644131
3522	0.00844033
3534	0.0124384
3546	0.0199903
3558	0.0510862
3570	0.42868
3582	0.331727
3594	0.0317623
3606	0.0119942
3618	0.0087735
3630	0.00810716
3642	0.00366488
3654	0.003887
3666	0.00122163
3678	0.00288748
3690	0.00177691
3702	0.00133268
3714	0.00299854
3726	0.0023322
3738	0.00299854
3750	0.00277642
3762	0.000333171
3774	0.000888456
3786	0.000999513
3798	0.000777399
3810	0.0015548
3822	0.00166586
3834	0.00255431
3846	0.0015548
3858	0.00211008
3870	0.00277642
3882	0.00266537
3894	0.00111057
3906	0.00188797
3918	0.00166586
3930	0.00166586
3942	0.000666342
3954	0.000555285
3966	0.000444228
