Infrared Spectrum: p-Bromofluorobenzene
Formula: C 6 H 4 Br F
CAS: 460-00-4
Origin: Sadtler Research Labs Under US-EPA Contract
1/CM	ABSORBANCE
450	0.0121698
462	0.0102767
474	0.0273144
486	0.0695031
498	0.123862
510	0.0692326
522	0.0141981
534	0.0143333
546	0.00162264
558	0.0094654
570	0.038132
582	0.0394842
594	0.295185
606	0.148472
618	0.00162264
630	0.0133868
642	0.0033805
654	0.00229874
666	0.00216352
678	0.00243396
690	0.00175786
702	0.0027044
714	0.00229874
726	0.00027044
738	0.0047327
750	0.0118994
762	0.00567924
774	0.0027044
786	0.0054088
798	0.0356981
810	0.156179
822	0.330207
834	0.274902
846	0.100739
858	0.0112233
870	0.00446226
882	0.00554402
894	0.00324528
906	0.00432704
918	0.00527358
930	0.006761
942	0.00500314
954	0.00378616
966	0.00378616
978	0.0027044
990	0.0054088
1002	0.0252861
1014	0.148607
1026	0.0392138
1038	0.00554402
1050	0.0121698
1062	0.20594
1074	0.344541
1086	0.040566
1098	0.0356981
1110	0.0174434
1122	0.0114937
1134	0.00527358
1146	0.0155503
1158	0.109123
1170	0.00622012
1182	0.0173082
1194	0.0205534
1206	0.0205534
1218	0.0538176
1230	0.433515
1242	1.3522
1254	0.0263679
1266	0.0151446
1278	0.0146038
1290	0.017849
1302	0.0187956
1314	0.0152799
1326	0.0105472
1338	0.00622012
1350	0.00824842
1362	0.00770754
1374	0.00757232
1386	0.0120346
1398	0.0156855
1410	0.0150094
1422	0.047327
1434	0.0252861
1446	0.00824842
1458	0.0152799
1470	0.0489496
1482	0.675694
1494	1.1633
1506	0.104931
1518	0.0808616
1530	0.0220409
1542	0.0054088
1554	0.0054088
1566	0.00919496
1578	0.0434056
1590	0.181465
1602	0.0603081
1614	0.0260975
1626	0.0320471
1638	0.0210943
1650	0.00784276
1662	0.0054088
1674	0.0047327
1686	0.00486792
1698	0.00594968
1710	0.0054088
1722	0.00446226
1734	0.00635534
1746	0.0183899
1758	0.0104119
1770	0.00256918
1782	0.0027044
1794	0.00351572
1806	0.00324528
1818	0.0040566
1830	0.00703144
1842	0.0074371
1854	0.00770754
1866	0.0208239
1878	0.0252861
1890	0.0146038
1902	0.00392138
1914	0.00108176
1926	0.0013522
1938	0.00189308
1950	0.00108176
1962	0.00229874
1974	0.00243396
1986	0.0020283
1998	0.00243396
2010	0.00324528
2022	0.00351572
2034	0.00689622
2046	0.0124402
2058	0.00987106
2070	0.00649056
2082	0.0020283
2094	0.0006761
2106	0.00108176
2118	0.00013522
2130	0.0006761
2142	0.00094654
2154	0.00054088
2166	0.0013522
2178	0.00189308
2190	0.00148742
2202	0.00108176
2214	0.0013522
2226	0.0020283
2238	0.0033805
2250	0.00378616
2262	0.00311006
2274	0.00216352
2286	0.00256918
2298	0.00392138
2310	0.00256918
2322	0.00013522
2334	0.00027044
2346	0.00419182
2358	0
2370	0.0074371
2382	0.00797798
2394	0.00730188
2406	0.00581446
2418	0.00567924
2430	0.0040566
2442	0.00351572
2454	0.00527358
2466	0.00933018
2478	0.0113585
2490	0.00324528
2502	0.00392138
2514	0.00419182
2526	0.00500314
2538	0.00581446
2550	0.0074371
2562	0.00662578
2574	0.00419182
2586	0.0040566
2598	0.00378616
2610	0.00297484
2622	0.00297484
2634	0.00216352
2646	0.00311006
2658	0.00243396
2670	0.00148742
2682	0.00229874
2694	0.00365094
2706	0.00500314
2718	0.0060849
2730	0.00554402
2742	0.00500314
2754	0.0054088
2766	0.00554402
2778	0.00567924
2790	0.00527358
2802	0.0040566
2814	0.00567924
2826	0.00757232
2838	0.00757232
2850	0.0108176
2862	0.0094654
2874	0.00622012
2886	0.00513836
2898	0.00554402
2910	0.00500314
2922	0.00554402
2934	0.00554402
2946	0.00432704
2958	0.00432704
2970	0.00446226
2982	0.00432704
2994	0.00486792
3006	0.00581446
3018	0.00500314
3030	0.0047327
3042	0.00933018
3054	0.0148742
3066	0.0114937
3078	0.0177138
3090	0.0225817
3102	0.0163616
3114	0.0120346
3126	0.00622012
3138	0.0033805
3150	0.00351572
3162	0.00256918
3174	0.0033805
3186	0.0027044
3198	0.00229874
3210	0.00311006
3222	0.00189308
3234	0.00432704
3246	0.00216352
3258	0.00324528
3270	0.00392138
3282	0.0047327
3294	0.00446226
3306	0.00649056
3318	0.0033805
3330	0.0047327
3342	0.0054088
3354	0.00243396
3366	0.00513836
3378	0.0054088
3390	0.00365094
3402	0.00919496
3414	0.00500314
3426	0.00446226
3438	0.00459748
3450	0.00486792
3462	0.00419182
3474	0.00567924
3486	0.00378616
3498	0.0027044
3510	0.0047327
3522	0.00311006
3534	0.0047327
3546	0.0040566
3558	0.00446226
3570	0.00365094
3582	0.00216352
3594	0.00446226
3606	0.00175786
3618	0.00094654
3630	0.00351572
3642	0.00162264
3654	0.0033805
3666	0.00108176
3678	0.00486792
3690	0.00094654
3702	0.0020283
3714	0.00216352
3726	0.00378616
3738	0.00351572
3750	0.00365094
3762	0.00365094
3774	0.00162264
3786	0.00311006
3798	0.0013522
3810	0.00513836
3822	0.0040566
3834	0.00229874
3846	0.00243396
3858	0.00459748
3870	0.00094654
3882	0.00527358
3894	0.00351572
3906	0.00635534
3918	0.00419182
3930	0.0040566
3942	0.00567924
3954	0.00703144
3966	0.00432704
