Infrared Spectrum: 7-Tridecanone
Formula: C 13 H 26 O
CAS: 462-18-0
Origin: Sadtler Research Labs Under US-EPA Contract
1/CM	ABSORBANCE
450	0
462	0.0391831
474	0.0402421
486	0.0561272
498	0.0437721
510	0.0558918
522	0.0449488
534	0.0468315
546	0.0533032
558	0.0460078
570	0.0429485
582	0.0438898
594	0.0377711
606	0.0440075
618	0.0481258
630	0.0456548
642	0.0469491
654	0.0460078
666	0.0407128
678	0.0434191
690	0.0456548
702	0.0487141
714	0.0589512
726	0.0664819
738	0.0640108
750	0.0524795
762	0.0537738
774	0.0507145
786	0.0483611
798	0.0437721
810	0.0481258
822	0.0497731
834	0.0469491
846	0.0449488
858	0.0467138
870	0.0514205
882	0.0588335
894	0.0540092
906	0.0491848
918	0.0470668
930	0.0523618
942	0.0491848
954	0.0558918
966	0.0609515
978	0.0660112
990	0.0677762
1002	0.0647168
1014	0.0678939
1026	0.0665995
1038	0.0778956
1050	0.0969576
1062	0.128728
1074	0.107195
1086	0.0838966
1098	0.0769542
1110	0.0853086
1122	0.105194
1134	0.120726
1146	0.111784
1158	0.0928393
1170	0.0783662
1182	0.0793076
1194	0.0918979
1206	0.0982519
1218	0.0913096
1230	0.0841319
1242	0.0751892
1254	0.0793076
1266	0.0836612
1278	0.0991933
1290	0.0953103
1302	0.0950749
1314	0.1019
1326	0.104488
1338	0.126727
1350	0.152261
1362	0.170382
1374	0.133787
1386	0.1059
1398	0.0864852
1410	0.0971929
1422	0.108842
1434	0.11096
1446	0.132258
1458	0.175559
1470	0.156968
1482	0.0927216
1494	0.0629518
1506	0.0547152
1518	0.0482435
1530	0.0435368
1542	0.0441251
1554	0.0394184
1566	0.0388301
1578	0.0388301
1590	0.0377711
1602	0.0385948
1614	0.0380064
1626	0.0375358
1638	0.0422425
1650	0.0441251
1662	0.0437721
1674	0.0564802
1686	0.0711885
1698	0.108489
1710	0.22192
1722	0.459137
1734	0.347
1746	0.124021
1758	0.0669525
1770	0.0550682
1782	0.0444781
1794	0.0388301
1806	0.0361238
1818	0.0332998
1830	0.0329468
1842	0.0324761
1854	0.0308288
1866	0.0320054
1878	0.0300051
1890	0.0303581
1902	0.0301228
1914	0.0298874
1926	0.0302404
1938	0.0295344
1950	0.0291814
1962	0.0291814
1974	0.0291814
1986	0.0284754
1998	0.0294167
2010	0.0291814
2022	0.0295344
2034	0.0304758
2046	0.0300051
2058	0.0295344
2070	0.0291814
2082	0.0285931
2094	0.0297698
2106	0.0285931
2118	0.0287107
2130	0.0291814
2142	0.0288284
2154	0.0289461
2166	0.0289461
2178	0.0283577
2190	0.0283577
2202	0.0281224
2214	0.0281224
2226	0.0275341
2238	0.0278871
2250	0.0282401
2262	0.0282401
2274	0.0283577
2286	0.0281224
2298	0.0283577
2310	0.0291814
2322	0.0287107
2334	0.0284754
2346	0.0298874
2358	0.0284754
2370	0.0298874
2382	0.0294167
2394	0.0285931
2406	0.0290637
2418	0.0288284
2430	0.0289461
2442	0.0283577
2454	0.0281224
2466	0.0282401
2478	0.0282401
2490	0.0283577
2502	0.0288284
2514	0.0283577
2526	0.0291814
2538	0.0297698
2550	0.0297698
2562	0.0304758
2574	0.0314171
2586	0.0316524
2598	0.0321231
2610	0.0325938
2622	0.0337704
2634	0.0345941
2646	0.0358884
2658	0.0375358
2670	0.0390654
2682	0.0398891
2694	0.0395361
2706	0.0396538
2718	0.0393008
2730	0.0418895
2742	0.0444781
2754	0.0457725
2766	0.0464785
2778	0.0491848
2790	0.0568332
2802	0.0667172
2814	0.0793076
2826	0.0958986
2838	0.131081
2850	0.223803
2862	0.42972
2874	0.494201
2886	0.470197
2898	0.442663
2910	0.553506
2922	0.825316
2934	1.16349
2946	1.05147
2958	0.839789
2970	0.815903
2982	0.386771
2994	0.181207
3006	0.115196
3018	0.0856616
3030	0.0707179
3042	0.0608338
3054	0.0525971
3066	0.0482435
3078	0.0454195
3090	0.0428308
3102	0.0420071
3114	0.0396538
3126	0.0382418
3138	0.0365944
3150	0.0361238
3162	0.0356531
3174	0.0354178
3186	0.0340058
3198	0.0334174
3210	0.0320054
3222	0.0314171
3234	0.0304758
3246	0.0297698
3258	0.0290637
3270	0.0294167
3282	0.0288284
3294	0.0289461
3306	0.0294167
3318	0.0291814
3330	0.0292991
3342	0.0297698
3354	0.0297698
3366	0.0296521
3378	0.0303581
3390	0.0302404
3402	0.0317701
3414	0.0324761
3426	0.0361238
3438	0.0348294
3450	0.0321231
3462	0.0305934
3474	0.0291814
3486	0.0281224
3498	0.0287107
3510	0.0292991
3522	0.0294167
3534	0.0280047
3546	0.0287107
3558	0.0284754
3570	0.0295344
3582	0.0301228
3594	0.0291814
3606	0.0300051
3618	0.0307111
3630	0.0303581
3642	0.0298874
3654	0.0294167
3666	0.0298874
3678	0.0329468
3690	0.0295344
3702	0.0290637
3714	0.0303581
3726	0.0296521
3738	0.0307111
3750	0.0303581
3762	0.0291814
3774	0.0295344
3786	0.0291814
3798	0.0298874
3810	0.0300051
3822	0.0322408
3834	0.0287107
3846	0.0285931
3858	0.0311818
3870	0.0344764
3882	0.0311818
3894	0.0325938
3906	0.0300051
3918	0.0300051
3930	0.0332998
3942	0.0308288
3954	0.0320054
3966	0.0354178
