Infrared Spectrum: Benzene, fluoro-
Formula: C 6 H 5 F
CAS: 462-06-6
Origin: Sadtler Research Labs Under US-EPA Contract
1/CM	ABSORBANCE
450	0.00946395
462	0.0160649
474	0.039844
486	0.0691107
498	0.148799
510	0.109591
522	0.0544774
534	0.0189279
546	0.0120089
558	0.0142357
570	0.0135995
582	0.016383
594	0.0131223
606	0.013679
618	0.0152696
630	0.0149515
642	0.0155082
654	0.0323683
666	0.0856527
678	0.115078
690	0.122634
702	0.0744391
714	0.0328455
726	0.10641
738	0.287497
750	0.560361
762	0.297995
774	0.184189
786	0.0610783
798	0.172419
810	0.176952
822	0.14355
834	0.0510576
846	0.0132813
858	0.0112931
870	0.0284714
882	0.041196
894	0.10299
906	0.0357881
918	0.0175759
930	0.00405598
942	0.00349928
954	0.00357881
966	0.00715761
978	0.0186098
990	0.0196437
1002	0.0250516
1014	0.0362652
1026	0.0229839
1038	0.0164625
1050	0.0357881
1062	0.0450134
1074	0.0487513
1086	0.0161444
1098	0.00779384
1110	0.00938442
1122	0.0104978
1134	0.0167011
1146	0.0884362
1158	0.0963096
1170	0.0639413
1182	0.0130428
1194	0.0291871
1206	0.107603
1218	0.394941
1230	0.7564
1242	0.659773
1254	0.179815
1266	0.0323683
1278	0.0101797
1290	0.00866866
1302	0.00811196
1314	0.0133609
1326	0.0188484
1338	0.0159058
1350	0.00866866
1362	0.00318116
1374	0.00628279
1386	0.0104183
1398	0.00715761
1410	0.00349928
1422	0.00540797
1434	0.00787337
1446	0.0271989
1458	0.0436614
1470	0.0779384
1482	0.28034
1494	0.565769
1506	0.584379
1518	0.146492
1530	0.0336408
1542	0.0172578
1554	0.0162239
1566	0.0318116
1578	0.0997294
1590	0.359073
1602	0.554953
1614	0.223158
1626	0.0248926
1638	0.00938442
1650	0
1662	0.00532844
1674	0.00230634
1686	0.00787337
1698	0.0130428
1710	0.016383
1722	0.0135995
1734	0.00159058
1746	0.00421504
1758	0.0116908
1770	0.0119294
1782	0.0107364
1794	0.00365833
1806	0.00405598
1818	0.00564656
1830	0.00715761
1842	0.0152696
1854	0.0211547
1866	0.0125656
1878	0.00882772
1890	0.00373786
1902	0.00612373
1914	0.0130428
1926	0.0197232
1938	0.0264036
1950	0.0164625
1962	0.0116908
1974	0.00628279
1986	0.0043741
1998	0.00357881
2010	0.00429457
2022	0.0073962
2034	0.0119294
2046	0.0104183
2058	0.00516939
2070	0.00214728
2082	0.00103388
2094	0.000954348
2106	0.0019087
2118	0.00206775
2130	0.0024654
2142	0.0019087
2154	0.00111341
2166	0.00167011
2178	0.000874819
2190	0.00079529
2202	0.000874819
2214	0.00278352
2226	0.00151105
2238	0.0019087
2250	0.00151105
2262	0.00151105
2274	0.00159058
2286	0.00262446
2298	0.00723714
2310	0.00978207
2322	0.0101002
2334	0.00596468
2346	0.00636232
2358	0.00469221
2370	0.00636232
2382	0.00675997
2394	0.00723714
2406	0.00779384
2418	0.00580562
2430	0.00540797
2442	0.00755526
2454	0.0100207
2466	0.00930489
2478	0.00540797
2490	0.00357881
2502	0.00310163
2514	0.00254493
2526	0.00214728
2538	0.00222681
2550	0.00334022
2562	0.00469221
2574	0.00421504
2586	0.00365833
2598	0.00381739
2610	0.00516939
2622	0.00588515
2634	0.00429457
2646	0.00469221
2658	0.00445362
2670	0.0024654
2682	0.00143152
2694	0.00174964
2706	0.00198823
2718	0.00214728
2730	0.00262446
2742	0.0030221
2754	0.00222681
2766	0.00174964
2778	0.00167011
2790	0.00174964
2802	0.00167011
2814	0.00143152
2826	0.00182917
2838	0.00182917
2850	0.00238587
2862	0.00357881
2874	0.00445362
2886	0.0049308
2898	0.00397645
2910	0.00286304
2922	0.00389692
2934	0.00349928
2946	0.00310163
2958	0.00365833
2970	0.00373786
2982	0.0030221
2994	0.00270399
3006	0.00334022
3018	0.0098616
3030	0.030221
3042	0.0675201
3054	0.121202
3066	0.133211
3078	0.121123
3090	0.114919
3102	0.0951167
3114	0.0474788
3126	0.0244154
3138	0.0073962
3150	0.00230634
3162	0.00262446
3174	0.00214728
3186	0.00151105
3198	0.0019087
3210	0.00230634
3222	0.00182917
3234	0.00262446
3246	0.00238587
3258	0.00230634
3270	0.00230634
3282	0.00174964
3294	0.00206775
3306	0.00230634
3318	0.00238587
3330	0.0024654
3342	0.00167011
3354	0.00206775
3366	0.00286304
3378	0.00254493
3390	0.00206775
3402	0.00174964
3414	0.00222681
3426	0.00214728
3438	0.00230634
3450	0.00270399
3462	0.00167011
3474	0.0024654
3486	0.00222681
3498	0.00294257
3510	0.00103388
3522	0.0024654
3534	0.00214728
3546	0.00222681
3558	0.00270399
3570	0.00270399
3582	0.00341975
3594	0.00294257
3606	0.00349928
3618	0.0024654
3630	0.00151105
3642	0.00214728
3654	0.00286304
3666	0.00182917
3678	0.0024654
3690	0.0019087
3702	0.00119294
3714	0.00254493
3726	0.00198823
3738	0.00230634
3750	0.00278352
3762	0.00214728
3774	0.00389692
3786	0.00326069
3798	0.00214728
3810	0.00341975
3822	0.00310163
3834	0.00326069
3846	0.00532844
3858	0.00516939
3870	0.00349928
3882	0.00365833
3894	0.00445362
3906	0.00453315
3918	0.0043741
3930	0.00238587
3942	0.00262446
3954	0.00174964
3966	0.00357881
