Infrared Spectrum: Cyclohexanecarboxylic acid, methyl ester
Formula: C 8 H 14 O 2
CAS: 4630-82-4
Origin: Sadtler Research Labs Under US-EPA Contract
1/CM	ABSORBANCE
450	0
462	0.0593452
474	0.0347612
486	0.0358186
498	0.0403125
510	0.0354221
522	0.0333073
534	0.0263022
546	0.0344969
558	0.0214119
570	0.0273596
582	0.033043
594	0.0315891
606	0.0306639
618	0.0317213
630	0.0371403
642	0.036876
654	0.0318535
666	0.03225
678	0.040709
690	0.0370082
702	0.0395194
714	0.044542
726	0.0436168
738	0.0342325
750	0.0598739
762	0.0526045
774	0.0469211
786	0.036876
798	0.0363473
810	0.0385942
822	0.0412377
834	0.0564374
846	0.0586844
858	0.0527366
870	0.0641034
882	0.0711085
894	0.0720337
906	0.0635747
918	0.0457315
930	0.0388586
942	0.0366116
954	0.0391229
966	0.0429559
978	0.0555122
990	0.0733555
1002	0.0734876
1014	0.110231
1026	0.142217
1038	0.261833
1050	0.274521
1062	0.1138
1074	0.0810214
1086	0.0778493
1098	0.0816823
1110	0.10891
1122	0.18015
1134	0.319328
1146	0.323028
1158	0.436961
1170	0.787084
1182	0.713068
1194	0.630857
1206	0.451103
1218	0.344308
1230	0.36572
1242	0.45216
1254	0.50265
1266	0.308622
1278	0.251259
1290	0.174203
1302	0.199448
1314	0.26104
1326	0.241214
1338	0.170238
1350	0.107059
1362	0.0988647
1374	0.131908
1386	0.100979
1398	0.0642356
1410	0.0597417
1422	0.0685973
1434	0.175524
1446	0.256149
1458	0.228261
1470	0.144993
1482	0.0789067
1494	0.0486393
1506	0.042295
1518	0.0350256
1530	0.0337039
1542	0.0348934
1554	0.0383299
1566	0.0348934
1578	0.0294744
1590	0.0335717
1602	0.0311926
1614	0.0310604
1626	0.0314569
1638	0.0315891
1650	0.0305317
1662	0.0333073
1674	0.0315891
1686	0.0342325
1698	0.0440133
1710	0.0728268
1722	0.148561
1734	0.324086
1746	0.730647
1758	1.02301
1770	0.62253
1782	0.266194
1794	0.100715
1806	0.0519436
1818	0.0358186
1830	0.0303996
1842	0.0280205
1854	0.0273596
1866	0.0265666
1878	0.0277561
1890	0.0264344
1902	0.0252449
1914	0.0257735
1926	0.0247162
1938	0.0244518
1950	0.0249805
1962	0.0266987
1974	0.0278883
1986	0.0272274
1998	0.0270953
2010	0.0280205
2022	0.0296065
2034	0.0296065
2046	0.0266987
2058	0.0281526
2070	0.0290778
2082	0.0286813
2094	0.0276239
2106	0.025377
2118	0.024584
2130	0.0240553
2142	0.0239231
2154	0.0236588
2166	0.0229979
2178	0.0220727
2190	0.0223371
2202	0.0227336
2214	0.0224692
2226	0.0219406
2238	0.0223371
2250	0.0222049
2262	0.0219406
2274	0.0222049
2286	0.021544
2298	0.0224692
2310	0.0223371
2322	0.0218084
2334	0.0219406
2346	0.0218084
2358	0.0222049
2370	0.0229979
2382	0.0235266
2394	0.0214119
2406	0.0212797
2418	0.0211475
2430	0.0206188
2442	0.0196936
2454	0.0195615
2466	0.0194293
2478	0.019958
2490	0.0210153
2502	0.0202223
2514	0.0203545
2526	0.0206188
2538	0.020751
2550	0.0202223
2562	0.020751
2574	0.0214119
2586	0.0227336
2598	0.0239231
2610	0.0241875
2622	0.023791
2634	0.0241875
2646	0.0263022
2658	0.0309282
2670	0.0341004
2682	0.0309282
2694	0.0278883
2706	0.0261701
2718	0.023791
2730	0.0227336
2742	0.0222049
2754	0.0235266
2766	0.0249805
2778	0.0272274
2790	0.0311926
2802	0.0350256
2814	0.0372725
2826	0.0428237
2838	0.065293
2850	0.160325
2862	0.39308
2874	0.382374
2886	0.197994
2898	0.175657
2910	0.274389
2922	0.484543
2934	0.966045
2946	1.32172
2958	0.796601
2970	0.366249
2982	0.151073
2994	0.106927
3006	0.094503
3018	0.0824753
3030	0.0759989
3042	0.0582879
3054	0.0426916
3066	0.0359508
3078	0.0352899
3090	0.0334395
3102	0.0310604
3114	0.0286813
3126	0.0263022
3138	0.0251127
3150	0.0241875
3162	0.0239231
3174	0.0232623
3186	0.0228658
3198	0.0216762
3210	0.020751
3222	0.0211475
3234	0.020751
3246	0.0206188
3258	0.0204867
3270	0.0195615
3282	0.0203545
3294	0.0210153
3306	0.0196936
3318	0.0206188
3330	0.0198258
3342	0.0204867
3354	0.0211475
3366	0.020751
3378	0.0210153
3390	0.0208832
3402	0.0208832
3414	0.0200901
3426	0.0223371
3438	0.0226014
3450	0.0231301
3462	0.0243196
3474	0.0251127
3486	0.0290778
3498	0.0282848
3510	0.0244518
3522	0.0235266
3534	0.0216762
3546	0.020751
3558	0.0211475
3570	0.0228658
3582	0.0223371
3594	0.0211475
3606	0.0203545
3618	0.0203545
3630	0.0211475
3642	0.020751
3654	0.0212797
3666	0.0216762
3678	0.0206188
3690	0.0198258
3702	0.0206188
3714	0.0210153
3726	0.0211475
3738	0.0220727
3750	0.0211475
3762	0.0227336
3774	0.0210153
3786	0.0196936
3798	0.0198258
3810	0.0206188
3822	0.021544
3834	0.020751
3846	0.0229979
3858	0.0204867
3870	0.0222049
3882	0.0218084
3894	0.0192971
3906	0.0208832
3918	0.0229979
3930	0.0232623
3942	0.0226014
3954	0.0194293
3966	0.0206188
