Infrared Spectrum: 2-Butanol, 3,3-dimethyl-
Formula: C 6 H 14 O
CAS: 464-07-3
Origin: Sadtler Research Labs Under US-EPA Contract
1/CM	ABSORBANCE
450	0.0191219
462	0.0174735
474	0.0193692
486	0.0189571
498	0.0131875
510	0.00626407
522	0.00535743
534	0.00807736
546	0.0124457
558	0.0140942
570	0.0117039
582	0.00659376
594	0.00692345
606	0.00568712
618	0.00708829
630	0.00535743
642	0.00585196
654	0.00585196
666	0.00189571
678	0.00354415
690	0.00494532
702	0.00626407
714	0.00642892
726	0.00461563
738	0.00568712
750	0.00255508
762	0.00304961
774	0.00222539
786	0.00296719
798	0.00379141
810	0.00370899
822	0.00741798
834	0.0101379
846	0.0117039
858	0.00931369
870	0.00906642
882	0.0143414
894	0.0424473
906	0.0990712
918	0.122644
930	0.0724489
942	0.026952
954	0.0172262
966	0.0183801
978	0.0256332
990	0.0548931
1002	0.0863783
1014	0.081845
1026	0.0598384
1038	0.0680806
1050	0.0953623
1062	0.110775
1074	0.147123
1086	0.261937
1098	0.320045
1110	0.201357
1122	0.07657
1134	0.039645
1146	0.0314028
1158	0.0319797
1170	0.0445079
1182	0.0611571
1194	0.073438
1206	0.081845
1218	0.0775591
1230	0.075581
1242	0.0838232
1254	0.0817626
1266	0.0680806
1278	0.0538216
1290	0.0420352
1302	0.0340403
1314	0.0284356
1326	0.029095
1338	0.0403044
1350	0.0693169
1362	0.134678
1374	0.207539
1386	0.201357
1398	0.131133
1410	0.0662673
1422	0.0323918
1434	0.035359
1446	0.0565415
1458	0.091406
1470	0.120006
1482	0.113083
1494	0.0708829
1506	0.024809
1518	0.00840704
1530	0.00626407
1542	0.00568712
1554	0.00576954
1566	0.00445079
1578	0.0033793
1590	0.00280235
1602	0.0026375
1614	0.00329688
1626	0.00329688
1638	0.00271993
1650	0.00329688
1662	0.00321446
1674	0.00271993
1686	0.00362657
1698	0.00511016
1710	0.0107149
1722	0.0164844
1734	0.014259
1746	0.00527501
1758	0.0026375
1770	0.00206055
1782	0.0014836
1794	0.00082422
1806	0.00123633
1818	0.00131875
1830	0.0014836
1842	0.00115391
1854	0.00115391
1866	0.00115391
1878	0.000906642
1890	0.000906642
1902	0.00107149
1914	0.00156602
1926	0.00206055
1938	0.00214297
1950	0.00156602
1962	0.00107149
1974	0.00115391
1986	0.00115391
1998	0.00131875
2010	0.00123633
2022	0.000576954
2034	0.000494532
2046	0.000494532
2058	0.000576954
2070	0.000989064
2082	0.000989064
2094	0.00115391
2106	0.00082422
2118	8.2422e-05
2130	0.000576954
2142	8.2422e-05
2154	0.000247266
2166	0.000247266
2178	0.00041211
2190	0.000906642
2202	0.000906642
2214	0.00123633
2226	0.000989064
2238	0.00041211
2250	0.00041211
2262	0.000906642
2274	0.00140117
2286	0.00230782
2298	0.0033793
2310	0.00379141
2322	0.00403868
2334	0.0048629
2346	0.00527501
2358	0.00634649
2370	0.0056047
2382	0.00280235
2394	0.00222539
2406	0.00214297
2418	0.00230782
2430	0.00214297
2442	0.00214297
2454	0.00214297
2466	0.00214297
2478	0.00164844
2490	0.00164844
2502	0.00156602
2514	0.00156602
2526	0.00164844
2538	0.00206055
2550	0.00206055
2562	0.00247266
2574	0.00354415
2586	0.00387383
2598	0.00453321
2610	0.00543985
2622	0.00642892
2634	0.00873673
2646	0.0112094
2658	0.0121985
2670	0.0107973
2682	0.00931369
2694	0.00890158
2706	0.0106324
2718	0.0130227
2730	0.0141766
2742	0.0138469
2754	0.0131875
2766	0.0134348
2778	0.0140117
2790	0.0164844
2802	0.0207703
2814	0.0262102
2826	0.032804
2838	0.0482169
2850	0.0870376
2862	0.175476
2874	0.293834
2886	0.327792
2898	0.270344
2910	0.248173
2922	0.26103
2934	0.297543
2946	0.426369
2958	0.659046
2970	0.817214
2982	0.678168
2994	0.333974
3006	0.11366
3018	0.0305786
3030	0.0157426
3042	0.0127754
3054	0.0122809
3066	0.0117863
3078	0.0100555
3090	0.00881915
3102	0.00774767
3114	0.00684103
3126	0.00708829
3138	0.00758282
3150	0.0082422
3162	0.00964337
3174	0.0102203
3186	0.0101379
3198	0.0102203
3210	0.0097258
3222	0.00766525
3234	0.00568712
3246	0.00379141
3258	0.00247266
3270	0.000741798
3282	0.000247266
3294	0.00041211
3306	0.00107149
3318	0.00131875
3330	0.00164844
3342	0.00123633
3354	0.00173086
3366	0.00189571
3378	0.00115391
3390	0.00181328
3402	0.00131875
3414	0.00197813
3426	0.00206055
3438	0.00313204
3450	0.00247266
3462	0.00156602
3474	0.00206055
3486	0.00206055
3498	0.000659376
3510	0.00131875
3522	0.000989064
3534	0.000494532
3546	0
3558	0.00082422
3570	0.000989064
3582	0.000989064
3594	0.0014836
3606	0.00140117
3618	0.00296719
3630	0.00939611
3642	0.0244793
3654	0.053904
3666	0.0643716
3678	0.0350294
3690	0.00848947
3702	0.00288477
3714	0.00164844
3726	0.00173086
3738	0.00123633
3750	0.00115391
3762	0.00173086
3774	0.00123633
3786	0.00115391
3798	0.00082422
3810	0.00115391
3822	0.00321446
3834	0.00214297
3846	0.00255508
3858	0.00296719
3870	0.00313204
3882	0.00255508
3894	0.00230782
3906	0.00197813
3918	0.00197813
3930	0.00206055
3942	0.00131875
3954	0
3966	0
