Infrared Spectrum: 4-(2-Thienyl)butyric acid
Formula: C 8 H 10 O 2 S
CAS: 4653-11-6
Origin: Sadtler Research Labs Under US-EPA Contract
1/CM	ABSORBANCE
450	0.0113792
462	0.00711199
474	0.022384
486	0.055174
498	0.074863
510	0.0521795
522	0.0738149
534	0.0654303
546	0.0982951
558	0.108476
570	0.0873651
582	0.105407
594	0.109674
606	0.123898
618	0.127342
630	0.114466
642	0.0881886
654	0.0736652
666	0.0747133
678	0.148828
690	0.373492
702	0.208493
714	0.0702964
726	0.0467894
738	0.0321911
750	0.0286725
762	0.0266512
774	0.0283731
786	0.0335386
798	0.0285977
810	0.044244
822	0.075387
834	0.0519549
846	0.061762
858	0.0526287
870	0.0255283
882	0.0163201
894	0.0193147
906	0.0101065
918	0.00434205
930	0.00651308
942	0.00726171
954	0.0149726
966	0.0272501
978	0.0281485
990	0.030619
1002	0.0391533
1014	0.0597407
1026	0.0737401
1038	0.0649062
1050	0.071569
1062	0.0807023
1074	0.104359
1086	0.128091
1098	0.218375
1110	0.416837
1122	0.454044
1134	0.369299
1146	0.293238
1158	0.210515
1170	0.148528
1182	0.12839
1194	0.121652
1206	0.107878
1218	0.0917072
1230	0.0854187
1242	0.0936536
1254	0.0923809
1266	0.0673018
1278	0.0653554
1290	0.0595909
1302	0.0540511
1314	0.0494844
1326	0.0564467
1338	0.0675264
1350	0.0805526
1362	0.0928301
1374	0.121578
1386	0.135128
1398	0.0848946
1410	0.0507571
1422	0.0526287
1434	0.0706707
1446	0.0801034
1458	0.0613128
1470	0.0299452
1482	0.0135502
1494	0.0120529
1506	0.0117535
1518	0.0115289
1530	0.00801034
1542	0.00666281
1554	0.00374315
1566	0.00516555
1578	0.00898356
1590	0.00913329
1602	0.0068874
1614	0.00494096
1626	0.00516555
1638	0.00628849
1650	0.00479123
1662	0.00778575
1674	0.00703712
1686	0.0121278
1698	0.0173682
1710	0.0291217
1722	0.0517303
1734	0.0938782
1746	0.16919
1758	0.304618
1770	0.59561
1782	0.724674
1794	0.400966
1806	0.20243
1818	0.0955252
1830	0.0407255
1842	0.0195392
1854	0.00973219
1866	0.00756116
1878	0.00636336
1890	0.00561473
1902	0.00464151
1914	0.00329397
1926	0.00306938
1938	0.00329397
1950	0.0034437
1962	0.00224589
1974	0.00179671
1986	0.00112294
1998	0.00179671
2010	0.00164699
2022	0.0014224
2034	0.00127267
2046	0.000374315
2058	0.00112294
2070	0.00119781
2082	0.0014224
2094	0.00179671
2106	0.00112294
2118	0.00119781
2130	0.000898356
2142	0.000598904
2154	0.00247048
2166	0.00276993
2178	0.00134753
2190	0.00179671
2202	0.00224589
2214	0.00179671
2226	0.00262021
2238	0.00276993
2250	0.00232075
2262	0.00224589
2274	0.00239562
2286	0.00336884
2298	0.00291966
2310	0.00164699
2322	0.000149726
2334	0
2346	0
2358	0
2370	0
2382	0.00187158
2394	0.00179671
2406	0.00164699
2418	0.00209616
2430	0.00149726
2442	0.00157212
2454	0.00157212
2466	0.00164699
2478	0.00157212
2490	0.00179671
2502	0.00149726
2514	0.00187158
2526	0.00187158
2538	0.00119781
2550	0.00149726
2562	0.00164699
2574	0.0014224
2586	0.00134753
2598	0.00119781
2610	0.00127267
2622	0.00217103
2634	0.00179671
2646	0.00172185
2658	0.00217103
2670	0.00179671
2682	0.00209616
2694	0.00187158
2706	0.00217103
2718	0.00187158
2730	0.00194644
2742	0.00187158
2754	0.00179671
2766	0.00232075
2778	0.00262021
2790	0.00306938
2802	0.00359342
2814	0.00426719
2826	0.00726171
2838	0.0118284
2850	0.0234321
2862	0.0414741
2874	0.0443938
2886	0.0373566
2898	0.0341375
2910	0.0485861
2922	0.0884881
2934	0.12008
2946	0.130861
2958	0.134978
2970	0.0882635
2982	0.0478375
2994	0.0253037
3006	0.014224
3018	0.00905842
3030	0.00801034
3042	0.0105557
3054	0.0145234
3066	0.0175179
3078	0.0406506
3090	0.0327151
3102	0.0175179
3114	0.0116038
3126	0.00905842
3138	0.00389288
3150	0.00247048
3162	0.00112294
3174	0.00172185
3186	0.00194644
3198	0.00149726
3210	0.00119781
3222	0.00157212
3234	0.000898356
3246	0.0014224
3258	0.0014224
3270	0.000898356
3282	0.000823493
3294	0.00104808
3306	0.00127267
3318	0.000524041
3330	0.00112294
3342	0.00112294
3354	0.00119781
3366	0.000449178
3378	0.0014224
3390	0.00119781
3402	0.000973219
3414	0.000224589
3426	0.000598904
3438	0.00194644
3450	0.00232075
3462	0.00209616
3474	0.00164699
3486	0.00254534
3498	0.0034437
3510	0.00501582
3522	0.0080852
3534	0.0111546
3546	0.0208119
3558	0.0405757
3570	0.215905
3582	0.276394
3594	0.044244
3606	0.0173682
3618	0.0116038
3630	0.00778575
3642	0.00172185
3654	0.0068874
3666	0.00179671
3678	0.00351856
3690	0.00636336
3702	0.00209616
3714	0.00501582
3726	0.00778575
3738	0.00778575
3750	0.00958246
3762	0.00329397
3774	0.00172185
3786	0.00329397
3798	0.00366829
3810	0.00314425
3822	0.00464151
3834	0.00381801
3846	0.00434205
3858	0.00149726
3870	0.00531527
3882	0.00531527
3894	0.00329397
3906	0.00658794
3918	0.00456664
3930	0.00441692
3942	0.00486609
3954	0.00239562
3966	0.00703712
