Infrared Spectrum: 2,6-Dichlorobenzoyl chloride
Formula: C 7 H 3 Cl 3 O
CAS: 4659-45-4
Origin: Sadtler Research Labs Under US-EPA Contract
1/CM	ABSORBANCE
450	0.0143075
462	0.00927038
474	0.0114138
486	0.0811828
498	0.0581944
510	0.00584087
522	0.00503708
534	0.000964548
546	0.00439405
558	0.0136108
570	0.00117889
582	0.00348309
594	0.00310799
606	0.00225061
618	0.00584087
630	0.00862735
642	0.00476915
654	0.0170403
666	0.0381532
678	0.229938
690	0.121587
702	0.0159686
714	0.0172011
726	0.0113602
738	0.0167724
750	0.0125391
762	0.0087881
774	0.0920607
786	0.117139
798	0.176137
810	0.0984375
822	0.0197196
834	0.0244888
846	0.052675
858	0.0980624
870	0.410683
882	0.352596
894	0.0247031
906	0.0140931
918	0.0213808
930	0.0251854
942	0.0126463
954	0.00755563
966	0.00905603
978	0.0132357
990	0.00964548
1002	0.00621598
1014	0.00417971
1026	0.00396536
1038	0.00605522
1050	0.00685901
1062	0.0137716
1074	0.0118961
1086	0.01061
1098	0.0414756
1110	0.114513
1122	0.0554079
1134	0.0150041
1146	0.0125391
1158	0.0157543
1170	0.0145754
1182	0.0279183
1194	0.172065
1206	0.185247
1218	0.0233099
1230	0.00980624
1242	0.0100742
1254	0.008413
1266	0.00927038
1278	0.0049835
1290	0.00332233
1302	0.00444764
1314	0.00321516
1326	0.0030544
1338	0.00514426
1350	0.00546577
1362	0.00723411
1374	0.00578729
1386	0.00675184
1398	0.00696618
1410	0.0072877
1422	0.0385819
1434	0.213004
1446	0.0969907
1458	0.0175226
1470	0.00889528
1482	0.00889528
1494	0.0131822
1506	0.00873452
1518	0.00760921
1530	0.0072877
1542	0.0135573
1554	0.0311871
1566	0.137877
1578	0.108083
1590	0.0383676
1602	0.0129678
1614	0.00616239
1626	0.0076628
1638	0.00648391
1650	0.00600163
1662	0.00568012
1674	0.00975265
1686	0.00739487
1698	0.00835942
1710	0.00975265
1722	0.0169868
1734	0.0369208
1746	0.0430296
1758	0.0333841
1770	0.0338664
1782	0.0395465
1794	0.130428
1806	0.460786
1818	0.305869
1830	0.03676
1842	0.0225597
1854	0.0226133
1866	0.0141467
1878	0.0117889
1890	0.00675184
1902	0.00321516
1914	0.00321516
1926	0.00509067
1938	0.00985982
1950	0.00530501
1962	0.00187551
1974	0.00133965
1986	0.00144682
1998	0.00166117
2010	0.00123248
2022	0.000910962
2034	0.00117889
2046	0.00101813
2058	0.00144682
2070	0.00246496
2082	0.00176834
2094	0.000964548
2106	0.00128606
2118	0.000964548
2130	0.000696618
2142	0.000857376
2154	0.000482274
2166	0.000750204
2178	0.000696618
2190	0.000214344
2202	0.000696618
2214	0.000589446
2226	0.000643032
2238	0.00133965
2250	0.00133965
2262	0.00150041
2274	0.00117889
2286	0.000214344
2298	0.000375102
2310	0.00080379
2322	0.00144682
2334	0.00112531
2346	0.000857376
2358	0.00080379
2370	0.000910962
2382	5.3586e-05
2394	0.000696618
2406	0.000857376
2418	0.000643032
2430	0.000643032
2442	0.000910962
2454	0.000910962
2466	0.00144682
2478	0.00080379
2490	0.000750204
2502	0.00080379
2514	0.000321516
2526	0.000482274
2538	0.000750204
2550	0.00053586
2562	0.000643032
2574	0.000857376
2586	0.00117889
2598	0.00107172
2610	0.000857376
2622	0.00139324
2634	0.00198268
2646	0.00133965
2658	0.000857376
2670	0.00171475
2682	0.00241137
2694	0.00241137
2706	0.00171475
2718	0.000750204
2730	0.00150041
2742	0.000643032
2754	0.00112531
2766	0.00080379
2778	0.00101813
2790	0.000750204
2802	0.00117889
2814	0.000964548
2826	0.00101813
2838	0.00123248
2850	0.000321516
2862	0.000375102
2874	0.000696618
2886	0.000643032
2898	0.000964548
2910	0.000910962
2922	0.000857376
2934	0.000857376
2946	0.00198268
2958	0.00128606
2970	0.00187551
2982	0.00294723
2994	0.00310799
3006	0.00155399
3018	0.00160758
3030	0.00101813
3042	0.000857376
3054	0.00171475
3066	0.00771638
3078	0.00921679
3090	0.00541219
3102	0.00187551
3114	0.00144682
3126	0.00198268
3138	0.00246496
3150	0.00101813
3162	0.000910962
3174	0.000589446
3186	0.000107172
3198	0.000750204
3210	0.000428688
3222	0.000589446
3234	0.000375102
3246	0.000750204
3258	0.000321516
3270	0.00112531
3282	0.000482274
3294	0.000375102
3306	0.000428688
3318	0.000482274
3330	0.000696618
3342	0.000857376
3354	0.000696618
3366	0.00080379
3378	0.000589446
3390	0.00053586
3402	0.000964548
3414	0.000428688
3426	0.000964548
3438	0.000321516
3450	0.00117889
3462	0.00144682
3474	0.000482274
3486	0.00139324
3498	0.00080379
3510	0.00107172
3522	0.00128606
3534	0.00225061
3546	0.0030544
3558	0.00407254
3570	0.00294723
3582	0.00198268
3594	0.00412612
3606	0.00316157
3618	0.00219703
3630	0.00208985
3642	0.00101813
3654	0.00139324
3666	0.000964548
3678	0.00101813
3690	0.00101813
3702	0.000964548
3714	0.000589446
3726	0.000696618
3738	0.000589446
3750	0.00139324
3762	0.00117889
3774	0.000375102
3786	0.000107172
3798	0.000910962
3810	0.00176834
3822	0.00112531
3834	0.000482274
3846	0.00117889
3858	0.00112531
3870	0.00139324
3882	0.00219703
3894	0.00139324
3906	0.000750204
3918	0.00139324
3930	0.00176834
3942	0.00101813
3954	0.00112531
3966	0.00182192
