Infrared Spectrum: Eucalyptol
Formula: C 10 H 18 O
CAS: 470-82-6
Origin: Sadtler Research Labs Under US-EPA Contract
1/CM	ABSORBANCE
450	0.0104335
462	0.0179229
474	0.00583656
486	0.000154953
498	0.00547501
510	0.00996864
522	0.00439033
534	0.00335731
546	0.00950378
558	0.0145656
570	0.0171998
582	0.0168382
594	0.0106401
606	0.00821251
618	0.00914223
630	0.0118281
642	0.00862572
654	0.0105368
666	0.0101236
678	0.00630142
690	0.00955543
702	0.0119314
714	0.00785095
726	0.0112083
738	0.00960709
750	0.0100203
762	0.0150821
774	0.0142557
786	0.0159085
798	0.0156503
810	0.0141524
822	0.0148238
834	0.0288213
846	0.0579524
858	0.037292
870	0.0195241
882	0.0172514
894	0.0182328
906	0.0160118
918	0.0270135
930	0.0245859
942	0.0160118
954	0.0226748
966	0.0544402
978	0.176646
990	0.268947
1002	0.123033
1014	0.0576425
1026	0.0407526
1038	0.033005
1050	0.0734477
1062	0.0806272
1074	0.103199
1086	0.134448
1098	0.0534071
1110	0.0257738
1122	0.0148238
1134	0.015237
1146	0.0287696
1158	0.077993
1170	0.116473
1182	0.0450397
1194	0.0253606
1206	0.076805
1218	0.212027
1230	0.137805
1242	0.0699355
1254	0.0309906
1266	0.0377052
1278	0.036104
1290	0.0228814
1302	0.0457628
1314	0.0444715
1326	0.0147205
1338	0.0196274
1350	0.0509279
1362	0.0964841
1374	0.14922
1386	0.135687
1398	0.0248441
1410	0.0105885
1422	0.0127061
1434	0.0216418
1446	0.0448331
1458	0.0746357
1470	0.107434
1482	0.0551633
1494	0.019679
1506	0.0116215
1518	0.00914223
1530	0.00681793
1542	0.00738609
1554	0.00624977
1566	0.00562996
1578	0.00547501
1590	0.00562996
1602	0.00547501
1614	0.00635307
1626	0.00738609
1638	0.00692123
1650	0.00712784
1662	0.00501015
1674	0.00583656
1686	0.00578491
1698	0.00661133
1710	0.00392548
1722	0.00449364
1734	0.00547501
1746	0.00423538
1758	0.00449364
1770	0.00454529
1782	0.00387383
1794	0.00557831
1806	0.0049585
1818	0.00557831
1830	0.00702454
1842	0.0051651
1854	0.0026342
1866	0.00315071
1878	0.00206604
1890	0.00268585
1902	0.00237595
1914	0.00201439
1926	0.00232429
1938	0.00175613
1950	0.00129127
1962	0.000981369
1974	0.000774765
1986	0.000568161
1998	0.00134293
2010	0.00149788
2022	0.0024276
2034	0.00444199
2046	0.00433868
2058	0.00470024
2070	0.0051651
2082	0.00449364
2094	0.00227264
2106	0.000671463
2118	0.000568161
2130	0.000878067
2142	0.00185944
2154	0.00154953
2166	0.00154953
2178	0.00118797
2190	0.000154953
2202	0.000878067
2214	0.000723114
2226	0.000929718
2238	0.00170448
2250	0.00144623
2262	0.00175613
2274	0.00222099
2286	0.00309906
2298	0.00382217
2310	0.00475189
2322	0.00315071
2334	0.00180778
2346	0.00454529
2358	0.00139458
2370	0.00588821
2382	0.00470024
2394	0.00216934
2406	0.00206604
2418	0.0024276
2430	0.0026342
2442	0.00294411
2454	0.00325401
2466	0.00325401
2478	0.00428703
2490	0.00397713
2502	0.00423538
2514	0.00428703
2526	0.00459694
2538	0.00532005
2550	0.00573326
2562	0.0053717
2574	0.00568161
2586	0.00604317
2598	0.00480354
2610	0.00480354
2622	0.00480354
2634	0.00542335
2646	0.00568161
2658	0.00604317
2670	0.00950378
2682	0.0103302
2694	0.0106401
2706	0.00872902
2718	0.00919388
2730	0.0101236
2742	0.00862572
2754	0.00924553
2766	0.0103302
2778	0.0104852
2790	0.011983
2802	0.0128611
2814	0.0144623
2826	0.017458
2838	0.0205054
2850	0.0436451
2862	0.100719
2874	0.13078
2886	0.192193
2898	0.200044
2910	0.217451
2922	0.398023
2934	0.512326
2946	0.465117
2958	0.485571
2970	0.503236
2982	0.49616
2994	0.291931
3006	0.130109
3018	0.0300609
3030	0.0169932
3042	0.014204
3054	0.0118281
3066	0.0106401
3078	0.0115182
3090	0.0108984
3102	0.00955543
3114	0.00996864
3126	0.00981369
3138	0.00945213
3150	0.00950378
3162	0.00831581
3174	0.00821251
3186	0.00733444
3198	0.00774765
3210	0.00428703
3222	0.00294411
3234	0.00149788
3246	0.00123962
3258	0.000981369
3270	0.000568161
3282	0.000981369
3294	0.00320236
3306	0.00366722
3318	0.00454529
3330	0.00423538
3342	0.0051651
3354	0.00511345
3366	0.00532005
3378	0.00480354
3390	0.00454529
3402	0.00433868
3414	0.00413208
3426	0.00433868
3438	0.00397713
3450	0.00470024
3462	0.00320236
3474	0.00428703
3486	0.00320236
3498	0.00408043
3510	0.00289246
3522	0.00335731
3534	0.00294411
3546	0.0026342
3558	0.0026342
3570	0.00459694
3582	0.00258255
3594	0.00330566
3606	0.00123962
3618	0.00387383
3630	0.00485519
3642	0.00480354
3654	0.00247925
3666	0.00366722
3678	0.00433868
3690	0.00247925
3702	0.00216934
3714	0.00175613
3726	0.00299576
3738	0.00180778
3750	0.00185944
3762	0.00180778
3774	0.00299576
3786	0.00325401
3798	0.00149788
3810	0.00304741
3822	0.00330566
3834	0.00191109
3846	0.00387383
3858	0.00542335
3870	0.00382217
3882	0.00165283
3894	0.00294411
3906	0.00185944
3918	0.00154953
3930	0.00201439
3942	0.0050618
3954	0.000878067
3966	0.00139458
