Infrared Spectrum: 5-Bromo-2-thiophenecarboxaldehyde
Formula: C 5 H 3 Br O S
CAS: 4701-17-1
Origin: Sadtler Research Labs Under US-EPA Contract
1/CM	ABSORBANCE
450	0.00993519
462	0.0350937
474	0.064098
486	0.0620148
498	0.0246777
510	0.00448686
522	0.00352539
534	0.000480735
546	0.00032049
558	0.00288441
570	0.00208318
582	0.00432661
594	0.00544833
606	0.00913396
618	0.0123389
630	0.00945446
642	0.0100954
654	0.0453493
666	0.246457
678	0.0294851
690	0.00801225
702	0.00801225
714	0.0187487
726	0.0206716
738	0.0264404
750	0.0996724
762	0.0362154
774	0.0370166
786	0.137009
798	0.267128
810	0.199826
822	0.0796418
834	0.0168257
846	0.0113774
858	0.0110569
870	0.0100954
882	0.0120184
894	0.0105762
906	0.0110569
918	0.0118581
930	0.0104159
942	0.0121786
954	0.0206716
966	0.0838081
978	0.298216
990	0.0972687
1002	0.0120184
1014	0.0116979
1026	0.0205114
1038	0.0408625
1050	0.0757959
1062	0.0592907
1074	0.0189089
1086	0.0192294
1098	0.0184282
1110	0.0208318
1122	0.0227548
1134	0.0323695
1146	0.0310875
1158	0.0390998
1170	0.0368563
1182	0.0608931
1194	0.346129
1206	0.349494
1218	0.24886
1230	0.0650595
1242	0.023556
1254	0.0208318
1266	0.0275621
1278	0.0283634
1290	0.0224343
1302	0.032049
1314	0.0482337
1326	0.127235
1338	0.0225945
1350	0.0301261
1362	0.0187487
1374	0.041183
1386	0.0644185
1398	0.146304
1410	0.45782
1422	1.14832
1434	0.170661
1446	0.0517591
1458	0.00769176
1470	0.0187487
1482	0.0208318
1494	0.0161847
1506	0.0115376
1518	0.0610533
1530	0.115537
1542	0.00384588
1554	0.0134606
1566	0.0200306
1578	0.0280429
1590	0.0317285
1602	0.0318888
1614	0.0283634
1626	0.0161847
1638	0.0142618
1650	0.0113774
1662	0.056887
1674	0.0780393
1686	0.352379
1698	1.53563
1710	1.16803
1722	0.280589
1734	0.025479
1746	0.0173065
1758	0.0221138
1770	0.0158643
1782	0.0182679
1794	0.0128196
1806	0.0166655
1818	0.0225945
1830	0.0217933
1842	0.0198704
1854	0.0274019
1866	0.0286839
1878	0.0266007
1890	0.0124991
1902	0.0108967
1914	0.00801225
1926	0.0102557
1938	0.0137811
1950	0.0133003
1962	0.0118581
1974	0.0104159
1986	0.0100954
1998	0.0096147
2010	0.00993519
2022	0.0081725
2034	0.0081725
2046	0.00689053
2058	0.00753151
2070	0.00673029
2082	0.00801225
2094	0.00785201
2106	0.00913396
2118	0.00689053
2130	0.00528808
2142	0.00448686
2154	0.00448686
2166	0.00432661
2178	0.0046471
2190	0.00512784
2202	0.00400613
2214	0.0032049
2226	0.0032049
2238	0.00256392
2250	0.00448686
2262	0.00208318
2274	0.00096147
2286	0.00064098
2298	0
2310	0.000480735
2322	0.00144221
2334	0.00224343
2346	0.00240368
2358	0.00240368
2370	0.00160245
2382	0.000480735
2394	0.00144221
2406	0.00256392
2418	0.00384588
2430	0.00224343
2442	0.00256392
2454	0.00448686
2466	0.00560858
2478	0.00657005
2490	0.00192294
2502	0.00192294
2514	0.0032049
2526	0.00432661
2538	0.00288441
2550	0.00288441
2562	0.00240368
2574	0.0032049
2586	0.00400613
2598	0.00560858
2610	0.00769176
2622	0.00753151
2634	0.00849298
2646	0.00849298
2658	0.0110569
2670	0.0262802
2682	0.0274019
2694	0.0120184
2706	0.0195499
2718	0.0346129
2730	0.0852503
2742	0.119383
2754	0.0485542
2766	0.0352539
2778	0.115216
2790	0.133805
2802	0.0980699
2814	0.222741
2826	0.15015
2838	0.0790008
2850	0.0368563
2862	0.0184282
2874	0.0113774
2886	0.00945446
2898	0.0112172
2910	0.0118581
2922	0.00801225
2934	0.00737127
2946	0.0081725
2958	0.00833274
2970	0.00929421
2982	0.00929421
2994	0.00705078
3006	0.00608931
3018	0.00608931
3030	0.00673029
3042	0.00849298
3054	0.00480735
3066	0.00705078
3078	0.0137811
3090	0.0153835
3102	0.00737127
3114	0.00993519
3126	0.00849298
3138	0.00448686
3150	0.00368564
3162	0.00256392
3174	0.00256392
3186	0.00256392
3198	0.00224343
3210	0.00240368
3222	0.0032049
3234	0.00336514
3246	0.00272416
3258	0.00240368
3270	0.00240368
3282	0.00224343
3294	0.00240368
3306	0.00224343
3318	0.00224343
3330	0.00224343
3342	0.00240368
3354	0.00288441
3366	0.00881347
3378	0.0217933
3390	0.0193896
3402	0.00368564
3414	0.00032049
3426	0.00096147
3438	0.000160245
3450	0.00160245
3462	0.00176269
3474	0.00176269
3486	0.000801225
3498	0.00240368
3510	0.00224343
3522	0.00144221
3534	0.00208318
3546	0.00160245
3558	0.00192294
3570	0.00160245
3582	0.00288441
3594	0.00208318
3606	0.00096147
3618	0.00240368
3630	0.00384588
3642	0.00208318
3654	0.00176269
3666	0.00208318
3678	0.00192294
3690	0.00208318
3702	0.00272416
3714	0.00224343
3726	0.00192294
3738	0.00176269
3750	0.00192294
3762	0.00192294
3774	0.00224343
3786	0.0032049
3798	0.00368564
3810	0.00224343
3822	0.00448686
3834	0.00368564
3846	0.00544833
3858	0.0032049
3870	0.00416637
3882	0.00144221
3894	0.00240368
3906	0.00288441
3918	0.00272416
3930	0.00096147
3942	0.00208318
3954	0.00368564
3966	0.00336514
