Infrared Spectrum: Vinyl decanoate
Formula: C 12 H 22 O 2
CAS: 4704-31-8
Origin: Sadtler Research Labs Under US-EPA Contract
1/CM	ABSORBANCE
450	0.0100768
462	0.0149827
474	0.0119331
486	0.00755763
498	0.00689468
510	0.00623173
522	0.00517101
534	0.00556878
546	0.0066295
558	0.00782281
570	0.00755763
582	0.00981166
594	0.0118005
606	0.0114027
618	0.0106072
630	0.0112701
642	0.00875094
654	0.00822058
666	0.00583396
678	0.00888353
690	0.0128612
702	0.0165738
714	0.0205514
726	0.0228055
738	0.0182974
750	0.0163086
762	0.0168389
774	0.0163086
786	0.013259
798	0.0123309
810	0.0131264
822	0.0151153
834	0.021347
846	0.0361971
858	0.0628477
870	0.131529
882	0.0892331
894	0.0430917
906	0.024264
918	0.0232033
930	0.039114
942	0.0731897
954	0.0901612
966	0.0654995
978	0.0682839
990	0.0739852
1002	0.0594003
1014	0.0482628
1026	0.0441525
1038	0.0474672
1050	0.0522405
1062	0.0542293
1074	0.058207
1086	0.0775651
1098	0.126756
1110	0.175814
1122	0.192918
1134	0.366346
1146	0.964592
1158	1.23468
1170	0.654862
1182	0.38345
1194	0.298195
1206	0.275389
1218	0.255899
1230	0.241977
1242	0.201006
1254	0.141208
1266	0.111376
1278	0.0983818
1290	0.102359
1302	0.140678
1314	0.114823
1326	0.0965255
1338	0.098647
1350	0.123441
1362	0.138291
1374	0.104348
1386	0.0709357
1398	0.0367274
1410	0.0261202
1422	0.0383185
1434	0.0519753
1446	0.0615218
1458	0.090559
1470	0.085388
1482	0.0335453
1494	0.0125961
1506	0.0114027
1518	0.00689468
1530	0.00026518
1542	0.00835317
1554	0.0039777
1566	0.0129938
1578	0.0136568
1590	0.00954648
1602	0.0133916
1614	0.0233358
1626	0.0381859
1638	0.141606
1650	0.330812
1662	0.118535
1674	0.0157782
1686	0.0192256
1698	0.0111376
1710	0.0181648
1722	0.0351364
1734	0.045611
1746	0.101166
1758	0.259213
1770	0.613627
1782	0.58976
1794	0.176875
1806	0.0613892
1818	0.0273135
1830	0.0145849
1842	0.0135242
1854	0.00729245
1866	0.00570137
1878	0.00623173
1890	0.00583396
1902	0.00543619
1914	0.00225403
1926	0.00212144
1938	0.00159108
1950	0.00212144
1962	0.00238662
1974	0.00331475
1986	0.00437547
1998	0.00609914
2010	0.00808799
2022	0.00822058
2034	0.00755763
2046	0.00517101
2058	0.00357993
2070	0.00304957
2082	0.00278439
2094	0.00238662
2106	0.0026518
2118	0.00238662
2130	0.00185626
2142	0.00145849
2154	0.00092813
2166	0.00092813
2178	0.0013259
2190	0.00106072
2202	0.00092813
2214	0.00066295
2226	0.0013259
2238	0.00106072
2250	0.00185626
2262	0.00331475
2274	0.00464065
2286	0.0066295
2298	0.00729245
2310	0.00702727
2322	0.00702727
2334	0.00676209
2346	0.0053036
2358	0.00676209
2370	0.00490583
2382	0.00159108
2394	0.00026518
2406	0.00053036
2418	0.00053036
2430	0.00079554
2442	0.0013259
2454	0.00053036
2466	0.00026518
2478	0.00066295
2490	0.00092813
2502	0.00119331
2514	0.00145849
2526	0.00172367
2538	0.00238662
2550	0.00278439
2562	0.00291698
2574	0.00357993
2586	0.0039777
2598	0.00450806
2610	0.00464065
2622	0.00490583
2634	0.00596655
2646	0.00649691
2658	0.00676209
2670	0.0079554
2682	0.00875094
2694	0.00888353
2706	0.00835317
2718	0.0079554
2730	0.00835317
2742	0.010342
2754	0.0102094
2766	0.0104746
2778	0.0116679
2790	0.0148501
2802	0.0193581
2814	0.024264
2826	0.0336779
2838	0.0503842
2850	0.106602
2862	0.318879
2874	0.313841
2886	0.221028
2898	0.171571
2910	0.260805
2922	0.503842
2934	0.87337
2946	0.671303
2958	0.395251
2970	0.409438
2982	0.176742
2994	0.0769022
3006	0.0454784
3018	0.0299653
3030	0.0239988
3042	0.021347
3054	0.0238662
3066	0.0192256
3078	0.0172367
3090	0.0277113
3102	0.0356667
3114	0.0169715
3126	0.0266506
3138	0.0159108
3150	0.00901612
3162	0.00808799
3174	0.00715986
3186	0.00689468
3198	0.00609914
3210	0.00570137
3222	0.00437547
3234	0.0039777
3246	0.00344734
3258	0.00318216
3270	0.00331475
3282	0.00212144
3294	0.00212144
3306	0.00238662
3318	0.00251921
3330	0.00251921
3342	0.00251921
3354	0.00357993
3366	0.00331475
3378	0.00344734
3390	0.00437547
3402	0.0039777
3414	0.00318216
3426	0.00344734
3438	0.00450806
3450	0.00477324
3462	0.00384511
3474	0.0039777
3486	0.00437547
3498	0.00543619
3510	0.00742504
3522	0.010342
3534	0.011005
3546	0.00742504
3558	0.00609914
3570	0.013259
3582	0.0163086
3594	0.00636432
3606	0.00676209
3618	0.00848576
3630	0.0100768
3642	0.00344734
3654	0.00344734
3666	0.0079554
3678	0.00543619
3690	0.00477324
3702	0.00503842
3714	0.00755763
3726	0.00715986
3738	0.0026518
3750	0.00742504
3762	0.00450806
3774	0.00225403
3786	0.00278439
3798	0.00225403
3810	0.00278439
3822	0.0092813
3834	0.00583396
3846	0.00570137
3858	0.0053036
3870	0.00742504
3882	0.00702727
3894	0.00623173
3906	0.00464065
3918	0.00583396
3930	0.00424288
3942	0.00384511
3954	0.00331475
3966	0.00490583
