Infrared Spectrum: Benzene, 1,3-dimethyl-5-(1-methylethyl)-
Formula: C 11 H 16
CAS: 4706-90-5
Origin: Sadtler Research Labs Under US-EPA Contract
1/CM	ABSORBANCE
450	0
462	0.00408204
474	0.00617676
486	0.00590821
498	0.00800294
510	0.0106885
522	0.0063379
534	0.00832521
546	0.00617676
558	0.0077881
570	0.0107959
582	0.00601563
594	0.00402833
606	0.00338379
618	0.00515626
630	0.00563966
642	0.00365235
654	0.00365235
666	0.00257813
678	0.00639161
690	0.0275537
702	0.0793311
714	0.029917
726	0.00418946
738	0.0053711
750	0.00295411
762	0.00375977
774	0.00225586
786	0.00451172
798	0.00639161
810	0.0185303
822	0.0171338
834	0.0425928
846	0.127617
858	0.0356104
870	0.0103125
882	0.00972169
894	0.00999025
906	0.00762696
918	0.0179395
930	0.0239014
942	0.0168653
954	0.0109033
966	0.00864747
978	0.0110108
990	0.0162207
1002	0.0162744
1014	0.0100977
1026	0.00913087
1038	0.013374
1050	0.0195508
1062	0.0174024
1074	0.0163281
1086	0.0220215
1098	0.0149317
1110	0.0130518
1122	0.00854005
1134	0.00725099
1146	0.00687501
1158	0.00794923
1170	0.0109033
1182	0.0238477
1194	0.0148242
1206	0.00725099
1218	0.00639161
1230	0.00671388
1242	0.00988282
1254	0.0134815
1266	0.012461
1278	0.0102588
1290	0.0124072
1302	0.014502
1314	0.0196045
1326	0.0283057
1338	0.0317969
1350	0.0246533
1362	0.0337305
1374	0.0439893
1386	0.0486622
1398	0.0298096
1410	0.0219141
1422	0.0242237
1434	0.0343213
1446	0.0631641
1458	0.0913624
1470	0.0849708
1482	0.0642384
1494	0.0566651
1506	0.0526368
1518	0.0393165
1530	0.0333545
1542	0.0306153
1554	0.022666
1566	0.0236866
1578	0.0307764
1590	0.0526905
1602	0.156245
1614	0.130518
1626	0.0257276
1638	0.00956056
1650	0.0068213
1662	0.00563966
1674	0.00478028
1686	0.00494141
1698	0.00531739
1710	0.00671388
1722	0.0118701
1734	0.0111719
1746	0.00854005
1758	0.0128906
1770	0.00934571
1782	0.00408204
1794	0.00268555
1806	0.00306153
1818	0.00252442
1830	0.00273926
1842	0.00263184
1854	0.00247071
1866	0.00236328
1878	0.00365235
1890	0.00418946
1902	0.00279297
1914	0.00322266
1926	0.00359864
1938	0.00252442
1950	0.00230957
1962	0.00161133
1974	0.00150391
1986	0.00204102
1998	0.00139649
2010	0.00139649
2022	0.000913087
2034	0.000859376
2046	0.000805665
2058	0.000751954
2070	0.000751954
2082	0.000751954
2094	0.000590821
2106	0.000859376
2118	0.00107422
2130	0.00112793
2142	0.00102051
2154	0.000590821
2166	0.000966798
2178	0.000859376
2190	0.000859376
2202	0.00150391
2214	0.00128906
2226	0.00123535
2238	0.000805665
2250	0.000751954
2262	0.000859376
2274	0.000698243
2286	0.000698243
2298	0.00177246
2310	0.00236328
2322	0.00263184
2334	0.00327637
2346	0.00316895
2358	0.0044043
2370	0.00359864
2382	0.00300782
2394	0.00268555
2406	0.00279297
2418	0.00295411
2430	0.00273926
2442	0.00263184
2454	0.00273926
2466	0.00273926
2478	0.00279297
2490	0.00257813
2502	0.00225586
2514	0.00236328
2526	0.0019336
2538	0.00177246
2550	0.00252442
2562	0.00236328
2574	0.00241699
2586	0.00333008
2598	0.0044043
2610	0.00375977
2622	0.00279297
2634	0.00284668
2646	0.0034375
2658	0.0034375
2670	0.00290039
2682	0.00279297
2694	0.00306153
2706	0.00365235
2718	0.00569337
2730	0.0102588
2742	0.0136426
2754	0.0097754
2766	0.00837892
2778	0.0068213
2790	0.00827149
2802	0.00961427
2814	0.0121924
2826	0.0156299
2838	0.0224512
2850	0.03792
2862	0.0770753
2874	0.160381
2886	0.183155
2898	0.161778
2910	0.178374
2922	0.224029
2934	0.30626
2946	0.253946
2958	0.268179
2970	0.53711
2982	0.233482
2994	0.110161
3006	0.115318
3018	0.17252
3030	0.167149
3042	0.0873341
3054	0.0554298
3066	0.0380274
3078	0.0251367
3090	0.0173487
3102	0.010957
3114	0.0088086
3126	0.00714356
3138	0.00639161
3150	0.00467286
3162	0.00445801
3174	0.00402833
3186	0.00499512
3198	0.00515626
3210	0.00451172
3222	0.00402833
3234	0.00284668
3246	0.00214844
3258	0.00161133
3270	0.00161133
3282	0.00107422
3294	0.00150391
3306	0.00123535
3318	0.00053711
3330	0.000590821
3342	0.00107422
3354	0.000859376
3366	0.000644532
3378	0.000698243
3390	0.00112793
3402	0.00053711
3414	0.00053711
3426	0.000698243
3438	0.00118164
3450	0.000644532
3462	0.000698243
3474	0.000590821
3486	0.000644532
3498	0.000859376
3510	0.00139649
3522	0.000698243
3534	0.00107422
3546	0.000751954
3558	0.000805665
3570	0.000913087
3582	0.00102051
3594	0.000698243
3606	0.000268555
3618	0.000751954
3630	0.000429688
3642	0.000644532
3654	0.000805665
3666	0.000805665
3678	0.000805665
3690	0.00112793
3702	0.000322266
3714	0.000805665
3726	0.000913087
3738	0.000268555
3750	0.000268555
3762	0.000751954
3774	0.000375977
3786	0.00053711
3798	0.000859376
3810	0.000805665
3822	0.000805665
3834	0.000966798
3846	0.000805665
3858	0.000805665
3870	0.00134278
3882	0.0014502
3894	0.00204102
3906	0.00171875
3918	0.000805665
3930	0.00139649
3942	0.00204102
3954	0.000214844
3966	0.000268555
