Infrared Spectrum: 4-Piperidinol, 1-(phenylmethyl)-
Formula: C 12 H 17 N O
CAS: 4727-72-4
Origin: Sadtler Research Labs Under US-EPA Contract
1/CM	ABSORBANCE
450	0.000470536
462	0.00958182
474	0.00692971
486	0.0150572
498	0.0243823
510	0.0108651
522	0.0065875
534	0.00885463
546	0.00705804
558	0.00902574
570	0.0101379
582	0.0096246
594	0.0135172
606	0.0139878
618	0.0121056
630	0.0138594
642	0.0100524
654	0.0114212
666	0.016426
678	0.0247245
690	0.0837554
702	0.134146
714	0.0492352
726	0.0868781
738	0.143428
750	0.0457275
762	0.02558
774	0.0241684
786	0.036274
798	0.0385412
810	0.0279327
822	0.0239118
834	0.0172815
846	0.0171104
858	0.0073147
870	0.00667306
882	0.00804189
894	0.0166826
906	0.0304993
918	0.0146722
930	0.0171532
942	0.0207464
954	0.038199
966	0.0356324
978	0.0465403
990	0.053085
1002	0.0529139
1014	0.0689549
1026	0.0796061
1038	0.10031
1050	0.137953
1062	0.389903
1074	0.240829
1086	0.07905
1098	0.0754569
1110	0.0877764
1122	0.0920967
1134	0.10031
1146	0.0694682
1158	0.0452142
1170	0.0467969
1182	0.0468825
1194	0.0507323
1206	0.0553949
1218	0.0462836
1230	0.0550527
1242	0.0592448
1254	0.0588598
1266	0.0658323
1278	0.0678855
1290	0.0676289
1302	0.0654045
1314	0.0700671
1326	0.0841404
1338	0.0955616
1350	0.111859
1362	0.126959
1374	0.092054
1386	0.0658323
1398	0.0462409
1410	0.0261361
1422	0.0284033
1434	0.0398672
1446	0.0679283
1458	0.0709226
1470	0.046968
1482	0.0257084
1494	0.0445298
1506	0.0182226
1518	0.00372151
1530	0.00295154
1542	0.00346486
1554	0.00316542
1566	0.00470536
1578	0.00774246
1590	0.013945
1602	0.018137
1614	0.00971015
1626	0.00243823
1638	0.00278044
1650	0.00201047
1662	0.00166826
1674	0.000941072
1686	0.00141161
1698	0.00248101
1710	0.0085552
1722	0.0145866
1734	0.0147149
1746	0.00573198
1758	0.00372151
1770	0.00333653
1782	0.00397817
1794	0.00560366
1806	0.00804189
1818	0.00419205
1830	0.00235268
1842	0.00192492
1854	0.00282322
1866	0.00513312
1878	0.00581754
1890	0.00406372
1902	0.00248101
1914	0.00269489
1926	0.00350763
1938	0.00727192
1950	0.00799911
1962	0.00474814
1974	0.00128328
1986	0.0012405
1998	0.000470536
2010	0.00021388
2022	0.000384984
2034	0.000384984
2046	0.000727192
2058	0.00064164
2070	0.000769968
2082	0.00064164
2094	0.000513312
2106	0.000556088
2118	0.000299432
2130	0.0010694
2142	0.000898296
2154	0.00085552
2166	0.000812744
2178	0.000983848
2190	0.00085552
2202	0.000898296
2214	0.00085552
2226	0.00132606
2238	0.0021388
2250	0.00179659
2262	0.000898296
2274	0.0010694
2286	0.00166826
2298	0.00299432
2310	0.0044487
2322	0.00329375
2334	0.00256656
2346	0.00260934
2358	0.00158271
2370	0.00402094
2382	0.00466258
2394	0.00273766
2406	0.00290877
2418	0.00325098
2430	0.00290877
2442	0.00256656
2454	0.00260934
2466	0.00265211
2478	0.00243823
2490	0.00312265
2502	0.00325098
2514	0.00329375
2526	0.00342208
2538	0.00406372
2550	0.00474814
2562	0.00491924
2574	0.00547533
2586	0.00654473
2598	0.00787078
2610	0.00958182
2622	0.0115067
2634	0.0143727
2646	0.0183509
2658	0.0226713
2670	0.0265639
2682	0.030371
2694	0.0343919
2706	0.0387978
2718	0.0451715
2730	0.0521439
2742	0.0696393
2754	0.102834
2766	0.125676
2778	0.129269
2790	0.164132
2802	0.19801
2814	0.175809
2826	0.11434
2838	0.0709226
2850	0.071607
2862	0.0876052
2874	0.0882469
2886	0.101507
2898	0.114854
2910	0.144626
2922	0.223975
2934	0.277317
2946	0.352431
2958	0.260677
2970	0.0839693
2982	0.0254089
2994	0.0175382
3006	0.0201047
3018	0.032852
3030	0.0797772
3042	0.0808894
3054	0.0450859
3066	0.084782
3078	0.0896585
3090	0.0520584
3102	0.0291305
3114	0.0159127
3126	0.0074858
3138	0.0041065
3150	0.00355041
3162	0.00393539
3174	0.00376429
3186	0.0023099
3198	0.00166826
3210	0.00136883
3222	0.00145438
3234	0.00166826
3246	0.00085552
3258	0.00115495
3270	0.00115495
3282	0.00115495
3294	0.00145438
3306	0.00119773
3318	0.00119773
3330	0.00166826
3342	0.00085552
3354	0.00145438
3366	0.00141161
3378	0.00111218
3390	0.00183937
3402	0.00256656
3414	0.00295154
3426	0.00295154
3438	0.00325098
3450	0.00350763
3462	0.00286599
3474	0.00316542
3486	0.00307987
3498	0.00295154
3510	0.00342208
3522	0.00530422
3534	0.0033793
3546	0.00402094
3558	0.00269489
3570	0.00406372
3582	0.00453426
3594	0.0030371
3606	0.00440593
3618	0.00414927
3630	0.00936794
3642	0.0239118
3654	0.0503901
3666	0.016041
3678	0.00397817
3690	0.00355041
3702	0.00256656
3714	0.00192492
3726	0.00252378
3738	0.0012405
3750	0.000128328
3762	0.0010694
3774	0.000983848
3786	0.00226713
3798	0.00179659
3810	0.00162549
3822	0.000299432
3834	0.00192492
3846	0.000983848
3858	0.00359318
3870	0.00269489
3882	0.00260934
3894	0.00325098
3906	0.00243823
3918	0.0030371
3930	0.00372151
3942	0.00201047
3954	0.00136883
3966	0.00192492
