Infrared Spectrum: 1-Butanol, 2-amino-3-methyl-,
Formula: C 5 H 13 N O
CAS: 473-75-6
Origin: Sadtler Research Labs Under US-EPA Contract
1/CM	ABSORBANCE
450	0.0032832
462	0.0057969
474	0.011286
486	0.0179037
498	0.0187245
510	0.0121068
522	0.0051813
534	0.0036936
546	0.0114399
558	0.0016929
570	0.0068742
582	0.009234
594	0.0060534
606	0.0059508
618	0.0032832
630	0.0043092
642	0.0061047
654	0.0051813
666	0.0043605
678	0.0076437
690	0.0115938
702	0.0153387
714	0.0202122
726	0.0326268
738	0.0523773
750	0.0830034
762	0.10732
774	0.0989577
786	0.0812592
798	0.0751545
810	0.0826443
822	0.0901854
834	0.086184
846	0.0673569
858	0.0469908
870	0.0345249
882	0.0261117
894	0.0178524
906	0.0155439
918	0.0199557
930	0.0258552
942	0.0287793
954	0.0317034
966	0.038988
978	0.0472473
990	0.0579177
1002	0.0780273
1014	0.101471
1026	0.143024
1038	0.221206
1050	0.241264
1062	0.175189
1074	0.120709
1086	0.0899802
1098	0.0580716
1110	0.0389367
1122	0.0299079
1134	0.0321138
1146	0.0344223
1158	0.0352431
1170	0.0349353
1182	0.0311391
1194	0.0240597
1206	0.0210843
1218	0.0233415
1230	0.027702
1242	0.0308313
1254	0.0310878
1266	0.0296514
1278	0.0255987
1290	0.0257013
1302	0.0289845
1314	0.0317034
1326	0.0340119
1338	0.0376029
1350	0.0430407
1362	0.0577638
1374	0.0760266
1386	0.0895185
1398	0.0870561
1410	0.0680238
1422	0.0496584
1434	0.031806
1446	0.0341145
1458	0.0598671
1470	0.0828495
1482	0.0706401
1494	0.0327294
1506	0.0150309
1518	0.0100035
1530	0.0080028
1542	0.0102087
1554	0.0105678
1566	0.0114399
1578	0.0166212
1590	0.0208791
1602	0.0319086
1614	0.0442719
1626	0.0471447
1638	0.0365256
1650	0.019494
1662	0.0161082
1674	0.0093366
1686	0.0058482
1698	0.0031293
1710	0.0044631
1722	0.00513
1734	0.0065664
1746	0.0028215
1758	0.0016929
1770	0.0013338
1782	0.0002565
1794	0.0011799
1806	0.0006156
1818	0.0013851
1830	0.000513
1842	0.0003591
1854	0.001026
1866	0.0004617
1878	0.0011799
1890	0.0010773
1902	0.0014364
1914	0.0012312
1926	0.0013851
1938	0.0010773
1950	0.0010773
1962	0.0014877
1974	0.0011286
1986	0.0014877
1998	0.0023085
2010	0.002565
2022	0.0018981
2034	0.0017442
2046	0.0016929
2058	0.0019494
2070	0.0009747
2082	0.0015903
2094	0.0027189
2106	0.0032319
2118	0.0027702
2130	0.0029241
2142	0.0029754
2154	0.0027702
2166	0.0030267
2178	0.0027702
2190	0.0028728
2202	0.0028215
2214	0.0029754
2226	0.0029754
2238	0.0030267
2250	0.003078
2262	0.0031293
2274	0.0029754
2286	0.0027702
2298	0.0019494
2310	0.000513
2322	0.0005643
2334	0.0024624
2346	0.0042579
2358	0.0006156
2370	0.0096957
2382	0.0072333
2394	0.0053352
2406	0.0053352
2418	0.0048735
2430	0.0054378
2442	0.0054378
2454	0.0055404
2466	0.0054891
2478	0.0055917
2490	0.0054891
2502	0.006156
2514	0.006669
2526	0.0063099
2538	0.006669
2550	0.0068742
2562	0.007695
2574	0.008208
2586	0.0087723
2598	0.0105678
2610	0.0122607
2622	0.0131841
2634	0.0132354
2646	0.0132354
2658	0.0142101
2670	0.012312
2682	0.0103626
2694	0.0118503
2706	0.0136971
2718	0.0165699
2730	0.0201609
2742	0.0221103
2754	0.0226746
2766	0.0239058
2778	0.0264195
2790	0.0300618
2802	0.0351405
2814	0.0437076
2826	0.0568404
2838	0.0771039
2850	0.104088
2862	0.142768
2874	0.222745
2886	0.285125
2898	0.262092
2910	0.22454
2922	0.228695
2934	0.267016
2946	0.29713
2958	0.378697
2970	0.513
2982	0.348943
2994	0.12784
3006	0.0455544
3018	0.02052
3030	0.0147744
3042	0.012825
3054	0.0110808
3066	0.0094905
3078	0.0084645
3090	0.0081054
3102	0.0079515
3114	0.0074385
3126	0.006669
3138	0.0070281
3150	0.0072333
3162	0.007695
3174	0.0070794
3186	0.0060021
3198	0.0049761
3210	0.0044631
3222	0.0043092
3234	0.0035397
3246	0.0027189
3258	0.0023085
3270	0.0011286
3282	0.0005643
3294	0.0007182
3306	0.0008208
3318	0.0017442
3330	0.0036936
3342	0.0048222
3354	0.0047709
3366	0.0033858
3378	0.0023598
3390	0.0023085
3402	0.0048222
3414	0.0079002
3426	0.0098496
3438	0.007182
3450	0.00513
3462	0.0037962
3474	0.0026163
3486	0.0026676
3498	0.0026163
3510	0.0037962
3522	0.0080541
3534	0.017442
3546	0.028728
3558	0.0308826
3570	0.0311904
3582	0.0203148
3594	0.0118503
3606	0.007695
3618	0.0074385
3630	0.009234
3642	0.010773
3654	0.0189297
3666	0.0243675
3678	0.029754
3690	0.0211356
3702	0.0086184
3714	0.0048222
3726	0.0021546
3738	0.0048222
3750	0.002052
3762	0.0020007
3774	0.001026
3786	0.001539
3798	0.001539
3810	0.0022572
3822	0.0029241
3834	0.0022572
3846	0.0032319
3858	0.0037449
3870	0.0013851
3882	0.0013851
3894	0.0014364
3906	0.0001539
3918	0.0009747
3930	0
3942	0
3954	0
3966	0
