Infrared Spectrum: Isocyanic acid, trityl ester
Formula: C 20 H 15 N O
CAS: 4737-21-7
Origin: Sadtler Research Labs Under US-EPA Contract
1/CM	ABSORBANCE
450	0.0119484
462	0.00161801
474	0.00827672
486	0.00647202
498	0.00846342
510	0.0105793
522	0.0096458
534	0.00977027
546	0.00578748
558	0.00995696
570	0.0111393
582	0.012944
594	0.0143754
606	0.0146865
618	0.0171135
630	0.034227
642	0.0521496
654	0.0232744
666	0.025328
678	0.0359695
690	0.0807758
702	0.176363
714	0.0527097
726	0.0256392
738	0.0348494
750	0.0848831
762	0.0805891
774	0.0210963
786	0.0100192
798	0.00678318
810	0.00728103
822	0.00696987
834	0.0062231
846	0.00510294
858	0.00560079
870	0.00933465
882	0.0147487
894	0.0357828
906	0.0322979
918	0.0171758
930	0.0209096
942	0.0294975
954	0.03933
966	0.0141264
978	0.0088368
990	0.00846342
1002	0.0185448
1014	0.0176114
1026	0.0168646
1038	0.0242701
1050	0.0100192
1062	0.00939688
1074	0.0125084
1086	0.0118861
1098	0.00927242
1110	0.00771664
1122	0.00690764
1134	0.00752995
1146	0.014811
1158	0.0223409
1170	0.0232122
1182	0.0405746
1194	0.040948
1206	0.0299953
1218	0.018047
1230	0.0159311
1242	0.0138775
1254	0.0135664
1266	0.0161801
1278	0.0158067
1290	0.010766
1302	0.0123217
1314	0.0168646
1326	0.0124462
1338	0.0112016
1350	0.0113883
1362	0.0140642
1374	0.0120728
1386	0.0124462
1398	0.0113883
1410	0.0114505
1422	0.0122595
1434	0.0141887
1446	0.0540787
1458	0.0235233
1470	0.0127574
1482	0.0283773
1494	0.0519007
1506	0.0196028
1518	0.00454286
1530	0.00168024
1542	0.00329824
1554	0.00329824
1566	0.0036094
1578	0.0054141
1590	0.016429
1602	0.0244568
1614	0.0100814
1626	0.00504071
1638	0.00149354
1650	0
1662	0.000995696
1674	0.00553856
1686	0.00746772
1698	0.00584971
1710	0.00584971
1722	0.0072188
1734	0.0122595
1746	0.011575
1758	0.0156822
1770	0.0109527
1782	0.00902349
1794	0.00889903
1806	0.012944
1818	0.00616087
1830	0.00416948
1842	0.00367163
1854	0.00416948
1866	0.00560079
1878	0.0062231
1890	0.00597418
1902	0.00566302
1914	0.00497848
1926	0.00460509
1938	0.00665872
1950	0.0104548
1962	0.00840118
1974	0.00429394
1986	0.00354717
1998	0.00323601
2010	0.00336047
2022	0.0036094
2034	0.00373386
2046	0.00454286
2058	0.00516517
2070	0.0062231
2082	0.00709433
2094	0.00746772
2106	0.0080278
2118	0.00970804
2130	0.010766
2142	0.0112638
2154	0.0126329
2166	0.0166157
2178	0.0227765
2190	0.0307421
2202	0.0438106
2214	0.0591194
2226	0.0897993
2238	0.171011
2250	0.356148
2262	0.62231
2274	0.318685
2286	0.117617
2298	0.0734326
2310	0.065467
2322	0.0649069
2334	0.0571281
2346	0.0530208
2358	0.0561946
2370	0.0388321
2382	0.0208474
2394	0.00734326
2406	0.00528963
2418	0.00466732
2430	0.00367163
2442	0.00286263
2454	0.00242701
2466	0.00205362
2478	0.00192916
2490	0.00174247
2502	0.00186693
2514	0.0018047
2526	0.0018047
2538	0.00199139
2550	0.00192916
2562	0.00186693
2574	0.00211585
2586	0.00236478
2598	0.00267593
2610	0.00255147
2622	0.00255147
2634	0.00286263
2646	0.00304932
2658	0.0034227
2670	0.0036094
2682	0.00317378
2694	0.00292486
2706	0.00298709
2718	0.00292486
2730	0.00311155
2742	0.00336047
2754	0.00392055
2766	0.00410725
2778	0.00404501
2790	0.00392055
2802	0.00410725
2814	0.0044184
2826	0.00472956
2838	0.00448063
2850	0.00448063
2862	0.0052274
2874	0.00553856
2886	0.00672095
2898	0.00696987
2910	0.0070321
2922	0.00740549
2934	0.00740549
2946	0.00759218
2958	0.0080278
2970	0.0080278
2982	0.00840118
2994	0.0088368
3006	0.0107037
3018	0.0182337
3030	0.0368408
3042	0.0443085
3054	0.0345382
3066	0.0714412
3078	0.0756729
3090	0.0408858
3102	0.0265726
3114	0.0137531
3126	0.00734326
3138	0.00572525
3150	0.00510294
3162	0.00584971
3174	0.00578748
3186	0.00423171
3198	0.00448063
3210	0.00448063
3222	0.00416948
3234	0.00354717
3246	0.00323601
3258	0.00292486
3270	0.00236478
3282	0.00205362
3294	0.00255147
3306	0.00155577
3318	0.00267593
3330	0.00242701
3342	0.00280039
3354	0.00317378
3366	0.00323601
3378	0.00373386
3390	0.00379609
3402	0.00460509
3414	0.00454286
3426	0.00429394
3438	0.00479179
3450	0.00460509
3462	0.00566302
3474	0.00497848
3486	0.00435617
3498	0.00528963
3510	0.00547633
3522	0.00553856
3534	0.00510294
3546	0.00578748
3558	0.00609864
3570	0.00597418
3582	0.00659649
3594	0.00640979
3606	0.00628533
3618	0.0062231
3630	0.00752995
3642	0.010517
3654	0.0103303
3666	0.0102681
3678	0.00734326
3690	0.00665872
3702	0.0070321
3714	0.00560079
3726	0.00603641
3738	0.00584971
3750	0.00497848
3762	0.00472956
3774	0.00454286
3786	0.00479179
3798	0.00416948
3810	0.00404501
3822	0.00416948
3834	0.00460509
3846	0.0054141
3858	0.00460509
3870	0.00479179
3882	0.00416948
3894	0.00609864
3906	0.00553856
3918	0.0062231
3930	0.00504071
3942	0.00597418
3954	0.00672095
3966	0.00653425
