Infrared Spectrum: Acetamide, 2-hydroxy-N-phenyl-
Formula: C 8 H 9 N O 2
CAS: 4746-61-6
Origin: Sadtler Research Labs Under US-EPA Contract
1/CM	ABSORBANCE
450	0
462	0.174718
474	0.157024
486	0.200481
498	0.231945
510	0.191449
522	0.151175
534	0.128077
546	0.132519
558	0.136739
570	0.128965
582	0.137627
594	0.132297
606	0.124894
618	0.132519
630	0.136147
642	0.146881
654	0.137035
666	0.149547
678	0.183158
690	0.25956
702	0.19641
714	0.145253
726	0.149251
738	0.200555
750	0.323746
762	0.219878
774	0.122747
786	0.103424
798	0.110827
810	0.111568
822	0.111049
834	0.11179
846	0.106459
858	0.11327
870	0.10757
882	0.102166
894	0.109865
906	0.113641
918	0.101647
930	0.101795
942	0.115714
954	0.117861
966	0.110975
978	0.115936
990	0.114307
1002	0.119489
1014	0.12519
1026	0.153989
1038	0.186637
1050	0.243791
1062	0.278586
1074	0.267777
1086	0.246086
1098	0.233796
1110	0.202406
1122	0.158801
1134	0.147252
1146	0.157616
1158	0.16961
1170	0.18908
1182	0.201666
1194	0.199815
1206	0.190487
1218	0.196261
1230	0.246308
1242	0.296354
1254	0.234166
1266	0.213807
1278	0.232167
1290	0.270739
1302	0.314122
1314	0.354322
1326	0.270517
1338	0.201888
1350	0.182565
1362	0.183158
1374	0.182639
1386	0.188858
1398	0.204923
1410	0.234685
1422	0.256154
1434	0.33263
1446	0.427318
1458	0.240311
1470	0.229428
1482	0.268073
1494	0.365131
1506	0.481955
1518	0.646604
1530	0.74033
1542	0.477069
1554	0.254081
1566	0.202184
1578	0.222321
1590	0.322562
1602	0.449158
1614	0.280141
1626	0.191375
1638	0.177235
1650	0.206034
1662	0.258449
1674	0.292208
1686	0.292875
1698	0.303461
1710	0.3541
1722	0.438497
1734	0.392301
1746	0.235055
1758	0.160504
1770	0.136073
1782	0.123191
1794	0.112678
1806	0.10683
1818	0.102684
1830	0.102092
1842	0.105349
1854	0.105571
1866	0.105571
1878	0.10372
1890	0.10224
1902	0.101499
1914	0.101647
1926	0.103054
1938	0.105423
1950	0.10372
1962	0.100981
1974	0.0978716
1986	0.0984639
1998	0.0989821
2010	0.0977976
2022	0.0980937
2034	0.098612
2046	0.0978716
2058	0.0983158
2070	0.0996484
2082	0.0997965
2094	0.0998705
2106	0.0995004
2118	0.0997225
2130	0.100759
2142	0.101869
2154	0.102092
2166	0.102536
2178	0.10261
2190	0.103276
2202	0.101795
2214	0.100981
2226	0.101647
2238	0.101573
2250	0.102684
2262	0.104164
2274	0.105349
2286	0.105349
2298	0.107422
2310	0.108236
2322	0.107052
2334	0.108606
2346	0.111716
2358	0.107496
2370	0.108977
2382	0.109495
2394	0.106459
2406	0.106533
2418	0.107422
2430	0.107644
2442	0.108829
2454	0.109939
2466	0.110235
2478	0.110013
2490	0.109495
2502	0.108977
2514	0.109569
2526	0.110161
2538	0.110087
2550	0.110975
2562	0.112382
2574	0.11216
2586	0.11327
2598	0.113715
2610	0.114751
2622	0.114973
2634	0.114603
2646	0.114751
2658	0.115047
2670	0.115121
2682	0.114455
2694	0.114751
2706	0.115047
2718	0.11601
2730	0.116232
2742	0.11675
2754	0.118527
2766	0.120674
2778	0.1206
2790	0.122228
2802	0.123783
2814	0.125486
2826	0.127559
2838	0.130224
2850	0.133185
2862	0.136369
2874	0.137257
2886	0.138294
2898	0.141625
2910	0.14888
2922	0.151472
2934	0.154285
2946	0.15199
2958	0.14392
2970	0.137998
2982	0.132963
2994	0.131705
3006	0.135628
3018	0.146511
3030	0.166722
3042	0.174348
3054	0.170646
3066	0.184416
3078	0.17953
3090	0.159245
3102	0.151768
3114	0.143772
3126	0.139256
3138	0.137331
3150	0.134888
3162	0.13437
3174	0.135851
3186	0.13896
3198	0.141255
3210	0.142884
3222	0.146141
3234	0.149028
3246	0.15236
3258	0.153322
3270	0.15806
3282	0.162576
3294	0.165242
3306	0.170128
3318	0.171979
3330	0.17605
3342	0.177309
3354	0.183158
3366	0.18871
3378	0.192708
3390	0.185897
3402	0.177531
3414	0.183454
3426	0.219286
3438	0.204997
3450	0.169017
3462	0.157394
3474	0.149473
3486	0.145179
3498	0.143698
3510	0.14703
3522	0.146881
3534	0.141847
3546	0.134962
3558	0.130742
3570	0.127115
3582	0.119489
3594	0.117416
3606	0.1129
3618	0.106015
3630	0.101573
3642	0.103276
3654	0.10224
3666	0.114381
3678	0.124598
3690	0.116528
3702	0.105645
3714	0.103424
3726	0.104164
3738	0.103054
3750	0.0981678
3762	0.100463
3774	0.0983899
3786	0.0972794
3798	0.0972794
3810	0.0972794
3822	0.0972794
3834	0.0972794
3846	0.100167
3858	0.0975755
3870	0.0972794
3882	0.0972794
3894	0.0972794
3906	0.0972794
3918	0.0972794
3930	0.0977236
3942	0.0972794
3954	0.0972794
3966	0.0975755
