Infrared Spectrum: 3-Pyridinemethanol, .alpha.-methyl-
Formula: C 7 H 9 N O
CAS: 4754-27-2
Origin: Sadtler Research Labs Under US-EPA Contract
1/CM	ABSORBANCE
450	0.00478547
462	0.0291479
474	0.0364815
486	0.0394646
498	0.0294586
510	0.0203849
522	0.0247975
534	0.0216279
546	0.015848
558	0.00553126
570	0.00223736
582	0.0032939
594	0.0223736
606	0.0272834
618	0.0480412
630	0.087195
642	0.0726522
654	0.0167802
666	0.00472332
678	0.0193905
690	0.100806
702	0.266868
714	0.42137
726	0.242257
738	0.0937207
750	0.0456795
762	0.0332497
774	0.0553748
786	0.100992
798	0.160904
810	0.175074
822	0.08676
834	0.0252325
846	0.0149779
858	0.0189554
870	0.0407697
882	0.0920427
894	0.212239
906	0.225166
918	0.114976
930	0.057985
942	0.0512108
954	0.0502785
966	0.0484762
978	0.0712849
990	0.149841
1002	0.246732
1014	0.334486
1026	0.306022
1038	0.230573
1050	0.236912
1062	0.306581
1074	0.474756
1086	0.62149
1098	0.484576
1110	0.261709
1122	0.146547
1134	0.108885
1146	0.0781834
1158	0.0919184
1170	0.12523
1182	0.16339
1194	0.167181
1206	0.180543
1218	0.189741
1230	0.181102
1242	0.20764
1254	0.269354
1266	0.242133
1278	0.15444
1290	0.135485
1302	0.176565
1314	0.226409
1326	0.214041
1338	0.195272
1350	0.235234
1362	0.268111
1374	0.283834
1386	0.269167
1398	0.201674
1410	0.227155
1422	0.348532
1434	0.313852
1446	0.169045
1458	0.136355
1470	0.155559
1482	0.157299
1494	0.0692961
1506	0.0221872
1518	0.0150401
1530	0.0164073
1542	0.0225601
1554	0.0618383
1566	0.135733
1578	0.19751
1590	0.174328
1602	0.0793021
1614	0.0413912
1626	0.0542561
1638	0.0517701
1650	0.0228708
1662	0.028775
1674	0.0282778
1686	0.0185204
1698	0.0280292
1710	0.0395268
1722	0.0238652
1734	0.0172153
1746	0.0178368
1758	0.0163452
1770	0.0103167
1782	0.00727143
1794	0.00577986
1806	0.00590416
1818	0.0032939
1830	0.00229951
1842	0.00590416
1854	0.00988169
1866	0.0142943
1878	0.0156615
1890	0.0226844
1902	0.0328768
1914	0.0285885
1926	0.0217522
1938	0.0155373
1950	0.0123055
1962	0.0111868
1974	0.00671209
1986	0.00478547
1998	0.00310745
2010	0.00174017
2022	0.000994384
2034	0.000310745
2046	0.000745788
2058	0.000372894
2070	0.000870086
2082	0.00155373
2094	0.00155373
2106	0.000932235
2118	0.000559341
2130	0.000248596
2142	0.000372894
2154	0.000683639
2166	0.00105653
2178	0.00186447
2190	0.00205092
2202	0.00186447
2214	0.00254811
2226	0.0031696
2238	0.00403969
2250	0.00466118
2262	0.00484762
2274	0.00490977
2286	0.00435043
2298	0.00410183
2310	0.00459903
2322	0.00335605
2334	0.00273456
2346	0.00571771
2358	0.00584201
2370	0.00565556
2382	0.00664994
2394	0.00540696
2406	0.00466118
2418	0.00472332
2430	0.00540696
2442	0.00571771
2454	0.00571771
2466	0.00540696
2478	0.00478547
2490	0.00484762
2502	0.00466118
2514	0.00497192
2526	0.00472332
2538	0.00472332
2550	0.00503407
2562	0.00553126
2574	0.00658779
2586	0.00870086
2598	0.0114354
2610	0.0132377
2622	0.0128027
2634	0.0113733
2646	0.0103167
2658	0.00981954
2670	0.00988169
2682	0.0103167
2694	0.0111247
2706	0.0114354
2718	0.0128648
2730	0.0147915
2742	0.0174017
2754	0.0180854
2766	0.0197012
2778	0.0239274
2790	0.0295829
2802	0.0356735
2814	0.0407076
2826	0.0449337
2838	0.0533238
2850	0.0765054
2862	0.128524
2874	0.198628
2886	0.243003
2898	0.241822
2910	0.214476
2922	0.205216
2934	0.236788
2946	0.233245
2958	0.21199
2970	0.322305
2982	0.537713
2994	0.463694
3006	0.234861
3018	0.185515
3030	0.230635
3042	0.278241
3054	0.301112
3066	0.235358
3078	0.155497
3090	0.150214
3102	0.0850198
3114	0.0296451
3126	0.0178368
3138	0.0163452
3150	0.0154751
3162	0.0122434
3174	0.010006
3186	0.0106275
3198	0.00839012
3210	0.00627705
3222	0.00553126
3234	0.00509622
3246	0.00335605
3258	0.00273456
3270	0.00248596
3282	0.0032939
3294	0.00335605
3306	0.0032939
3318	0.00385324
3330	0.00379109
3342	0.00540696
3354	0.0063392
3366	0.0062149
3378	0.00640135
3390	0.00683639
3402	0.00801722
3414	0.00783077
3426	0.00857656
3438	0.00826582
3450	0.00932235
3462	0.0120569
3474	0.0123677
3486	0.013362
3498	0.00975739
3510	0.00826582
3522	0.00714714
3534	0.00671209
3546	0.00671209
3558	0.00671209
3570	0.00733358
3582	0.00845226
3594	0.00944665
3606	0.0138592
3618	0.0251703
3630	0.0628326
3642	0.14083
3654	0.188933
3666	0.116778
3678	0.0338712
3690	0.013362
3702	0.00789292
3714	0.00217522
3726	0.00149158
3738	6.2149e-05
3750	6.2149e-05
3762	6.2149e-05
3774	6.2149e-05
3786	0
3798	6.2149e-05
3810	6.2149e-05
3822	6.2149e-05
3834	0.000186447
3846	0.00186447
3858	0.00111868
3870	0.000310745
3882	0.00310745
3894	0.000186447
3906	0.000248596
3918	6.2149e-05
3930	0.0032939
3942	0.00142943
3954	6.2149e-05
3966	6.2149e-05
