Infrared Spectrum: 3-Cyclohexene-1-carboxylic acid
Formula: C 7 H 10 O 2
CAS: 4771-80-6
Origin: Sadtler Research Labs Under US-EPA Contract
1/CM	ABSORBANCE
450	0
462	0.0140059
474	0.0171115
486	0.0178422
498	0.0110829
510	0.0160154
522	0.0223485
534	0.0302039
546	0.0494467
558	0.0633917
570	0.0865318
582	0.089881
594	0.0739874
606	0.0766059
618	0.0837306
630	0.0596162
642	0.0548664
654	0.0984063
666	0.0736829
678	0.0277681
690	0.00998678
702	0.0169897
714	0.0298385
726	0.0410432
738	0.0295341
750	0.0194255
762	0.015102
774	0.0114483
786	0.00749008
798	0.00718561
810	0.0116309
822	0.00919515
834	0.00675934
846	0.00742919
858	0.00901246
870	0.0100477
882	0.0113265
894	0.0141885
906	0.0203998
918	0.0270374
930	0.0235664
942	0.0275245
954	0.0311173
966	0.0242971
978	0.0222876
990	0.0221658
1002	0.0213132
1014	0.0189383
1026	0.0211915
1038	0.0317872
1050	0.0480462
1062	0.0638789
1074	0.079468
1086	0.108698
1098	0.124896
1110	0.192428
1122	0.376453
1134	0.395148
1146	0.234994
1158	0.169653
1170	0.101877
1182	0.0602252
1194	0.0492641
1206	0.0537703
1218	0.0593117
1230	0.0403125
1242	0.0312391
1254	0.0297168
1266	0.0300821
1278	0.0344057
1290	0.0457321
1302	0.0546228
1314	0.0522479
1326	0.0554144
1338	0.0515781
1350	0.0454886
1362	0.0377549
1374	0.0450623
1386	0.0610777
1398	0.0495076
1410	0.0259413
1422	0.0274636
1434	0.0331269
1446	0.0522479
1458	0.0473154
1470	0.0263675
1482	0.0134578
1494	0.0116309
1506	0.0116918
1518	0.0109002
1530	0.00706382
1542	0.0135796
1554	0.00694203
1566	0.00931694
1578	0.00815993
1590	0.00925604
1602	0.0097432
1614	0.0133969
1626	0.0149193
1638	0.0155282
1650	0.0235055
1662	0.0218004
1674	0.015102
1686	0.0152237
1698	0.019121
1710	0.020278
1722	0.0436617
1734	0.0694812
1746	0.124591
1758	0.285049
1770	0.539834
1782	0.496051
1794	0.195656
1806	0.0820865
1818	0.0356236
1830	0.0192428
1842	0.0140059
1854	0.0123008
1866	0.0107175
1878	0.0113874
1890	0.0107784
1902	0.00901246
1914	0.00913425
1926	0.00803814
1938	0.00882977
1950	0.00834261
1962	0.00797724
1974	0.00761187
1986	0.00785545
1998	0.00718561
2010	0.00736829
2022	0.00706382
2034	0.0073074
2046	0.00749008
2058	0.00749008
2070	0.00688114
2082	0.00706382
2094	0.00712472
2106	0.00706382
2118	0.00742919
2130	0.00675934
2142	0.00645487
2154	0.00657666
2166	0.00675934
2178	0.00688114
2190	0.0072465
2202	0.0072465
2214	0.00749008
2226	0.00749008
2238	0.00761187
2250	0.00779456
2262	0.00749008
2274	0.00700293
2286	0.00688114
2298	0.00645487
2310	0.00651576
2322	0.00718561
2334	0.00809903
2346	0.00901246
2358	0.0085253
2370	0.00913425
2382	0.00785545
2394	0.0073074
2406	0.00663755
2418	0.00627218
2430	0.00633308
2442	0.00621129
2454	0.00651576
2466	0.00651576
2478	0.00669845
2490	0.00688114
2502	0.00669845
2514	0.00657666
2526	0.00657666
2538	0.00657666
2550	0.00651576
2562	0.00657666
2574	0.00663755
2586	0.00700293
2598	0.00712472
2610	0.00718561
2622	0.0072465
2634	0.00749008
2646	0.00785545
2658	0.00895156
2670	0.00925604
2682	0.00919515
2694	0.00858619
2706	0.00864709
2718	0.00870798
2730	0.00895156
2742	0.00907335
2754	0.00931694
2766	0.0102913
2778	0.0111438
2790	0.0101086
2802	0.0104739
2814	0.0114483
2826	0.0147975
2838	0.0291687
2850	0.0677152
2862	0.078311
2874	0.0583983
2886	0.0571195
2898	0.07484
2910	0.0926213
2922	0.133847
2934	0.166913
2946	0.142312
2958	0.117588
2970	0.0845832
2982	0.0468891
2994	0.0278899
3006	0.0198518
3018	0.0217395
3030	0.0879324
3042	0.131046
3054	0.0420176
3066	0.01973
3078	0.0185121
3090	0.0136405
3102	0.0123617
3114	0.0116309
3126	0.0114483
3138	0.0110829
3150	0.0105348
3162	0.0102913
3174	0.0101086
3186	0.00968231
3198	0.0097432
3210	0.0101695
3222	0.0097432
3234	0.00968231
3246	0.0098041
3258	0.00956052
3270	0.00992589
3282	0.0100477
3294	0.0104739
3306	0.0101086
3318	0.0097432
3330	0.00943873
3342	0.00925604
3354	0.00858619
3366	0.00840351
3378	0.00864709
3390	0.00870798
3402	0.00876888
3414	0.00809903
3426	0.0085253
3438	0.00834261
3450	0.00809903
3462	0.00779456
3474	0.00749008
3486	0.00809903
3498	0.00822082
3510	0.00901246
3522	0.0107784
3534	0.0116918
3546	0.0127271
3558	0.0213741
3570	0.177631
3582	0.200832
3594	0.034223
3606	0.0111438
3618	0.0114483
3630	0.0146148
3642	0.00949962
3654	0.012179
3666	0.00596771
3678	0.0172942
3690	0.0109002
3702	0.0100477
3714	0.0118136
3726	0.00919515
3738	0.0129097
3750	0.0113265
3762	0.0109002
3774	0.0105957
3786	0.00834261
3798	0.0120572
3810	0.00828172
3822	0.0172333
3834	0.0123617
3846	0.0118745
3858	0.013945
3870	0.0135187
3882	0.0116309
3894	0.0131533
3906	0.0116918
3918	0.0125444
3930	0.0112047
3942	0.0101695
3954	0.0118136
3966	0.0107175
