Infrared Spectrum: 2-Furanmethanamine, tetrahydro-
Formula: C 5 H 11 N O
CAS: 4795-29-3
Origin: Sadtler Research Labs Under US-EPA Contract
1/CM	ABSORBANCE
450	0.0175004
462	0.0168297
474	0.00524402
486	0.00384155
498	0.00329276
510	0.000365862
522	0.00426839
534	0.00225615
546	0.00548793
558	0.00987827
570	0.0129271
582	0.0162809
594	0.0198175
606	0.026464
618	0.0296958
630	0.029086
642	0.0282933
654	0.0293299
666	0.0323788
678	0.0367691
690	0.0410985
702	0.0482328
714	0.0585989
726	0.0765261
738	0.107198
750	0.142503
762	0.17665
774	0.240127
786	0.314397
798	0.311227
810	0.231652
822	0.203114
834	0.188663
846	0.145918
858	0.10549
870	0.103173
882	0.0965266
894	0.0853068
906	0.0868922
918	0.0925631
930	0.0897581
942	0.0774408
954	0.0756725
966	0.0754895
978	0.0744529
990	0.0739651
1002	0.0784164
1014	0.0904289
1026	0.115003
1038	0.180858
1050	0.341532
1062	0.475743
1074	0.472572
1086	0.379582
1098	0.276531
1110	0.188907
1122	0.120734
1134	0.0712821
1146	0.0432937
1158	0.0374399
1170	0.0443303
1182	0.0514036
1194	0.0471352
1206	0.0364642
1218	0.0287202
1230	0.0252445
1242	0.0256713
1254	0.026403
1266	0.029147
1278	0.0334764
1290	0.0350008
1302	0.0328056
1314	0.0357935
1326	0.0409765
1338	0.0418302
1350	0.0443913
1362	0.0531719
1374	0.055733
1386	0.0375009
1398	0.0210371
1410	0.0150613
1422	0.0149394
1434	0.021098
1446	0.0412814
1458	0.0692089
1470	0.0674406
1482	0.0414034
1494	0.029269
1506	0.0240859
1518	0.0167077
1530	0.0140857
1542	0.013171
1554	0.0131101
1566	0.0152443
1578	0.0207322
1590	0.0287811
1602	0.0453059
1614	0.0706723
1626	0.0830507
1638	0.0630502
1650	0.0332325
1662	0.0162809
1674	0.00792701
1686	0.00615868
1698	0.00810994
1710	0.00243908
1722	0.00164638
1734	0.00176833
1746	0.0031708
1758	0.00719529
1770	0.00225615
1782	0.000975632
1794	0.00109759
1806	0.00109759
1818	0.00152443
1830	0.0021342
1842	0.00250006
1854	0.00262201
1866	0.0021342
1878	0.00243908
1890	0.00243908
1902	0.00243908
1914	0.00201224
1926	0.00195126
1938	0.00121954
1950	0.000914655
1962	0.000670747
1974	0.000548793
1986	0.000731724
1998	0.0015854
2010	0.0023781
2022	0.00231713
2034	0.0023781
2046	0.00189029
2058	0.00164638
2070	0.00134149
2082	0.00109759
2094	0.00060977
2106	0.000731724
2118	0.000243908
2130	0.000365862
2142	0
2154	6.0977e-05
2166	6.0977e-05
2178	0.000243908
2190	0.000426839
2202	0.000914655
2214	0.000731724
2226	0.000731724
2238	0.000548793
2250	0.000731724
2262	0.000914655
2274	0.00109759
2286	0.00140247
2298	0.00207322
2310	0.0021342
2322	0.00170736
2334	0.00146345
2346	0.0015854
2358	0.000914655
2370	0.00256103
2382	0.00201224
2394	0.00103661
2406	0.000914655
2418	0.000914655
2430	0.000670747
2442	0.000914655
2454	0.000792701
2466	0.00103661
2478	0.000792701
2490	0.00103661
2502	0.00134149
2514	0.00170736
2526	0.00274397
2538	0.00353667
2550	0.00481718
2562	0.00585379
2574	0.00646356
2586	0.00835385
2598	0.00939046
2610	0.010549
2622	0.0126222
2634	0.0143906
2646	0.016037
2658	0.0182321
2670	0.0203053
2682	0.0227444
2694	0.0242688
2706	0.0257323
2718	0.0267079
2730	0.0289641
2742	0.0321959
2754	0.0323788
2766	0.0322568
2778	0.0351228
2790	0.0413424
2802	0.0544525
2814	0.0793311
2826	0.125857
2838	0.210797
2850	0.356837
2862	0.500499
2874	0.546903
2886	0.469645
2898	0.389643
2910	0.372691
2922	0.419949
2934	0.463547
2946	0.474157
2958	0.502572
2970	0.54489
2982	0.548732
2994	0.330739
3006	0.14793
3018	0.0623795
3030	0.0367082
3042	0.0246347
3054	0.0162199
3066	0.0123783
3078	0.0098173
3090	0.00774408
3102	0.00585379
3114	0.005305
3126	0.00475621
3138	0.00439034
3150	0.0045123
3162	0.00384155
3174	0.0037196
3186	0.00310983
3198	0.00384155
3210	0.00347569
3222	0.00310983
3234	0.00286592
3246	0.00207322
3258	0.00207322
3270	0.00201224
3282	0.00182931
3294	0.00207322
3306	0.00164638
3318	0.0021342
3330	0.00359764
3342	0.0076831
3354	0.0113417
3366	0.00762213
3378	0.00359764
3390	0.00390253
3402	0.0076831
3414	0.0121954
3426	0.0107929
3438	0.00597575
3450	0.00304885
3462	0.0021342
3474	0.00164638
3486	0.00109759
3498	0.000731724
3510	0.000914655
3522	0.000670747
3534	0.00134149
3546	0.00176833
3558	0.00176833
3570	0.00298787
3582	0.00310983
3594	0.00201224
3606	0.000731724
3618	0.000792701
3630	0.00115856
3642	0.00195126
3654	0.000914655
3666	0.00140247
3678	0.00219517
3690	0.00115856
3702	0.00103661
3714	0.000304885
3726	0.0015854
3738	0.00231713
3750	0.00103661
3762	0.0015854
3774	0.00207322
3786	0.00189029
3798	0.00121954
3810	0.00262201
3822	0.00176833
3834	0.00250006
3846	0.00274397
3858	0.00170736
3870	0.000853678
3882	0.00189029
3894	0.00201224
3906	0.00109759
3918	0.00329276
3930	0.00274397
3942	0.000365862
3954	0.00353667
3966	0.00280494
