Infrared Spectrum: 1-Penten-3-ol, 4-methyl-
Formula: C 6 H 12 O
CAS: 4798-45-2
Origin: Sadtler Research Labs Under US-EPA Contract
1/CM	ABSORBANCE
450	0.027429
462	0.00786425
474	0.0285159
486	0.0168154
498	0.00850362
510	0.0145776
522	0.0160482
534	0.01624
546	0.0148973
558	0.0120202
570	0.0177745
582	0.0195008
594	0.0125956
606	0.0130431
618	0.012148
630	0.00965449
642	0.0106775
654	0.0130431
666	0.0150252
678	0.0236567
690	0.0203959
702	0.0098463
714	0.00428378
726	0.000831181
738	0.00159842
750	0.00230173
762	0.00300504
774	0.00409197
786	0.00971842
798	0.0171991
810	0.0255109
822	0.0267896
834	0.0255748
846	0.0197565
858	0.0136825
870	0.0151531
882	0.0255748
894	0.0381704
906	0.0728882
918	0.194305
930	0.235288
942	0.140789
954	0.106199
966	0.160098
978	0.239892
990	0.288228
1002	0.268983
1014	0.254405
1026	0.275057
1038	0.223332
1050	0.128769
1062	0.0989105
1074	0.0831181
1086	0.0836296
1098	0.0848444
1110	0.0767244
1122	0.0744866
1134	0.0785786
1146	0.0798573
1158	0.0803049
1170	0.0834378
1182	0.0717373
1194	0.0531956
1206	0.0558809
1218	0.0775556
1230	0.104089
1242	0.108949
1254	0.0898315
1266	0.0704586
1278	0.0654076
1290	0.0682208
1302	0.0696274
1314	0.0597172
1326	0.0503824
1338	0.0501905
1350	0.0599729
1362	0.0844608
1374	0.110483
1386	0.12001
1398	0.0925808
1410	0.0708422
1422	0.090279
1434	0.0855477
1446	0.0661109
1458	0.0804967
1470	0.104345
1482	0.0788343
1494	0.0350375
1506	0.0140022
1518	0.00856756
1530	0.00677732
1542	0.00664945
1554	0.00485921
1566	0.00549858
1578	0.00473134
1590	0.00479527
1602	0.00664945
1614	0.00716094
1626	0.0115726
1638	0.0221222
1650	0.0255748
1662	0.0129792
1674	0.00569039
1686	0.00434772
1698	0.00390016
1710	0.00396409
1722	0.00447559
1734	0.00524283
1746	0.0098463
1758	0.00837575
1770	0.00549858
1782	0.00575433
1794	0.00530677
1806	0.0029411
1818	0.00268535
1830	0.0051789
1842	0.013235
1854	0.0217386
1866	0.0151531
1878	0.0046674
1890	0.00223779
1902	0.00159842
1914	0.00153449
1926	0.00153449
1938	0.00127874
1950	0.00159842
1962	0.00268535
1974	0.00306898
1986	0.00287716
1998	0.0017263
2010	0.00115087
2022	0.0012148
2034	0.00153449
2046	0.0012148
2058	0.00115087
2070	0.000895118
2082	0.000703307
2094	0.00063937
2106	0.000575433
2118	0.00063937
2130	0.000575433
2142	0.000319685
2154	0.000127874
2166	0.000703307
2178	0.000447559
2190	0.000575433
2202	0.000895118
2214	0.000767244
2226	0.000831181
2238	0.00108693
2250	0.000895118
2262	0.00147055
2274	0.00179024
2286	0.00140661
2298	0.00166236
2310	0.000959055
2322	0.000895118
2334	0.00153449
2346	0.00185417
2358	0.000767244
2370	0.00383622
2382	0.0034526
2394	0.00338866
2406	0.00332472
2418	0.00326079
2430	0.00364441
2442	0.00364441
2454	0.0034526
2466	0.00370835
2478	0.00370835
2490	0.00358047
2502	0.0034526
2514	0.0034526
2526	0.00364441
2538	0.0041559
2550	0.00485921
2562	0.00626583
2574	0.00677732
2586	0.00741669
2598	0.00805606
2610	0.00773638
2622	0.00709701
2634	0.00754457
2646	0.00805606
2658	0.00805606
2670	0.00831181
2682	0.00882331
2694	0.00837575
2706	0.00875937
2718	0.0106135
2730	0.013171
2742	0.014194
2754	0.0137465
2766	0.013171
2778	0.0138743
2790	0.0147694
2802	0.0174548
2814	0.0234649
2826	0.0370195
2838	0.0662387
2850	0.107606
2862	0.148014
2874	0.227552
2886	0.293854
2898	0.298522
2910	0.251848
2922	0.219815
2934	0.238613
2946	0.286694
2958	0.413672
2970	0.63937
2982	0.526138
2994	0.238869
3006	0.111698
3018	0.067965
3030	0.0501905
3042	0.0345899
3054	0.029475
3066	0.0402803
3078	0.0764687
3090	0.111186
3102	0.0746784
3114	0.0255748
3126	0.013171
3138	0.0115087
3150	0.0119562
3162	0.0129792
3174	0.0127874
3186	0.0113168
3198	0.00971842
3210	0.00767244
3222	0.00473134
3234	0.0034526
3246	0.00268535
3258	0.00249354
3270	0.00223779
3282	0.00153449
3294	0.00115087
3306	0.00102299
3318	0.00115087
3330	0.00210992
3342	0.00179024
3354	0.0012148
3366	0.00179024
3378	0.00185417
3390	0.00217386
3402	0.00306898
3414	0.00262142
3426	0.00242961
3438	0.00230173
3450	0.00249354
3462	0.00217386
3474	0.00281323
3486	0.00159842
3498	0.0017263
3510	0.00179024
3522	0.00217386
3534	0.00127874
3546	0.00230173
3558	0.00223779
3570	0.0046674
3582	0.0034526
3594	0.00460346
3606	0.00421984
3618	0.00907905
3630	0.0210992
3642	0.0672617
3654	0.094371
3666	0.0664305
3678	0.0234649
3690	0.00652157
3702	0.00364441
3714	0.00300504
3726	0.00338866
3738	0.00358047
3750	0.00217386
3762	0.000703307
3774	0.00198205
3786	0.000767244
3798	0.00108693
3810	0.00185417
3822	0.00485921
3834	0.0041559
3846	0.00441165
3858	0.00428378
3870	0.00326079
3882	0.00377228
3894	0.0029411
3906	0.00409197
3918	0.00281323
3930	0.0017263
3942	0.00223779
3954	0.0017263
3966	0.00115087
