Infrared Spectrum: 2-Octen-4-ol
Formula: C 8 H 16 O
CAS: 4798-61-2
Origin: Sadtler Research Labs Under US-EPA Contract
1/CM	ABSORBANCE
450	0.00654391
462	0.0133302
474	0.00872521
486	0.0125223
498	0.0170465
510	0.0192278
522	0.0173696
534	0.0126839
546	0.00888679
558	0.0127647
570	0.00783653
582	0.00371629
594	0.00282761
606	0.00282761
618	0.00371629
630	0.00492813
642	0.0029084
654	0.00258525
666	0.00630154
678	0.00193894
690	0.00185815
702	0.00250446
714	0.00686707
726	0.0152691
738	0.0195509
750	0.0151883
762	0.0100986
774	0.0100986
786	0.0151075
798	0.0168849
810	0.0121183
822	0.00815969
834	0.00977547
846	0.0144612
858	0.0189854
870	0.0240751
882	0.0319117
894	0.0462113
906	0.0520281
918	0.0531592
930	0.0626923
942	0.0798195
954	0.149944
966	0.271451
978	0.189935
990	0.147925
1002	0.165537
1014	0.183229
1026	0.211021
1038	0.193732
1050	0.158508
1062	0.125708
1074	0.105349
1086	0.0866866
1098	0.0707712
1110	0.0686706
1122	0.0773151
1134	0.0793348
1146	0.0677012
1158	0.0516242
1170	0.0508163
1182	0.0550981
1194	0.0649544
1206	0.0773151
1218	0.0788501
1230	0.0816777
1242	0.0848284
1254	0.0958965
1266	0.0939576
1278	0.077719
1290	0.0710943
1302	0.0756185
1314	0.0685899
1326	0.0628538
1338	0.0724677
1350	0.0891911
1362	0.0961389
1374	0.120941
1386	0.142431
1398	0.0923418
1410	0.0573602
1422	0.0496852
1434	0.0654391
1446	0.0964621
1458	0.127162
1470	0.113589
1482	0.0598646
1494	0.0303767
1506	0.0215707
1518	0.0178544
1530	0.0173696
1542	0.0141381
1554	0.0127647
1566	0.0116336
1578	0.0122799
1590	0.0110681
1602	0.0117952
1614	0.0112297
1626	0.0147844
1638	0.0168849
1650	0.0220554
1662	0.0291648
1674	0.0466153
1686	0.0281146
1698	0.0167233
1710	0.0144612
1722	0.0132494
1734	0.0164002
1746	0.0239943
1758	0.0185815
1770	0.0185007
1782	0.0154307
1794	0.0138149
1806	0.0106641
1818	0.00824048
1830	0.00840206
1842	0.00654391
1854	0.0066247
1866	0.00557444
1878	0.00565523
1890	0.00549365
1902	0.00565523
1914	0.00581681
1926	0.00557444
1938	0.00613996
1950	0.00597839
1962	0.00630154
1974	0.00622075
1986	0.00686707
1998	0.00856363
2010	0.00888679
2022	0.00759417
2034	0.00751338
2046	0.00694785
2058	0.00694785
2070	0.00670549
2082	0.00638233
2094	0.00670549
2106	0.00638233
2118	0.00670549
2130	0.00678628
2142	0.00638233
2154	0.00670549
2166	0.00686707
2178	0.00694785
2190	0.00678628
2202	0.00702864
2214	0.00710943
2226	0.00702864
2238	0.00751338
2250	0.00727101
2262	0.00719022
2274	0.00694785
2286	0.0058976
2298	0.00371629
2310	0.000727101
2322	0.000323156
2334	0.000242367
2346	0.000565523
2358	0.000403945
2370	0.00161578
2382	0.00622075
2394	0.00920995
2406	0.00904837
2418	0.00920995
2430	0.00912916
2442	0.00872521
2454	0.00912916
2466	0.00872521
2478	0.00840206
2490	0.00872521
2502	0.00832127
2514	0.00815969
2526	0.00888679
2538	0.00912916
2550	0.00920995
2562	0.0100178
2574	0.0109873
2586	0.0112297
2598	0.0117144
2610	0.0115528
2622	0.011876
2634	0.0123607
2646	0.0127647
2658	0.0142997
2670	0.0153499
2682	0.0163194
2694	0.0167233
2706	0.016077
2718	0.0175312
2730	0.0209244
2742	0.0290033
2754	0.0267412
2766	0.0222978
2778	0.0232672
2790	0.027549
2802	0.0336082
2814	0.0416063
2826	0.0530784
2838	0.0793348
2850	0.147278
2862	0.300858
2874	0.445794
2886	0.389403
2898	0.291164
2910	0.330265
2922	0.520927
2934	0.770727
2946	0.729363
2958	0.557929
2970	0.662955
2982	0.359269
2994	0.175716
3006	0.142512
3018	0.126192
3030	0.109954
3042	0.0809506
3054	0.0529168
3066	0.0370822
3078	0.029488
3090	0.0248022
3102	0.0206012
3114	0.0179352
3126	0.0168041
3138	0.014946
3150	0.0123607
3162	0.0113105
3174	0.0100986
3186	0.00945231
3198	0.00824048
3210	0.00759417
3222	0.0066247
3234	0.0051705
3246	0.00476655
3258	0.00500892
3270	0.00420103
3282	0.00412024
3294	0.0044434
3306	0.00428182
3318	0.00395866
3330	0.00468576
3342	0.00468576
3354	0.00436261
3366	0.00565523
3378	0.00549365
3390	0.00541286
3402	0.00573602
3414	0.00484734
3426	0.00492813
3438	0.00484734
3450	0.00420103
3462	0.00436261
3474	0.00420103
3486	0.00355472
3498	0.00379708
3510	0.00315077
3522	0.00282761
3534	0.00347393
3546	0.00177736
3558	0.00363551
3570	0.00201972
3582	0.00557444
3594	0.00452418
3606	0.00541286
3618	0.00783653
3630	0.0147036
3642	0.0691554
3654	0.0848284
3666	0.0302151
3678	0.00702864
3690	0.00630154
3702	0.00266604
3714	0.000888679
3726	0.00080789
3738	0.000565523
3750	0.00161578
3762	0.00161578
3774	0.00234288
3786	0.00403945
3798	0.00234288
3810	0.00500892
3822	0.00161578
3834	0.00323156
3846	0.00210051
3858	0.00169657
3870	0.000888679
3882	0.00177736
3894	0.00137341
3906	0.000727101
3918	0.000242367
3930	0.000646312
3942	0.00210051
3954	0.0014542
3966	0.0029084
