Infrared Spectrum: Acenaphthylene, 1,2,2a,3,4,5-hexahydro-
Formula: C 12 H 14
CAS: 480-72-8
Origin: Sadtler Research Labs Under US-EPA Contract
1/CM	ABSORBANCE
450	0.043246
462	0.0287908
474	0.0321358
486	0.0275962
498	0.0361976
510	0.0213841
522	0.0225787
534	0.0193532
546	0.023176
558	0.0360781
570	0.029866
582	0.0127826
594	0.0290298
606	0.024968
618	0.0232955
630	0.0215035
642	0.0226982
654	0.0225787
666	0.02007
678	0.0212646
690	0.0224592
702	0.0223398
714	0.0334499
726	0.0427681
738	0.056387
750	0.237256
762	0.396262
774	0.132247
786	0.0424097
798	0.0420513
810	0.039901
822	0.0867309
834	0.049697
846	0.0269989
858	0.0293881
870	0.0308217
882	0.0266405
894	0.0273573
906	0.0228176
918	0.0230566
930	0.0302244
942	0.0335694
954	0.0310606
966	0.0255653
978	0.0225787
990	0.0235344
1002	0.023176
1014	0.0242512
1026	0.0286714
1038	0.0286714
1050	0.0393037
1062	0.0462326
1074	0.0312996
1086	0.0264015
1098	0.0242512
1110	0.0222203
1122	0.0289103
1134	0.0253264
1146	0.0223398
1158	0.0287908
1170	0.0309412
1182	0.0310606
1194	0.0293881
1206	0.024729
1218	0.0268794
1230	0.0434849
1242	0.0520863
1254	0.0442017
1266	0.0296271
1278	0.0341667
1290	0.0363171
1302	0.0274767
1314	0.0358392
1326	0.0582984
1338	0.0568649
1350	0.038109
1362	0.0240123
1374	0.0204283
1386	0.0211451
1398	0.0228176
1410	0.0240123
1422	0.0285519
1434	0.0704838
1446	0.137503
1458	0.205956
1470	0.172864
1482	0.104531
1494	0.0379896
1506	0.0248485
1518	0.0244901
1530	0.0162471
1542	0.0145746
1554	0.01338
1566	0.0142162
1578	0.0185169
1590	0.0326137
1602	0.0906732
1614	0.0907926
1626	0.0284324
1638	0.0172028
1650	0.021623
1662	0.0210257
1674	0.0161276
1686	0.0181585
1698	0.028074
1710	0.0305828
1722	0.0238928
1734	0.0243707
1746	0.0230566
1758	0.0170834
1770	0.0160082
1782	0.0163666
1794	0.0172028
1806	0.01338
1818	0.0120659
1830	0.0119464
1842	0.014933
1854	0.0173223
1866	0.0127826
1878	0.010035
1890	0.00884034
1902	0.0154109
1914	0.0243707
1926	0.0150525
1938	0.00907926
1950	0.0072873
1962	0.00633159
1974	0.00668998
1986	0.00668998
1998	0.00633159
2010	0.00585374
2022	0.0059732
2034	0.00609266
2046	0.00561481
2058	0.00525642
2070	0.00525642
2082	0.00525642
2094	0.00513695
2106	0.00549534
2118	0.00537588
2130	0.00525642
2142	0.00489802
2154	0.00525642
2166	0.00513695
2178	0.00537588
2190	0.00525642
2202	0.00477856
2214	0.00501749
2226	0.00501749
2238	0.00442017
2250	0.00501749
2262	0.00477856
2274	0.0043007
2286	0.00477856
2298	0.00621213
2310	0.0072873
2322	0.00633159
2334	0.00370338
2346	0.00358392
2358	0.00310606
2370	0.00215035
2382	0.00322553
2394	0.00346446
2406	0.00250874
2418	0.00143357
2430	0.0016725
2442	0.00143357
2454	0.00203089
2466	0.00346446
2478	0.00382285
2490	0.00310606
2502	0.00262821
2514	0.00238928
2526	0.00250874
2538	0.00286714
2550	0.00382285
2562	0.00501749
2574	0.00621213
2586	0.0059732
2598	0.00716784
2610	0.00919873
2622	0.0106323
2634	0.0106323
2646	0.0105128
2658	0.0134994
2670	0.0152914
2682	0.0119464
2694	0.00919873
2706	0.00692891
2718	0.00704838
2730	0.00872087
2742	0.00943766
2754	0.0107518
2766	0.0140968
2778	0.0174417
2790	0.0225787
2802	0.0287908
2814	0.0358392
2826	0.0550729
2838	0.179554
2850	0.498045
2862	0.573905
2874	0.383241
2886	0.231043
2898	0.262821
2910	0.363648
2922	0.658844
2934	1.09405
2946	1.19464
2958	1.00816
2970	0.344654
2982	0.0516084
2994	0.031419
3006	0.0376312
3018	0.0936598
3030	0.168803
3042	0.19401
3054	0.226862
3066	0.188873
3078	0.123287
3090	0.0538783
3102	0.0232955
3114	0.00979605
3126	0.0059732
3138	0.00680945
3150	0.00704838
3162	0.00704838
3174	0.00800409
3186	0.00812355
3198	0.00680945
3210	0.00561481
3222	0.00310606
3234	0.00274767
3246	0.00274767
3258	0.00238928
3270	0.00310606
3282	0.0043007
3294	0.00537588
3306	0.0043007
3318	0.00477856
3330	0.00621213
3342	0.00537588
3354	0.00645106
3366	0.00609266
3378	0.00525642
3390	0.00621213
3402	0.00561481
3414	0.00489802
3426	0.00370338
3438	0.00262821
3450	0.00418124
3462	0.00310606
3474	0.00442017
3486	0.00525642
3498	0.00609266
3510	0.00740677
3522	0.0059732
3534	0.00382285
3546	0.00537588
3558	0.00537588
3570	0.00418124
3582	0.00107518
3594	0.00501749
3606	0.00238928
3618	0.00418124
3630	0.0043007
3642	0.00573427
3654	0.0046591
3666	0.00370338
3678	0.00286714
3690	0.00418124
3702	0.00382285
3714	0.00489802
3726	0.0029866
3738	0.00107518
3750	0.0013141
3762	0.00334499
3774	0.00573427
3786	0.0046591
3798	0.00418124
3810	0.00979605
3822	0.00668998
3834	0.00716784
3846	0.00549534
3858	0.00226982
3870	0.00704838
3882	0.00692891
3894	0.00203089
3906	0.00848194
3918	0.00549534
3930	0.00884034
3942	0.0072873
3954	0.00848194
3966	0.00668998
