Infrared Spectrum: N-Methylrhodanine
Formula: C 4 H 5 N O S 2
CAS: 4807-55-0
Origin: Sadtler Research Labs Under US-EPA Contract
1/CM	ABSORBANCE
450	0.0328638
462	0.0658919
474	0.0813379
486	0.0361502
498	0.0095305
510	0.0034507
522	0.00887323
534	0.0310563
546	0.0299061
558	0.00755867
570	0.00657276
582	0.0116666
594	0.0111737
606	0.0351643
618	0.0831454
630	0.0593192
642	0.0100235
654	0.00673708
666	0.00657276
678	0.00427229
690	0.00230047
702	0.0026291
714	0.00279342
726	0.000821595
738	0.000492957
750	0.00230047
762	0.0123239
774	0.0261267
786	0.0230047
798	0.00624412
810	0.00246479
822	0.00394366
834	0.0215258
846	0.0456807
858	0.0280985
870	0.00657276
882	0.0101878
894	0.0116666
906	0.00509389
918	0.000492957
930	0
942	0.00328638
954	0.0139671
966	0.0630985
978	0.131127
990	0.10615
1002	0.0322065
1014	0.0223474
1026	0.0119953
1038	0.0101878
1050	0.0141314
1062	0.0302347
1074	0.0795304
1086	0.151338
1098	0.172864
1110	0.138357
1122	0.18946
1134	0.33669
1146	0.370375
1158	0.253544
1170	0.172042
1182	0.107465
1194	0.0971125
1206	0.171385
1218	0.160211
1230	0.0770656
1242	0.0739436
1254	0.1073
1266	0.169742
1278	0.347535
1290	1.07251
1302	1.64319
1314	0.828825
1326	0.342934
1338	0.380234
1350	0.318615
1362	0.146244
1374	0.0706572
1386	0.0586619
1398	0.0683567
1410	0.123568
1422	0.228075
1434	0.190939
1446	0.0672065
1458	0.0609623
1470	0.0652346
1482	0.0532394
1494	0.038615
1506	0.038615
1518	0.0407511
1530	0.0391079
1542	0.0410798
1554	0.0317136
1566	0.0271126
1578	0.0233333
1590	0.0203756
1602	0.0177465
1614	0.0159389
1626	0.0156103
1638	0.015446
1650	0.0167605
1662	0.0157746
1674	0.019554
1686	0.022676
1698	0.0330281
1710	0.0511032
1722	0.0729576
1734	0.240399
1746	1.09568
1758	1.26066
1770	0.310727
1782	0.0985914
1794	0.0382863
1806	0.0333568
1818	0.0392722
1830	0.0320422
1842	0.0169249
1854	0.0124882
1866	0.0095305
1878	0.00673708
1890	0.00525821
1902	0.00427229
1914	0.00492957
1926	0.00476525
1938	0.0034507
1950	0.00377934
1962	0.00394366
1974	0.00361502
1986	0.00295774
1998	0.00279342
2010	0.00213615
2022	0.00295774
2034	0.00492957
2046	0.00755867
2058	0.00903755
2070	0.011338
2082	0.0103521
2094	0.00805163
2106	0.00575117
2118	0.00476525
2130	0.00410797
2142	0.00476525
2154	0.00460093
2166	0.00361502
2178	0.00410797
2190	0.00361502
2202	0.0034507
2214	0.00361502
2226	0.00427229
2238	0.00328638
2250	0.00213615
2262	0.00312206
2274	0.00575117
2286	0.00821595
2298	0.00903755
2310	0.0095305
2322	0.00854459
2334	0.00509389
2346	0.0026291
2358	0.00361502
2370	0.00246479
2382	0.0026291
2394	0.00246479
2406	0.00361502
2418	0.00328638
2430	0.00295774
2442	0.00246479
2454	0.00131455
2466	0.000328638
2478	0.000164319
2490	0
2502	0.000492957
2514	0.000985914
2526	0.000821595
2538	0.000328638
2550	0
2562	0
2574	0.000492957
2586	0.00147887
2598	0.00213615
2610	0.00279342
2622	0.00443661
2634	0.0069014
2646	0.00624412
2658	0.00295774
2670	0.000657276
2682	0.000164319
2694	0.000328638
2706	0.000492957
2718	0.00115023
2730	0.00164319
2742	0.00115023
2754	0.00131455
2766	0.00115023
2778	0.000492957
2790	0.000657276
2802	0.00147887
2814	0.0026291
2826	0.00295774
2838	0.0034507
2850	0.00410797
2862	0.00443661
2874	0.00591548
2886	0.00772299
2898	0.00985914
2910	0.011338
2922	0.0131455
2934	0.0207042
2946	0.0474882
2958	0.057676
2970	0.0328638
2982	0.0159389
2994	0.0144601
3006	0.0103521
3018	0.0069014
3030	0.00460093
3042	0.00377934
3054	0.00394366
3066	0.00443661
3078	0.00476525
3090	0.00394366
3102	0.00361502
3114	0.00246479
3126	0.00197183
3138	0.00180751
3150	0.00164319
3162	0.00147887
3174	0.00197183
3186	0.00147887
3198	0.00131455
3210	0.00115023
3222	0.000821595
3234	0.00115023
3246	0.000985914
3258	0.00131455
3270	0.00115023
3282	0.000821595
3294	0.00147887
3306	0.000985914
3318	0.00131455
3330	0.000985914
3342	0.000985914
3354	0.000985914
3366	0.00131455
3378	0.000985914
3390	0.000821595
3402	0.00164319
3414	0.00147887
3426	0.00131455
3438	0.00197183
3450	0.00246479
3462	0.00295774
3474	0.00903755
3486	0.018568
3498	0.0138028
3510	0.00279342
3522	0.00147887
3534	0.00115023
3546	0.00147887
3558	0.00180751
3570	0.00180751
3582	0.00230047
3594	0.00180751
3606	0.000985914
3618	0.000821595
3630	0.00131455
3642	0
3654	0.00131455
3666	0.00147887
3678	0.000657276
3690	0.00115023
3702	0.00131455
3714	0.000821595
3726	0.00147887
3738	0.00131455
3750	0.000492957
3762	0.00131455
3774	0.000657276
3786	0.00115023
3798	0.00164319
3810	0.000985914
3822	0.00147887
3834	0.00180751
3846	0.000985914
3858	0.00147887
3870	0.000657276
3882	0.00164319
3894	0.00131455
3906	0.00131455
3918	0.00180751
3930	0.00115023
3942	0.00180751
3954	0.00131455
3966	0.000821595
