Infrared Spectrum: Ethylenediamine, N-sec-butyl-,
Formula: C 6 H 16 N 2
CAS: 4814-79-3
Origin: Sadtler Research Labs Under US-EPA Contract
1/CM	ABSORBANCE
450	0.00842476
462	0.00525021
474	0.0059828
486	0.00451763
498	0.00268616
510	0.00427343
522	0.00866896
534	0.0059828
546	0.00891315
558	0.0111109
570	0.00940155
582	0.0102562
594	0.0101341
606	0.0137971
618	0.0207567
630	0.0340653
642	0.0516475
654	0.0752124
666	0.0991436
678	0.13211
690	0.158117
702	0.181438
714	0.196211
726	0.207445
738	0.221974
750	0.25897
762	0.334915
774	0.351276
786	0.28925
798	0.256528
810	0.215137
822	0.147861
834	0.0948701
846	0.077288
858	0.0725262
870	0.0645898
882	0.0543336
894	0.0441995
906	0.033577
918	0.0264953
930	0.024908
942	0.0185589
954	0.0189252
966	0.0278383
978	0.0305245
990	0.0379725
1002	0.0589733
1014	0.0798521
1026	0.0857128
1038	0.0853465
1050	0.117092
1062	0.174722
1074	0.172158
1086	0.133087
1098	0.139558
1110	0.149204
1122	0.137727
1134	0.141634
1146	0.154088
1158	0.230155
1170	0.246516
1182	0.132232
1194	0.0619037
1206	0.0362631
1218	0.0244196
1230	0.0212451
1242	0.0271058
1254	0.0363852
1266	0.0405365
1278	0.038583
1290	0.0490834
1302	0.0645898
1314	0.0673981
1326	0.0963353
1338	0.145297
1350	0.171548
1362	0.172769
1374	0.228812
1386	0.225027
1398	0.0973121
1410	0.0440774
1422	0.0499381
1434	0.110254
1446	0.223195
1458	0.320874
1470	0.345537
1482	0.214648
1494	0.0771659
1506	0.0351642
1518	0.0217334
1530	0.0156285
1542	0.0175821
1554	0.0177042
1566	0.0197799
1578	0.02735
1590	0.0360189
1602	0.0620258
1614	0.100975
1626	0.110132
1638	0.0720378
1650	0.0340653
1662	0.0210009
1674	0.0117214
1686	0.00671539
1698	0.00219776
1710	0.00146518
1722	0.00183147
1734	0.00402923
1746	0
1758	0.00109888
1770	0.00195357
1782	0.00122098
1794	0.00305245
1806	0.00305245
1818	0.00415133
1830	0.00402923
1842	0.00402923
1854	0.00354084
1866	0.00244196
1878	0.00256406
1890	0.00268616
1902	0.00195357
1914	0.00122098
1926	0.00134308
1938	0.00122098
1950	0.00134308
1962	0.00170937
1974	0.00158727
1986	0.00195357
1998	0.00195357
2010	0.00183147
2022	0.00134308
2034	0.00170937
2046	0.00183147
2058	0.00207567
2070	0.00195357
2082	0.00219776
2094	0.00195357
2106	0.00207567
2118	0.00207567
2130	0.00170937
2142	0.00183147
2154	0.00183147
2166	0.00146518
2178	0.00134308
2190	0.000488392
2202	0.00061049
2214	0.000122098
2226	0.000488392
2238	0.000122098
2250	0.000122098
2262	0.000366294
2274	0.000854686
2286	0.00158727
2298	0.00183147
2310	0.00170937
2322	0.000732588
2334	0.00146518
2346	0.00293035
2358	0.00219776
2370	0.00378504
2382	0.00476182
2394	0.00390714
2406	0.00402923
2418	0.00439553
2430	0.00476182
2442	0.00549441
2454	0.0059828
2466	0.006227
2478	0.006227
2490	0.0059828
2502	0.00683749
2514	0.00744798
2526	0.00879106
2538	0.0103783
2550	0.0122098
2562	0.0158727
2574	0.0212451
2586	0.0264953
2598	0.0294256
2610	0.0310129
2622	0.0341874
2634	0.0377283
2646	0.0407807
2658	0.0429785
2670	0.0477403
2682	0.0545778
2694	0.0608048
2706	0.0665434
2718	0.0748461
2730	0.0826603
2742	0.0888873
2754	0.0979226
2766	0.119534
2778	0.165931
2790	0.236382
2802	0.309885
2814	0.368003
2826	0.406953
2838	0.42368
2850	0.441751
2862	0.515009
2874	0.596327
2886	0.648585
2898	0.626607
2910	0.675812
2922	0.876297
2934	1.02526
2946	0.946748
2958	0.927456
2970	1.22098
2982	0.88985
2994	0.309274
3006	0.106103
3018	0.0639794
3030	0.0483508
3042	0.0401702
3054	0.0352863
3066	0.0328444
3078	0.0304024
3090	0.0263732
3102	0.0227102
3114	0.019902
3126	0.0184368
3138	0.0168495
3150	0.016239
3162	0.0168495
3174	0.0156285
3186	0.0139192
3198	0.0119656
3210	0.0101341
3222	0.00793637
3234	0.006227
3246	0.00537231
3258	0.00402923
3270	0.00415133
3282	0.00476182
3294	0.00537231
3306	0.0058607
3318	0.00891315
3330	0.0163611
3342	0.0279604
3354	0.0251522
3366	0.013675
3378	0.00988994
3390	0.010012
3402	0.0133087
3414	0.014896
3426	0.0113551
3438	0.00671539
3450	0.00525021
3462	0.00427343
3474	0.00402923
3486	0.00329665
3498	0.00280825
3510	0.00354084
3522	0.00231986
3534	0.00256406
3546	0.00293035
3558	0.00134308
3570	0.00366294
3582	0.00268616
3594	0.00170937
3606	0.00146518
3618	0.00219776
3630	0.0061049
3642	0.00305245
3654	0.00146518
3666	0.00146518
3678	0.00415133
3690	0.00341874
3702	0.00256406
3714	0.00427343
3726	0.00354084
3738	0.00439553
3750	0.00231986
3762	0.00207567
3774	0.00317455
3786	0.00231986
3798	0.00244196
3810	0.00244196
3822	0.00317455
3834	0.00329665
3846	0.00268616
3858	0.00317455
3870	0.00500602
3882	0.00439553
3894	0.00659329
3906	0.00573861
3918	0.00647119
3930	0.00439553
3942	0.00354084
3954	0.00488392
3966	0.00427343
