Infrared Spectrum: N,N'-di-n-Butyl-1,6-hexanediamine
Formula: C 14 H 32 N 2
CAS: 4835-11-4
Origin: Sadtler Research Labs Under US-EPA Contract
1/CM	ABSORBANCE
450	0.00110082
462	0.00424602
474	0.0039315
486	0.00361698
498	0.00330246
510	0.0039315
522	0.00518958
534	0.00676218
546	0.00566136
558	0.00534684
570	0.00566136
582	0.00487506
594	0.00581862
606	0.0122663
618	0.0172986
630	0.0270487
642	0.0415166
654	0.0573999
666	0.0767429
678	0.0951423
690	0.104263
702	0.110082
714	0.100804
726	0.0880656
738	0.0773719
750	0.0636903
762	0.0467062
774	0.035069
786	0.0273632
798	0.0250043
810	0.0196575
822	0.0127381
834	0.00802026
846	0.00518958
858	0.00613314
870	0.00754848
882	0.00691944
894	0.00880656
906	0.00723396
918	0.00534684
930	0.00990738
942	0.00849204
954	0.0111655
966	0.015726
978	0.0108509
990	0.007863
1002	0.00896382
1014	0.0111655
1026	0.0185567
1038	0.0171413
1050	0.0221737
1062	0.0317665
1074	0.0485933
1086	0.0680936
1098	0.0890092
1110	0.133356
1122	0.225668
1134	0.347859
1146	0.233059
1158	0.11307
1170	0.063533
1182	0.0468635
1194	0.0366416
1206	0.0301939
1218	0.0289358
1230	0.0309802
1242	0.0323956
1254	0.0333391
1266	0.032081
1278	0.0327101
1290	0.0408876
1302	0.0512668
1314	0.0559846
1326	0.0636903
1338	0.100017
1350	0.125808
1362	0.14405
1374	0.122663
1386	0.087122
1398	0.0515813
1410	0.0427747
1422	0.0611741
1434	0.119675
1446	0.20774
1458	0.309016
1470	0.260423
1482	0.117473
1494	0.0446618
1506	0.0210728
1518	0.00770574
1530	0.00141534
1542	0.00330246
1554	0.00566136
1566	0.00487506
1578	0.00691944
1590	0.00723396
1602	0.0094356
1614	0.0110082
1626	0.012109
1638	0.0177704
1650	0.0177704
1662	0.0144679
1674	0.0190285
1686	0.0149397
1698	0.0179276
1710	0.0224882
1722	0.0106937
1734	0.0102219
1746	0.00377424
1758	0.0055041
1770	0.00817752
1782	0.007863
1794	0.00896382
1806	0.00487506
1818	0.00377424
1830	0.00172986
1842	0.0015726
1854	0.00125808
1866	0.00047178
1878	0.00110082
1890	0.0007863
1902	0.00062904
1914	0
1926	0.00062904
1938	0.00094356
1950	0.00141534
1962	0.00141534
1974	0.00172986
1986	0.00220164
1998	0.00251616
2010	0.00283068
2022	0.0031452
2034	0.00408876
2046	0.00377424
2058	0.00361698
2070	0.00330246
2082	0.00298794
2094	0.00283068
2106	0.0023589
2118	0.00204438
2130	0.00188712
2142	0.00172986
2154	0.00141534
2166	0.00172986
2178	0.00141534
2190	0.00125808
2202	0.00110082
2214	0.00062904
2226	0.00094356
2238	0.00110082
2250	0.00172986
2262	0.0023589
2274	0.00345972
2286	0.0047178
2298	0.00691944
2310	0.00802026
2322	0.00597588
2334	0.00361698
2346	0.00566136
2358	0.00597588
2370	0.00487506
2382	0.00802026
2394	0.00518958
2406	0.00518958
2418	0.0055041
2430	0.00534684
2442	0.00518958
2454	0.00534684
2466	0.0055041
2478	0.00597588
2490	0.00613314
2502	0.00691944
2514	0.00833478
2526	0.00959286
2538	0.0111655
2550	0.0119518
2562	0.0138389
2574	0.015726
2586	0.0179276
2598	0.0202865
2610	0.02296
2622	0.0253189
2634	0.0289358
2646	0.0338109
2658	0.0413594
2670	0.0490651
2682	0.0561418
2694	0.0633758
2706	0.0687226
2718	0.0735977
2730	0.0820897
2742	0.0960859
2754	0.107566
2766	0.117316
2778	0.140276
2790	0.204438
2802	0.327258
2814	0.461873
2826	0.461244
2838	0.394251
2850	0.44253
2862	0.629669
2874	0.622278
2886	0.612528
2898	0.5946
2910	0.774977
2922	1.14454
2934	1.57166
2946	1.25572
2958	0.82593
2970	0.822784
2982	0.381513
2994	0.180534
3006	0.108824
3018	0.0776864
3030	0.0621177
3042	0.0503232
3054	0.038686
3066	0.0306657
3078	0.0268915
3090	0.0232745
3102	0.0206011
3114	0.0177704
3126	0.0160405
3138	0.0141534
3150	0.0133671
3162	0.0119518
3174	0.0108509
3186	0.0100646
3198	0.00912108
3210	0.00770574
3222	0.00613314
3234	0.00487506
3246	0.0039315
3258	0.00345972
3270	0.00298794
3282	0.00298794
3294	0.00220164
3306	0.00204438
3318	0.00283068
3330	0.00345972
3342	0.00298794
3354	0.00361698
3366	0.00298794
3378	0.00251616
3390	0.00251616
3402	0.00220164
3414	0.00188712
3426	0.00141534
3438	0.00188712
3450	0.0015726
3462	0.00172986
3474	0.0015726
3486	0.00125808
3498	0.00125808
3510	0.00172986
3522	0.00125808
3534	0.00062904
3546	0.0039315
3558	0.00204438
3570	0.00613314
3582	0.00503232
3594	0.00487506
3606	0.00330246
3618	0.00456054
3630	0.0111655
3642	0.0100646
3654	0.0100646
3666	0.00802026
3678	0.0086493
3690	0.0062904
3702	0.00660492
3714	0.00660492
3726	0.00660492
3738	0.00927834
3750	0.0055041
3762	0.0055041
3774	0.00723396
3786	0.00581862
3798	0.00723396
3810	0.00676218
3822	0.00817752
3834	0.00723396
3846	0.00817752
3858	0.0086493
3870	0.00880656
3882	0.00691944
3894	0.00912108
3906	0.0086493
3918	0.0103792
3930	0.00833478
3942	0.00927834
3954	0.00912108
3966	0.00927834
