Infrared Spectrum: Benzene, 1-methoxy-2-methyl-3-nitro-
Formula: C 8 H 9 N O 3
CAS: 4837-88-1
Origin: Sadtler Research Labs Under US-EPA Contract
1/CM	ABSORBANCE
450	0
462	0.0127977
474	0.0166065
486	0.0251382
498	0.0364124
510	0.0452488
522	0.0368694
534	0.0318418
546	0.0263571
558	0.0251382
570	0.0277282
582	0.0252906
594	0.0259
606	0.0287947
618	0.0373265
630	0.0519524
642	0.0428112
654	0.0240718
666	0.0205677
678	0.0234624
690	0.0457059
702	0.124168
714	0.166979
726	0.164389
738	0.187089
750	0.109237
762	0.117007
774	0.261285
786	0.255496
798	0.193488
810	0.184499
822	0.157076
834	0.0434206
846	0.0321465
858	0.0298612
870	0.0493624
882	0.159057
894	0.11396
906	0.022853
918	0.0178253
930	0.0184347
942	0.0184347
954	0.0236147
966	0.0300135
978	0.0335177
990	0.0415924
1002	0.0623124
1014	0.0940018
1026	0.105124
1038	0.118988
1050	0.208267
1062	0.41181
1074	0.542224
1086	0.296327
1098	0.126148
1110	0.0659688
1122	0.0525618
1134	0.0437253
1146	0.0443347
1158	0.0658165
1170	0.102838
1182	0.172007
1194	0.182214
1206	0.362295
1218	0.356049
1230	0.108932
1242	0.214208
1254	0.798482
1266	1.06358
1278	0.31659
1290	0.157685
1302	0.170178
1314	0.136965
1326	0.117464
1338	0.175054
1350	0.523028
1362	0.930115
1374	0.49271
1386	0.186632
1398	0.125234
1410	0.0950683
1422	0.103295
1434	0.169569
1446	0.2331
1458	0.264028
1470	0.554413
1482	0.48174
1494	0.245288
1506	0.29328
1518	0.495452
1530	0.86049
1542	1.41277
1554	1.21075
1566	0.638968
1578	0.431768
1590	0.262657
1602	0.201563
1614	0.187242
1626	0.0741959
1638	0.0420494
1650	0.0312324
1662	0.0292518
1674	0.0214818
1686	0.0167588
1698	0.01554
1710	0.0170635
1722	0.0134071
1734	0.01036
1746	0.0152353
1758	0.0158447
1770	0.0141688
1782	0.0132547
1794	0.0117312
1806	0.0140165
1818	0.0164541
1830	0.0187394
1842	0.0176729
1854	0.01554
1866	0.01295
1878	0.0158447
1890	0.0185871
1902	0.0248335
1914	0.0251382
1926	0.0179777
1938	0.0147782
1950	0.0147782
1962	0.0138641
1974	0.0126453
1986	0.0135594
1998	0.0138641
2010	0.0141688
2022	0.0156924
2034	0.01813
2046	0.0173682
2058	0.0178253
2070	0.0227006
2082	0.0231577
2094	0.0184347
2106	0.0153877
2118	0.01295
2130	0.0123406
2142	0.0140165
2154	0.0140165
2166	0.0111218
2178	0.01036
2190	0.00990294
2202	0.01036
2214	0.0109694
2226	0.0109694
2238	0.0120359
2250	0.0135594
2262	0.0132547
2274	0.0131024
2286	0.0134071
2298	0.0117312
2310	0.0111218
2322	0.0126453
2334	0.0121882
2346	0.0127977
2358	0.0123406
2370	0.0126453
2382	0.0120359
2394	0.0117312
2406	0.0124929
2418	0.0147782
2430	0.0158447
2442	0.0141688
2454	0.0134071
2466	0.0140165
2478	0.0140165
2490	0.0153877
2502	0.0196535
2514	0.0240718
2526	0.022853
2538	0.0176729
2550	0.0175206
2562	0.02072
2574	0.0210247
2586	0.01813
2598	0.0172159
2610	0.0167588
2622	0.0164541
2634	0.0156924
2646	0.0159971
2658	0.01554
2670	0.01554
2682	0.0156924
2694	0.0166065
2706	0.0175206
2718	0.0185871
2730	0.0184347
2742	0.0184347
2754	0.0196535
2766	0.0204153
2778	0.0205677
2790	0.0220912
2802	0.0259
2814	0.0327559
2826	0.0458583
2838	0.0952206
2850	0.154791
2862	0.101467
2874	0.0847083
2886	0.0920212
2898	0.105276
2910	0.121425
2922	0.133461
2934	0.152201
2946	0.261895
2958	0.273169
2970	0.189222
2982	0.127672
2994	0.112284
3006	0.165608
3018	0.164541
3030	0.0792236
3042	0.0598747
3054	0.0559136
3066	0.0600271
3078	0.0758718
3090	0.0740436
3102	0.0510383
3114	0.0316894
3126	0.0223959
3138	0.0210247
3150	0.0190441
3162	0.0178253
3174	0.0169112
3186	0.0159971
3198	0.0158447
3210	0.0143212
3222	0.0131024
3234	0.0131024
3246	0.0123406
3258	0.0121882
3270	0.0120359
3282	0.0121882
3294	0.0118835
3306	0.0118835
3318	0.0123406
3330	0.0114265
3342	0.0115788
3354	0.0120359
3366	0.0118835
3378	0.0118835
3390	0.0109694
3402	0.0123406
3414	0.0112741
3426	0.0114265
3438	0.0120359
3450	0.0115788
3462	0.0115788
3474	0.0118835
3486	0.0108171
3498	0.0118835
3510	0.0117312
3522	0.0111218
3534	0.0117312
3546	0.0114265
3558	0.0114265
3570	0.0118835
3582	0.0106647
3594	0.0115788
3606	0.0114265
3618	0.0115788
3630	0.0126453
3642	0.0120359
3654	0.0121882
3666	0.0117312
3678	0.0124929
3690	0.0126453
3702	0.0115788
3714	0.0115788
3726	0.0108171
3738	0.0114265
3750	0.0112741
3762	0.00990294
3774	0.0111218
3786	0.00990294
3798	0.00990294
3810	0.0114265
3822	0.0112741
3834	0.0114265
3846	0.0108171
3858	0.0126453
3870	0.0121882
3882	0.0120359
3894	0.0140165
3906	0.0126453
3918	0.0146259
3930	0.0115788
3942	0.0115788
3954	0.0118835
3966	0.0132547
