Infrared Spectrum: Ethanol, 2-ethoxy-, ester with methyl 5-iodoisophthalate
Formula: C 13 H 15 I O 5
CAS: 4842-11-9
Origin: Sadtler Research Labs Under US-EPA Contract
1/CM	ABSORBANCE
450	0.00891591
462	0.00774018
474	0.0121491
486	0.00832804
498	0.0059766
510	0.00901388
522	0.00764221
534	0.0107775
546	0.00901388
558	0.00538874
570	0.00881793
582	0.00538874
594	0.00244942
606	0.00421301
618	0.00225347
630	0.00342919
642	0.0063685
654	0.00666244
666	0.012933
678	0.00617255
690	0.00823007
702	0.0261599
714	0.153726
726	0.0393868
738	0.0186156
750	0.10121
762	0.0429139
774	0.008524
786	0.00862198
798	0.00911186
810	0.0114633
822	0.0147945
834	0.0165581
846	0.0176359
858	0.0228286
870	0.0219468
882	0.0203792
894	0.0368394
906	0.029883
918	0.0208691
930	0.0290992
942	0.0267477
954	0.0235145
966	0.0331162
978	0.0566307
990	0.0820067
1002	0.072601
1014	0.0504582
1026	0.0664284
1038	0.0690738
1050	0.0430119
1062	0.0399746
1074	0.0500662
1086	0.0770099
1098	0.16029
1110	0.19566
1122	0.220742
1134	0.271886
1146	0.183217
1158	0.102386
1170	0.0859258
1182	0.0920004
1194	0.110812
1206	0.144712
1218	0.288052
1230	0.789009
1242	0.791948
1254	0.298242
1266	0.167051
1278	0.2034
1290	0.437271
1302	0.39328
1314	0.105913
1326	0.0570226
1338	0.046735
1350	0.0389948
1362	0.0423261
1374	0.0501642
1386	0.0530056
1398	0.0339
1410	0.029785
1422	0.0535934
1434	0.0784796
1446	0.0912166
1458	0.0370353
1470	0.0249841
1482	0.0173419
1494	0.0108754
1506	0.00695637
1518	0.00587862
1530	0.008524
1542	0.00715232
1554	0.0217509
1566	0.0564348
1578	0.0233185
1590	0.0108754
1602	0.01695
1614	0.00783816
1626	0.0059766
1638	0.00764221
1650	0.00813209
1662	0.0151864
1674	0.0175379
1686	0.0222408
1698	0.0325284
1710	0.0711313
1722	0.120022
1734	0.19566
1746	0.595014
1758	0.267183
1770	0.0546712
1782	0.0399746
1794	0.0248862
1806	0.0117572
1818	0.0112674
1830	0.0072503
1842	0.00411503
1854	0.00431099
1866	0.00303729
1878	0.00097977
1890	0.000195954
1902	0
1914	0.000685839
1926	0.00166561
1938	0.00225347
1950	0.0038211
1962	0.00480087
1974	0.00411503
1986	0.00362515
1998	0.00303729
2010	0.00264538
2022	0.00195954
2034	0.00225347
2046	0.00215549
2058	0.00264538
2070	0.00284133
2082	0.00362515
2094	0.0038211
2106	0.00362515
2118	0.00352717
2130	0.00352717
2142	0.00284133
2154	0.00284133
2166	0.0025474
2178	0.00244942
2190	0.00195954
2202	0.00186156
2214	0.00186156
2226	0.00186156
2238	0.00137168
2250	0.00166561
2262	0.00186156
2274	0.00225347
2286	0.0025474
2298	0.00401706
2310	0.00460492
2322	0.00440896
2334	0.00411503
2346	0.0047029
2358	0.0050948
2370	0.0038211
2382	0.00411503
2394	0.00244942
2406	0.00244942
2418	0.00244942
2430	0.00205752
2442	0.00195954
2454	0.00195954
2466	0.00215549
2478	0.00225347
2490	0.00264538
2502	0.00303729
2514	0.00323324
2526	0.00313526
2538	0.00323324
2550	0.00352717
2562	0.00342919
2574	0.00362515
2586	0.00372313
2598	0.00401706
2610	0.0038211
2622	0.00362515
2634	0.00362515
2646	0.00411503
2658	0.00401706
2670	0.00411503
2682	0.00460492
2694	0.00578064
2706	0.00676041
2718	0.00754423
2730	0.00832804
2742	0.00891591
2754	0.00911186
2766	0.00920984
2778	0.0105815
2790	0.0123451
2802	0.0142067
2814	0.0180278
2826	0.0210651
2838	0.0271396
2850	0.0448735
2862	0.0626073
2874	0.0750504
2886	0.0706414
2898	0.0610397
2910	0.0523197
2922	0.0484006
2934	0.0507521
2946	0.063783
2958	0.10268
2970	0.0986628
2982	0.0756382
2994	0.0560428
3006	0.0371333
3018	0.0224367
3030	0.0183217
3042	0.0142067
3054	0.00969972
3066	0.0101896
3078	0.0150885
3090	0.0118552
3102	0.00695637
3114	0.0050948
3126	0.00391908
3138	0.00362515
3150	0.00391908
3162	0.00372313
3174	0.00313526
3186	0.00303729
3198	0.00323324
3210	0.00225347
3222	0.00225347
3234	0.00225347
3246	0.0025474
3258	0.00166561
3270	0.00225347
3282	0.00225347
3294	0.0025474
3306	0.00186156
3318	0.00274336
3330	0.00274336
3342	0.00244942
3354	0.00274336
3366	0.00323324
3378	0.00235145
3390	0.00274336
3402	0.00342919
3414	0.00284133
3426	0.00333122
3438	0.00372313
3450	0.00342919
3462	0.0038211
3474	0.00587862
3486	0.00440896
3498	0.00303729
3510	0.00146966
3522	0.00274336
3534	0.0025474
3546	0.00205752
3558	0.00244942
3570	0.00274336
3582	0.00813209
3594	0.00372313
3606	0.00166561
3618	0.0025474
3630	0.00264538
3642	0.00244942
3654	0.00195954
3666	0.00284133
3678	0.00166561
3690	0.00225347
3702	0.0025474
3714	0.00284133
3726	0.0038211
3738	0.00362515
3750	0.00137168
3762	0.00235145
3774	0.00205752
3786	0.00235145
3798	0.00244942
3810	0.00205752
3822	0.00137168
3834	0.00215549
3846	0.00205752
3858	0.00215549
3870	0.00274336
3882	0.00362515
3894	0.00323324
3906	0.00303729
3918	0.00411503
3930	0.00342919
3942	0.00450694
3954	0.00362515
3966	0.00460492
