Infrared Spectrum: Hexadecane, 1-chloro-
Formula: C 16 H 33 Cl
CAS: 4860-03-1
Origin: Sadtler Research Labs Under US-EPA Contract
1/CM	ABSORBANCE
450	0.00617544
462	0.00591813
474	0.00523197
486	0.00403119
498	0.00308772
510	0.00334503
522	0.00162963
534	0.00403119
546	0.00385965
558	0.00368811
570	0.0017154
582	0.0034308
594	0.00300195
606	0.00265887
618	0.00385965
630	0.00523197
642	0.00874854
654	0.0162963
666	0.0165536
678	0.0077193
690	0.00883431
702	0.0134659
714	0.0232437
726	0.0294191
738	0.0310487
750	0.021614
762	0.0164678
774	0.0113216
786	0.00917739
798	0.00729045
810	0.00814815
822	0.00754776
834	0.00643275
846	0.00651852
858	0.00763353
870	0.00651852
882	0.00729045
894	0.00789084
906	0.00746199
918	0.00643275
930	0.00643275
942	0.00591813
954	0.00583236
966	0.0060039
978	0.00643275
990	0.00557505
1002	0.00557505
1014	0.00548928
1026	0.00608967
1038	0.00608967
1050	0.00643275
1062	0.00669006
1074	0.00608967
1086	0.00506043
1098	0.00463158
1110	0.00463158
1122	0.00488889
1134	0.0042885
1146	0.00325926
1158	0.00317349
1170	0.00240156
1182	0.00488889
1194	0.00797661
1206	0.00660429
1218	0.00703314
1230	0.00754776
1242	0.00969201
1254	0.0136374
1266	0.0176686
1278	0.0229006
1290	0.029848
1302	0.0313061
1314	0.0275322
1326	0.0208421
1338	0.0201559
1350	0.0266745
1362	0.0237583
1374	0.0174971
1386	0.0138947
1398	0.00900585
1410	0.008577
1422	0.0105497
1434	0.0192125
1446	0.0421131
1458	0.0644133
1470	0.0524912
1482	0.0192125
1494	0.00874854
1506	0.00591813
1518	0.00471735
1530	0.00368811
1542	0.00274464
1554	0.0025731
1566	0.00248733
1578	0.00248733
1590	0.00205848
1602	0.00188694
1614	0.00197271
1626	0.0017154
1638	0.00154386
1650	0.00145809
1662	0.00137232
1674	0.00137232
1686	0.00128655
1698	0.00154386
1710	0.00137232
1722	0.0017154
1734	0.00137232
1746	0.00188694
1758	0.00120078
1770	0.00077193
1782	0.00077193
1794	0.00077193
1806	0.00060039
1818	0.00068616
1830	0.00068616
1842	0.00051462
1854	0.00060039
1866	0.00060039
1878	0.00042885
1890	0.00051462
1902	0.00051462
1914	0.00051462
1926	0.00042885
1938	0.00042885
1950	0.00034308
1962	0.00034308
1974	0.00025731
1986	0.00025731
1998	0.00051462
2010	0.00060039
2022	0.00077193
2034	0.0017154
2046	0.00145809
2058	0.0017154
2070	0.00162963
2082	0.00120078
2094	0.00102924
2106	0.00060039
2118	0.00060039
2130	0.00060039
2142	0.00051462
2154	0.00102924
2166	0.00042885
2178	8.577e-05
2190	0.00051462
2202	0.00042885
2214	0.00034308
2226	0.00042885
2238	0.00034308
2250	0.00034308
2262	0.00068616
2274	0.0008577
2286	0.00145809
2298	0.00197271
2310	0.00162963
2322	0.00162963
2334	0.00145809
2346	0.00291618
2358	0.00162963
2370	0.00368811
2382	0.00360234
2394	0.00162963
2406	0.0017154
2418	0.00162963
2430	0.00162963
2442	0.00180117
2454	0.00214425
2466	0.00231579
2478	0.00223002
2490	0.00274464
2502	0.00283041
2514	0.00325926
2526	0.00385965
2538	0.00394542
2550	0.00394542
2562	0.0034308
2574	0.00446004
2586	0.00437427
2598	0.00497466
2610	0.00497466
2622	0.00557505
2634	0.0060039
2646	0.00677583
2658	0.00780507
2670	0.0103782
2682	0.0109786
2694	0.00994932
2706	0.00960624
2718	0.00900585
2730	0.0101209
2742	0.0111501
2754	0.0114932
2766	0.0121793
2778	0.0136374
2790	0.0161248
2802	0.0198129
2814	0.0253879
2826	0.0347368
2838	0.0528343
2850	0.119135
2862	0.312289
2874	0.231665
2886	0.1543
2898	0.156273
2910	0.252335
2922	0.475252
2934	0.8577
2946	0.506901
2958	0.253965
2970	0.207735
2982	0.098464
2994	0.0634698
3006	0.0433996
3018	0.0253021
3030	0.0183548
3042	0.0138947
3054	0.0112359
3066	0.00909162
3078	0.00823392
3090	0.00677583
3102	0.00643275
3114	0.00583236
3126	0.00454581
3138	0.00394542
3150	0.00411696
3162	0.00403119
3174	0.00463158
3186	0.00334503
3198	0.00360234
3210	0.00274464
3222	0.00231579
3234	0.00231579
3246	0.00231579
3258	0.00274464
3270	0.00188694
3282	0.00231579
3294	0.00231579
3306	0.00240156
3318	0.00188694
3330	0.00197271
3342	0.00197271
3354	0.00223002
3366	0.00248733
3378	0.00205848
3390	0.00214425
3402	0.00205848
3414	0.00197271
3426	0.00214425
3438	0.00214425
3450	0.00162963
3462	0.00205848
3474	0.0017154
3486	0.00120078
3498	0.0017154
3510	0.00094347
3522	0.00137232
3534	0.00145809
3546	0.00137232
3558	0.00188694
3570	0.00120078
3582	0.00102924
3594	0.00188694
3606	0.00248733
3618	0.00240156
3630	0.00231579
3642	0.00283041
3654	0.00300195
3666	0.00300195
3678	0.00291618
3690	0.00300195
3702	0.00265887
3714	0.00420273
3726	0.00368811
3738	0.00446004
3750	0.00420273
3762	0.00411696
3774	0.0051462
3786	0.00471735
3798	0.00506043
3810	0.00488889
3822	0.00557505
3834	0.00497466
3846	0.00540351
3858	0.00506043
3870	0.00454581
3882	0.0051462
3894	0.00403119
3906	0.00420273
3918	0.00420273
3930	0.00411696
3942	0.00385965
3954	0.00385965
3966	0.00420273
