Infrared Spectrum: Pentadecane, 1-chloro-
Formula: C 15 H 31 Cl
CAS: 4862-03-7
Origin: Sadtler Research Labs Under US-EPA Contract
1/CM	ABSORBANCE
450	0
462	0.0103754
474	0.00924056
486	0.00583614
498	0.00761941
510	0.0085921
522	0.00778152
534	0.00599826
546	0.0064846
558	0.00745729
570	0.00632249
582	0.0053498
594	0.00810575
606	0.00680883
618	0.00842998
630	0.00940267
642	0.015563
654	0.028208
666	0.0368001
678	0.0179948
690	0.0175084
702	0.0252899
714	0.0419878
726	0.0547949
738	0.0593341
750	0.046527
762	0.0340442
774	0.0235067
786	0.0192917
798	0.0163736
810	0.0158873
822	0.0149146
834	0.014104
846	0.0144282
858	0.0139419
870	0.0147525
882	0.0152388
894	0.0160494
906	0.0165357
918	0.0162115
930	0.0144282
942	0.0150767
954	0.0162115
966	0.0179948
978	0.0171842
990	0.0179948
1002	0.0179948
1014	0.0184811
1026	0.0199401
1038	0.0222098
1050	0.022534
1062	0.0218855
1074	0.0204265
1086	0.018319
1098	0.0173463
1110	0.0189675
1122	0.0188053
1134	0.0170221
1146	0.0166978
1158	0.0196159
1170	0.0202644
1182	0.018319
1194	0.0179948
1206	0.0181569
1218	0.0201023
1230	0.0238309
1242	0.0278838
1254	0.0329093
1266	0.0390697
1278	0.046527
1290	0.0603068
1302	0.063387
1314	0.0572266
1326	0.0447437
1338	0.0431226
1350	0.0557676
1362	0.0520389
1374	0.0416636
1386	0.035179
1398	0.022534
1410	0.0196159
1422	0.0235067
1434	0.0403666
1446	0.0842998
1458	0.132448
1470	0.113318
1482	0.0439332
1494	0.0213992
1506	0.0147525
1518	0.0111859
1530	0.00891632
1542	0.00778152
1554	0.00745729
1566	0.00632249
1578	0.00713306
1590	0.00616037
1602	0.00599826
1614	0.00583614
1626	0.00599826
1638	0.0064846
1650	0.00599826
1662	0.00518768
1674	0.00567403
1686	0.00632249
1698	0.00664672
1710	0.00761941
1722	0.00907844
1734	0.0137798
1746	0.0188053
1758	0.0178326
1770	0.0105375
1782	0.00745729
1794	0.00599826
1806	0.00518768
1818	0.00453922
1830	0.00453922
1842	0.00372865
1854	0.00389076
1866	0.00405288
1878	0.00372865
1890	0.00372865
1902	0.00389076
1914	0.00372865
1926	0.00372865
1938	0.00389076
1950	0.00372865
1962	0.00389076
1974	0.00405288
1986	0.00405288
1998	0.00405288
2010	0.00470134
2022	0.00518768
2034	0.00583614
2046	0.00583614
2058	0.00518768
2070	0.0053498
2082	0.00470134
2094	0.00437711
2106	0.00437711
2118	0.00470134
2130	0.00421499
2142	0.00437711
2154	0.00486345
2166	0.00470134
2178	0.00470134
2190	0.00486345
2202	0.00453922
2214	0.00453922
2226	0.00421499
2238	0.00470134
2250	0.00486345
2262	0.00502557
2274	0.00518768
2286	0.00616037
2298	0.00761941
2310	0.00907844
2322	0.00875421
2334	0.00729518
2346	0.00907844
2358	0.00842998
2370	0.00826786
2382	0.00745729
2394	0.00567403
2406	0.0053498
2418	0.00518768
2430	0.00518768
2442	0.00502557
2454	0.00502557
2466	0.00502557
2478	0.00567403
2490	0.00567403
2502	0.00567403
2514	0.00616037
2526	0.00680883
2538	0.00761941
2550	0.00745729
2562	0.00778152
2574	0.00842998
2586	0.00924056
2598	0.0097269
2610	0.0106996
2622	0.0113481
2634	0.012645
2646	0.0139419
2658	0.0154009
2670	0.0175084
2682	0.0189675
2694	0.0189675
2706	0.0173463
2718	0.0166978
2730	0.0178326
2742	0.019778
2754	0.0204265
2766	0.0218855
2778	0.0249657
2790	0.0304776
2802	0.0387455
2814	0.0489587
2826	0.0682504
2838	0.106023
2850	0.239282
2862	0.629817
2874	0.473052
2886	0.322609
2898	0.321312
2910	0.515364
2922	0.955182
2934	1.62115
2946	1.03835
2958	0.53044
2970	0.459272
2982	0.212695
2994	0.134555
3006	0.0924056
3018	0.0551191
3030	0.0397182
3042	0.0298292
3054	0.0238309
3066	0.019778
3078	0.0176705
3090	0.0162115
3102	0.0136177
3114	0.0121586
3126	0.0105375
3138	0.0102132
3150	0.00988902
3162	0.00956478
3174	0.00875421
3186	0.00810575
3198	0.00745729
3210	0.00664672
3222	0.00632249
3234	0.0053498
3246	0.00567403
3258	0.00567403
3270	0.0053498
3282	0.00518768
3294	0.00551191
3306	0.0053498
3318	0.00567403
3330	0.00551191
3342	0.00583614
3354	0.00567403
3366	0.00551191
3378	0.00616037
3390	0.00616037
3402	0.00664672
3414	0.00599826
3426	0.00567403
3438	0.00583614
3450	0.00567403
3462	0.00632249
3474	0.00551191
3486	0.00551191
3498	0.00518768
3510	0.0053498
3522	0.00583614
3534	0.0053498
3546	0.00518768
3558	0.00486345
3570	0.00453922
3582	0.00551191
3594	0.00486345
3606	0.00421499
3618	0.0053498
3630	0.00599826
3642	0.0053498
3654	0.0053498
3666	0.00664672
3678	0.00599826
3690	0.00502557
3702	0.00437711
3714	0.00551191
3726	0.00567403
3738	0.00502557
3750	0.00502557
3762	0.00453922
3774	0.00470134
3786	0.00502557
3798	0.00518768
3810	0.00437711
3822	0.00551191
3834	0.00632249
3846	0.00470134
3858	0.00632249
3870	0.00632249
3882	0.00599826
3894	0.00583614
3906	0.00583614
3918	0.00632249
3930	0.00664672
3942	0.00502557
3954	0.00567403
3966	0.00616037
