Infrared Spectrum: 4H-1-Benzopyran-4-one, 2,3-dihydro-2-phenyl-
Formula: C 15 H 12 O 2
CAS: 487-26-3
Origin: Sadtler Research Labs Under US-EPA Contract
1/CM	ABSORBANCE
450	0.0142943
462	0.00681928
474	0.0199333
486	0.0485218
498	0.0283262
510	0.0078684
522	0.0217692
534	0.0247855
546	0.0158679
558	0.0419648
570	0.0417025
582	0.0496365
594	0.0592097
606	0.00275394
618	0.00498332
630	0.0207857
642	0.00478661
654	0.0189497
666	0.0536363
678	0.0615047
690	0.14091
702	0.165827
714	0.0757989
726	0.0902899
738	0.151401
750	0.27264
762	0.43086
774	0.130353
786	0.0364569
798	0.0208513
810	0.0239986
822	0.0174416
834	0.0556034
846	0.0363258
858	0.0451122
870	0.0272771
882	0.0123927
894	0.0338997
906	0.158352
918	0.0752744
930	0.0229495
942	0.0171138
954	0.041178
966	0.0351455
978	0.0579639
990	0.0723893
1002	0.0753399
1014	0.0778972
1026	0.150024
1038	0.111338
1050	0.110748
1062	0.159729
1074	0.106289
1086	0.0496365
1098	0.0411124
1110	0.172252
1122	0.159663
1134	0.051079
1146	0.14786
1158	0.187399
1170	0.0592753
1182	0.0716024
1194	0.117501
1206	0.238675
1218	0.307982
1230	0.532166
1242	0.174416
1254	0.109961
1266	0.150614
1278	0.122681
1290	0.271984
1302	0.6557
1314	0.461678
1326	0.275787
1338	0.242871
1350	0.167335
1362	0.19212
1374	0.141893
1386	0.0728483
1398	0.0600621
1410	0.0621604
1422	0.0634062
1434	0.0758645
1446	0.164056
1458	0.453482
1470	0.543706
1482	0.264706
1494	0.15127
1506	0.0865524
1518	0.0432762
1530	0.0401288
1542	0.0516036
1554	0.0833395
1566	0.152057
1578	0.319195
1590	0.29277
1602	0.472038
1614	0.432828
1626	0.21625
1638	0.185432
1650	0.159138
1662	0.0979616
1674	0.107732
1686	0.219069
1698	0.326539
1710	0.547706
1722	0.447253
1734	0.110682
1746	0.0529806
1758	0.044981
1770	0.0322604
1782	0.024851
1794	0.0262936
1806	0.025769
1818	0.0177039
1830	0.0116059
1842	0.00839296
1854	0.00688485
1866	0.00832739
1878	0.0106223
1890	0.0110813
1902	0.00911423
1914	0.00898309
1926	0.0137041
1938	0.0165236
1950	0.0204578
1962	0.0158024
1974	0.00642586
1986	0.00419648
1998	0.00275394
2010	0.00288508
2022	0.00445876
2034	0.00478661
2046	0.00498332
2058	0.00609801
2070	0.00472104
2082	0.00281951
2094	0.00170482
2106	0.00118026
2118	0.00085241
2130	0.00183596
2142	0.00229495
2154	0.00124583
2166	0.0013114
2178	0.0013114
2190	0.00104912
2202	0.00072127
2214	6.557e-05
2226	0.00091798
2238	0.00111469
2250	0.00078684
2262	0.00190153
2274	0.00236052
2286	0.00426205
2298	0.00603244
2310	0.00596687
2322	0.00511446
2334	0.0019671
2346	0.00295065
2358	0.00183596
2370	0.00072127
2382	0.0052456
2394	0.00340964
2406	0.00334407
2418	0.00413091
2430	0.00439319
2442	0.00609801
2454	0.00747498
2466	0.0052456
2478	0.00413091
2490	0.00419648
2502	0.00380306
2514	0.00406534
2526	0.0052456
2538	0.00550788
2550	0.00550788
2562	0.00518003
2574	0.00550788
2586	0.006557
2598	0.00740941
2610	0.00904866
2622	0.00924537
2634	0.00813068
2646	0.00701599
2658	0.00662257
2670	0.006557
2682	0.00675371
2694	0.00773726
2706	0.00832739
2718	0.0078684
2730	0.00826182
2742	0.00865524
2754	0.0091798
2766	0.0108191
2778	0.0112125
2790	0.0106879
2802	0.0110158
2814	0.0120649
2826	0.0139664
2838	0.0155401
2850	0.0206546
2862	0.0308179
2874	0.0455056
2886	0.0424894
2898	0.0339653
2910	0.0395387
2922	0.0372438
2934	0.0291787
2946	0.0338341
2958	0.0288508
2970	0.0308179
2982	0.0423582
2994	0.0316703
3006	0.037047
3018	0.0556689
3030	0.0903555
3042	0.114289
3054	0.102355
3066	0.125632
3078	0.165105
3090	0.111076
3102	0.0590786
3114	0.0400633
3126	0.0256379
3138	0.02013
3150	0.0203267
3162	0.0190153
3174	0.0182285
3186	0.0166548
3198	0.0154745
3210	0.0142943
3222	0.0135074
3234	0.0127861
3246	0.0119337
3258	0.0116059
3270	0.0105568
3282	0.0100322
3294	0.00976993
3306	0.00878638
3318	0.00878638
3330	0.00832739
3342	0.00839296
3354	0.0102289
3366	0.0118026
3378	0.0108191
3390	0.0108846
3402	0.0127861
3414	0.0118682
3426	0.00747498
3438	0.00472104
3450	0.00360635
3462	0.00413091
3474	0.00386863
3486	0.00288508
3498	0.00268837
3510	0.00275394
3522	0.00255723
3534	0.0032785
3546	0.00157368
3558	0.0019671
3570	0.00157368
3582	0.00111469
3594	0.00085241
3606	0.00124583
3618	0.00078684
3630	0.00059013
3642	0.00236052
3654	0.00150811
3666	0.0013114
3678	0.00144254
3690	0.00072127
3702	0.00091798
3714	0.00026228
3726	0.00111469
3738	0.00124583
3750	0.00052456
3762	0.0013114
3774	0.0006557
3786	0.00150811
3798	0.0006557
3810	0.00157368
3822	0.00137697
3834	0.00052456
3846	0.00052456
3858	0.00183596
3870	0.00098355
3882	0.00203267
3894	0.00275394
3906	0.00275394
3918	0.00209824
3930	0.00091798
3942	0.00190153
3954	0.0019671
3966	0.00104912
