Infrared Spectrum: Benzene, 1,2,3,4-tetramethyl-
Formula: C 10 H 14
CAS: 488-23-3
Origin: Sadtler Research Labs Under US-EPA Contract
1/CM	ABSORBANCE
450	0
462	0.074171
474	0.0658225
486	0.0768251
498	0.070793
510	0.0671737
522	0.0716616
534	0.0704552
546	0.0885033
558	0.07586
570	0.0628789
582	0.0636992
594	0.0701174
606	0.0659191
618	0.0677046
630	0.0670772
642	0.0666429
654	0.0652917
666	0.0655813
678	0.063651
690	0.0637958
702	0.0650504
714	0.0651952
726	0.0682837
738	0.0701174
750	0.0646644
762	0.0648092
774	0.0700209
786	0.0990716
798	0.194476
810	0.145736
822	0.0875865
834	0.072482
846	0.0728198
858	0.0728681
870	0.0690558
882	0.0679941
894	0.0689593
906	0.067222
918	0.0679941
930	0.0683319
942	0.0667394
954	0.0685249
966	0.0703104
978	0.0728198
990	0.0810235
1002	0.106841
1014	0.104959
1026	0.0810718
1038	0.0796241
1050	0.0869109
1062	0.0996507
1074	0.101388
1086	0.0948733
1098	0.0798653
1110	0.0726268
1122	0.0704552
1134	0.0692488
1146	0.0686215
1158	0.0738332
1170	0.0771147
1182	0.0711308
1194	0.068718
1206	0.0699244
1218	0.0704552
1230	0.0692488
1242	0.0729646
1254	0.0791897
1266	0.073785
1278	0.069104
1290	0.0697314
1302	0.0692971
1314	0.0699726
1326	0.0723855
1338	0.0738815
1350	0.0761013
1362	0.0771629
1374	0.0839672
1386	0.10134
1398	0.0935703
1410	0.0938116
1422	0.105635
1434	0.119243
1446	0.155581
1458	0.19573
1470	0.217929
1482	0.210063
1494	0.182267
1506	0.136809
1518	0.10631
1530	0.0927982
1542	0.0878277
1554	0.0856562
1566	0.0821334
1578	0.082423
1590	0.0858492
1602	0.0906266
1614	0.0842085
1626	0.0749914
1638	0.0685249
1650	0.0687662
1662	0.0659673
1674	0.0666912
1686	0.0649057
1698	0.0649057
1710	0.065726
1722	0.0671737
1734	0.0699726
1746	0.0667394
1758	0.0653882
1770	0.0646161
1782	0.0630719
1794	0.0640853
1806	0.0637475
1818	0.0647126
1830	0.0653882
1842	0.0645196
1854	0.0678011
1866	0.073785
1878	0.0703104
1890	0.0643748
1902	0.0626376
1914	0.0619137
1926	0.0626858
1938	0.0627824
1950	0.0625411
1962	0.0628306
1974	0.0628306
1986	0.0627341
1998	0.0620585
2010	0.0624446
2022	0.0624928
2034	0.0621068
2046	0.0618655
2058	0.0620585
2070	0.0620585
2082	0.0621068
2094	0.0627341
2106	0.0627341
2118	0.0625893
2130	0.0617207
2142	0.0611899
2154	0.0613829
2166	0.0611416
2178	0.0609968
2190	0.0610451
2202	0.0611899
2214	0.0613829
2226	0.061769
2238	0.0616242
2250	0.0613829
2262	0.0613829
2274	0.0613829
2286	0.061769
2298	0.062155
2310	0.0627824
2322	0.0637958
2334	0.062348
2346	0.0608038
2358	0.0625893
2370	0.0607556
2382	0.0609003
2394	0.0627341
2406	0.0634097
2418	0.063651
2430	0.0634097
2442	0.0631684
2454	0.063844
2466	0.0642783
2478	0.0638923
2490	0.063844
2502	0.063844
2514	0.063458
2526	0.0626376
2538	0.0629271
2550	0.0629754
2562	0.0627341
2574	0.0623963
2586	0.0627341
2598	0.0625893
2610	0.0622033
2622	0.0631202
2634	0.0637475
2646	0.0641818
2658	0.0636027
2670	0.0636992
2682	0.063651
2694	0.0639888
2706	0.0648092
2718	0.0667394
2730	0.0737367
2742	0.082809
2754	0.0765839
2766	0.0733989
2778	0.0743158
2790	0.0740262
2802	0.0761013
2814	0.0805892
2826	0.0868143
2838	0.0978652
2850	0.122911
2862	0.181205
2874	0.272169
2886	0.301461
2898	0.273424
2910	0.295864
2922	0.354834
2934	0.468286
2946	0.453375
2958	0.365981
2970	0.32448
2982	0.294223
2994	0.221451
3006	0.213682
3018	0.255617
3030	0.24944
3042	0.229848
3054	0.20461
3066	0.16972
3078	0.13401
3090	0.104766
3102	0.0888894
3114	0.0812165
3126	0.0768251
3138	0.0734472
3150	0.0708895
3162	0.0682354
3174	0.0667394
3186	0.0656778
3198	0.0649057
3210	0.0639888
3222	0.0636992
3234	0.0636992
3246	0.0633132
3258	0.0629271
3270	0.0633614
3282	0.0630719
3294	0.0633132
3306	0.0632167
3318	0.0632649
3330	0.0635062
3342	0.0633614
3354	0.0638923
3366	0.0630719
3378	0.0635062
3390	0.0629271
3402	0.0630719
3414	0.0629754
3426	0.0635062
3438	0.0628306
3450	0.0624446
3462	0.0624928
3474	0.0629271
3486	0.0635545
3498	0.0624928
3510	0.063651
3522	0.0623963
3534	0.0629271
3546	0.062348
3558	0.0624928
3570	0.0618172
3582	0.0633614
3594	0.0629754
3606	0.062155
3618	0.063458
3630	0.0640853
3642	0.0618172
3654	0.0612864
3666	0.0648574
3678	0.0622998
3690	0.0631684
3702	0.0631202
3714	0.0622998
3726	0.0635062
3738	0.0625893
3750	0.0645196
3762	0.0636992
3774	0.0620102
3786	0.0629271
3798	0.0633132
3810	0.0643748
3822	0.0632649
3834	0.0632167
3846	0.0629271
3858	0.0622033
3870	0.0634097
3882	0.0645679
3894	0.0622515
3906	0.0629754
3918	0.0633132
3930	0.0630236
3942	0.0643266
3954	0.0628789
3966	0.0638923
