Infrared Spectrum: 1,2-Benzenediol, 3-methyl-
Formula: C 7 H 8 O 2
CAS: 488-17-5
Origin: Sadtler Research Labs Under US-EPA Contract
1/CM	ABSORBANCE
450	0
462	0.0428454
474	0.0372949
486	0.0415981
498	0.06748
510	0.045839
522	0.046525
534	0.0359852
546	0.059809
558	0.0646112
570	0.0754005
582	0.0538842
594	0.0523251
606	0.0454648
618	0.0511401
630	0.0519509
642	0.0507659
654	0.0498928
666	0.0661703
678	0.101033
690	0.0994114
702	0.0861274
714	0.134274
726	0.166642
738	0.124358
750	0.135646
762	0.220651
774	0.152485
786	0.0716585
798	0.0624907
810	0.0713467
822	0.104151
834	0.110824
846	0.0818242
858	0.0621789
870	0.054695
882	0.0528864
894	0.0588111
906	0.0717833
918	0.0883726
930	0.173315
942	0.20007
954	0.127788
966	0.0827597
978	0.0846307
990	0.102779
1002	0.121738
1014	0.128848
1026	0.104713
1038	0.0744026
1050	0.0734048
1062	0.0870629
1074	0.119556
1086	0.129534
1098	0.101968
1110	0.073779
1122	0.0772715
1134	0.115502
1146	0.236679
1158	0.32
1170	0.378125
1182	0.469242
1194	0.379934
1206	0.221212
1218	0.202877
1230	0.33266
1242	0.388291
1254	0.319875
1266	0.473046
1278	0.62366
1290	0.487453
1302	0.31289
1314	0.236118
1326	0.129347
1338	0.133837
1350	0.174438
1362	0.156102
1374	0.0835704
1386	0.0605574
1398	0.0536348
1410	0.0523874
1422	0.0624284
1434	0.0776457
1446	0.113132
1458	0.171257
1470	0.348501
1482	0.46525
1494	0.366837
1506	0.259692
1518	0.187784
1530	0.10334
1542	0.0799532
1554	0.0750887
1566	0.0752758
1578	0.0845683
1590	0.114442
1602	0.138577
1614	0.149616
1626	0.136145
1638	0.0914286
1650	0.056566
1662	0.0508283
1674	0.0472111
1686	0.0445293
1698	0.0419723
1710	0.0436562
1722	0.0464003
1734	0.0490197
1746	0.0493315
1758	0.0490197
1770	0.050267
1782	0.0513272
1794	0.0543832
1806	0.0601832
1818	0.0593724
1830	0.0484584
1842	0.0401013
1854	0.040039
1866	0.0422218
1878	0.0454648
1890	0.0469616
1902	0.0431573
1914	0.0397271
1926	0.0376691
1938	0.0365465
1950	0.0376691
1962	0.0376067
1974	0.0371078
1986	0.0361723
1998	0.0357357
2010	0.0357357
2022	0.0356734
2034	0.0362346
2046	0.0365465
2058	0.0377938
2070	0.0377938
2082	0.0367336
2094	0.0361723
2106	0.0365465
2118	0.0356734
2130	0.0354239
2142	0.0361099
2154	0.0366712
2166	0.0376691
2178	0.0374196
2190	0.0365465
2202	0.0367959
2214	0.0370454
2226	0.036297
2238	0.0357357
2250	0.0352368
2262	0.0363594
2274	0.0367959
2286	0.038168
2298	0.0413487
2310	0.042596
2322	0.0401013
2334	0.0354239
2346	0.0365465
2358	0.036297
2370	0.0343013
2382	0.0376691
2394	0.0372325
2406	0.0384798
2418	0.0384175
2430	0.0397895
2442	0.0391035
2454	0.0387917
2466	0.0402884
2478	0.038854
2490	0.0380433
2502	0.0377314
2514	0.0384798
2526	0.0386669
2538	0.0393529
2550	0.0387917
2562	0.0366088
2574	0.0357357
2586	0.0362346
2598	0.0355486
2610	0.0349873
2622	0.0352368
2634	0.0357357
2646	0.0348002
2658	0.0350497
2670	0.0339895
2682	0.0355486
2694	0.0360475
2706	0.0353615
2718	0.0361723
2730	0.0371078
2742	0.0384175
2754	0.0376691
2766	0.0343013
2778	0.0343637
2790	0.0348002
2802	0.0348626
2814	0.0365465
2826	0.0386669
2838	0.0419723
2850	0.0525122
2862	0.0710349
2874	0.0792672
2886	0.0735919
2898	0.0710972
2910	0.0834457
2922	0.113756
2934	0.138265
2946	0.117186
2958	0.0856909
2970	0.0792048
2982	0.0805145
2994	0.0732177
3006	0.0585617
3018	0.0568154
3030	0.0780822
3042	0.113319
3054	0.137268
3066	0.129409
3078	0.100846
3090	0.0660456
3102	0.0533853
3114	0.046525
3126	0.0397895
3138	0.0380433
3150	0.0369207
3162	0.0361723
3174	0.036297
3186	0.0367336
3198	0.0361099
3210	0.0367959
3222	0.0367959
3234	0.0360475
3246	0.0371078
3258	0.0377314
3270	0.0385422
3282	0.0391658
3294	0.0376691
3306	0.0364217
3318	0.0386046
3330	0.0377314
3342	0.0377938
3354	0.0374196
3366	0.037482
3378	0.0372325
3390	0.0376691
3402	0.0378562
3414	0.0352368
3426	0.0334905
3438	0.0348626
3450	0.0412863
3462	0.0431573
3474	0.0435315
3486	0.0393529
3498	0.0385422
3510	0.0409745
3522	0.0428454
3534	0.0407874
3546	0.0412863
3558	0.0437186
3570	0.0619918
3582	0.146622
3594	0.363531
3606	0.402385
3618	0.204498
3630	0.0827597
3642	0.107394
3654	0.19664
3666	0.233436
3678	0.14182
3690	0.0464627
3702	0.0359228
3714	0.0360475
3726	0.0371701
3738	0.036297
3750	0.0379185
3762	0.0424089
3774	0.0484584
3786	0.0460261
3798	0.0390411
3810	0.0339895
3822	0.0397895
3834	0.0457143
3846	0.0431573
3858	0.0384175
3870	0.035611
3882	0.0352368
3894	0.0353615
3906	0.0341142
3918	0.034426
3930	0.0336153
3942	0.0357357
3954	0.0334282
3966	0.0371701
