Infrared Spectrum: 1,5-Heptadiene, 3-methyl-
Formula: C 8 H 14
CAS: 4894-62-6
Origin: Sadtler Research Labs Under US-EPA Contract
1/CM	ABSORBANCE
450	0
462	0.00266129
474	0.00893432
486	0.00893432
498	0.00760368
510	0.0126094
522	0.0106452
534	0.010265
546	0.011659
558	0.00988478
570	0.00836405
582	0.0113422
594	0.00963133
606	0.00912442
618	0.00969469
630	0.0111521
642	0.0152074
654	0.0254723
666	0.0407431
678	0.0579781
690	0.0327592
702	0.0157143
714	0.00887096
726	0.00956796
738	0.00830068
750	0.00849078
762	0.00690668
774	0.00551267
786	0.00627304
798	0.00608294
810	0.0103283
822	0.0131797
834	0.0152074
846	0.0166014
858	0.0216705
870	0.0245219
882	0.0332027
894	0.06894
906	0.2072
918	0.300662
930	0.160945
942	0.104867
954	0.176152
966	0.270184
978	0.196999
990	0.166267
1002	0.128946
1014	0.0739458
1026	0.0562039
1038	0.0514516
1050	0.0498041
1062	0.0446083
1074	0.0460023
1086	0.0470161
1098	0.0410599
1110	0.0361808
1122	0.0388421
1134	0.0418202
1146	0.0382719
1158	0.0353571
1170	0.0349769
1182	0.0302246
1194	0.0236981
1206	0.0241417
1218	0.0275
1230	0.0275633
1242	0.0246486
1254	0.0276267
1266	0.0314919
1278	0.0276267
1290	0.031682
1302	0.0363709
1314	0.0362442
1326	0.0342799
1338	0.0340898
1350	0.0349136
1362	0.0437212
1374	0.0789515
1386	0.0889631
1398	0.0536059
1410	0.0567741
1422	0.0802822
1434	0.0863651
1446	0.105374
1458	0.124954
1470	0.0968202
1482	0.0485368
1494	0.0246486
1506	0.0197696
1518	0.0155242
1530	0.0125461
1542	0.0124827
1554	0.0105184
1566	0.0121659
1578	0.0155875
1590	0.015841
1602	0.0156509
1614	0.0185023
1626	0.0373214
1638	0.0897868
1650	0.0816762
1662	0.0331394
1674	0.0211636
1686	0.0199597
1698	0.0215438
1710	0.0266129
1722	0.0292108
1734	0.0282603
1746	0.0306682
1758	0.0262327
1770	0.023318
1782	0.0202765
1794	0.0191359
1806	0.0188191
1818	0.0224309
1830	0.0313018
1842	0.0231912
1854	0.010265
1866	0.0063364
1878	0.00532258
1890	0.00557603
1902	0.00538594
1914	0.00538594
1926	0.00506912
1938	0.0047523
1950	0.00481566
1962	0.0056394
1974	0.00665322
1986	0.00709677
1998	0.00766704
2010	0.00684331
2022	0.0047523
2034	0.0040553
2046	0.00373848
2058	0.00373848
2070	0.00361175
2082	0.00392857
2094	0.00373848
2106	0.00361175
2118	0.00354838
2130	0.0038652
2142	0.00348502
2154	0.00329493
2166	0.00335829
2178	0.00367511
2190	0.00348502
2202	0.00380184
2214	0.00354838
2226	0.00342166
2238	0.00342166
2250	0.00354838
2262	0.00354838
2274	0.00361175
2286	0.0038652
2298	0.00437212
2310	0.00468894
2322	0.00449884
2334	0.0047523
2346	0.00487903
2358	0.0056394
2370	0.0054493
2382	0.00589285
2394	0.00513248
2406	0.00532258
2418	0.00506912
2430	0.00513248
2442	0.00519585
2454	0.00506912
2466	0.00494239
2478	0.00494239
2490	0.00481566
2502	0.00481566
2514	0.00538594
2526	0.0056394
2538	0.00538594
2550	0.00589285
2562	0.00582949
2574	0.00639976
2586	0.00620967
2598	0.00614631
2610	0.00601958
2622	0.00639976
2634	0.00646313
2646	0.00627304
2658	0.00677995
2670	0.00684331
2682	0.00804723
2694	0.0086175
2706	0.00982142
2718	0.0113422
2730	0.0153341
2742	0.022811
2754	0.0186924
2766	0.0135599
2778	0.0146371
2790	0.0160311
2802	0.0187557
2814	0.0249021
2826	0.0387788
2838	0.0762269
2850	0.118681
2862	0.179193
2874	0.271768
2886	0.273923
2898	0.317327
2910	0.392667
2922	0.462367
2934	0.478842
2946	0.383922
2958	0.410092
2970	0.611463
2982	0.539164
2994	0.2686
3006	0.218226
3018	0.195098
3030	0.168865
3042	0.114499
3054	0.0737557
3066	0.078508
3078	0.126918
3090	0.157776
3102	0.0790783
3114	0.030288
3126	0.0210368
3138	0.0178053
3150	0.0147638
3162	0.013053
3174	0.0119758
3186	0.011659
3198	0.0100115
3210	0.00849078
3222	0.0072235
3234	0.00576612
3246	0.00525921
3258	0.00487903
3270	0.00551267
3282	0.00481566
3294	0.00462557
3306	0.00392857
3318	0.00411866
3330	0.00392857
3342	0.00411866
3354	0.00392857
3366	0.00424539
3378	0.00424539
3390	0.00424539
3402	0.00380184
3414	0.00437212
3426	0.00373848
3438	0.00411866
3450	0.00449884
3462	0.00430875
3474	0.00399193
3486	0.00456221
3498	0.0040553
3510	0.00354838
3522	0.0040553
3534	0.00443548
3546	0.00487903
3558	0.00532258
3570	0.0063364
3582	0.00754032
3594	0.00614631
3606	0.00595622
3618	0.00525921
3630	0.00468894
3642	0.0056394
3654	0.0047523
3666	0.00418202
3678	0.0038652
3690	0.00329493
3702	0.00329493
3714	0.0040553
3726	0.00392857
3738	0.00487903
3750	0.00468894
3762	0.00468894
3774	0.00449884
3786	0.00494239
3798	0.00519585
3810	0.0038652
3822	0.00329493
3834	0.00525921
3846	0.00348502
3858	0.00582949
3870	0.00500576
3882	0.00494239
3894	0.00462557
3906	0.00487903
3918	0.00487903
3930	0.00525921
3942	0.00506912
3954	0.00500576
3966	0.00614631
