Infrared Spectrum: 2,5-Cyclohexadiene-1,4-dione, 2-methyl-5-(1-methylethyl)-
Formula: C 10 H 12 O 2
CAS: 490-91-5
Origin: Sadtler Research Labs Under US-EPA Contract
1/CM	ABSORBANCE
450	0.0126557
462	0.00849736
474	0.00867816
486	0.00415829
498	0.0036159
510	0.00940134
522	0.00687021
534	0.00325431
546	0.00180795
558	0.00216954
570	0.00235034
582	0.0034351
594	0.00108477
606	0.00397749
618	0.00415829
630	0.00235034
642	0.0037967
654	0.00397749
666	0.00813577
678	0.0178987
690	0.0334471
702	0.0397749
714	0.0171755
726	0.00488146
738	0.0034351
750	0.00289272
762	0.00307352
774	0.0034351
786	0.00994373
798	0.0294696
810	0.0251305
822	0.0103053
834	0.007051
846	0.007051
858	0.0110285
870	0.0218762
882	0.0191643
894	0.035255
906	0.162173
918	0.198151
930	0.0508034
942	0.0186219
954	0.0110285
966	0.00976293
978	0.0121133
990	0.0276616
1002	0.0905783
1014	0.119144
1026	0.0889511
1038	0.0296504
1050	0.0204298
1062	0.0197067
1074	0.0267577
1086	0.0404981
1098	0.0583968
1110	0.0800922
1122	0.14789
1134	0.149156
1146	0.0475491
1158	0.0395941
1170	0.0540577
1182	0.0667134
1194	0.0506226
1206	0.0623743
1218	0.133427
1230	0.438428
1242	0.434993
1254	0.0992565
1266	0.0479107
1278	0.0464643
1290	0.0752107
1302	0.11589
1314	0.0976293
1326	0.0949174
1338	0.0927478
1350	0.152953
1362	0.115709
1374	0.0949174
1386	0.112093
1398	0.0629167
1410	0.0421252
1422	0.0433908
1434	0.0553233
1446	0.0645438
1458	0.0819001
1470	0.107573
1482	0.0670749
1494	0.0280232
1506	0.0166331
1518	0.0135596
1530	0.0126557
1542	0.0106669
1554	0.0168139
1566	0.0215146
1578	0.0289272
1590	0.0486339
1602	0.162535
1614	0.271916
1626	0.143009
1638	0.158196
1650	0.300662
1662	1.07157
1674	1.80795
1686	0.392506
1698	0.101968
1710	0.0526113
1722	0.0325431
1734	0.0231418
1746	0.0166331
1758	0.0122941
1770	0.0106669
1782	0.0146444
1794	0.0115709
1806	0.00650862
1818	0.00488146
1830	0.0034351
1842	0.00289272
1854	0.0034351
1866	0.00144636
1878	0.00162716
1890	0.000903975
1902	0.00162716
1914	0.00108477
1926	0.00072318
1938	0.00072318
1950	0.00144636
1962	0.00253113
1974	0.00126556
1986	0.00072318
1998	0.000903975
2010	0.00126556
2022	0.000903975
2034	0.00144636
2046	0.00108477
2058	0.000903975
2070	0.00126556
2082	0.00126556
2094	0.000903975
2106	0.000903975
2118	0.00036159
2130	0.00072318
2142	0.00108477
2154	0.00126556
2166	0.00144636
2178	0.00126556
2190	0.000903975
2202	0.000542385
2214	0.000903975
2226	0.00180795
2238	0.00289272
2250	0.00289272
2262	0.00216954
2274	0.00126556
2286	0.00216954
2298	0.00433908
2310	0.00542385
2322	0.0036159
2334	0.00126556
2346	0.0034351
2358	0.00180795
2370	0.00253113
2382	0.00451988
2394	0.00235034
2406	0.00198875
2418	0.00198875
2430	0.00162716
2442	0.00180795
2454	0.00271193
2466	0.00307352
2478	0.00289272
2490	0.00235034
2502	0.00271193
2514	0.0034351
2526	0.00307352
2538	0.00271193
2550	0.00271193
2562	0.00289272
2574	0.0037967
2586	0.0036159
2598	0.0037967
2610	0.00325431
2622	0.00198875
2634	0.00235034
2646	0.00235034
2658	0.00216954
2670	0.00235034
2682	0.00253113
2694	0.00253113
2706	0.00307352
2718	0.0037967
2730	0.00596624
2742	0.00687021
2754	0.007051
2766	0.0074126
2778	0.00650862
2790	0.00614703
2802	0.00795498
2814	0.0113901
2826	0.0135596
2838	0.0160908
2850	0.0249497
2862	0.0385093
2874	0.0726796
2886	0.130715
2898	0.109381
2910	0.0983525
2922	0.1092
2934	0.182965
2946	0.200321
2958	0.160908
2970	0.403534
2982	0.382924
2994	0.154399
3006	0.0658094
3018	0.0327239
3030	0.0287464
3042	0.0435716
3054	0.0455603
3066	0.0242265
3078	0.0148252
3090	0.0126557
3102	0.0110285
3114	0.00940134
3126	0.00813577
3138	0.0074126
3150	0.00668942
3162	0.0072318
3174	0.00650862
3186	0.00687021
3198	0.00687021
3210	0.00668942
3222	0.00687021
3234	0.00687021
3246	0.00632783
3258	0.00632783
3270	0.00940134
3282	0.0180795
3294	0.0320007
3306	0.0254921
3318	0.01591
3330	0.0204298
3342	0.0133788
3354	0.00488146
3366	0.00325431
3378	0.00289272
3390	0.00307352
3402	0.00235034
3414	0.00198875
3426	0.00271193
3438	0.00235034
3450	0.00271193
3462	0.00162716
3474	0.00216954
3486	0.00198875
3498	0.00180795
3510	0.00126556
3522	0.00144636
3534	0.00144636
3546	0.00235034
3558	0.00144636
3570	0.00144636
3582	0.00144636
3594	0.00144636
3606	0.00126556
3618	0.00108477
3630	0.00162716
3642	0.00271193
3654	0.00614703
3666	0.00289272
3678	0.00180795
3690	0.000903975
3702	0.00126556
3714	0.00144636
3726	0.00126556
3738	0.00126556
3750	0.00216954
3762	0.00162716
3774	0.00144636
3786	0.00162716
3798	0.00108477
3810	0.00162716
3822	0.00216954
3834	0.00108477
3846	0.00235034
3858	0.00253113
3870	0.00271193
3882	0.00216954
3894	0.00235034
3906	0.00216954
3918	0.00180795
3930	0.00216954
3942	0.00162716
3954	0.00289272
3966	0.00144636
