Infrared Spectrum: Quinoline, 4-methyl-
Formula: C 10 H 9 N
CAS: 491-35-0
Origin: Sadtler Research Labs Under US-EPA Contract
1/CM	ABSORBANCE
450	0.0781118
462	0.0188613
474	0.0508605
486	0.0272513
498	0.00195117
510	0.0226986
522	0.0253652
534	0.0225685
546	0.0288123
558	0.0561287
570	0.0612667
582	0.0377877
594	0.0251701
606	0.031609
618	0.0282269
630	0.0323244
642	0.0303732
654	0.0252351
666	0.0231539
678	0.0240644
690	0.0236742
702	0.0564539
714	0.041625
726	0.0304383
738	0.129623
750	0.409095
762	0.278042
774	0.0580148
786	0.0269912
798	0.0279017
810	0.0556083
822	0.138143
834	0.365584
846	0.19141
858	0.0949569
870	0.0582099
882	0.0313488
894	0.023414
906	0.0241295
918	0.0234791
930	0.0230888
942	0.026601
954	0.035056
966	0.0222433
978	0.0264709
990	0.0222433
1002	0.0281619
1014	0.0512507
1026	0.0501451
1038	0.0329097
1050	0.0314138
1062	0.0325195
1074	0.0288123
1086	0.0341455
1098	0.0295277
1110	0.0207474
1122	0.0223734
1134	0.0422103
1146	0.0422103
1158	0.0442916
1170	0.0385031
1182	0.0214629
1194	0.0215929
1206	0.0209426
1218	0.0223084
1230	0.0292675
1242	0.0512507
1254	0.0388283
1266	0.0243896
1278	0.0220482
1290	0.0271863
1302	0.051706
1314	0.0459826
1326	0.0319341
1338	0.031674
1350	0.0279668
1362	0.0403892
1374	0.0471533
1386	0.102827
1398	0.114143
1410	0.0652341
1422	0.0874775
1434	0.071738
1446	0.0954122
1458	0.111802
1470	0.0721933
1482	0.0376576
1494	0.0670552
1506	0.184386
1518	0.162207
1530	0.0485191
1542	0.0376576
1554	0.0604863
1566	0.154858
1578	0.191865
1590	0.198499
1602	0.227181
1614	0.120582
1626	0.0623074
1638	0.021658
1650	0.0173004
1662	0.0280968
1674	0.0253002
1686	0.0167801
1698	0.0267961
1710	0.0289424
1722	0.0197719
1734	0.0193816
1746	0.0179508
1758	0.0211377
1770	0.0174305
1782	0.0159346
1794	0.0158695
1806	0.0206824
1818	0.0240644
1830	0.0202922
1842	0.0204873
1854	0.0130728
1866	0.0128777
1878	0.0127476
1890	0.0130728
1902	0.0271863
1914	0.0419502
1926	0.0312838
1938	0.0189914
1950	0.0234791
1962	0.0180808
1974	0.00786972
1986	0.00852011
1998	0.00871523
2010	0.0088453
2022	0.00930058
2034	0.00982089
2046	0.00891034
2058	0.0091705
2070	0.00949569
2082	0.00897538
2094	0.0079998
2106	0.0076746
2118	0.00715429
2130	0.00624374
2142	0.00624374
2154	0.0061787
2166	0.00669902
2178	0.00604863
2190	0.00624374
2202	0.00585351
2214	0.00643886
2226	0.00669902
2238	0.00643886
2250	0.00630878
2262	0.00624374
2274	0.00780468
2286	0.00741445
2298	0.00741445
2310	0.0079998
2322	0.00832499
2334	0.00663398
2346	0.00461777
2358	0.00578847
2370	0.00325195
2382	0.00448769
2394	0.00429257
2406	0.0053332
2418	0.00559335
2430	0.00604863
2442	0.005008
2454	0.00442265
2466	0.00487792
2478	0.00448769
2490	0.00390234
2502	0.00357714
2514	0.00312187
2526	0.00351211
2538	0.00299179
2550	0.00351211
2562	0.00377226
2574	0.00357714
2586	0.00188613
2598	0.00221133
2610	0.00253652
2622	0.00240644
2634	0.00240644
2646	0.000975585
2658	0.00104062
2670	0.000455273
2682	6.5039e-05
2694	0.000195117
2706	0.00123574
2718	0.00240644
2730	0.00338203
2742	0.00591855
2754	0.00585351
2766	0.00435761
2778	0.00338203
2790	0.00377226
2802	0.00429257
2814	0.00578847
2826	0.00669902
2838	0.00936562
2850	0.0144387
2862	0.0258205
2874	0.0392836
2886	0.033365
2898	0.0342105
2910	0.0454623
2922	0.0544376
2934	0.0892335
2946	0.0997698
2958	0.0919001
2970	0.0982739
2982	0.117525
2994	0.118891
3006	0.0939163
3018	0.104648
3030	0.155573
3042	0.254498
3054	0.179443
3066	0.161752
3078	0.254563
3090	0.191475
3102	0.0829247
3114	0.0342756
3126	0.0157394
3138	0.00962577
3150	0.00734941
3162	0.00552831
3174	0.00676406
3186	0.00604863
3198	0.00448769
3210	0.00442265
3222	0.00286172
3234	0.00273164
3246	0.00357714
3258	0.00338203
3270	0.0023414
3282	0.00221133
3294	0.00338203
3306	0.0038373
3318	0.00292676
3330	0.00260156
3342	0.00175605
3354	0.00247148
3366	0.00156094
3378	0.00240644
3390	0.0023414
3402	0.00344707
3414	0.00487792
3426	0.00253652
3438	0.00429257
3450	0.00305683
3462	0.00461777
3474	0.00260156
3486	0.00442265
3498	0.00526816
3510	0.00513808
3522	0.00455273
3534	0.0038373
3546	0.00481289
3558	0.00585351
3570	0.00351211
3582	0.00442265
3594	0.00572343
3606	0.00487792
3618	0.00188613
3630	0.00364218
3642	0.00591855
3654	0.00331699
3666	0.00201621
3678	0
3690	0.0026666
3702	0.00396738
3714	0.00442265
3726	0.00637382
3738	0.00461777
3750	0.00325195
3762	0.00721933
3774	0.00669902
3786	0.00559335
3798	0.00682909
3810	0.005008
3822	0.00507304
3834	0.00481289
3846	0.00208125
3858	0.00962577
3870	0.00598359
3882	0.00760956
3894	0.0105363
3906	0.00507304
3918	0.00455273
3930	0.00897538
3942	0.00468281
3954	0.00930058
3966	0.00904042
