Infrared Spectrum: Benzeneacetic acid, .alpha.-methyl-
Formula: C 9 H 10 O 2
CAS: 492-37-5
Origin: Sadtler Research Labs Under US-EPA Contract
1/CM	ABSORBANCE
450	0.0395234
462	0.0334077
474	0.0354159
486	0.0117749
498	0.0158824
510	0.0193509
522	0.0167952
534	0.0436309
546	0.0747567
558	0.135913
570	0.144584
582	0.155812
594	0.283601
606	0.202546
618	0.0920082
630	0.0851624
642	0.0728398
654	0.036785
666	0.0283875
678	0.0523936
690	0.156359
702	0.182008
714	0.108895
726	0.0918257
738	0.0659027
750	0.0689149
762	0.0540366
774	0.0276572
786	0.0156998
798	0.0157911
810	0.0255578
822	0.0210852
834	0.0213591
846	0.0195335
858	0.00702841
870	0.00255578
882	0.00155173
894	0.00109534
906	0.00355984
918	0.00255578
930	9.1278e-05
942	0.00264706
954	0.00474646
966	0.00976675
978	0.0229108
990	0.0375153
1002	0.035781
1014	0.0387931
1026	0.0738439
1038	0.0901827
1050	0.131075
1062	0.171055
1074	0.182008
1086	0.209392
1098	0.203367
1110	0.242891
1122	0.345122
1134	0.447353
1146	0.327597
1158	0.217242
1170	0.171876
1182	0.116106
1194	0.0906391
1206	0.0592394
1218	0.033499
1230	0.0279311
1242	0.029209
1254	0.035142
1266	0.0397059
1278	0.0376978
1290	0.0429007
1302	0.0491076
1314	0.0544017
1326	0.0557709
1338	0.0544017
1350	0.062708
1362	0.0802334
1374	0.0842496
1386	0.079777
1398	0.0442698
1410	0.0212678
1422	0.0167039
1434	0.0194422
1446	0.0443611
1458	0.0835194
1470	0.0572313
1482	0.0293002
1494	0.0751218
1506	0.0566836
1518	0.00766735
1530	0.00638946
1542	0.00355984
1554	0.00401623
1566	0.00346856
1578	0.00903652
1590	0.0227282
1602	0.038428
1614	0.0214503
1626	0.00775863
1638	0.0045639
1650	0.00575051
1662	0.00766735
1674	0.00593307
1686	0.00985802
1698	0.0159736
1710	0.0253753
1722	0.0478297
1734	0.0961157
1746	0.165852
1758	0.357353
1770	0.804981
1782	0.714707
1794	0.272556
1806	0.159371
1818	0.063712
1830	0.0247363
1842	0.0150609
1854	0.011501
1866	0.0114097
1878	0.013144
1890	0.00985802
1902	0.00492901
1914	0.0045639
1926	0.00565924
1938	0.0099493
1950	0.0113185
1962	0.00867141
1974	0.00401623
1986	0.00301217
1998	0.00182556
2010	0.00136917
2022	0.00109534
2034	0.00100406
2046	0.00091278
2058	0.000365112
2070	0.000273834
2082	0.00045639
2094	0.000638946
2106	0.000638946
2118	0.00118661
2130	0.00136917
2142	0.00136917
2154	0.00173428
2166	0.00155173
2178	0.001643
2190	0.00255578
2202	0.00255578
2214	0.00282962
2226	0.00255578
2238	0.00209939
2250	0.00228195
2262	0.00182556
2274	0.00127789
2286	0.00109534
2298	0.00045639
2310	9.1278e-05
2322	0.00109534
2334	9.1278e-05
2346	0.000821502
2358	9.1278e-05
2370	9.1278e-05
2382	0.000730224
2394	0.00191684
2406	0.00155173
2418	0.00191684
2430	0.00173428
2442	0.00182556
2454	0.00155173
2466	0.001643
2478	0.00136917
2490	0.00146045
2502	0.00127789
2514	0.00118661
2526	0.00127789
2538	0.00109534
2550	0.000730224
2562	0.00045639
2574	0.000638946
2586	0.00118661
2598	0.00173428
2610	0.00173428
2622	0.00209939
2634	0.00173428
2646	0.00136917
2658	0.00109534
2670	0.000821502
2682	0.000547668
2694	0.000547668
2706	0.000638946
2718	0.000638946
2730	0.000821502
2742	0.00109534
2754	0.00118661
2766	0.000821502
2778	0.00118661
2790	0.00191684
2802	0.00237323
2814	0.00219067
2826	0.00346856
2838	0.00465518
2850	0.00547668
2862	0.00739352
2874	0.0132353
2886	0.0287526
2898	0.0326775
2910	0.0268357
2922	0.0293002
2934	0.045639
2946	0.0740265
2958	0.0568662
2970	0.033499
2982	0.102323
2994	0.146775
3006	0.0579615
3018	0.0342293
3030	0.0703753
3042	0.0990366
3054	0.0609737
3066	0.082424
3078	0.108621
3090	0.0645335
3102	0.0442698
3114	0.0251015
3126	0.0112272
3138	0.00474646
3150	0.00328601
3162	0.00346856
3174	0.00383368
3186	0.00200812
3198	0.00228195
3210	0.00219067
3222	0.00228195
3234	0.00182556
3246	0.00228195
3258	0.00127789
3270	0.001643
3282	0.001643
3294	0.000638946
3306	0.000547668
3318	0.00100406
3330	0.00100406
3342	0.00146045
3354	0.000638946
3366	0.000821502
3378	0.000730224
3390	0.000182556
3402	9.1278e-05
3414	0.00109534
3426	0.000821502
3438	0.00091278
3450	0.00109534
3462	0.00146045
3474	0.00118661
3486	0.00228195
3498	0.0029209
3510	0.00483773
3522	0.00766735
3534	0.0110446
3546	0.0153347
3558	0.0447262
3570	0.268266
3582	0.278854
3594	0.0445437
3606	0.0122313
3618	0.00730224
3630	0.0053854
3642	0.001643
3654	0.00401623
3666	0.00429007
3678	0.000730224
3690	0.00237323
3702	0.00273834
3714	0.00182556
3726	0.00237323
3738	0.00200812
3750	0.00529412
3762	9.1278e-05
3774	0.00091278
3786	0.00136917
3798	0.000821502
3810	0.00228195
3822	0.000547668
3834	0.000182556
3846	0.000365112
3858	0.000730224
3870	0.00045639
3882	0.00091278
3894	0.000638946
3906	0.00173428
3918	0.00182556
3930	0.00146045
3942	0.00200812
3954	0.000547668
3966	0.00146045
