Infrared Spectrum: 3-Methyl-2-nitrophenol
Formula: C 7 H 7 N O 3
CAS: 4920-77-8
Origin: Sadtler Research Labs Under US-EPA Contract
1/CM	ABSORBANCE
450	0.0140977
462	0.0108354
474	0.0195737
486	0.00955382
498	0.0213213
510	0.0187581
522	0.0281954
534	0.0193407
546	0.0149133
558	0.0128161
570	0.0265643
582	0.0835377
594	0.0731683
606	0.0217874
618	0.0241176
630	0.0271468
642	0.0348365
654	0.0332054
666	0.034487
678	0.0583715
690	0.0976354
702	0.0710711
714	0.0326228
726	0.0137482
738	0.00559248
750	0.0524295
762	0.105092
774	0.186766
786	0.355006
798	0.127811
810	0.0220204
822	0.011418
834	0.0147968
846	0.0633814
858	0.16125
870	0.0854018
882	0.0181756
894	0.0103694
906	0.0104859
918	0.00838872
930	0.0104859
942	0.0151463
954	0.0334384
966	0.0560413
978	0.0505653
990	0.02971
1002	0.0257487
1014	0.0313412
1026	0.0363511
1038	0.0421766
1050	0.0575559
1062	0.143424
1074	0.160784
1086	0.0690904
1098	0.0450894
1110	0.0623328
1122	0.0800424
1134	0.0687409
1146	0.0667602
1158	0.111267
1170	0.178493
1182	0.241176
1194	0.38926
1206	0.5575
1218	0.449612
1230	0.207854
1242	0.141909
1254	0.194572
1266	0.432718
1278	0.568802
1290	0.34988
1302	0.286032
1314	0.351278
1326	0.434932
1338	0.565889
1350	0.6443
1362	0.391357
1374	0.134802
1386	0.113015
1398	0.0983344
1410	0.0799259
1422	0.130608
1434	0.252594
1446	0.379124
1458	0.574511
1470	0.692069
1482	0.33718
1494	0.155541
1506	0.149599
1518	0.201912
1530	0.3345
1542	0.550393
1554	0.519052
1566	0.331005
1578	0.357569
1590	0.67168
1602	1.1651
1614	0.606551
1626	0.16358
1638	0.0746829
1650	0.0510314
1662	0.0272633
1674	0.0217874
1686	0.0189911
1698	0.0199232
1710	0.0144472
1722	0.0133986
1734	0.0139812
1746	0.017127
1758	0.0166609
1770	0.00920429
1782	0.00594201
1794	0.00687409
1806	0.00629154
1818	0.00722362
1830	0.00862174
1842	0.0101364
1854	0.0102529
1866	0.00559248
1878	0.00419436
1890	0.00500993
1902	0.0034953
1914	0.00396134
1926	0.00734013
1938	0.0163114
1950	0.0123501
1962	0.00209718
1974	0.00198067
1986	0.00174765
1998	0.00093208
2010	0.00081557
2022	0.00174765
2034	0.00174765
2046	0.00163114
2058	0.00128161
2070	0.00139812
2082	0.00034953
2094	0.00069906
2106	0.00081557
2118	0.00093208
2130	0.00093208
2142	0.00139812
2154	0.00163114
2166	0.0034953
2178	0.00605852
2190	0.00617503
2202	0.00361181
2214	0.00186416
2226	0.00256322
2238	0.00314577
2250	0.00291275
2262	0.00279624
2274	0.0034953
2286	0.0034953
2298	0.00396134
2310	0.0046604
2322	0.00547597
2334	0.00605852
2346	0.0106024
2358	0.0058255
2370	0.00722362
2382	0.00652456
2394	0.00838872
2406	0.00908778
2418	0.00908778
2430	0.00722362
2442	0.00547597
2454	0.00524295
2466	0.00559248
2478	0.0058255
2490	0.00547597
2502	0.00629154
2514	0.0081557
2526	0.00745664
2538	0.00664107
2550	0.00594201
2562	0.00640805
2574	0.00757315
2586	0.00838872
2598	0.00734013
2610	0.00652456
2622	0.00722362
2634	0.00768966
2646	0.00792268
2658	0.00885476
2670	0.00908778
2682	0.0081557
2694	0.00803919
2706	0.00897127
2718	0.00955382
2730	0.00920429
2742	0.0103694
2754	0.0126996
2766	0.0124666
2778	0.0122335
2790	0.0136317
2802	0.0149133
2814	0.0154958
2826	0.0147968
2838	0.0143307
2850	0.0163114
2862	0.0214378
2874	0.0278459
2886	0.0311082
2898	0.0286615
2910	0.0252827
2922	0.0265643
2934	0.0422931
2946	0.0754985
2958	0.0658282
2970	0.0407785
2982	0.0665272
2994	0.0823726
3006	0.0499828
3018	0.0298266
3030	0.0320402
3042	0.0433417
3054	0.0514974
3066	0.0612843
3078	0.0781782
3090	0.0680418
3102	0.03472
3114	0.0264478
3126	0.0284284
3138	0.0334384
3150	0.0379823
3162	0.0422931
3174	0.0480021
3186	0.0528955
3198	0.057789
3210	0.0593036
3222	0.0590706
3234	0.0607017
3246	0.0623328
3258	0.0634979
3270	0.0629154
3282	0.0624494
3294	0.0631484
3306	0.0634979
3318	0.0638475
3330	0.0665272
3342	0.0675758
3354	0.0676923
3366	0.0675758
3378	0.0689739
3390	0.0683914
3402	0.070139
3414	0.0695565
3426	0.0687409
3438	0.0681583
3450	0.0652456
3462	0.0636145
3474	0.0608182
3486	0.0552257
3498	0.0512644
3510	0.0478856
3522	0.0438078
3534	0.0412445
3546	0.0362346
3558	0.0308751
3570	0.029244
3582	0.0238845
3594	0.0220204
3606	0.0174765
3618	0.0145637
3630	0.0164279
3642	0.011651
3654	0.0193407
3666	0.00990335
3678	0.00267973
3690	0.0069906
3702	0.00431087
3714	0.00407785
3726	0.00209718
3738	0.00058255
3750	0.011185
3762	0.00186416
3774	0.00244671
3786	0.00221369
3798	0.00734013
3810	0.00104859
3822	0.0034953
3834	0.00594201
3846	0.00477691
3858	0.00198067
3870	0.00302926
3882	0.00326228
3894	0
3906	0.00128161
3918	0.00244671
3930	0.00093208
3942	0.00500993
3954	0.00093208
3966	0.0034953
