Infrared Spectrum: Naphthalene, decahydro-, cis-
Formula: C 10 H 18
CAS: 493-01-6
Origin: Sadtler Research Labs Under US-EPA Contract
1/CM	ABSORBANCE
450	0
462	0.0314928
474	0.0247763
486	0.0316421
498	0.0226868
510	0.022239
522	0.0307465
534	0.0252241
546	0.0270152
558	0.0264181
570	0.0247763
582	0.0204479
594	0.0356719
606	0.0288062
618	0.0250748
630	0.0229853
642	0.0237315
654	0.0262689
666	0.021642
678	0.021642
690	0.0235823
702	0.0243286
714	0.022836
726	0.0279107
738	0.0280599
750	0.0253733
762	0.0246271
774	0.0241793
786	0.0249256
798	0.028657
810	0.0249256
822	0.0268659
834	0.0314928
846	0.0344779
858	0.0408959
870	0.0279107
882	0.023433
894	0.022836
906	0.0229853
918	0.0225375
930	0.0238808
942	0.0238808
954	0.0268659
966	0.0394033
978	0.0405974
990	0.0285077
1002	0.0256719
1014	0.0270152
1026	0.0241793
1038	0.0243286
1050	0.022239
1062	0.0226868
1074	0.0259704
1086	0.0250748
1098	0.0237315
1110	0.0252241
1122	0.0246271
1134	0.0241793
1146	0.0247763
1158	0.0246271
1170	0.0280599
1182	0.0253733
1194	0.022836
1206	0.023433
1218	0.0225375
1230	0.022836
1242	0.0243286
1254	0.0270152
1266	0.028657
1278	0.0270152
1290	0.0305973
1302	0.0337316
1314	0.0307465
1326	0.0271644
1338	0.0277614
1350	0.0297017
1362	0.0258211
1374	0.0328361
1386	0.0317913
1398	0.0246271
1410	0.0252241
1422	0.0285077
1434	0.0464183
1446	0.103434
1458	0.14015
1470	0.105374
1482	0.0423884
1494	0.0265674
1506	0.0244778
1518	0.0229853
1530	0.0217912
1542	0.0240301
1554	0.0240301
1566	0.021642
1578	0.0271644
1590	0.0232838
1602	0.0220897
1614	0.0252241
1626	0.0217912
1638	0.0250748
1650	0.0213435
1662	0.0213435
1674	0.0214927
1686	0.0277614
1698	0.0249256
1710	0.0208957
1722	0.022836
1734	0.0223882
1746	0.0207464
1758	0.0208957
1770	0.0213435
1782	0.0214927
1794	0.0213435
1806	0.0213435
1818	0.0211942
1830	0.0207464
1842	0.0211942
1854	0.0204479
1866	0.021045
1878	0.0201494
1890	0.0205972
1902	0.0207464
1914	0.0207464
1926	0.0204479
1938	0.0205972
1950	0.0204479
1962	0.0208957
1974	0.0208957
1986	0.0207464
1998	0.0208957
2010	0.0208957
2022	0.0207464
2034	0.021045
2046	0.0219405
2058	0.021642
2070	0.0211942
2082	0.0213435
2094	0.0211942
2106	0.0207464
2118	0.0201494
2130	0.0202987
2142	0.0207464
2154	0.0211942
2166	0.021642
2178	0.0217912
2190	0.0217912
2202	0.0219405
2214	0.0217912
2226	0.0207464
2238	0.0208957
2250	0.0211942
2262	0.021045
2274	0.0223882
2286	0.023433
2298	0.0258211
2310	0.0289555
2322	0.0273137
2334	0.0256719
2346	0.0268659
2358	0.0238808
2370	0.0253733
2382	0.0256719
2394	0.0214927
2406	0.0205972
2418	0.0211942
2430	0.0211942
2442	0.0213435
2454	0.0223882
2466	0.0220897
2478	0.0223882
2490	0.022836
2502	0.022239
2514	0.021642
2526	0.022239
2538	0.0238808
2550	0.0238808
2562	0.0255226
2574	0.0271644
2586	0.029254
2598	0.0301495
2610	0.0308958
2622	0.0295525
2634	0.0300003
2646	0.0344779
2658	0.0417914
2670	0.0455228
2682	0.0410451
2694	0.0344779
2706	0.030448
2718	0.0302988
2730	0.0313435
2742	0.0329854
2754	0.0311943
2766	0.0313435
2778	0.0338809
2790	0.0388063
2802	0.0402988
2814	0.0395526
2826	0.0447765
2838	0.0631349
2850	0.231942
2862	0.628811
2874	0.647767
2886	0.283286
2898	0.227912
2910	0.506273
2922	1.07538
2934	1.49255
2946	0.893888
2958	0.239405
2970	0.0531348
2982	0.0325376
2994	0.0289555
3006	0.0288062
3018	0.0280599
3030	0.0282092
3042	0.0276122
3054	0.0283585
3066	0.0301495
3078	0.0300003
3090	0.0288062
3102	0.0262689
3114	0.0255226
3126	0.0243286
3138	0.0231345
3150	0.0229853
3162	0.0229853
3174	0.0237315
3186	0.0241793
3198	0.0243286
3210	0.0249256
3222	0.0240301
3234	0.0232838
3246	0.0244778
3258	0.0255226
3270	0.0270152
3282	0.0268659
3294	0.0259704
3306	0.0259704
3318	0.0259704
3330	0.0250748
3342	0.0243286
3354	0.0258211
3366	0.0261196
3378	0.0268659
3390	0.0265674
3402	0.0244778
3414	0.0244778
3426	0.0247763
3438	0.0240301
3450	0.0249256
3462	0.023433
3474	0.0229853
3486	0.0229853
3498	0.0232838
3510	0.0235823
3522	0.0256719
3534	0.0240301
3546	0.0217912
3558	0.0220897
3570	0.0241793
3582	0.0237315
3594	0.0238808
3606	0.0241793
3618	0.0225375
3630	0.0247763
3642	0.022836
3654	0.0252241
3666	0.0256719
3678	0.0256719
3690	0.0237315
3702	0.0244778
3714	0.0276122
3726	0.0226868
3738	0.0280599
3750	0.0262689
3762	0.022239
3774	0.0265674
3786	0.0249256
3798	0.0264181
3810	0.022239
3822	0.0250748
3834	0.0295525
3846	0.0268659
3858	0.0301495
3870	0.0271644
3882	0.0238808
3894	0.0273137
3906	0.0282092
3918	0.0283585
3930	0.0244778
3942	0.0291047
3954	0.0294032
3966	0.0280599
