Infrared Spectrum: 1-Hepten-3-ol
Formula: C 7 H 14 O
CAS: 4938-52-7
Origin: Sadtler Research Labs Under US-EPA Contract
1/CM	ABSORBANCE
450	0.0119641
462	0.0257637
474	0.01849
486	0.00876916
498	0.0112843
510	0.0138675
522	0.0223648
534	0.0203254
546	0.0101287
558	0.0156349
570	0.00938096
582	0.0107405
594	0.0169265
606	0.01244
618	0.00938096
630	0.00421464
642	0.0133237
654	0.0150231
666	0.021617
678	0.0302502
690	0.0283468
702	0.0170625
714	0.0107405
726	0.0132557
738	0.0172664
750	0.0200535
762	0.0129158
774	0.0101287
786	0.0126439
798	0.00863321
810	0.00822534
822	0.00448655
834	0.0102647
846	0.0180821
858	0.0203934
870	0.0320176
882	0.0346688
894	0.0473807
906	0.0748438
918	0.186668
930	0.21583
942	0.0946254
954	0.0630836
966	0.0795343
978	0.140511
990	0.226503
1002	0.24241
1014	0.220793
1026	0.212159
1038	0.16743
1050	0.130994
1062	0.113183
1074	0.106725
1086	0.101695
1098	0.0948973
1110	0.0875557
1122	0.0915664
1134	0.0912265
1146	0.080282
1158	0.0517992
1170	0.0397671
1182	0.0405149
1194	0.0502357
1206	0.0636274
1218	0.0706971
1230	0.0717168
1242	0.0733483
1254	0.0796022
1266	0.0812337
1278	0.0717848
1290	0.0707651
1302	0.0642392
1314	0.0650549
1326	0.0685898
1338	0.080282
1350	0.0816416
1362	0.083545
1374	0.0853124
1386	0.0830011
1398	0.0636954
1410	0.0700853
1422	0.0973445
1434	0.0904107
1446	0.0752516
1458	0.0871478
1470	0.0810978
1482	0.0459531
1494	0.0201215
1506	0.0137995
1518	0.0103327
1530	0.00978883
1542	0.00380677
1554	0.00380677
1566	0.006186
1578	0.00571015
1590	0.00469048
1602	0.00645791
1614	0.00774949
1626	0.0121681
1638	0.0240642
1650	0.0241322
1662	0.0116922
1674	0.00598206
1686	0.00251519
1698	0.00265114
1710	0.0055742
1722	0.00645791
1734	0.00761354
1746	0.00564217
1758	0.0095849
1770	0.0130518
1782	0.0132557
1794	0.0104006
1806	0.00530228
1818	0.00537026
1830	0.00754556
1842	0.0159748
1854	0.0209372
1866	0.012508
1878	0.0046225
1890	0.00231125
1902	0.0027871
1914	0.0040107
1926	0.0027871
1938	0.00197136
1950	0.00190338
1962	0.00271912
1974	0.00503037
1986	0.00319497
1998	0.00231125
2010	0.00333092
2022	0.00333092
2034	0.00258316
2046	0.00312699
2058	0.00237923
2070	0.0027871
2082	0.00163147
2094	0.00197136
2106	0.00183541
2118	0.00224327
2130	0.000883714
2142	0.00231125
2154	0.00115563
2166	0.00163147
2178	0.00258316
2190	0.00129158
2202	0.00163147
2214	0.0012236
2226	0.0021753
2238	0.00183541
2250	0.00210732
2262	0.0027871
2274	0.00210732
2286	0.00169945
2298	0.000951692
2310	0.000611802
2322	0.00197136
2334	0.00305901
2346	0.00258316
2358	0.00231125
2370	0.00142754
2382	0.0021753
2394	0.00258316
2406	0.00292305
2418	0.00251519
2430	0.00285508
2442	0.00271912
2454	0.0021753
2466	0.00251519
2478	0.00197136
2490	0.00231125
2502	0.00237923
2514	0.0027871
2526	0.00326294
2538	0.00360283
2550	0.00394272
2562	0.00455453
2574	0.00482644
2586	0.00564217
2598	0.00591409
2610	0.00577813
2622	0.006186
2634	0.0067978
2646	0.00734162
2658	0.00842927
2670	0.00965288
2682	0.0103327
2694	0.0101287
2706	0.00978883
2718	0.0107405
2730	0.0118282
2742	0.0136636
2754	0.0146832
2766	0.0136636
2778	0.0152951
2790	0.0191698
2802	0.0244721
2814	0.0305901
2826	0.0438458
2838	0.0750477
2850	0.144929
2862	0.258724
2874	0.348863
2886	0.336967
2898	0.25818
2910	0.292101
2922	0.443896
2934	0.637838
2946	0.651637
2958	0.525878
2970	0.560071
2982	0.344105
2994	0.154582
3006	0.102171
3018	0.0819815
3030	0.0590049
3042	0.0385435
3054	0.0314058
3066	0.0377958
3078	0.0626757
3090	0.0974125
3102	0.064851
3114	0.0222288
3126	0.0113523
3138	0.00863321
3150	0.00761354
3162	0.00672982
3174	0.00550622
3186	0.00632195
3198	0.00564217
3210	0.00475846
3222	0.00414666
3234	0.00183541
3246	0.00271912
3258	0.0027871
3270	0.00115563
3282	0.00271912
3294	0.00237923
3306	0.00231125
3318	0.000747758
3330	0.00224327
3342	0.00163147
3354	0.00183541
3366	0.00292305
3378	0.00326294
3390	0.00312699
3402	0.00271912
3414	0.00333092
3426	0.00244721
3438	0.00319497
3450	0.00237923
3462	0.00333092
3474	0.00305901
3486	0.000815736
3498	0.00156349
3510	0.00129158
3522	0.00183541
3534	0.00129158
3546	0.00305901
3558	0.00203934
3570	0.00611802
3582	0.00693376
3594	0.00469048
3606	0.00605004
3618	0.00904107
3630	0.0260356
3642	0.0715808
3654	0.0847686
3666	0.0388834
3678	0.00931299
3690	0.00469048
3702	0.00516633
3714	0.0027871
3726	0.00333092
3738	0.00115563
3750	0.00203934
3762	0.000271912
3774	0.000883714
3786	0.00156349
3798	0.00285508
3810	0.00455453
3822	0.00033989
3834	0.0027871
3846	0.00543824
3858	0.00156349
3870	0.00244721
3882	0.00611802
3894	0.00190338
3906	0.00135956
3918	0.00414666
3930	0.00509835
3942	0.00156349
3954	0.00244721
3966	0.00176743
