Infrared Spectrum: Benzene, 1,2-dimethoxy-4-methyl-
Formula: C 9 H 12 O 2
CAS: 494-99-5
Origin: Sadtler Research Labs Under US-EPA Contract
1/CM	ABSORBANCE
450	0.00100279
462	0.0273619
474	0.0309433
486	0.0113172
498	0.0249265
510	0.0263591
522	0.0156149
534	0.0273619
546	0.0362438
558	0.0216317
570	0.0257861
582	0.0405414
594	0.0524317
606	0.0391089
618	0.0273619
630	0.0161879
642	0.0110307
654	0.00558698
666	0
678	0.0131796
690	0.0130363
702	0.0180503
714	0.029081
726	0.036387
738	0.058735
750	0.105436
762	0.118759
774	0.0658978
786	0.0807964
798	0.181076
810	0.208008
822	0.139388
834	0.0626029
846	0.0540075
858	0.0429768
870	0.0454122
882	0.0328056
894	0.0273619
906	0.0386791
918	0.0762122
930	0.0686196
942	0.0372466
954	0.0313731
966	0.0406847
978	0.0577322
990	0.0842345
1002	0.133658
1014	0.27233
1026	0.554257
1038	0.620728
1050	0.381777
1062	0.139531
1074	0.0769285
1086	0.0562996
1098	0.0667573
1110	0.134661
1122	0.326624
1134	0.43865
1146	0.439653
1158	0.430914
1170	0.251414
1182	0.182795
1194	0.175918
1206	0.19182
1218	0.3388
1230	0.605686
1242	0.718715
1254	0.674593
1266	0.930304
1278	1.04777
1290	0.898788
1302	0.464006
1314	0.215457
1326	0.132512
1338	0.0749229
1350	0.0507126
1362	0.0403982
1374	0.0393954
1386	0.0560131
1398	0.105866
1410	0.203997
1422	0.211589
1434	0.1848
1446	0.237805
1458	0.278203
1470	0.348255
1482	0.260726
1494	0.348685
1506	1.08244
1518	1.30033
1530	0.394241
1542	0.111023
1554	0.0776448
1566	0.0929731
1578	0.14125
1590	0.15973
1602	0.132942
1614	0.128071
1626	0.0611703
1638	0.0262158
1650	0.00272186
1662	0.0222047
1674	0.0131796
1686	0.00630326
1698	0.00773582
1710	0.01848
1722	0.0126065
1734	0.00458419
1746	0.0140391
1758	0.0121768
1770	0.00902513
1782	0.00988466
1794	0.0137526
1806	0.0118902
1818	0.00974141
1830	0.00988466
1842	0.016761
1854	0.0203424
1866	0.0169042
1878	0.0176205
1890	0.00988466
1902	0.0114605
1914	0.00773582
1926	0.00974141
1938	0.0137526
1950	0.0148986
1962	0.0159014
1974	0.0141823
1986	0.0160447
1998	0.0187665
2010	0.0227777
2022	0.0265024
2034	0.0305135
2046	0.0266456
2058	0.0219182
2070	0.0191963
2082	0.0174772
2094	0.0126065
2106	0.00701954
2118	0.00472745
2130	0.00415442
2142	0.0048707
2154	0.00472745
2166	0.00573024
2178	0.00673303
2190	0.00902513
2202	0.00773582
2214	0.00573024
2226	0.00315163
2238	0.00343814
2250	0.00573024
2262	0.00744931
2274	0.00816559
2286	0.00773582
2298	0.00902513
2310	0.0118902
2322	0.0130363
2334	0.0156149
2346	0.0126065
2358	0.016761
2370	0.0133228
2382	0.0048707
2394	0.000286512
2406	0.000859536
2418	0.00214884
2430	0.00286512
2442	0.00300838
2454	0.00300838
2466	0.00300838
2478	0.00386791
2490	0.00472745
2502	0.00616001
2514	0.00673303
2526	0.00902513
2538	0.0107442
2550	0.0113172
2562	0.0134661
2574	0.0137526
2586	0.0107442
2598	0.00988466
2610	0.00787908
2622	0.00701954
2634	0.00658978
2646	0.0071628
2658	0.00759257
2670	0.00673303
2682	0.00673303
2694	0.00687629
2706	0.00773582
2718	0.00916838
2730	0.0124633
2742	0.0200558
2754	0.017907
2766	0.016761
2778	0.0200558
2790	0.0254996
2802	0.0366735
2814	0.0620298
2826	0.132798
2838	0.281928
2850	0.270897
2862	0.194685
2874	0.224052
2886	0.224052
2898	0.228923
2910	0.299835
2922	0.399827
2934	0.541937
2946	0.580044
2958	0.458419
2970	0.32734
2982	0.262732
2994	0.326194
3006	0.411861
3018	0.254423
3030	0.190387
3042	0.210013
3054	0.18523
3066	0.136809
3078	0.0938327
3090	0.065468
3102	0.0491368
3114	0.0395387
3126	0.0320893
3138	0.0265024
3150	0.0209154
3162	0.017334
3174	0.0169042
3186	0.0164744
3198	0.0143256
3210	0.0141823
3222	0.0151851
3234	0.0148986
3246	0.0144689
3258	0.0144689
3270	0.0140391
3282	0.0143256
3294	0.0153284
3306	0.0147554
3318	0.0153284
3330	0.0143256
3342	0.0153284
3354	0.0154716
3366	0.0147554
3378	0.0161879
3390	0.0159014
3402	0.016761
3414	0.0156149
3426	0.0161879
3438	0.0174772
3450	0.0166177
3462	0.0161879
3474	0.0161879
3486	0.019053
3498	0.016761
3510	0.0213451
3522	0.0186233
3534	0.0187665
3546	0.01848
3558	0.0230642
3570	0.0157582
3582	0.022921
3594	0.017907
3606	0.0196261
3618	0.0257861
3630	0.0137526
3642	0.0244968
3654	0.00816559
3666	0.0143256
3678	0.0399684
3690	0.0157582
3702	0.0181935
3714	0.0199126
3726	0.0293675
3738	0.0373898
3750	0
3762	0.0297972
3774	0.0297972
3786	0.0265024
3798	0.0137526
3810	0.0259293
3822	0.0249265
3834	0.0210586
3846	0.00730606
3858	0.0375331
3870	0.0312298
3882	0.0163312
3894	0.0325191
3906	0.0223479
3918	0.0196261
3930	0.0306568
3942	0.0265024
3954	0.0191963
3966	0.0253563
