Infrared Spectrum: 2H-1-Benzopyran, 3,4-dihydro-2-phenyl-
Formula: C 15 H 14 O
CAS: 494-12-2
Origin: Sadtler Research Labs Under US-EPA Contract
1/CM	ABSORBANCE
450	0.0138434
462	0.0215237
474	0.00701653
486	0.00502535
498	0.00872326
510	0.0209548
522	0.0221874
534	0.0182999
546	0.0298677
558	0.0249371
570	0.0394443
582	0.0201962
594	0.00720617
606	0.002086
618	0.000663726
630	0.00199118
642	0.00625799
654	0.0356516
666	0.0339448
678	0.0446593
690	0.115394
702	0.17181
714	0.0888445
726	0.0712083
738	0.185938
750	0.443179
762	0.164699
774	0.0324278
786	0.0109041
798	0.00881807
810	0.0291091
822	0.0257905
834	0.0246527
846	0.0269283
858	0.0138434
870	0.00777508
882	0.0249371
894	0.0528136
906	0.0365997
918	0.0600198
930	0.0677949
942	0.0300573
954	0.00872326
966	0.00986107
978	0.0179206
990	0.0725358
1002	0.166785
1014	0.0410562
1026	0.0551841
1038	0.0699757
1050	0.133978
1062	0.130564
1074	0.161096
1086	0.103446
1098	0.0542359
1110	0.225288
1122	0.0669415
1134	0.0171621
1146	0.0439007
1158	0.0866637
1170	0.0644762
1182	0.0866637
1194	0.0963351
1206	0.0796471
1218	0.205945
1230	0.701653
1242	0.696817
1254	0.15133
1266	0.101171
1278	0.120988
1290	0.103921
1302	0.190015
1314	0.0879911
1326	0.0821124
1338	0.100507
1350	0.0863792
1362	0.0683638
1374	0.0451334
1386	0.0303418
1398	0.0188688
1410	0.0176361
1422	0.0256957
1434	0.0556582
1446	0.141374
1458	0.298392
1470	0.0873274
1482	0.241501
1494	0.395676
1506	0.160811
1518	0.0230408
1530	0.0169724
1542	0.0128952
1554	0.013559
1566	0.0310055
1578	0.166121
1590	0.188783
1602	0.0669415
1614	0.0826813
1626	0.0263594
1638	0.0110937
1650	0.00730099
1662	0.0084388
1674	0.0110937
1686	0.0109041
1698	0.0109041
1710	0.0145072
1722	0.00938698
1734	0.00521499
1746	0.00530981
1758	0.00711135
1770	0.00910253
1782	0.0109041
1794	0.0128952
1806	0.0109041
1818	0.0057839
1830	0.000568908
1842	0.000284454
1854	0.00350827
1866	0.00872326
1878	0.00919735
1890	0.0159294
1902	0.00967144
1914	0.00587872
1926	0.0140331
1938	0.0131797
1950	0.0126108
1962	0.011473
1974	0.00512017
1986	0.00322381
1998	0.00274972
2010	0.00237045
2022	0.00350827
2034	0.00445645
2046	0.00379272
2058	0.00350827
2070	0.00530981
2082	0.0047409
2094	0.00237045
2106	0.00132745
2118	0.000853362
2130	0.001043
2142	0.000853362
2154	0.00113782
2166	0.00132745
2178	0.00094818
2190	0.000758544
2202	0
2214	0.000663726
2226	0.00189636
2238	0.00094818
2250	0.000663726
2262	0.00094818
2274	0.000663726
2286	0.00132745
2298	0.00322381
2310	0.00606835
2322	0.00758544
2334	0.00786989
2346	0.00967144
2358	0.00426681
2370	0.00616317
2382	0.00312899
2394	0.000663726
2406	0.000853362
2418	0.002086
2430	0.00388754
2442	0.00426681
2454	0.00521499
2466	0.00549944
2478	0.00379272
2490	0.00170672
2502	0.00142227
2514	0.00256009
2526	0.00341345
2538	0.0036979
2550	0.0026549
2562	0.00350827
2574	0.00483572
2586	0.00455126
2598	0.00455126
2610	0.00341345
2622	0.0026549
2634	0.00360308
2646	0.00312899
2658	0.0026549
2670	0.00274972
2682	0.00284454
2694	0.00237045
2706	0.00218081
2718	0.00256009
2730	0.00388754
2742	0.00360308
2754	0.00312899
2766	0.00350827
2778	0.00445645
2790	0.00644762
2802	0.00711135
2814	0.00891289
2826	0.0121367
2838	0.0201014
2850	0.05471
2862	0.101076
2874	0.0845777
2886	0.0561323
2898	0.049495
2910	0.0686482
2922	0.0959558
2934	0.171431
2946	0.18243
2958	0.17949
2970	0.0920683
2982	0.0224719
2994	0.0157398
3006	0.024463
3018	0.0632436
3030	0.138624
3042	0.146683
3054	0.123358
3066	0.150476
3078	0.200635
3090	0.116911
3102	0.0519603
3114	0.0309107
3126	0.0140331
3138	0.00635281
3150	0.00512017
3162	0.00644762
3174	0.00568908
3186	0.00398236
3198	0.00379272
3210	0.00341345
3222	0.00350827
3234	0.00417199
3246	0.0047409
3258	0.00540463
3270	0.00720617
3282	0.00720617
3294	0.00872326
3306	0.00881807
3318	0.0084388
3330	0.00824917
3342	0.00777508
3354	0.00673208
3366	0.00635281
3378	0.0047409
3390	0.00379272
3402	0.00189636
3414	0.00170672
3426	0.00113782
3438	0.00094818
3450	0.00094818
3462	0.00047409
3474	0.000853362
3486	0.000853362
3498	0.00047409
3510	0.000568908
3522	0.000568908
3534	0.00047409
3546	0.000379272
3558	0.00047409
3570	0.00180154
3582	0.00142227
3594	0.00170672
3606	9.4818e-05
3618	0.000758544
3630	0.00322381
3642	0.00123263
3654	0.00180154
3666	0.00113782
3678	0.00170672
3690	0.00227563
3702	0.00218081
3714	0.00180154
3726	0.00303418
3738	0.00170672
3750	0.00218081
3762	0.00199118
3774	0.000568908
3786	0
3798	0.00123263
3810	9.4818e-05
3822	0.00388754
3834	0.00189636
3846	0.00256009
3858	0.00341345
3870	0.00379272
3882	0.0026549
3894	0.00398236
3906	0.00237045
3918	0.00379272
3930	0.00256009
3942	0.002086
3954	0.00180154
3966	0.00113782
