Infrared Spectrum: 5H-Dibenz[b,f]azepine, 10,11-dihydro-
Formula: C 14 H 13 N
CAS: 494-19-9
Origin: Sadtler Research Labs Under US-EPA Contract
1/CM	ABSORBANCE
450	0.068514
462	0.076928
474	0.0784305
486	0.0485307
498	0.0363605
510	0.028247
522	0.0202837
534	0.0171285
546	0.0109682
558	0.0115692
570	0.0133722
582	0.0237395
594	0.0225375
606	0.0171285
618	0.0250917
630	0.0081135
642	0.0139732
654	0.0159265
666	0.0121702
678	0.0205842
690	0.0261435
702	0.0305008
714	0.0477795
726	0.12651
738	0.36646
750	0.410183
762	0.159866
774	0.0291485
786	0.00826375
798	0.00045075
810	0.001202
822	0.00255425
834	0.00886475
846	0.014424
858	0.00525875
870	0.001803
882	0.001803
894	0.00165275
906	0.0039065
918	0.0151752
930	0.0812852
942	0.0677627
954	0.00676125
966	0.00255425
978	0.00195325
990	0.0021035
1002	0.002404
1014	0.0039065
1026	0.00616025
1038	0.0147245
1050	0.03606
1062	0.0099165
1074	0.001202
1086	0.001803
1098	0.0123205
1110	0.119599
1122	0.0491317
1134	0.00616025
1146	0.00601
1158	0.0235892
1170	0.0165275
1182	0.0157762
1194	0.0205842
1206	0.0292987
1218	0.0244907
1230	0.0314022
1242	0.0548412
1254	0.0542402
1266	0.093756
1278	0.144841
1290	0.111035
1302	0.166777
1314	0.287879
1326	0.485908
1338	0.291185
1350	0.101719
1362	0.0644572
1374	0.042671
1386	0.028247
1398	0.0229882
1410	0.027646
1422	0.058297
1434	0.0966107
1446	0.158063
1458	0.185859
1470	0.29434
1482	1.01404
1494	1.34699
1506	0.323939
1518	0.154908
1530	0.109232
1542	0.0579965
1554	0.0353087
1566	0.0545407
1578	0.18631
1590	0.355491
1602	0.150551
1614	0.113889
1626	0.0449247
1638	0.024641
1650	0.0220867
1662	0.0154757
1674	0.0190817
1686	0.0157762
1698	0.0148747
1710	0.01202
1722	0.0121702
1734	0.0157762
1746	0.0163772
1758	0.0183305
1770	0.020434
1782	0.015626
1794	0.0177295
1806	0.0117195
1818	0.00706175
1830	0.00796325
1842	0.009616
1854	0.0105175
1866	0.00916525
1878	0.0165275
1890	0.0169783
1902	0.0087145
1914	0.0196827
1926	0.013222
1938	0.00435725
1950	0.00255425
1962	0.001803
1974	0.0015025
1986	0.00165275
1998	0.0021035
2010	0.002404
2022	0.00375625
2034	0.004207
2046	0.003606
2058	0.0027045
2070	0.00255425
2082	0.00285475
2094	0.0033055
2106	0.00135225
2118	0.00135225
2130	0.001803
2142	0.00225375
2154	0.00405675
2166	0.004808
2178	0.00465775
2190	0.0039065
2202	0.001803
2214	0.000601
2226	0.000601
2238	0.0003005
2250	0.00015025
2262	0.000601
2274	0.001202
2286	0.00135225
2298	0.00195325
2310	0.003005
2322	0.0051085
2334	0.00495825
2346	0.00525875
2358	0.0039065
2370	0.00315525
2382	0.003005
2394	0.00165275
2406	0.00225375
2418	0.0021035
2430	0.003005
2442	0.004207
2454	0.00495825
2466	0.0057095
2478	0.00616025
2490	0.0051085
2502	0.004808
2514	0.00585975
2526	0.0075125
2538	0.0106678
2550	0.011419
2562	0.0117195
2574	0.0069115
2586	0.004207
2598	0.003606
2610	0.00285475
2622	0.002404
2634	0.002404
2646	0.00225375
2658	0.00225375
2670	0.0027045
2682	0.002404
2694	0.00405675
2706	0.0051085
2718	0.004808
2730	0.00405675
2742	0.0045075
2754	0.0045075
2766	0.00585975
2778	0.00646075
2790	0.00525875
2802	0.005409
2814	0.00706175
2826	0.0115692
2838	0.0211852
2850	0.046878
2862	0.0622035
2874	0.031252
2886	0.0279465
2898	0.0399665
2910	0.0788812
2922	0.134173
2934	0.154307
2946	0.137178
2958	0.0754255
2970	0.028247
2982	0.0154757
2994	0.0259932
3006	0.0622035
3018	0.116744
3030	0.129516
3042	0.0854922
3054	0.0964605
3066	0.182403
3078	0.136577
3090	0.0555925
3102	0.0387645
3114	0.0232888
3126	0.0103672
3138	0.00495825
3150	0.0033055
3162	0.0027045
3174	0.00375625
3186	0.00375625
3198	0.00345575
3210	0.00195325
3222	0.00195325
3234	0.00195325
3246	0.00225375
3258	0.00105175
3270	0.00165275
3282	0.00165275
3294	0.00285475
3306	0.001803
3318	0.0033055
3330	0.003606
3342	0.005409
3354	0.00766275
3366	0.010217
3378	0.0136727
3390	0.0154757
3402	0.0153255
3414	0.0159265
3426	0.0229882
3438	0.0232888
3450	0.0121702
3462	0.0063105
3474	0.00495825
3486	0.00255425
3498	0.00195325
3510	0.001803
3522	0.00255425
3534	0.002404
3546	0.00105175
3558	0.00285475
3570	0.00135225
3582	0.00135225
3594	0.00105175
3606	0.00165275
3618	0.0003005
3630	0.001202
3642	0.00165275
3654	0
3666	0.00285475
3678	0.00135225
3690	0.000601
3702	0.00195325
3714	0.0009015
3726	0.0021035
3738	0.00195325
3750	0.0015025
3762	0.00075125
3774	0.0021035
3786	0.00135225
3798	0.0015025
3810	0.00225375
3822	0.0009015
3834	0.00195325
3846	0.0003005
3858	0.0027045
3870	0.00345575
3882	0.00255425
3894	0.00375625
3906	0.004207
3918	0.00345575
3930	0.0057095
3942	0.00285475
3954	0.00405675
3966	0.00555925
