Infrared Spectrum: 5-Hydroxy-4-octanone
Formula: C 8 H 16 O 2
CAS: 496-77-5
Origin: Sadtler Research Labs Under US-EPA Contract
1/CM	ABSORBANCE
450	0.0276569
462	0.00503717
474	0.00437189
486	0.00123553
498	0.0016157
510	0.00237602
522	0.00332643
534	0.00133057
546	0.00560742
558	0.00712808
570	0.00693799
582	0.00703303
594	0.00769832
606	0.00541734
618	0.00646279
630	0.00589254
642	0.00408676
654	0.00627271
666	0.00522726
678	0.00598758
690	0.00722312
702	0.00779336
714	0.0100743
726	0.0135909
738	0.020814
750	0.0244255
762	0.0204338
774	0.0148264
786	0.0152066
798	0.0190082
810	0.0214793
822	0.025471
834	0.0252809
846	0.0246156
858	0.0268016
870	0.0221446
882	0.0303181
894	0.0377313
906	0.0330743
918	0.020909
930	0.0193884
942	0.0297478
954	0.0388718
966	0.0492312
978	0.0473304
990	0.0465701
1002	0.0686196
1014	0.154252
1026	0.261933
1038	0.19816
1050	0.168128
1062	0.164326
1074	0.168508
1086	0.176681
1098	0.158433
1110	0.193979
1122	0.286834
1134	0.229999
1146	0.146648
1158	0.125549
1170	0.099793
1182	0.0629171
1194	0.0469503
1206	0.0554089
1218	0.0753675
1230	0.0886733
1242	0.126309
1254	0.127735
1266	0.122318
1278	0.135624
1290	0.127165
1302	0.114144
1314	0.0837311
1326	0.0728964
1338	0.095136
1350	0.160619
1362	0.18552
1374	0.15178
1386	0.16328
1398	0.166227
1410	0.142942
1422	0.0994129
1434	0.0851567
1446	0.0953261
1458	0.132297
1470	0.140471
1482	0.0669089
1494	0.0275619
1506	0.0178677
1518	0.0119752
1530	0.0090289
1542	0.00798344
1554	0.00636775
1566	0.00446693
1578	0.00484709
1590	0.00389668
1602	0.00323139
1614	0.00475205
1626	0.00674791
1638	0.00693799
1650	0.0106446
1662	0.0118801
1674	0.0228098
1686	0.0358305
1698	0.0709006
1710	0.277805
1722	0.620238
1734	0.354028
1746	0.0982724
1758	0.0581651
1770	0.0518924
1782	0.0458098
1794	0.037066
1806	0.0180578
1818	0.00760328
1830	0.00475205
1842	0.00294627
1854	0.00133057
1866	0.00180578
1878	0.00114049
1890	0.00114049
1902	0.00104545
1914	0.00095041
1926	0.000570246
1938	0.00095041
1950	0.000570246
1962	0.000570246
1974	0.000285123
1986	0.000380164
1998	0.000570246
2010	0.000570246
2022	0.000665287
2034	0.00114049
2046	0.00133057
2058	0.00152066
2070	0.00142562
2082	0.000760328
2094	0.00114049
2106	0.00114049
2118	0.00123553
2130	0.00133057
2142	0.000760328
2154	0.000760328
2166	0.00104545
2178	0.00152066
2190	0.00152066
2202	0.00123553
2214	0.00123553
2226	0.00114049
2238	0.00095041
2250	0.000760328
2262	0.000760328
2274	0.000665287
2286	0.000665287
2298	0.00114049
2310	0.000760328
2322	0.000380164
2334	0.000190082
2346	0.00114049
2358	0.000665287
2370	0.00133057
2382	0.00285123
2394	0.00285123
2406	0.00332643
2418	0.00332643
2430	0.00228098
2442	0.00142562
2454	0.00152066
2466	0.00142562
2478	0.00123553
2490	0.00133057
2502	0.0016157
2514	0.00152066
2526	0.0016157
2538	0.00190082
2550	0.00199586
2562	0.00266115
2574	0.00304131
2586	0.00313635
2598	0.00361156
2610	0.00380164
2622	0.00399172
2634	0.00446693
2646	0.00465701
2658	0.00570246
2670	0.00693799
2682	0.00864873
2694	0.0095041
2706	0.0102644
2718	0.0111198
2730	0.0122603
2742	0.0169173
2754	0.0199586
2766	0.0200537
2778	0.0227148
2790	0.0289875
2802	0.034785
2814	0.041818
2826	0.0498015
2838	0.0676692
2850	0.111293
2862	0.158528
2874	0.245966
2886	0.401263
2898	0.294057
2910	0.291966
2922	0.389858
2934	0.491457
2946	0.600659
2958	0.530044
2970	0.916575
2982	0.619192
2994	0.207189
3006	0.0954212
3018	0.0570246
3030	0.0402974
3042	0.0311734
3054	0.0240454
3066	0.0179627
3078	0.0146363
3090	0.0129256
3102	0.0107396
3114	0.0100743
3126	0.00988426
3138	0.00921898
3150	0.00912394
3162	0.00912394
3174	0.00845865
3186	0.00864873
3198	0.00826857
3210	0.00674791
3222	0.00437189
3234	0.00342148
3246	0.00218594
3258	0.0020909
3270	0.00199586
3282	0.00123553
3294	0.00199586
3306	0.00152066
3318	0.00104545
3330	0.00133057
3342	0.00171074
3354	0.00152066
3366	0.00142562
3378	0.00228098
3390	0.00323139
3402	0.00437189
3414	0.00836361
3426	0.0106446
3438	0.00855369
3450	0.00646279
3462	0.00864873
3474	0.0125454
3486	0.020814
3498	0.0506569
3510	0.149595
3522	0.190937
3534	0.111958
3546	0.0686196
3558	0.0446693
3570	0.0322189
3582	0.0229999
3594	0.013971
3606	0.00646279
3618	0.00456197
3630	0.00560742
3642	0.00655783
3654	0.0111198
3666	0.0101694
3678	0.00361156
3690	0.000855369
3702	0.00123553
3714	0.000190082
3726	0.00104545
3738	0.00123553
3750	0
3762	0.000665287
3774	0.0016157
3786	0.000760328
3798	0.00095041
3810	0.000570246
3822	0.00114049
3834	0.00171074
3846	0.00152066
3858	0.00275619
3870	0.0020909
3882	0.0020909
3894	0.00218594
3906	0.00351652
3918	0.00247107
3930	0.000760328
3942	0.00190082
3954	0.00247107
3966	0.00180578
