Infrared Spectrum: 1H-Indole, 2,3-dihydro-
Formula: C 8 H 9 N
CAS: 496-15-1
Origin: Sadtler Research Labs Under US-EPA Contract
1/CM	ABSORBANCE
450	0.0699787
462	0.0575095
474	0.108747
486	0.176761
498	0.184922
510	0.179103
522	0.0991492
534	0.0864532
546	0.122803
558	0.117513
570	0.0597011
582	0.0347627
594	0.0278857
606	0.0163233
618	0.00665025
630	0.0034007
642	0.000528997
654	0.0052144
666	0.0215377
678	0.0782916
690	0.144794
702	0.152653
714	0.16807
726	0.319665
738	0.575398
750	0.44277
762	0.19195
774	0.045796
786	0.0242583
798	0.0201775
810	0.0157943
822	0.0179103
834	0.0293215
846	0.0454937
858	0.0494234
870	0.0498013
882	0.0287926
894	0.0159455
906	0.0168523
918	0.0242583
930	0.0198752
942	0.0166256
954	0.0130738
966	0.0112601
978	0.0133761
990	0.0120914
1002	0.0194973
1014	0.0811633
1026	0.130587
1038	0.0861509
1050	0.0629506
1062	0.0765534
1074	0.0540333
1086	0.0462495
1098	0.0363497
1110	0.0103532
1122	0.00430755
1134	0.00899295
1146	0.0346871
1158	0.0544867
1170	0.0530508
1182	0.0410351
1194	0.0321177
1206	0.0327978
1218	0.0637064
1230	0.252483
1242	0.4996
1254	0.416623
1266	0.17472
1278	0.101038
1290	0.0665025
1302	0.0748153
1314	0.19913
1326	0.220743
1338	0.0981667
1350	0.0284147
1362	0.0185905
1374	0.0211599
1386	0.048441
1398	0.118949
1410	0.118798
1422	0.0423198
1434	0.0374076
1446	0.0760244
1458	0.264801
1470	0.453199
1482	0.470732
1494	0.438841
1506	0.205024
1518	0.0210087
1530	0.00589454
1542	0.0093708
1554	0.0122425
1566	0.0216133
1578	0.0503303
1590	0.102928
1602	0.302586
1614	0.444282
1626	0.203437
1638	0.0224446
1650	0.00914409
1662	0.00967309
1674	0.0093708
1686	0.0110334
1698	0.0246361
1710	0.0384656
1722	0.0122425
1734	0.00649911
1746	0.0119402
1758	0.0150386
1770	0.0137539
1782	0.0111089
1794	0.0126204
1806	0.00952195
1818	0.00385412
1830	0.00559225
1842	0.00528997
1854	0.00513883
1866	0.0162478
1878	0.0193462
1890	0.00997537
1902	0.00831281
1914	0.0176836
1926	0.0120158
1938	0.00075571
1950	0.000831281
1962	0.00188927
1974	0.00173813
1986	0.000906852
1998	0.000982423
2010	0.00158699
2022	0.00143585
2034	0.00151142
2046	0.00128471
2058	0.00105799
2070	0.00105799
2082	0.000680139
2094	0.00151142
2106	0.0023427
2118	0.00113357
2130	0.000528997
2142	0.00113357
2154	0.0018137
2166	0.00219156
2178	0.00120914
2190	0.000906852
2202	0.000453426
2214	0.000453426
2226	0.000302284
2238	0.000831281
2250	0.000982423
2262	0.000453426
2274	7.5571e-05
2286	7.5571e-05
2298	0.00211599
2310	0.00347627
2322	0.00272056
2334	0.00377855
2346	0.00513883
2358	0
2370	0.00687696
2382	0.00392969
2394	0.00136028
2406	0.00219156
2418	0.00256941
2430	0.00309841
2442	0.00294727
2454	0.00211599
2466	0.00491211
2478	0.00717924
2490	0.00581897
2502	0.00317398
2514	0.00249384
2526	0.00347627
2538	0.00438312
2550	0.00634796
2562	0.00914409
2574	0.00891738
2586	0.0070281
2598	0.00921966
2610	0.00997537
2622	0.00733039
2634	0.00876624
2646	0.0098998
2658	0.00914409
2670	0.00785938
2682	0.00816167
2694	0.0105044
2706	0.0161722
2718	0.0201019
2730	0.0173813
2742	0.0144341
2754	0.0144341
2766	0.0177592
2778	0.0214622
2790	0.0302284
2802	0.0393725
2814	0.0413373
2826	0.0531264
2838	0.117966
2850	0.338558
2862	0.497182
2874	0.343697
2886	0.193235
2898	0.15749
2910	0.180917
2922	0.234421
2934	0.304778
2946	0.347022
2958	0.332512
2970	0.317096
2982	0.270469
2994	0.157641
3006	0.0712635
3018	0.101719
3030	0.198752
3042	0.234043
3054	0.237444
3066	0.240618
3078	0.201548
3090	0.146759
3102	0.0779893
3114	0.031891
3126	0.0143585
3138	0.00581897
3150	0.00408083
3162	0.00226713
3174	0.00317398
3186	0.00332512
3198	0.00332512
3210	0.00241827
3222	0.0023427
3234	0.00188927
3246	0
3258	0.00128471
3270	0.000604568
3282	0.00188927
3294	0.00264498
3306	0.00219156
3318	0.00279613
3330	0.00423198
3342	0.00279613
3354	0.00476097
3366	0.00430755
3378	0.0034007
3390	0.0070281
3402	0.0129982
3414	0.0527486
3426	0.0837327
3438	0.0619682
3450	0.0170035
3462	0.00944637
3474	0.00619682
3486	0.00657468
3498	0.0070281
3510	0.00982423
3522	0.0115624
3534	0.00921966
3546	0.0028717
3558	0.00219156
3570	0.00294727
3582	0.00332512
3594	0.00302284
3606	0.000982423
3618	0.00317398
3630	0.00204042
3642	0.0023427
3654	0.00136028
3666	0.000377855
3678	0.00544111
3690	0.00302284
3702	0.00362741
3714	0.00528997
3726	0.0046854
3738	0.00597011
3750	0.00302284
3762	0.00226713
3774	0.00204042
3786	0.00302284
3798	0.00392969
3810	0.00385412
3822	0.00264498
3834	0.00256941
3846	0.0046854
3858	0.00695253
3870	0.00370298
3882	0.00687696
3894	0.00589454
3906	0.00309841
3918	0.00627239
3930	0.00476097
3942	0.00597011
3954	0.00430755
3966	0.00604568
