Infrared Spectrum: Benzofuran-2-carboxylic acid
Formula: C 9 H 6 O 3
CAS: 496-41-3
Origin: Sadtler Research Labs Under US-EPA Contract
1/CM	ABSORBANCE
450	0
462	0.0221218
474	0.0236489
486	0.0275697
498	0.0320683
510	0.0506407
522	0.0645494
534	0.0660352
546	0.0189026
558	0.00903857
570	0.0315318
582	0.0213376
594	0.0183248
606	0.0124229
618	0.0148166
630	0.0132896
642	0.00577808
654	0.00874966
666	0.0167977
678	0.0530345
690	0.0926969
702	0.0378464
714	0.0199344
726	0.0433769
738	0.120844
750	0.175819
762	0.0950081
774	0.0406529
786	0.0246807
798	0.0368146
810	0.0458532
822	0.0346272
834	0.0397449
846	0.0269919
858	0.022452
870	0.0216265
882	0.0413545
894	0.0281062
906	0.0175406
918	0.0198518
930	0.0320683
942	0.0428403
954	0.0248045
966	0.015477
978	0.015931
990	0.0189851
1002	0.0305
1014	0.034297
1026	0.0295508
1038	0.0270332
1050	0.0315731
1062	0.0558823
1074	0.128438
1086	0.194639
1098	0.142471
1110	0.0972781
1122	0.156999
1134	0.314699
1146	0.230669
1158	0.237066
1170	0.17165
1182	0.0912111
1194	0.0713593
1206	0.0539838
1218	0.0495677
1230	0.0500217
1242	0.0586888
1254	0.104625
1266	0.102355
1278	0.0778803
1290	0.0992592
1302	0.10157
1314	0.100827
1326	0.098929
1338	0.091954
1350	0.0830393
1362	0.0923255
1374	0.12947
1386	0.0897666
1398	0.0457294
1410	0.0304587
1422	0.0256712
1434	0.0304175
1446	0.0404466
1458	0.0419324
1470	0.0416434
1482	0.05386
1494	0.0576157
1506	0.0487835
1518	0.032316
1530	0.0250108
1542	0.0289729
1554	0.0528694
1566	0.114323
1578	0.125343
1590	0.0986814
1602	0.0522504
1614	0.0450278
1626	0.0308302
1638	0.0124229
1650	0.0095751
1662	0.0172104
1674	0.0153119
1686	0.02109
1698	0.026249
1710	0.0398688
1722	0.0471739
1734	0.059473
1746	0.102561
1758	0.331992
1770	0.41272
1782	0.354155
1794	0.130585
1806	0.0324398
1818	0.0213789
1830	0.0179533
1842	0.0179533
1854	0.0134547
1866	0.0123816
1878	0.0118863
1890	0.013207
1902	0.0153945
1914	0.0151881
1926	0.0143214
1938	0.0144039
1950	0.0101529
1962	0.00895602
1974	0.00891475
1986	0.00800677
1998	0.00887348
2010	0.00895602
2022	0.00846076
2034	0.00837822
2046	0.00829567
2058	0.0089973
2070	0.00912111
2082	0.00870839
2094	0.00883221
2106	0.00850203
2118	0.0085433
2130	0.00887348
2142	0.00858458
2154	0.00841949
2166	0.00784168
2178	0.00759405
2190	0.00775914
2202	0.00767659
2214	0.00792422
2226	0.00788295
2238	0.00780041
2250	0.00821313
2262	0.00841949
2274	0.00817186
2286	0.00912111
2298	0.0109371
2310	0.0104005
2322	0.00800677
2334	0.00726387
2346	0.00734642
2358	0.00614953
2370	0.00974019
2382	0.0109371
2394	0.00755278
2406	0.00685115
2418	0.00652098
2430	0.00685115
2442	0.00718133
2454	0.00780041
2466	0.00742896
2478	0.00850203
2490	0.00846076
2502	0.00800677
2514	0.00804804
2526	0.00771786
2538	0.00763532
2550	0.00714006
2562	0.00685115
2574	0.00808931
2586	0.00788295
2598	0.00705751
2610	0.00697497
2622	0.00775914
2634	0.00656225
2646	0.00788295
2658	0.0069337
2670	0.00837822
2682	0.00784168
2694	0.00742896
2706	0.00813058
2718	0.0082544
2730	0.0079655
2742	0.00829567
2754	0.00804804
2766	0.0092862
2778	0.00924493
2790	0.00866712
2802	0.00870839
2814	0.00891475
2826	0.00912111
2838	0.00850203
2850	0.00924493
2862	0.012753
2874	0.0125467
2886	0.0118863
2898	0.0121752
2910	0.0125467
2922	0.0158484
2934	0.0175406
2946	0.0161786
2958	0.0138674
2970	0.0134547
2982	0.0122991
2994	0.0124229
3006	0.013207
3018	0.0156421
3030	0.0185724
3042	0.0219567
3054	0.0263315
3066	0.0302936
3078	0.040364
3090	0.0292206
3102	0.0203884
3114	0.0111847
3126	0.0089973
3138	0.00953383
3150	0.00982274
3162	0.00874966
3174	0.00800677
3186	0.00887348
3198	0.00829567
3210	0.00767659
3222	0.0082544
3234	0.00747023
3246	0.0085433
3258	0.00759405
3270	0.00829567
3282	0.00916238
3294	0.00862585
3306	0.00792422
3318	0.00883221
3330	0.0104005
3342	0.0116387
3354	0.00895602
3366	0.00916238
3378	0.0113498
3390	0.00961638
3402	0.0102767
3414	0.00932747
3426	0.00759405
3438	0.00829567
3450	0.00804804
3462	0.00887348
3474	0.00920366
3486	0.00936874
3498	0.00994655
3510	0.00916238
3522	0.0115562
3534	0.010772
3546	0.0120514
3558	0.0134547
3570	0.0351637
3582	0.179162
3594	0.125549
3606	0.0153945
3618	0.0106482
3630	0.0106482
3642	0.0115974
3654	0.0158897
3666	0.0128356
3678	0.0106894
3690	0.0123403
3702	0.00949256
3714	0.0120514
3726	0.0136198
3738	0.00932747
3750	0.0137023
3762	0.0106894
3774	0.0109784
3786	0.0125054
3798	0.0138261
3810	0.0095751
3822	0.0095751
3834	0.0109784
3846	0.013207
3858	0.0156421
3870	0.0111022
3882	0.0164675
3894	0.0141976
3906	0.0172104
3918	0.0125054
3930	0.0144452
3942	0.016839
3954	0.0167977
3966	0.00912111
