Infrared Spectrum: 1,2-Benzenedithiol, 4-methyl-
Formula: C 7 H 8 S 2
CAS: 496-74-2
Origin: Sadtler Research Labs Under US-EPA Contract
1/CM	ABSORBANCE
450	0.0346482
462	0.0314983
474	0.0357168
486	0.0334107
498	0.0379105
510	0.0462913
522	0.00539971
534	0.0587219
546	0.0779583
558	0.0451101
570	0.0389229
582	0.0431977
594	0.0420165
606	0.0366168
618	0.0383605
630	0.0456726
642	0.0347044
654	0.0315546
666	0.0363918
678	0.0671027
690	0.0911764
702	0.0539409
714	0.0402166
726	0.064684
738	0.0448851
750	0.0458413
762	0.051466
774	0.0621529
786	0.123856
798	0.318696
810	0.301428
822	0.117444
834	0.0769459
846	0.084933
858	0.126612
870	0.159741
882	0.0984322
894	0.0551221
906	0.0485412
918	0.0455038
930	0.0465725
942	0.0535471
954	0.0435352
966	0.0504536
978	0.0874078
990	0.124587
1002	0.110244
1014	0.120087
1026	0.126837
1038	0.202827
1050	0.183646
1062	0.11075
1074	0.105744
1086	0.101751
1098	0.0985447
1110	0.1148
1122	0.215482
1134	0.207776
1146	0.120425
1158	0.0796458
1170	0.0585531
1182	0.0495536
1194	0.04736
1206	0.0597343
1218	0.0412291
1230	0.0326233
1242	0.060128
1254	0.123012
1266	0.184828
1278	0.134037
1290	0.0734586
1302	0.0556845
1314	0.0487661
1326	0.0482037
1338	0.0535471
1350	0.0592281
1362	0.0720524
1374	0.114575
1386	0.160585
1398	0.143486
1410	0.11795
1422	0.101301
1434	0.0823456
1446	0.113675
1458	0.351206
1470	0.54824
1482	0.196302
1494	0.109513
1506	0.0789708
1518	0.0599593
1530	0.0570345
1542	0.0604655
1554	0.0559658
1566	0.0470225
1578	0.0542784
1590	0.131168
1602	0.102313
1614	0.0312733
1626	0.0250862
1638	0.0218238
1650	0.0174928
1662	0.0169866
1674	0.0172678
1686	0.0172678
1698	0.0205864
1710	0.0310483
1722	0.037123
1734	0.0357731
1746	0.0376292
1758	0.0241862
1770	0.0191802
1782	0.0167054
1794	0.0151867
1806	0.0170428
1818	0.0176053
1830	0.0144555
1842	0.0136118
1854	0.014343
1866	0.0163679
1878	0.0238487
1890	0.0275048
1902	0.0194052
1914	0.0137243
1926	0.0118681
1938	0.0107432
1950	0.00995572
1962	0.0101245
1974	0.0103494
1986	0.0109682
1998	0.0114181
2010	0.0118681
2022	0.0110244
2034	0.00978698
2046	0.00950574
2058	0.00916826
2070	0.009337
2082	0.00922451
2094	0.00899952
2106	0.00832456
2118	0.0083808
2130	0.00821206
2142	0.00832456
2154	0.00854954
2166	0.00798707
2178	0.00804332
2190	0.0075371
2202	0.0075371
2214	0.00736836
2226	0.00776209
2238	0.00770584
2250	0.00843705
2262	0.00826831
2274	0.00719962
2286	0.00770584
2298	0.0084933
2310	0.00781833
2322	0.0065809
2334	0.00523097
2346	0.00517472
2358	0.00680589
2370	0.00686213
2382	0.00916826
2394	0.00860579
2406	0.00759334
2418	0.00759334
2430	0.00703087
2442	0.00669339
2454	0.00759334
2466	0.00843705
2478	0.0107432
2490	0.0112494
2502	0.00978698
2514	0.00989947
2526	0.0111932
2538	0.0112494
2550	0.0158054
2562	0.0437602
2574	0.0577094
2586	0.0352106
2598	0.0157492
2610	0.00596218
2622	0.00551221
2634	0.00832456
2646	0.0084933
2658	0.00399354
2670	0.00168741
2682	0.000843705
2694	0.000506223
2706	0.000281235
2718	0.000337482
2730	0.0028686
2742	0.00950574
2754	0.00854954
2766	0.0019124
2778	0.00208114
2790	0.00106869
2802	0.00140617
2814	0.00129368
2826	0.00410603
2838	0.0104619
2850	0.0232863
2862	0.052366
2874	0.088589
2886	0.09427
2898	0.085158
2910	0.0834143
2922	0.127399
2934	0.23635
2946	0.173297
2958	0.0812207
2970	0.0613655
2982	0.0581594
2994	0.0738523
3006	0.0994447
3018	0.120256
3030	0.122618
3042	0.130662
3054	0.164916
3066	0.115419
3078	0.0779583
3090	0.0466288
3102	0.0177741
3114	0.00888703
3126	0.00539971
3138	0.00326233
3150	0.00247487
3162	0.00163116
3174	0.000393729
3186	0.000449976
3198	5.6247e-05
3210	0.000674964
3222	0.000449976
3234	0.000337482
3246	0.000899952
3258	0.000899952
3270	0.000281235
3282	0.00123743
3294	0.00140617
3306	0.000674964
3318	0.00056247
3330	0.000956199
3342	0.00129368
3354	0.00174366
3366	0.00196864
3378	0.00258736
3390	0.00157492
3402	0.00213739
3414	0.00320608
3426	0.00281235
3438	0.00438727
3450	0.0065809
3462	0.00871828
3474	0.00787458
3486	0.00725586
3498	0.00421852
3510	0.00404978
3522	0.00196864
3534	0.0019124
3546	0.00140617
3558	0.0019124
3570	0.00157492
3582	0.00151867
3594	0.000787458
3606	0.000449976
3618	0.00174366
3630	0.00163116
3642	0.00146242
3654	0.00112494
3666	0.00163116
3678	0.00185615
3690	0.00174366
3702	0.00241862
3714	0.00331857
3726	0.00264361
3738	0.00247487
3750	0.00123743
3762	0.00168741
3774	0.0019124
3786	0.00123743
3798	0.000112494
3810	0.000112494
3822	0.000112494
3834	0.000843705
3846	0.000281235
3858	0.00112494
3870	0.000843705
3882	0
3894	0.000956199
3906	0.000618717
3918	0.00298109
3930	0.00112494
3942	0.000112494
3954	0.00168741
3966	0
