Infrared Spectrum: Phenol, 2,4,5-trimethyl-
Formula: C 9 H 12 O
CAS: 496-78-6
Origin: Sadtler Research Labs Under US-EPA Contract
1/CM	ABSORBANCE
450	0.041624
462	0.0189795
474	0.00658828
486	0.00676281
498	0.0165361
510	0.0140492
522	0.00955519
534	0.0201139
546	0.0287965
558	0.0236916
570	0.0181069
582	0.0115186
594	0.00868257
606	0.00589019
618	0.00340322
630	0.00440673
642	0.00484304
654	0.00693733
666	0.0233862
678	0.0404023
690	0.0157944
702	0.010166
714	0.00711185
726	0.00807174
738	0.0147473
750	0.00811537
762	0.0049303
774	0.00702459
786	0.0133511
798	0.0300618
810	0.0459871
822	0.0457689
834	0.0560658
846	0.0510483
858	0.0709004
870	0.126617
882	0.0717294
894	0.0233862
906	0.0143546
918	0.0140492
930	0.0118676
942	0.0137001
954	0.017496
966	0.0250878
978	0.039966
990	0.0697223
1002	0.0907525
1014	0.0637013
1026	0.0420167
1038	0.0359083
1050	0.0642248
1062	0.113092
1074	0.242108
1086	0.214534
1098	0.0508737
1110	0.0385698
1122	0.0626105
1134	0.110386
1146	0.153537
1158	0.284212
1170	0.326709
1182	0.257772
1194	0.290713
1206	0.237396
1218	0.289099
1230	0.259866
1242	0.109427
1254	0.0753507
1266	0.160344
1278	0.327189
1290	0.287834
1302	0.139183
1314	0.0751762
1326	0.0397478
1338	0.0277929
1350	0.0291019
1362	0.0339449
1374	0.05912
1386	0.0761797
1398	0.110299
1410	0.143066
1422	0.0997405
1434	0.080761
1446	0.119854
1458	0.180109
1470	0.183599
1482	0.133729
1494	0.182552
1506	0.385174
1518	0.340889
1530	0.0977334
1542	0.0615633
1554	0.0700714
1566	0.0803683
1578	0.0983006
1590	0.0952465
1602	0.0640503
1614	0.0561967
1626	0.0781431
1638	0.0553677
1650	0.0215101
1662	0.0150963
1674	0.0109078
1686	0.00584655
1698	0.00453762
1710	0.013482
1722	0.0170161
1734	0.0161435
1746	0.0137874
1758	0.0092934
1770	0.0056284
1782	0.00296691
1794	0.00200703
1806	0.00283602
1818	0.00274875
1830	0.00104714
1842	0.00113441
1854	0.00274875
1866	0.00218155
1878	0.00375227
1890	0.00488667
1902	0.00453762
1914	0.00327233
1926	0.00266149
1938	0.00248697
1950	0.00178887
1962	0.00178887
1974	0.00148345
1986	0.00139619
1998	0.00104714
2010	0.00191976
2022	0.00152709
2034	0.00100351
2046	0.00139619
2058	0.00205066
2070	0.00191976
2082	0.00257423
2094	0.00231244
2106	0.00174524
2118	0.00122167
2130	0.000828989
2142	0.000741727
2154	0.000828989
2166	0.000349048
2178	0.000523572
2190	0.000959882
2202	0.000785358
2214	0.000741727
2226	0.000828989
2238	0.00143982
2250	0.00209429
2262	0.00178887
2274	0.00178887
2286	0.00305417
2298	0.00445036
2310	0.00449399
2322	0.00305417
2334	0.00266149
2346	0.00301054
2358	0.00497393
2370	0.00244334
2382	0.00357774
2394	0.00331596
2406	0.00340322
2418	0.00388316
2430	0.00445036
2442	0.0049303
2454	0.00580292
2466	0.00685007
2478	0.00702459
2490	0.00584655
2502	0.00418858
2514	0.00274875
2526	0.00235607
2538	0.00139619
2550	0.00161435
2562	0.00222518
2574	0.00222518
2586	0.00274875
2598	0.00318506
2610	0.00226881
2622	0.00239971
2634	0.00191976
2646	0.00222518
2658	0.00296691
2670	0.00362137
2682	0.00440673
2694	0.00488667
2706	0.00593382
2718	0.00680644
2730	0.011824
2742	0.0189795
2754	0.0149654
2766	0.0123912
2778	0.013002
2790	0.0123039
2802	0.0144855
2814	0.0182814
2826	0.0260913
2838	0.0393552
2850	0.0687625
2862	0.131198
2874	0.214795
2886	0.220118
2898	0.190493
2910	0.199961
2922	0.274526
2934	0.420777
2946	0.354502
2958	0.227667
2970	0.215232
2982	0.200397
2994	0.158337
3006	0.188355
3018	0.214403
3030	0.145858
3042	0.0852113
3054	0.0705513
3066	0.0554114
3078	0.0390497
3090	0.0277057
3102	0.019983
3114	0.0165798
3126	0.0147909
3138	0.0139183
3150	0.00907525
3162	0.00449399
3174	0.00335959
3186	0.00218155
3198	0.00235607
3210	0.00187613
3222	0.00174524
3234	0.00165798
3246	0.00174524
3258	0.00152709
3270	0.00222518
3282	0.0018325
3294	0.00205066
3306	0.00261786
3318	0.0019634
3330	0.00239971
3342	0.00349048
3354	0.00383953
3366	0.00479941
3378	0.00501757
3390	0.00458126
3402	0.00449399
3414	0.00501757
3426	0.00479941
3438	0.00445036
3450	0.0030978
3462	0.00174524
3474	0.00244334
3486	0.00222518
3498	0.00205066
3510	0.00248697
3522	0.00239971
3534	0.00213792
3546	0.00541024
3558	0.00990424
3570	0.00283602
3582	0.00602108
3594	0.00479941
3606	0.00702459
3618	0.0107332
3630	0.0267894
3642	0.1651
3654	0.291935
3666	0.157857
3678	0.0124348
3690	0.00231244
3702	0.00274875
3714	0
3726	0.00205066
3738	4.3631e-05
3750	0.000392679
3762	0.00414495
3774	0.0019634
3786	0.000174524
3798	0.00130893
3810	0.0012653
3822	0.00458126
3834	0.00314143
3846	0.0043631
3858	0.00235607
3870	0.00501757
3882	0.00484304
3894	0.0043631
3906	0.00239971
3918	0.0050612
3930	0.00431947
3942	0.00541024
3954	0.00475578
3966	0.00397042
