Infrared Spectrum: Valeric acid, 2-bromo-4-methyl-,
Formula: C 6 H 11 Br O 2
CAS: 49628-52-6
Origin: Sadtler Research Labs Under US-EPA Contract
1/CM	ABSORBANCE
450	0.0334238
462	0.004555
474	0.00313925
486	0.00787891
498	0.0209284
510	0.0230827
522	0.0365015
534	0.0509052
546	0.076327
558	0.102611
570	0.0890686
582	0.0921463
594	0.10218
606	0.105934
618	0.121815
630	0.137204
642	0.11726
654	0.0864218
666	0.0676478
678	0.0448113
690	0.0204359
702	0.0133572
714	0.0148961
726	0.0173582
738	0.0108335
750	0.0124955
762	0.0190817
774	0.0127417
786	0.0134803
798	0.0155732
810	0.0174813
822	0.0110182
834	0.00646317
846	0.00664783
858	0.00406256
870	0.0141574
882	0.0220979
894	0.0100333
906	0.0168042
918	0.019328
930	0.0156347
942	0.0140343
954	0.011449
966	0.00966398
978	0.00978709
990	0.00978709
1002	0.00824824
1014	0.012003
1026	0.0206206
1038	0.0298537
1050	0.0303461
1062	0.0339778
1074	0.0497972
1086	0.110674
1098	0.282471
1110	0.334361
1122	0.230458
1134	0.201959
1146	0.162872
1158	0.163734
1170	0.15647
1182	0.110428
1194	0.0763885
1206	0.0469657
1218	0.0380404
1230	0.0498587
1242	0.0568759
1254	0.0573683
1266	0.057553
1278	0.0492432
1290	0.05189
1302	0.0592149
1314	0.0606922
1326	0.0753421
1338	0.0890071
1350	0.0796509
1362	0.0728184
1374	0.0887609
1386	0.0915924
1398	0.0708487
1410	0.0264067
1422	0.0206821
1434	0.0260989
1446	0.0319465
1458	0.0391483
1470	0.058661
1482	0.0357629
1494	0.0136034
1506	0.00966398
1518	0.00886378
1530	0.00707871
1542	0.00720182
1554	0.00510898
1566	0.00443189
1578	0.0061554
1590	0.00486277
1602	0.00430878
1614	0.00689405
1626	0.00652472
1638	0.00621695
1650	0.00627851
1662	0.00726337
1674	0.00750959
1686	0.00867911
1698	0.0119415
1710	0.017666
1722	0.0331776
1734	0.0608769
1746	0.0870989
1758	0.155916
1770	0.422691
1782	0.61554
1794	0.260927
1806	0.108212
1818	0.0701716
1830	0.038779
1842	0.0180353
1854	0.00972553
1866	0.00714026
1878	0.00480121
1890	0.00492432
1902	0.00412412
1914	0.00301615
1926	0.00289304
1938	0.00283148
1950	0.00233905
1962	0.00246216
1974	0.00178507
1986	0.00184662
1998	0.00209284
2010	0.00190817
2022	0.00190817
2034	0.00196973
2046	0.00203128
2058	0.00123108
2070	0.00061554
2082	0.00135419
2094	0.000738648
2106	0.000430878
2118	0.000123108
2130	0.000246216
2142	0.00030777
2154	0.00061554
2166	0.000184662
2178	0.000553986
2190	0.00110797
2202	0.00172351
2214	0.00141574
2226	0.00104642
2238	0.000861756
2250	0.00061554
2262	0.000430878
2274	0.00061554
2286	0.00135419
2298	0.00184662
2310	0.00190817
2322	0.00178507
2334	0.00092331
2346	0
2358	0.00184662
2370	0.00061554
2382	0.00166196
2394	0.00129263
2406	0.00166196
2418	0.00153885
2430	0.00153885
2442	0.00196973
2454	0.00203128
2466	0.00221594
2478	0.00215439
2490	0.00221594
2502	0.00196973
2514	0.00190817
2526	0.00178507
2538	0.00184662
2550	0.00166196
2562	0.0014773
2574	0.00209284
2586	0.00196973
2598	0.00190817
2610	0.00203128
2622	0.0022775
2634	0.00258527
2646	0.00258527
2658	0.0022775
2670	0.00246216
2682	0.00264682
2694	0.00295459
2706	0.00289304
2718	0.00332392
2730	0.00480121
2742	0.00578608
2754	0.00523209
2766	0.00400101
2778	0.00486277
2790	0.00510898
2802	0.00578608
2814	0.00750959
2826	0.00997175
2838	0.0132341
2850	0.0184662
2862	0.0243138
2874	0.0583532
2886	0.101256
2898	0.0712795
2910	0.070664
2922	0.084883
2934	0.112336
2946	0.136157
2958	0.171736
2970	0.364461
2982	0.165457
2994	0.040441
3006	0.0240061
3018	0.0156347
3030	0.00935621
3042	0.00738648
3054	0.00750959
3066	0.00683249
3078	0.00640162
3090	0.00560141
3102	0.00547831
3114	0.00498587
3126	0.00566297
3138	0.00578608
3150	0.00498587
3162	0.00572452
3174	0.00634006
3186	0.00677094
3198	0.00609385
3210	0.00492432
3222	0.00412412
3234	0.00246216
3246	0.00393946
3258	0.00283148
3270	0.00320081
3282	0.00258527
3294	0.00313925
3306	0.00283148
3318	0.00246216
3330	0.00246216
3342	0.00289304
3354	0.00264682
3366	0.00166196
3378	0.00326236
3390	0.00264682
3402	0.00166196
3414	0.00110797
3426	0.00123108
3438	0.00215439
3450	0.00233905
3462	0.0022775
3474	0.00215439
3486	0.00486277
3498	0.00997175
3510	0.0124339
3522	0.0111413
3534	0.0115722
3546	0.012003
3558	0.0208053
3570	0.172043
3582	0.283518
3594	0.0518285
3606	0.0077558
3618	0.00880222
3630	0.00461655
3642	0.00252371
3654	0.00510898
3666	0.00203128
3678	0.00677094
3690	0.00504743
3702	0.00289304
3714	0.00547831
3726	0.00646317
3738	0.00898688
3750	0.00658628
3762	0.00332392
3774	0.0030777
3786	0.00473966
3798	0.00609385
3810	0.00449344
3822	0.00541675
3834	0.00510898
3846	0.00406256
3858	0.00683249
3870	0.00627851
3882	0.00812513
3894	0.00726337
3906	0.00738648
3918	0.00609385
3930	0.00646317
3942	0.00640162
3954	0.00646317
3966	0.00166196
