Infrared Spectrum: Phosphonic acid, phenyl-, diisopropyl ester
Formula: C 22 H 39 O 3 P
CAS: 49637-59-4
Origin: Sadtler Research Labs Under US-EPA Contract
1/CM	ABSORBANCE
450	0.0315524
462	0.0391933
474	0.0489018
486	0.0718245
498	0.0808138
510	0.11722
522	0.146705
534	0.17601
546	0.18464
558	0.256734
570	0.215384
582	0.0878255
594	0.0300243
606	0.0179786
618	0.0145627
630	0.00844994
642	0.0130345
654	0.0129446
666	0.0284062
678	0.0418002
690	0.151739
702	0.153447
714	0.0951967
726	0.088185
738	0.171516
750	0.214035
762	0.12639
774	0.11803
786	0.114524
798	0.119648
810	0.138076
822	0.136547
834	0.13448
846	0.128637
858	0.119198
870	0.103017
882	0.100051
894	0.112097
906	0.126749
918	0.122165
930	0.143379
942	0.193989
954	0.267611
966	0.384113
978	0.586192
990	0.728852
1002	0.765169
1014	0.733077
1026	0.67186
1038	0.590957
1050	0.567225
1062	0.545021
1074	0.399844
1086	0.210799
1098	0.126749
1110	0.118479
1122	0.264285
1134	0.379348
1146	0.118479
1158	0.0864771
1170	0.0635544
1182	0.0533065
1194	0.0456656
1206	0.0516885
1218	0.0691277
1230	0.0998711
1242	0.20199
1254	0.430767
1266	0.442633
1278	0.309142
1290	0.148773
1302	0.0820723
1314	0.0534863
1326	0.0418901
1338	0.0415306
1350	0.0442274
1362	0.0724538
1374	0.114164
1386	0.165313
1398	0.0776676
1410	0.041171
1422	0.0497108
1434	0.110029
1446	0.128277
1458	0.182393
1470	0.189315
1482	0.0917808
1494	0.0401822
1506	0.0306535
1518	0.0195068
1530	0.0121356
1542	0.01681
1554	0.0138435
1566	0.0107872
1578	0.0150121
1590	0.027687
1602	0.0174392
1614	0.0102478
1626	0.00818026
1638	0.00818026
1650	0.00907919
1662	0.00880951
1674	0.0131244
1686	0.0157313
1698	0.0151919
1710	0.0153717
1722	0.0168999
1734	0.0183382
1746	0.0175291
1758	0.0197765
1770	0.0202259
1782	0.0200461
1794	0.0167201
1806	0.0204956
1818	0.0239115
1830	0.0204057
1842	0.0188775
1854	0.017619
1866	0.0122254
1878	0.0147425
1890	0.0182483
1902	0.0183382
1914	0.015102
1926	0.0121356
1938	0.0115063
1950	0.0122254
1962	0.0159111
1974	0.0147425
1986	0.0106973
1998	0.00871962
2010	0.00961855
2022	0.00800048
2034	0.00853984
2046	0.00656219
2058	0.00746112
2070	0.00943877
2082	0.00557337
2094	0.00818026
2106	0.00827016
2118	0.0051239
2130	0.010068
2142	0.00746112
2154	0.00539358
2166	0.010068
2178	0.00961855
2190	0.00997812
2202	0.00988823
2214	0.00737123
2226	0.00880951
2238	0.0089893
2250	0.00889941
2262	0.011776
2274	0.0101579
2286	0.0128547
2298	0.0143829
2310	0.0213945
2322	0.0264285
2334	0.0240014
2346	0.0262488
2358	0.02517
2370	0.0267881
2382	0.0163605
2394	0.00710155
2406	0.00755101
2418	0.00611272
2430	0.00800048
2442	0.00692176
2454	0.00575315
2466	0.00530369
2478	0.00431486
2490	0.00665208
2502	0.00620262
2514	0.00521379
2526	0.00665208
2538	0.00943877
2550	0.00818026
2562	0.0113265
2574	0.00844994
2586	0.00844994
2598	0.0115063
2610	0.0149222
2622	0.0146526
2634	0.0129446
2646	0.012585
2658	0.0159111
2670	0.0142031
2682	0.0151919
2694	0.0160908
2706	0.0184281
2718	0.0245408
2730	0.0259791
2742	0.0252599
2754	0.0259791
2766	0.0252599
2778	0.0266083
2790	0.0316423
2802	0.0370359
2814	0.0463848
2826	0.065532
2838	0.106793
2850	0.188685
2862	0.282084
2874	0.393731
2886	0.397507
2898	0.423756
2910	0.505019
2922	0.573338
2934	0.639229
2946	0.631049
2958	0.834836
2970	0.803643
2982	0.341054
2994	0.137446
3006	0.0782069
3018	0.0609475
3030	0.0518683
3042	0.0489018
3054	0.0586102
3066	0.080634
3078	0.0614868
3090	0.0433284
3102	0.0274174
3114	0.0214844
3126	0.0167201
3138	0.0158212
3150	0.0160908
3162	0.0132143
3174	0.0133042
3186	0.0101579
3198	0.00997812
3210	0.00827016
3222	0.00413508
3234	0.00521379
3246	0.00368561
3258	0.00431486
3270	0.00341593
3282	0.00107872
3294	0.00188775
3306	0.00296647
3318	0.00359572
3330	0.00224733
3342	0.00413508
3354	0.00287658
3366	0.00521379
3378	0.00494411
3390	0.00359572
3402	0.00476433
3414	0.00404518
3426	0.00548347
3438	0.00422497
3450	0.00809037
3462	0.00710155
3474	0.00692176
3486	0.00656219
3498	0.00413508
3510	0.0051239
3522	0.00683187
3534	0.00710155
3546	0.0064723
3558	0.00809037
3570	0.00907919
3582	0.0103377
3594	0.00952866
3606	0.0116861
3618	0.0077308
3630	0.0131244
3642	0.00791058
3654	0.010068
3666	0.00943877
3678	0.0111467
3690	0.0127648
3702	0.0131244
3714	0.0119558
3726	0.0140233
3738	0.0162706
3750	0.0162706
3762	0.0136637
3774	0.0149222
3786	0.0144728
3798	0.0140233
3810	0.0178887
3822	0.0175291
3834	0.0186977
3846	0.0169898
3858	0.0195967
3870	0.021035
3882	0.0204956
3894	0.0194169
3906	0.0222935
3918	0.0222935
3930	0.021035
3942	0.0225631
3954	0.0128547
3966	0.0139334
