Infrared Spectrum: 2-Norbornene
Formula: C 7 H 10
CAS: 498-66-8
Origin: Sadtler Research Labs Under US-EPA Contract
1/CM	ABSORBANCE
450	0
462	0.0147197
474	0.0292349
486	0.023715
498	0.0139019
510	0.0192174
522	0.0198307
534	0.0220795
546	0.0278038
558	0.0239195
570	0.0198307
582	0.0259639
594	0.0241239
606	0.0269861
618	0.0278038
630	0.0226928
642	0.0259639
654	0.0265772
666	0.0233062
678	0.0435457
690	0.225702
702	0.254528
714	0.230404
726	0.291531
738	0.0570388
750	0.0314838
762	0.0259639
774	0.0210573
786	0.022284
798	0.0241239
810	0.0316882
822	0.0353681
834	0.0474301
846	0.0312793
858	0.0451812
870	0.0932246
882	0.0805494
894	0.0727806
906	0.0858648
918	0.0517233
930	0.0267816
942	0.022284
954	0.0241239
966	0.0231017
978	0.0147197
990	0.0124708
1002	0.017173
1014	0.0194218
1026	0.025555
1038	0.0263728
1050	0.0169685
1062	0.0149241
1074	0.020444
1086	0.0275994
1098	0.032506
1110	0.0466123
1122	0.0488612
1134	0.0396614
1146	0.0353681
1158	0.0179907
1170	0.0181952
1182	0.0163552
1194	0.0141064
1206	0.0147197
1218	0.0165596
1230	0.0179907
1242	0.027395
1254	0.0486567
1266	0.0513144
1278	0.0431368
1290	0.033937
1302	0.0280083
1314	0.0331193
1326	0.0922024
1338	0.177249
1350	0.0962912
1362	0.0333237
1374	0.0139019
1386	0.0159463
1398	0.017173
1410	0.0169685
1422	0.0231017
1434	0.0488612
1446	0.0560166
1458	0.0488612
1470	0.0515189
1482	0.0235106
1494	0.0173774
1506	0.0145152
1518	0.0114486
1530	0.00960868
1542	0.0112442
1554	0.0228973
1566	0.033937
1578	0.0370036
1590	0.0361859
1602	0.0388436
1614	0.0502922
1626	0.0402747
1638	0.0235106
1650	0.0175818
1662	0.0118575
1674	0.0124708
1686	0.0136975
1698	0.0139019
1710	0.0155374
1722	0.0147197
1734	0.0157419
1746	0.0159463
1758	0.0143108
1770	0.0132886
1782	0.0122664
1794	0.013493
1806	0.0151286
1818	0.013493
1830	0.0124708
1842	0.0132886
1854	0.0132886
1866	0.0128797
1878	0.0122664
1890	0.0114486
1902	0.0112442
1914	0.0114486
1926	0.012062
1938	0.012062
1950	0.0114486
1962	0.0108353
1974	0.0110398
1986	0.0112442
1998	0.0116531
2010	0.0116531
2022	0.0118575
2034	0.0143108
2046	0.0190129
2058	0.0198307
2070	0.0167641
2082	0.0159463
2094	0.0159463
2106	0.0145152
2118	0.0139019
2130	0.0136975
2142	0.0139019
2154	0.0143108
2166	0.0161508
2178	0.0169685
2190	0.017173
2202	0.0183996
2214	0.0163552
2226	0.0145152
2238	0.0139019
2250	0.0128797
2262	0.0124708
2274	0.0126753
2286	0.0147197
2298	0.0161508
2310	0.017173
2322	0.0155374
2334	0.0124708
2346	0.013493
2358	0.0122664
2370	0.013493
2382	0.013493
2394	0.0108353
2406	0.0110398
2418	0.0108353
2430	0.0100176
2442	0.0100176
2454	0.00981312
2466	0.0104264
2478	0.0104264
2490	0.010222
2502	0.0108353
2514	0.0100176
2526	0.010222
2538	0.0114486
2550	0.0114486
2562	0.0108353
2574	0.0108353
2586	0.0110398
2598	0.0110398
2610	0.0114486
2622	0.0108353
2634	0.0104264
2646	0.0100176
2658	0.00899536
2670	0.00879092
2682	0.00960868
2694	0.00981312
2706	0.0118575
2718	0.0116531
2730	0.0124708
2742	0.0128797
2754	0.0122664
2766	0.012062
2778	0.0114486
2790	0.0104264
2802	0.0118575
2814	0.0132886
2826	0.0149241
2838	0.0261683
2850	0.0590832
2862	0.215889
2874	0.430346
2886	0.504149
2898	0.345299
2910	0.265363
2922	0.326695
2934	0.466123
2946	0.778508
2958	1.372
2970	2.0444
2982	1.79498
2994	0.977223
3006	0.292963
3018	0.0412969
3030	0.0282127
3042	0.0621498
3054	0.185223
3066	0.280696
3078	0.206076
3090	0.121642
3102	0.0267816
3114	0.0220795
3126	0.0308704
3138	0.0378214
3150	0.0333237
3162	0.0228973
3174	0.0139019
3186	0.0126753
3198	0.0167641
3210	0.0173774
3222	0.0169685
3234	0.0136975
3246	0.010222
3258	0.0091998
3270	0.00940424
3282	0.00940424
3294	0.0100176
3306	0.00960868
3318	0.0110398
3330	0.012062
3342	0.0132886
3354	0.0122664
3366	0.0114486
3378	0.0100176
3390	0.010222
3402	0.0114486
3414	0.012062
3426	0.0147197
3438	0.0157419
3450	0.0165596
3462	0.0136975
3474	0.0100176
3486	0.00960868
3498	0.00960868
3510	0.00899536
3522	0.00940424
3534	0.0091998
3546	0.010222
3558	0.00981312
3570	0.00960868
3582	0.0091998
3594	0.00981312
3606	0.00960868
3618	0.0100176
3630	0.00981312
3642	0.0108353
3654	0.010222
3666	0.0110398
3678	0.0112442
3690	0.00981312
3702	0.00940424
3714	0.0118575
3726	0.0141064
3738	0.0161508
3750	0.0175818
3762	0.0145152
3774	0.0122664
3786	0.0112442
3798	0.0104264
3810	0.0114486
3822	0.0110398
3834	0.0112442
3846	0.0124708
3858	0.0124708
3870	0.0114486
3882	0.0124708
3894	0.0104264
3906	0.00981312
3918	0.0100176
3930	0.0116531
3942	0.0108353
3954	0.00960868
3966	0.00981312
