Infrared Spectrum: Butanedioic acid, methyl-
Formula: C 5 H 8 O 4
CAS: 498-21-5
Origin: Sadtler Research Labs Under US-EPA Contract
1/CM	ABSORBANCE
450	0.0346994
462	0.0174157
474	0.0540942
486	0.0310052
498	0.0395811
510	0.037734
522	0.0521151
534	0.0624062
546	0.0862868
558	0.120986
570	0.149617
582	0.133916
594	0.117952
606	0.0895852
618	0.0699266
630	0.0600313
642	0.05858
654	0.0538303
666	0.0509277
678	0.0350952
690	0.0357549
702	0.0372062
714	0.0468376
726	0.0730931
738	0.0463099
750	0.0325884
762	0.0329842
774	0.0353591
786	0.0358869
798	0.0282345
810	0.0212419
822	0.0203183
834	0.0189989
846	0.0238806
858	0.0263874
870	0.0573926
882	0.120458
894	0.260839
906	0.344883
918	0.379451
930	0.300421
942	0.15054
954	0.0850994
966	0.0997444
978	0.219015
990	0.443704
1002	0.425761
1014	0.169011
1026	0.0734889
1038	0.0767873
1050	0.124417
1062	0.186955
1074	0.210044
1086	0.225612
1098	0.29699
1110	0.316253
1122	0.290393
1134	0.245667
1146	0.173101
1158	0.134048
1170	0.128243
1182	0.136555
1194	0.16347
1206	0.214925
1218	0.237882
1230	0.217828
1242	0.189066
1254	0.161623
1266	0.117556
1278	0.0852313
1290	0.0835161
1302	0.0759957
1314	0.0684753
1326	0.0596355
1338	0.0600313
1350	0.0548858
1362	0.0597675
1374	0.0645172
1386	0.0728292
1398	0.0661004
1410	0.0471015
1422	0.0567329
1434	0.0580523
1446	0.0513235
1458	0.0575245
1470	0.0555455
1482	0.0372062
1494	0.0228251
1506	0.0211099
1518	0.0199225
1530	0.0158324
1542	0.0176796
1554	0.0150408
1566	0.0134576
1578	0.0134576
1590	0.0109508
1602	0.0129298
1614	0.0150408
1626	0.0149089
1638	0.0155686
1650	0.0157005
1662	0.0130618
1674	0.0182073
1686	0.0222974
1698	0.022957
1710	0.0312691
1722	0.0441989
1734	0.0707182
1746	0.113598
1758	0.201732
1770	0.376812
1782	0.54767
1794	0.819197
1806	1.23625
1818	1.22543
1830	0.609549
1842	0.234848
1854	0.156741
1866	0.19619
1878	0.224821
1890	0.165977
1902	0.071246
1914	0.0331162
1926	0.0244083
1938	0.0197906
1950	0.0153047
1962	0.0145131
1974	0.0149089
1986	0.0151728
1998	0.0145131
2010	0.0135895
2022	0.0109508
2034	0.00976334
2046	0.0085759
2058	0.00831203
2070	0.00791622
2082	0.00778428
2094	0.00897172
2106	0.0085759
2118	0.00949946
2130	0.0116105
2142	0.0106869
2154	0.0116105
2166	0.0114785
2178	0.0120063
2190	0.012666
2202	0.0118743
2214	0.0110827
2226	0.0102911
2238	0.00831203
2250	0.00804816
2262	0.00699266
2274	0.00804816
2286	0.00923559
2298	0.0142492
2310	0.0170199
2322	0.014645
2334	0.00910365
2346	0.0149089
2358	0.012666
2370	0.00844397
2382	0.0106869
2394	0.00554135
2406	0.00514554
2418	0.00567329
2430	0.0060691
2442	0.00620104
2454	0.0060691
2466	0.00554135
2478	0.00409005
2490	0.00435392
2502	0.00422198
2514	0.00303455
2526	0.0035623
2538	0.00303455
2550	0.00329842
2562	0.00409005
2574	0.00382617
2586	0.00488167
2598	0.00448586
2610	0.00409005
2622	0.00448586
2634	0.00409005
2646	0.0046178
2658	0.00382617
2670	0.0046178
2682	0.00474973
2694	0.00593716
2706	0.00540942
2718	0.00488167
2730	0.00554135
2742	0.00580523
2754	0.00646491
2766	0.00580523
2778	0.00580523
2790	0.00620104
2802	0.00620104
2814	0.00686072
2826	0.00738847
2838	0.00897172
2850	0.00949946
2862	0.0109508
2874	0.0151728
2886	0.0258597
2898	0.0304774
2910	0.02929
2922	0.031401
2934	0.0438031
2946	0.0577884
2958	0.0530387
2970	0.0568648
2982	0.0818009
2994	0.0909046
3006	0.0562052
3018	0.0217696
3030	0.012666
3042	0.00989528
3054	0.0096314
3066	0.00883978
3078	0.00870784
3090	0.00818009
3102	0.00791622
3114	0.0096314
3126	0.00818009
3138	0.00804816
3150	0.00870784
3162	0.00870784
3174	0.00831203
3186	0.00791622
3198	0.00765235
3210	0.00844397
3222	0.00910365
3234	0.00844397
3246	0.00844397
3258	0.00831203
3270	0.00844397
3282	0.0085759
3294	0.0085759
3306	0.00844397
3318	0.0085759
3330	0.00818009
3342	0.00910365
3354	0.00791622
3366	0.00870784
3378	0.00883978
3390	0.00989528
3402	0.00897172
3414	0.00818009
3426	0.00804816
3438	0.00778428
3450	0.00791622
3462	0.00725653
3474	0.00725653
3486	0.00699266
3498	0.00738847
3510	0.00620104
3522	0.00686072
3534	0.00883978
3546	0.00976334
3558	0.0174157
3570	0.105945
3582	0.122965
3594	0.0282345
3606	0.00659685
3618	0.00514554
3630	0.00554135
3642	0.0102911
3654	0.0100272
3666	0.014645
3678	0.0154366
3690	0.00778428
3702	0.00725653
3714	0.00870784
3726	0.00831203
3738	0.0122701
3750	0.00818009
3762	0.00593716
3774	0.00422198
3786	0.00633298
3798	0.00659685
3810	0.00646491
3822	0.00923559
3834	0.0109508
3846	0.00738847
3858	0.00778428
3870	0.00897172
3882	0.012534
3894	0.00897172
3906	0.00936753
3918	0.010555
3930	0.00659685
3942	0.00290261
3954	0.0142492
3966	0.0120063
