Infrared Spectrum: 2-Butenedioic acid, 2-methyl-, (E)-
Formula: C 5 H 6 O 4
CAS: 498-24-8
Origin: Sadtler Research Labs Under US-EPA Contract
1/CM	ABSORBANCE
450	0.000776864
462	0.0108761
474	0.0139836
486	0.016526
498	0.0317102
510	0.0474593
522	0.0566404
534	0.0702709
546	0.0875738
558	0.119425
570	0.165896
582	0.214132
594	0.200502
606	0.1279
618	0.0598185
630	0.0309333
642	0.0223172
654	0.0169498
666	0.018221
678	0.0189272
690	0.0204103
702	0.0172323
714	0.0158198
726	0.0149017
738	0.0174441
750	0.0266959
762	0.0470356
774	0.0600304
786	0.0514143
798	0.0325577
810	0.0225997
822	0.0168791
834	0.0146898
846	0.0139836
858	0.0216816
870	0.0464706
882	0.0682228
894	0.0924468
906	0.0807232
918	0.0288852
930	0.0175854
942	0.0144073
954	0.0213991
966	0.0389844
978	0.0519793
990	0.0572054
1002	0.0620785
1014	0.052403
1026	0.0314277
1038	0.0238709
1050	0.0278259
1062	0.0377838
1074	0.0630672
1086	0.173876
1098	0.33045
1110	0.272679
1122	0.221406
1134	0.307779
1146	0.31922
1158	0.218793
1170	0.180515
1182	0.225997
1194	0.158833
1206	0.068364
1218	0.0639853
1230	0.0753558
1242	0.0804407
1254	0.0807232
1266	0.072319
1278	0.0663159
1290	0.0702709
1302	0.0713302
1314	0.0708359
1326	0.076627
1338	0.0781808
1350	0.0712596
1362	0.0894806
1374	0.0926587
1386	0.063491
1398	0.0434338
1410	0.0275434
1422	0.0214697
1434	0.0223878
1446	0.0233765
1458	0.0213284
1470	0.0151842
1482	0.0100286
1494	0.00861613
1506	0.00918112
1518	0.00889862
1530	0.00953424
1542	0.00953424
1554	0.00868675
1566	0.00762739
1578	0.00727427
1590	0.0073449
1602	0.00967549
1614	0.0115117
1626	0.0158904
1638	0.0366539
1650	0.0591829
1662	0.0400438
1674	0.0146898
1686	0.014266
1698	0.0235178
1710	0.04414
1722	0.0718246
1734	0.131078
1746	0.358134
1758	0.672905
1770	0.546983
1782	0.309192
1794	0.30559
1806	0.217381
1818	0.101628
1830	0.0486599
1842	0.0358064
1854	0.0406088
1866	0.0324164
1878	0.0131361
1890	0.00833363
1902	0.00614429
1914	0.0052968
1926	0.0050143
1938	0.00374307
1950	0.00346058
1962	0.00367245
1974	0.00331933
1986	0.00338995
1998	0.00402557
2010	0.00402557
2022	0.0038137
2034	0.00409619
2046	0.00367245
2058	0.0032487
2070	0.00346058
2082	0.00296621
2094	0.00303683
2106	0.00268371
2118	0.00268371
2130	0.0032487
2142	0.00289558
2154	0.00261309
2166	0.00282496
2178	0.0032487
2190	0.0035312
2202	0.00367245
2214	0.00360182
2226	0.00331933
2238	0.00310746
2250	0.00282496
2262	0.00289558
2274	0.0038137
2286	0.00579117
2298	0.0108761
2310	0.0144779
2322	0.0118648
2334	0.00918112
2346	0.0128536
2358	0.00974611
2370	0.00967549
2382	0.0103817
2394	0.00233059
2406	0.0020481
2418	0.00169498
2430	0.00183622
2442	0.00218934
2454	0.00225997
2466	0.00225997
2478	0.00190685
2490	0.0017656
2502	0.00183622
2514	0.0014831
2526	0.0014831
2538	0.00190685
2550	0.00183622
2562	0.00169498
2574	0.000776864
2586	0.000423744
2598	0.000423744
2610	0.000423744
2622	0.000494368
2634	0.000423744
2646	0.000282496
2658	0.000494368
2670	0.00070624
2682	0.00035312
2694	0.00035312
2706	0.000141248
2718	0.000564992
2730	0.000141248
2742	0.000494368
2754	0.000847488
2766	0.000847488
2778	0.00105936
2790	0.00105936
2802	0.000847488
2814	0.00134186
2826	0.00141248
2838	0.0017656
2850	0.00225997
2862	0.00360182
2874	0.00430806
2886	0.00430806
2898	0.00395494
2910	0.0038137
2922	0.00466118
2934	0.0085455
2946	0.0110173
2958	0.0101699
2970	0.0085455
2982	0.00783926
2994	0.00755677
3006	0.00670928
3018	0.00579117
3030	0.00451994
3042	0.00409619
3054	0.00437869
3066	0.00430806
3078	0.00451994
3090	0.00409619
3102	0.00331933
3114	0.00296621
3126	0.00261309
3138	0.00183622
3150	0.0017656
3162	0.00155373
3174	0.00127123
3186	0.00112998
3198	0.0014831
3210	0.00127123
3222	0.000847488
3234	0.00105936
3246	0.00127123
3258	0.000564992
3270	0.000635616
3282	0.00035312
3294	0.000918112
3306	0.000988736
3318	0.00070624
3330	0.000847488
3342	0.00070624
3354	0.000847488
3366	0.00070624
3378	0.000282496
3390	0.00070624
3402	0.000847488
3414	0.000423744
3426	0.000635616
3438	0.000918112
3450	0.000141248
3462	0.00035312
3474	0.00035312
3486	0.00183622
3498	0.00430806
3510	0.00466118
3522	0.0017656
3534	0.00211872
3546	0.00536742
3558	0.0238709
3570	0.16067
3582	0.270561
3594	0.0983086
3606	0.0113705
3618	0.00642678
3630	0.00833363
3642	0.00494368
3654	0.00261309
3666	0.000494368
3678	0.00120061
3690	0.000988736
3702	0.00240122
3714	0.000988736
3726	0.00183622
3738	0.0032487
3750	0.000847488
3762	7.0624e-05
3774	7.0624e-05
3786	7.0624e-05
3798	7.0624e-05
3810	7.0624e-05
3822	7.0624e-05
3834	7.0624e-05
3846	7.0624e-05
3858	0.000141248
3870	0.000494368
3882	0.000282496
3894	0.000282496
3906	0.000282496
3918	7.0624e-05
3930	7.0624e-05
3942	0.000564992
3954	7.0624e-05
3966	7.0624e-05
