Infrared Spectrum: Ethanone, 1-(4-hydroxy-3-methoxyphenyl)-
Formula: C 9 H 10 O 3
CAS: 498-02-2
Origin: Sadtler Research Labs Under US-EPA Contract
1/CM	ABSORBANCE
450	0.0154553
462	0.0508351
474	0.100925
486	0.0724353
498	0.0221589
510	0.00242072
522	0.00577248
534	0.0106139
546	0.0279314
558	0.0931045
570	0.175781
582	0.164236
594	0.0871458
606	0.0644283
618	0.0387315
630	0.0517661
642	0.0800699
654	0.0526971
666	0.0310969
678	0.044504
690	0.0348211
702	0.0245796
714	0.0331452
726	0.0225313
738	0.0251382
750	0.0335176
762	0.0515799
774	0.105581
786	0.225685
798	0.156229
810	0.137608
822	0.17243
834	0.101484
846	0.0681525
858	0.0683387
870	0.0973873
882	0.137236
894	0.0960838
906	0.0634973
918	0.0502764
930	0.0508351
942	0.0580972
954	0.071318
966	0.0752284
978	0.0787664
990	0.0716905
1002	0.0886355
1014	0.146174
1026	0.245982
1038	0.281548
1050	0.157533
1062	0.0968287
1074	0.104649
1086	0.0869596
1098	0.0904976
1110	0.140588
1122	0.25343
1134	0.240396
1146	0.162747
1158	0.205947
1170	0.297748
1182	0.338342
1194	0.543916
1206	1.01558
1218	0.985418
1230	0.36888
1242	0.260693
1254	0.468129
1266	0.919872
1278	1.86209
1290	1.01707
1302	0.274472
1314	0.133139
1326	0.104649
1338	0.107629
1350	0.224754
1362	0.376142
1374	0.309479
1386	0.243561
1398	0.153436
1410	0.180623
1422	0.422881
1434	0.468129
1446	0.18323
1458	0.201478
1470	0.230527
1482	0.161257
1494	0.224568
1506	0.684132
1518	0.521944
1530	0.129788
1542	0.0616352
1554	0.0648007
1566	0.0869596
1578	0.179878
1590	0.387687
1602	0.476509
1614	0.336107
1626	0.119732
1638	0.0515799
1650	0.053442
1662	0.0804423
1674	0.121222
1686	0.384149
1698	0.853768
1710	0.415805
1722	0.148595
1734	0.132581
1746	0.156602
1758	0.138539
1770	0.103532
1782	0.0795112
1794	0.0491592
1806	0.0344487
1818	0.0225313
1830	0.0126622
1842	0.0128484
1854	0.0188071
1866	0.0167588
1878	0.0122898
1890	0.00949666
1902	0.0126622
1914	0.011545
1926	0.0121036
1938	0.0106139
1950	0.0102415
1962	0.0102415
1974	0.00744836
1986	0.00763457
1998	0.00893803
2010	0.00931045
2022	0.00893803
2034	0.0122898
2046	0.016014
2058	0.0158278
2070	0.0162002
2082	0.0135933
2094	0.00931045
2106	0.00670352
2118	0.00446902
2130	0.00465522
2142	0.00260693
2154	0.0040966
2166	0.00372418
2178	0.00316555
2190	0.00297934
2202	0.00148967
2214	0.00353797
2226	0.00316555
2238	0.00484143
2250	0.00391039
2262	0.00316555
2274	0.00391039
2286	0.00595869
2298	0.00763457
2310	0.00502764
2322	0.00279313
2334	0.00111725
2346	0.00577248
2358	0.00297934
2370	0.0081932
2382	0.00986908
2394	0.00428281
2406	0.00353797
2418	0.0040966
2430	0.00391039
2442	0.00391039
2454	0.00372418
2466	0.00540006
2478	0.00875182
2490	0.0104277
2502	0.0102415
2514	0.00912424
2526	0.00856561
2538	0.0113587
2550	0.00875182
2562	0.00688973
2574	0.00651732
2586	0.00335176
2598	0.00279313
2610	0.00335176
2622	0.0040966
2634	0.00670352
2646	0.0083794
2658	0.00875182
2670	0.00726215
2682	0.00167588
2694	0.000372418
2706	0.000931045
2718	0.000744836
2730	0.00297934
2742	0.00353797
2754	0.0040966
2766	0.0061449
2778	0.00577248
2790	0.00688973
2802	0.0081932
2814	0.0137795
2826	0.0212278
2838	0.0357521
2850	0.0690835
2862	0.0754146
2874	0.053442
2886	0.0478557
2898	0.0525109
2910	0.0662904
2922	0.0923597
2934	0.111725
2946	0.139098
2958	0.158278
2970	0.139098
2982	0.095339
2994	0.0666628
3006	0.104836
3018	0.134257
3030	0.0547454
3042	0.0327728
3054	0.0368694
3066	0.0497178
3078	0.0754146
3090	0.0521385
3102	0.0262555
3114	0.0210416
3126	0.0176899
3138	0.0141519
3150	0.0108001
3162	0.00856561
3174	0.00744836
3186	0.0083794
3198	0.0083794
3210	0.00763457
3222	0.00521385
3234	0.00484143
3246	0.00577248
3258	0.00484143
3270	0.00391039
3282	0.00297934
3294	0.00167588
3306	0
3318	0.00279313
3330	0.00688973
3342	0.0100553
3354	0.0135933
3366	0.0188071
3378	0.0251382
3390	0.0227175
3402	0.0135933
3414	0.011545
3426	0.0152691
3438	0.0156416
3450	0.0143381
3462	0.0152691
3474	0.0165726
3486	0.0182485
3498	0.0201106
3510	0.0230899
3522	0.0253244
3534	0.0286762
3546	0.0441315
3558	0.098877
3570	0.362363
3582	0.514682
3594	0.189561
3606	0.0549317
3618	0.0413384
3630	0.0391039
3642	0.0426419
3654	0.0486005
3666	0.0333314
3678	0.0331452
3690	0.0344487
3702	0.0314693
3714	0.0331452
3726	0.0325866
3738	0.0400349
3750	0.0584696
3762	0.0428281
3774	0.0340762
3786	0.0320279
3798	0.0325866
3810	0.0318417
3822	0.0370556
3834	0.0314693
3846	0.0335176
3858	0.0370556
3870	0.0351935
3882	0.0363108
3894	0.0357521
3906	0.044504
3918	0.0370556
3930	0.032959
3942	0.0251382
3954	0.036497
3966	0.0420832
