Infrared Spectrum: 4-Hydroxy-3-hexanone
Formula: C 6 H 12 O 2
CAS: 4984-85-4
Origin: Sadtler Research Labs Under US-EPA Contract
1/CM	ABSORBANCE
450	0.00921847
462	0.00724811
474	0.00752959
486	0.0042222
498	0.00182962
510	0.00274443
522	0.00471479
534	0.00541849
546	0.00900736
558	0.00978143
570	0.0132296
582	0.0091481
594	0.0098518
606	0.00809255
618	0.00569997
630	0.00900736
642	0.00654441
654	0.0049259
666	0.00358887
678	0.00330739
690	0.0021111
702	0.00021111
714	0.00056296
726	0.00295554
738	0.00696663
750	0.0109074
762	0.00957032
774	0.00858514
786	0.00992217
798	0.00795181
810	0.00696663
822	0.00534812
834	0.00239258
846	0.00105555
858	0.0014074
870	0.00239258
882	0.0151999
894	0.0273739
906	0.0251221
918	0.0138629
930	0.014074
942	0.0420109
954	0.110481
966	0.192321
978	0.208506
990	0.152562
1002	0.0999254
1014	0.0824033
1026	0.124977
1038	0.167692
1050	0.160725
1062	0.172055
1074	0.18641
1086	0.181203
1098	0.266773
1110	0.393439
1122	0.336791
1134	0.21104
1146	0.157629
1158	0.128214
1170	0.109144
1182	0.0763515
1194	0.054396
1206	0.0506664
1218	0.0710737
1230	0.0990106
1242	0.108933
1254	0.134618
1266	0.138207
1278	0.090144
1290	0.0653737
1302	0.0676959
1314	0.0877514
1326	0.132859
1338	0.19218
1350	0.204425
1362	0.147636
1374	0.133844
1386	0.187536
1398	0.197529
1410	0.168536
1422	0.12357
1434	0.0954217
1446	0.106118
1458	0.143414
1470	0.138277
1482	0.07417
1494	0.0289221
1506	0.0156925
1518	0.00879625
1530	0.00499627
1542	0.00344813
1554	0.0028148
1566	0.00225184
1578	0.00309628
1590	0.0021111
1602	0.00232221
1614	0.00436294
1626	0.00619256
1638	0.0084444
1650	0.0132999
1662	0.0161147
1674	0.0253332
1686	0.0408146
1698	0.0865551
1710	0.301324
1722	0.667389
1734	0.595682
1746	0.203299
1758	0.0899329
1770	0.0893699
1782	0.0740996
1794	0.0754366
1806	0.0363813
1818	0.0144962
1830	0.00548886
1842	0.00225184
1854	0.00063333
1866	0.00077407
1878	0.00035185
1890	0.00028148
1902	0.00028148
1914	0.00035185
1926	0.00028148
1938	0.00098518
1950	0.00112592
1962	0.00133703
1974	0.00119629
1986	0.00105555
1998	0.00154814
2010	0.00147777
2022	0.00154814
2034	0.00182962
2046	0.00168888
2058	0.00168888
2070	0.00175925
2082	0.00119629
2094	0.00112592
2106	0.00133703
2118	0.0014074
2130	0.00168888
2142	0.00161851
2154	0.00126666
2166	0.00126666
2178	0.0014074
2190	0.00133703
2202	0.00175925
2214	0.00197036
2226	0.00168888
2238	0.00161851
2250	0.00105555
2262	0.00119629
2274	0.00105555
2286	0.00112592
2298	0.00049259
2310	7.037e-05
2322	0.00098518
2334	0.00204073
2346	0.00204073
2358	0.00246295
2370	0.0028148
2382	0.00316665
2394	0.00302591
2406	0.00288517
2418	0.00330739
2430	0.0028148
2442	0.00267406
2454	0.00253332
2466	0.00246295
2478	0.0021111
2490	0.00218147
2502	0.00189999
2514	0.0014074
2526	0.00161851
2538	0.00168888
2550	0.00154814
2562	0.00232221
2574	0.00253332
2586	0.00323702
2598	0.0035185
2610	0.00401109
2622	0.00365924
2634	0.00330739
2646	0.00323702
2658	0.00330739
2670	0.00450368
2682	0.00548886
2694	0.00605182
2706	0.00612219
2718	0.00710737
2730	0.00957032
2742	0.0130888
2754	0.0172406
2766	0.0199147
2778	0.0237147
2790	0.0304702
2802	0.0356072
2814	0.0389146
2826	0.0442627
2838	0.0594627
2850	0.0974625
2862	0.151436
2874	0.176066
2886	0.219554
2898	0.221947
2910	0.200977
2922	0.259032
2934	0.356846
2946	0.436153
2958	0.398576
2970	0.422501
2982	0.496671
2994	0.388794
3006	0.183455
3018	0.0745218
3030	0.0448257
3042	0.0301184
3054	0.0225888
3066	0.0187184
3078	0.016537
3090	0.0143555
3102	0.0120333
3114	0.0103444
3126	0.010274
3138	0.00978143
3150	0.00978143
3162	0.00964069
3174	0.00942958
3186	0.00865551
3198	0.00668515
3210	0.00450368
3222	0.00302591
3234	0.00197036
3246	0.00105555
3258	0.00084444
3270	0.00119629
3282	0.00091481
3294	0.00189999
3306	0.00091481
3318	0.00056296
3330	0.00084444
3342	0.00091481
3354	0.00098518
3366	0.0007037
3378	0.00112592
3390	0.00175925
3402	0.00316665
3414	0.00745922
3426	0.0130888
3438	0.0149184
3450	0.012174
3462	0.0115407
3474	0.0132296
3486	0.0206888
3498	0.0532701
3510	0.164032
3522	0.242847
3534	0.178106
3546	0.107103
3558	0.0696663
3570	0.0510886
3582	0.0382109
3594	0.0270925
3606	0.0106259
3618	0.00534812
3630	0.00527775
3642	0.00759996
3654	0.013511
3666	0.014074
3678	0.00513701
3690	0.0007037
3702	7.037e-05
3714	7.037e-05
3726	0.00014074
3738	7.037e-05
3750	7.037e-05
3762	7.037e-05
3774	7.037e-05
3786	7.037e-05
3798	7.037e-05
3810	7.037e-05
3822	7.037e-05
3834	7.037e-05
3846	7.037e-05
3858	0.00049259
3870	0.00232221
3882	0.00112592
3894	0.00239258
3906	0.00189999
3918	0.00168888
3930	0.00028148
3942	0.00112592
3954	0.00147777
3966	0.00105555
