Infrared Spectrum: 2,4,6-Cycloheptatrien-1-one, 2-hydroxy-4-(1-methylethyl)-
Formula: C 10 H 12 O 2
CAS: 499-44-5
Origin: Sadtler Research Labs Under US-EPA Contract
1/CM	ABSORBANCE
450	0
462	0.0104755
474	0.0100099
486	0.00884594
498	0.00826397
510	0.00651806
522	0.00407379
534	0.00267706
546	0.00290985
558	0.00453937
570	0.00465576
582	0.00733282
594	0.00861316
606	0.0235116
618	0.0235116
630	0.0160624
642	0.0302624
654	0.0711167
666	0.085084
678	0.0500494
690	0.0456264
702	0.069138
714	0.119304
726	0.169586
738	0.22464
750	0.191352
762	0.0981201
774	0.0777512
786	0.0704184
798	0.0408543
810	0.0577314
822	0.0996333
834	0.0419018
846	0.0161788
858	0.00838037
870	0.0112902
882	0.0229296
894	0.0443461
906	0.0893906
918	0.0563347
930	0.0413199
942	0.133504
954	0.116161
966	0.023046
978	0.0101263
990	0.00849676
1002	0.0202526
1014	0.0257231
1026	0.0210673
1038	0.0164116
1050	0.0245591
1062	0.0370133
1074	0.0317756
1086	0.0320083
1098	0.0334051
1110	0.0323575
1122	0.0344526
1134	0.0378281
1146	0.0316592
1158	0.0249083
1170	0.0330559
1182	0.0551708
1194	0.0555199
1206	0.0721643
1218	0.143397
1230	0.198801
1242	0.260373
1254	0.500029
1266	0.918232
1278	0.724669
1290	0.448815
1302	0.227434
1314	0.153524
1326	0.129314
1338	0.0740266
1350	0.0485363
1362	0.0592445
1374	0.0820578
1386	0.102194
1398	0.180993
1410	0.276436
1422	0.292382
1434	0.355002
1446	0.47221
1458	0.515858
1470	0.634115
1482	0.646569
1494	0.615957
1506	0.479543
1518	0.214747
1530	0.13106
1542	0.14235
1554	0.23046
1566	0.354071
1578	0.288308
1590	0.188675
1602	0.27888
1614	0.690216
1626	1.16394
1638	0.473956
1650	0.151312
1662	0.0790315
1674	0.0501658
1686	0.035733
1698	0.0286329
1710	0.0194378
1722	0.0167607
1734	0.015946
1746	0.015364
1758	0.0180411
1770	0.0211837
1782	0.019787
1794	0.0210673
1806	0.0167607
1818	0.0116394
1830	0.00884594
1842	0.00663446
1854	0.00523773
1866	0.00512134
1878	0.00628528
1890	0.00756561
1902	0.00616888
1914	0.00349182
1926	0.00349182
1938	0.00442297
1950	0.00628528
1962	0.00814758
1974	0.00663446
1986	0.00744922
1998	0.00605249
2010	0.00325903
2022	0.00290985
2034	0.00267706
2046	0.00256067
2058	0.0019787
2070	0.00256067
2082	0.0018623
2094	0.0018623
2106	0.00151312
2118	0.00151312
2130	0.00174591
2142	0.0018623
2154	0.00221149
2166	0.00221149
2178	0.00221149
2190	0.00221149
2202	0.00232788
2214	0.00244427
2226	0.00267706
2238	0.00349182
2250	0.003841
2262	0.00430658
2274	0.00523773
2286	0.00488855
2298	0.00570331
2310	0.00721643
2322	0.00628528
2334	0.00477215
2346	0.00616888
2358	0.00547052
2370	0.00593609
2382	0.00640167
2394	0.00325903
2406	0.00337543
2418	0.00337543
2430	0.0039574
2442	0.00453937
2454	0.0058197
2466	0.0077984
2478	0.00861316
2490	0.00849676
2502	0.00896234
2514	0.00803119
2526	0.00733282
2538	0.00686725
2550	0.00675085
2562	0.007682
2574	0.00849676
2586	0.00872955
2598	0.0077984
2610	0.00744922
2622	0.00710003
2634	0.00756561
2646	0.00791479
2658	0.00838037
2670	0.00884594
2682	0.00954431
2694	0.0102427
2706	0.0108246
2718	0.0114066
2730	0.0132689
2742	0.0136181
2754	0.0138509
2766	0.0140837
2778	0.0139673
2790	0.0137345
2802	0.0137345
2814	0.014782
2826	0.015946
2838	0.0174591
2850	0.0223476
2862	0.0324739
2874	0.0645987
2886	0.102078
2898	0.0888086
2910	0.0949775
2922	0.102776
2934	0.129314
2946	0.150265
2958	0.142583
2970	0.456148
2982	0.377117
2994	0.0911365
3006	0.0648315
3018	0.0657626
3030	0.0701856
3042	0.0711167
3054	0.0644823
3066	0.057615
3078	0.0524937
3090	0.0533085
3102	0.0555199
3114	0.058197
3126	0.0611068
3138	0.0629692
3150	0.0630855
3162	0.0636675
3174	0.0630855
3186	0.0605249
3198	0.0550544
3210	0.0486527
3222	0.0436477
3234	0.0410871
3246	0.0388756
3258	0.0348018
3270	0.030728
3282	0.0270034
3294	0.0240936
3306	0.0217657
3318	0.0194378
3330	0.0176919
3342	0.0167607
3354	0.0158296
3366	0.0152476
3378	0.0142001
3390	0.0139673
3402	0.0140837
3414	0.0131525
3426	0.0130361
3438	0.0122214
3450	0.0130361
3462	0.0125706
3474	0.0119886
3486	0.0118722
3498	0.0101263
3510	0.00989349
3522	0.00884594
3534	0.00861316
3546	0.00861316
3558	0.00721643
3570	0.00849676
3582	0.00675085
3594	0.00628528
3606	0.00558691
3618	0.00442297
3630	0.00686725
3642	0.00419018
3654	0.0039574
3666	0.00349182
3678	0.0039574
3690	0.00290985
3702	0.00349182
3714	0.00337543
3726	0.003841
3738	0.00372461
3750	0.00279346
3762	0.00244427
3774	0.00349182
3786	0.00267706
3798	0.00325903
3810	0.00279346
3822	0.0039574
3834	0.00360821
3846	0.00372461
3858	0.00419018
3870	0.00430658
3882	0.00360821
3894	0.0039574
3906	0.00453937
3918	0.00570331
3930	0.00465576
3942	0.00349182
3954	0.00547052
3966	0.00488855
