Infrared Spectrum: Tioxolone
Formula: C 7 H 4 O 3 S
CAS: 4991-65-5
Origin: Sadtler Research Labs Under US-EPA Contract
1/CM	ABSORBANCE
450	0.0163151
462	0.00635528
474	0.012426
486	0.0306382
498	0.0425899
510	0.00749354
522	0.00218167
534	0.00426847
546	0.00540674
558	0.00284565
570	0.00958036
582	0.00455304
594	0.00607072
606	0.00929579
618	0.0145128
630	0.0223858
642	0.0371832
654	0.0314919
666	0.0391751
678	0.0119517
690	0.00436333
702	0.0134694
714	0.0166945
726	0.00853695
738	0.00540674
750	0.00113826
762	0.00483761
774	0.0106238
786	0.0321558
798	0.0465738
810	0.0493246
822	0.0329147
834	0.0397442
846	0.03595
858	0.029405
870	0.0132797
882	0.00739869
894	0.0075884
906	0.00977006
918	0.0116672
930	0.0153665
942	0.0204887
954	0.0439179
966	0.094855
978	0.121794
990	0.309322
1002	0.260851
1014	0.069339
1026	0.0393648
1038	0.0276028
1050	0.0253263
1062	0.0215321
1074	0.019635
1086	0.0309227
1098	0.0345272
1110	0.0199196
1122	0.0377523
1134	0.186769
1146	0.239319
1158	0.138393
1170	0.280581
1182	0.123312
1194	0.038606
1206	0.0282668
1218	0.0202041
1230	0.0168842
1242	0.0216269
1254	0.0276977
1266	0.0410722
1278	0.0415465
1290	0.074556
1302	0.0920094
1314	0.0813856
1326	0.0376574
1338	0.00635528
1350	0.0056913
1362	0.0116672
1374	0.00853695
1386	0.0067347
1398	0.00891637
1410	0.012426
1422	0.0214372
1434	0.0600432
1446	0.119517
1458	0.0651654
1470	0.0679162
1482	0.168178
1494	0.0872666
1506	0.0125209
1518	0.00891637
1530	0.0136591
1542	0.0158408
1554	0.0190659
1566	0.026844
1578	0.0440127
1590	0.0740818
1602	0.116008
1614	0.170739
1626	0.112498
1638	0.0331992
1650	0.0291205
1662	0.0270337
1674	0.0210578
1686	0.0174533
1698	0.0166945
1710	0.0252314
1722	0.0440127
1734	0.0719001
1746	0.104815
1758	0.123881
1770	0.121984
1782	0.151483
1794	0.754002
1806	0.84032
1818	0.0835673
1830	0.020299
1842	0.00977006
1854	0.00777811
1866	0.00635528
1878	0.00597587
1890	0.0075884
1902	0.00787296
1914	0.00550159
1926	0.00682956
1938	0.0116672
1950	0.0171688
1962	0.0204887
1974	0.0252314
1986	0.024852
1998	0.00872666
2010	0.00275079
2022	0.0018971
2034	0.00246623
2046	0.00313021
2058	0.00265594
2070	0.0029405
2082	0.00483761
2094	0.00350964
2106	0.00180225
2118	0.00094855
2130	0.000853695
2142	0.000853695
2154	0.000474275
2166	0.000284565
2178	0.00037942
2190	0.00104341
2202	0.000663985
2214	0.00056913
2226	0.00075884
2238	0.00104341
2250	0.00123311
2262	0.00161254
2274	0.00227652
2286	0.00227652
2298	0.00218167
2310	0.00284565
2322	0.00360449
2334	0.00350964
2346	0.00464789
2358	0.00246623
2370	0.00369935
2382	0.00369935
2394	0.00331993
2406	0.0029405
2418	0.00369935
2430	0.00360449
2442	0.00369935
2454	0.00398391
2466	0.00369935
2478	0.0029405
2490	0.00256108
2502	0.00256108
2514	0.00256108
2526	0.00246623
2538	0.00208681
2550	0.00208681
2562	0.00256108
2574	0.00322507
2586	0.00360449
2598	0.00322507
2610	0.00303536
2622	0.00350964
2634	0.00265594
2646	0.00265594
2658	0.00265594
2670	0.00303536
2682	0.00256108
2694	0.00265594
2706	0.00313021
2718	0.0029405
2730	0.00284565
2742	0.00322507
2754	0.00407876
2766	0.00360449
2778	0.00369935
2790	0.0037942
2802	0.00341478
2814	0.00303536
2826	0.0029405
2838	0.00275079
2850	0.00265594
2862	0.00369935
2874	0.00350964
2886	0.00369935
2898	0.00388905
2910	0.00455304
2922	0.00512217
2934	0.00559645
2946	0.00540674
2958	0.00436333
2970	0.00436333
2982	0.00426847
2994	0.00455304
3006	0.00559645
3018	0.00749354
3030	0.0102443
3042	0.0135643
3054	0.0126157
3066	0.0115723
3078	0.0118569
3090	0.011762
3102	0.0100546
3114	0.00815753
3126	0.00739869
3138	0.00663985
3150	0.00730383
3162	0.00663985
3174	0.00711412
3186	0.0067347
3198	0.00739869
3210	0.00711412
3222	0.00720898
3234	0.00749354
3246	0.00730383
3258	0.00739869
3270	0.00825238
3282	0.00853695
3294	0.00853695
3306	0.00853695
3318	0.00796782
3330	0.00815753
3342	0.00929579
3354	0.00995978
3366	0.00939064
3378	0.0102443
3390	0.0111929
3402	0.00958036
3414	0.0094855
3426	0.00939064
3438	0.00910608
3450	0.00834724
3462	0.00711412
3474	0.00739869
3486	0.00626043
3498	0.00720898
3510	0.00578616
3522	0.00521703
3534	0.00521703
3546	0.00464789
3558	0.00597587
3570	0.00663985
3582	0.0116672
3594	0.00398391
3606	0.00161254
3618	0.00142282
3630	0.00663985
3642	0.0456253
3654	0.113921
3666	0.0371832
3678	0.00237137
3690	0.00018971
3702	0.00075884
3714	9.4855e-05
3726	9.4855e-05
3738	0.000284565
3750	9.4855e-05
3762	0.00123311
3774	9.4855e-05
3786	0.000853695
3798	0.00170739
3810	0.000663985
3822	0.00018971
3834	9.4855e-05
3846	0.00132797
3858	0.00094855
3870	0.00123311
3882	0.00142282
3894	0.00018971
3906	9.4855e-05
3918	0.00123311
3930	0.000853695
3942	0.00227652
3954	0.00113826
3966	0.00227652
