Infrared Spectrum: Metharbital
Formula: C 9 H 14 N 2 O 3
CAS: 50-11-3
Origin: Sadtler Research Labs Under US-EPA Contract
1/CM	ABSORBANCE
450	0.00312176
462	0.0160771
474	0.015921
486	0.0210719
498	0.00967746
510	0.00530699
522	0.00359002
534	0.00078044
546	0.000312176
558	0.00218523
570	0.000936528
582	0.0138918
594	0.0277837
606	0.0220084
618	0.031998
630	0.0654009
642	0.108169
654	0.0997402
666	0.0465142
678	0.0251302
690	0.0315298
702	0.0234132
714	0.0245058
726	0.0298128
738	0.0554112
750	0.119563
762	0.126743
774	0.0421438
786	0.0224767
798	0.0170136
810	0.00842875
822	0.0051509
834	0.00468264
846	0.0039022
858	0.0107701
870	0.0218523
882	0.00671178
894	0.0026535
906	0.00249741
918	0.00202914
930	0.00468264
942	0.00874093
954	0.0138918
966	0.0379294
978	0.0369929
990	0.0191988
1002	0.0135797
1014	0.0160771
1026	0.037305
1038	0.0803853
1050	0.0696152
1062	0.0772636
1074	0.0741418
1086	0.033715
1098	0.0184184
1110	0.0138918
1122	0.014204
1134	0.0268471
1146	0.0632156
1158	0.0741418
1170	0.056816
1182	0.0867849
1194	0.145006
1206	0.100677
1218	0.0401146
1230	0.039022
1242	0.0758588
1254	0.14485
1266	0.124246
1278	0.104735
1290	0.135797
1302	0.270813
1314	0.515871
1326	0.415662
1338	0.265194
1350	0.237098
1362	0.248804
1374	0.33715
1386	0.565975
1398	0.461708
1410	0.272217
1422	0.285173
1434	0.456245
1446	0.635746
1458	0.398805
1470	0.201197
1482	0.0877215
1494	0.0569721
1506	0.0526017
1518	0.0526017
1530	0.0416755
1542	0.0323102
1554	0.0290324
1566	0.0243497
1578	0.0246619
1590	0.026691
1602	0.0232571
1614	0.0196671
1626	0.0204475
1638	0.0260667
1650	0.0355881
1662	0.0660252
1674	0.105359
1686	0.208534
1698	0.891106
1710	1.4051
1722	0.688972
1734	0.997246
1746	1.56088
1758	1.03065
1770	0.494955
1782	0.193705
1794	0.0881897
1806	0.0447973
1818	0.0282519
1830	0.024818
1842	0.0235693
1854	0.0188866
1866	0.0126431
1878	0.0103018
1890	0.0113944
1902	0.0131114
1914	0.00827266
1926	0.00499482
1938	0.00405829
1950	0.0026535
1962	0.00280958
1974	0.0039022
1986	0.00280958
1998	0.00140479
2010	0.00140479
2022	0.00140479
2034	0.00234132
2046	0.00140479
2058	0.000312176
2070	0.000312176
2082	0
2094	0.000156088
2106	0.000312176
2118	0.000468264
2130	0.000624352
2142	0.000156088
2154	0.000156088
2166	0.00078044
2178	0.000156088
2190	0.000312176
2202	0.000468264
2214	0.00078044
2226	0.000468264
2238	0.000156088
2250	0
2262	0.000156088
2274	0.000936528
2286	0.00234132
2298	0.00546308
2310	0.00624352
2322	0.00483873
2334	0.00468264
2346	0.0051509
2358	0.00234132
2370	0.00171697
2382	0.00327785
2394	0.00202914
2406	0.0026535
2418	0.0026535
2430	0.00234132
2442	0.00187306
2454	0.00187306
2466	0.00249741
2478	0.00218523
2490	0.00234132
2502	0.0026535
2514	0.0026535
2526	0.0026535
2538	0.00234132
2550	0.00202914
2562	0.00202914
2574	0.00202914
2586	0.00140479
2598	0.00109262
2610	0.00078044
2622	0.00140479
2634	0.00171697
2646	0.00171697
2658	0.00140479
2670	0.00140479
2682	0.00187306
2694	0.00249741
2706	0.00296567
2718	0.00202914
2730	0.00327785
2742	0.00421438
2754	0.00639961
2766	0.00718005
2778	0.00686787
2790	0.00639961
2802	0.00702396
2814	0.00749222
2826	0.00842875
2838	0.0103018
2850	0.014204
2862	0.0218523
2874	0.0348076
2886	0.06384
2898	0.074454
2910	0.0519773
2922	0.0616548
2934	0.0802292
2946	0.15203
2958	0.158898
2970	0.174506
2982	0.305932
2994	0.127524
3006	0.0437046
3018	0.0220084
3030	0.0149844
3042	0.012331
3054	0.0117066
3066	0.0110822
3078	0.0115505
3090	0.0109262
3102	0.00998963
3114	0.0104579
3126	0.0101457
3138	0.00874093
3150	0.00827266
3162	0.00733614
3174	0.00561917
3186	0.00374611
3198	0.00280958
3210	0.00187306
3222	0.00187306
3234	0.0012487
3246	0.00156088
3258	0.0012487
3270	0.00140479
3282	0.00109262
3294	0.00156088
3306	0.00156088
3318	0.00156088
3330	0.00156088
3342	0.00171697
3354	0.00202914
3366	0.00218523
3378	0.00327785
3390	0.00671178
3402	0.0152966
3414	0.0636839
3426	0.232259
3438	0.151561
3450	0.0252863
3462	0.019511
3474	0.0143601
3486	0.0112383
3498	0.010614
3510	0.00733614
3522	0.0039022
3534	0.00234132
3546	0.0012487
3558	0.00140479
3570	0.00078044
3582	0.00109262
3594	0.000312176
3606	0
3618	0.00078044
3630	0
3642	0.000936528
3654	0.0012487
3666	0.00078044
3678	0.000312176
3690	0.000624352
3702	0.000468264
3714	0.000624352
3726	0.0012487
3738	0.0012487
3750	0.00187306
3762	0.000624352
3774	0.0012487
3786	0.00109262
3798	0.00078044
3810	0.00202914
3822	0.00109262
3834	0.00202914
3846	0.000624352
3858	0.00078044
3870	0.00187306
3882	0.00078044
3894	0.00156088
3906	0.00109262
3918	0.00078044
3930	0.000624352
3942	0.00156088
3954	0.00187306
3966	0.00218523
