Infrared Spectrum: Benzoic acid, 2,5-dichloro-
Formula: C 7 H 4 Cl 2 O 2
CAS: 50-79-3
Origin: Sadtler Research Labs Under US-EPA Contract
1/CM	ABSORBANCE
450	0.0260894
462	0.0177376
474	0.0345208
486	0.0227487
498	0.0217942
510	0.0269644
522	0.0506676
534	0.0481223
546	0.0756435
558	0.0895632
570	0.132595
582	0.259304
594	0.321743
606	0.178092
618	0.0558378
630	0.137924
642	0.155025
654	0.0485996
666	0.0342822
678	0.023226
690	0.0629169
702	0.103562
714	0.0587808
726	0.0124879
738	0.0093063
750	0.0108176
762	0.0452588
774	0.0652236
786	0.0583036
798	0.0422363
810	0.0886882
822	0.16457
834	0.0567127
846	0.0443043
858	0.0169422
870	0.0151923
882	0.0292711
894	0.0539288
906	0.0350776
918	0.0171809
930	0.0139197
942	0.0123289
954	0.0111357
966	0.0116925
978	0.00604512
990	0.00890859
1002	0.0198057
1014	0.0207602
1026	0.0699165
1038	0.249441
1050	0.224385
1062	0.0853475
1074	0.11096
1086	0.166161
1098	0.364616
1110	0.5198
1122	0.371934
1134	0.187001
1146	0.196307
1158	0.200364
1170	0.2912
1182	0.418227
1194	0.325164
1206	0.138322
1218	0.0847907
1230	0.0711892
1242	0.0729391
1254	0.11613
1266	0.102847
1278	0.122732
1290	0.133231
1302	0.154628
1314	0.163457
1326	0.219056
1338	0.205534
1350	0.0934607
1362	0.0744504
1374	0.0808932
1386	0.13514
1398	0.211659
1410	0.16974
1422	0.0652236
1434	0.0606102
1446	0.0729391
1458	0.198057
1470	0.25477
1482	0.0965628
1494	0.0383388
1506	0.0435089
1518	0.0418386
1530	0.0186921
1542	0.0335663
1554	0.0447816
1566	0.0468496
1578	0.0390546
1590	0.0410432
1602	0.0316573
1614	0.0254531
1626	0.0270439
1638	0.0297483
1650	0.025294
1662	0.018374
1674	0.0217147
1686	0.0341231
1698	0.0412022
1710	0.046611
1722	0.0800182
1734	0.153276
1746	0.270042
1758	0.544617
1770	0.738061
1782	0.64977
1794	0.259781
1806	0.146912
1818	0.0540879
1830	0.0259304
1842	0.013522
1854	0.009704
1866	0.00859043
1878	0.00827226
1890	0.0136015
1902	0.0147151
1914	0.0079541
1926	0.00843135
1938	0.00612466
1950	0.00596557
1962	0.00342026
1974	0.00381797
1986	0.00334072
1998	0.00532925
2010	0.00326118
2022	0.00509062
2034	0.00644282
2046	0.00302256
2058	0.0034998
2070	0.00429521
2082	0.00342026
2094	0.00469292
2106	0.0034998
2118	0.00397705
2130	0.00421567
2142	0.00532925
2154	0.00461338
2166	0.00556787
2178	0.00509062
2190	0.00405659
2202	0.00421567
2214	0.00437476
2226	0.00326118
2238	0.00588603
2250	0.00564741
2262	0.00373843
2274	0.00564741
2286	0.00771548
2298	0.00978354
2310	0.0112948
2322	0.0138401
2334	0.0163059
2346	0.0136015
2358	0.0218738
2370	0.0229078
2382	0.0106585
2394	0.00334072
2406	0.0031021
2418	0.004852
2430	0.00540879
2442	0.0062042
2454	0.00405659
2466	0.00596557
2478	0.00723823
2490	0.00461338
2502	0.00588603
2514	0.00739731
2526	0.00668144
2538	0.00699961
2550	0.00580649
2562	0.004852
2574	0.004852
2586	0.00604512
2598	0.00453384
2610	0.00469292
2622	0.00628374
2634	0.0044543
2646	0.00517017
2658	0.00580649
2670	0.00461338
2682	0.0062042
2694	0.0062042
2706	0.00564741
2718	0.00684053
2730	0.00509062
2742	0.00580649
2754	0.00429521
2766	0.00676099
2778	0.00453384
2790	0.00477246
2802	0.00517017
2814	0.00914722
2826	0.00938584
2838	0.0118516
2850	0.0103403
2862	0.0160673
2874	0.0132038
2886	0.0132038
2898	0.0114539
2910	0.0136015
2922	0.0221919
2934	0.0285552
2946	0.0214761
2958	0.0189308
2970	0.0129652
2982	0.0113744
2994	0.011613
3006	0.00898813
3018	0.0104994
3030	0.0108176
3042	0.00803364
3054	0.00954492
3066	0.0125675
3078	0.018374
3090	0.0134424
3102	0.0116925
3114	0.00882905
3126	0.00851089
3138	0.00699961
3150	0.00707915
3162	0.00692007
3174	0.00779502
3186	0.00898813
3198	0.00612466
3210	0.00731777
3222	0.00644282
3234	0.00715869
3246	0.00628374
3258	0.00644282
3270	0.00564741
3282	0.00604512
3294	0.00532925
3306	0.00644282
3318	0.00692007
3330	0.00596557
3342	0.00628374
3354	0.00604512
3366	0.00572695
3378	0.00198853
3390	0.00469292
3402	0.00556787
3414	0.00604512
3426	0.00532925
3438	0.00827226
3450	0.00898813
3462	0.00866997
3474	0.00986308
3486	0.00723823
3498	0.00731777
3510	0.0159082
3522	0.0177376
3534	0.0225896
3546	0.0321346
3558	0.0828817
3570	0.348708
3582	0.254531
3594	0.0646668
3606	0.0176581
3618	0.0153514
3630	0.0144765
3642	0.00882905
3654	0.00851089
3666	0.00715869
3678	0.0127266
3690	0.0093063
3702	0.00803364
3714	0.0111357
3726	0.00811318
3738	0.0153514
3750	0.0129652
3762	0.00787456
3774	0.0034998
3786	0.00373843
3798	0.00866997
3810	0.00692007
3822	0.010579
3834	0.00890859
3846	0.00827226
3858	0.00938584
3870	0.009704
3882	0.0130447
3894	0.00914722
3906	0.00803364
3918	0.00692007
3930	0.00493154
3942	0.00326118
3954	0.00079541
3966	0.00103403
