Infrared Spectrum: Benzoic acid, 2,4-dichloro-
Formula: C 7 H 4 Cl 2 O 2
CAS: 50-84-0
Origin: Sadtler Research Labs Under US-EPA Contract
1/CM	ABSORBANCE
450	0.0433987
462	0.0402615
474	0.0562092
486	0.0679739
498	0.098475
510	0.17159
522	0.251155
534	0.173943
546	0.135773
558	0.169935
570	0.130283
582	0.113551
594	0.0855774
606	0.0522876
618	0.0282353
630	0.0159477
642	0.0177778
654	0.037037
666	0.0616994
678	0.0563835
690	0.114248
702	0.122614
714	0.0840087
726	0.0140305
738	0.012549
750	0.0249238
762	0.0803486
774	0.136732
786	0.0701525
798	0.0506318
810	0.0715469
822	0.214292
834	0.419259
846	0.0673639
858	0.0371242
870	0.0807843
882	0.0422658
894	0.00183007
906	0.00366013
918	0.00583878
930	0.00592593
942	0.00461874
954	0.00697168
966	0.00339869
978	0.00784314
990	0.00540305
1002	0.0130719
1014	0.0264052
1026	0.0766013
1038	0.26414
1050	0.234423
1062	0.0933334
1074	0.143878
1086	0.423442
1098	0.616907
1110	0.508671
1122	0.168366
1134	0.125403
1146	0.158431
1158	0.118954
1170	0.230501
1182	0.450371
1194	0.283137
1206	0.100741
1218	0.0634423
1230	0.0501961
1242	0.0551634
1254	0.0600436
1266	0.0725055
1278	0.085926
1290	0.0901961
1302	0.113638
1314	0.173333
1326	0.229455
1338	0.157821
1350	0.10963
1362	0.143704
1374	0.190327
1386	0.215512
1398	0.144662
1410	0.058475
1422	0.0269281
1434	0.028061
1446	0.0413072
1458	0.0603922
1470	0.130545
1482	0.101264
1494	0.0327669
1506	0.0162092
1518	0.0164706
1530	0.0249238
1542	0.0541177
1554	0.12061
1566	0.117037
1578	0.242876
1590	0.466493
1602	0.149891
1614	0.0382571
1626	0.0193464
1638	0.0128976
1650	0.0121133
1662	0.0151634
1674	0.0136819
1686	0.0155991
1698	0.023878
1710	0.0474946
1722	0.0873203
1734	0.159564
1746	0.358431
1758	0.659172
1770	0.87146
1782	0.621961
1794	0.226405
1806	0.120697
1818	0.0411329
1830	0.0189978
1842	0.0105447
1854	0.00888889
1866	0.00688453
1878	0.00723312
1890	0.0103704
1902	0.00967321
1914	0.0105447
1926	0.00749456
1938	0.00470588
1950	0.00261438
1962	0.0020915
1974	0.00313726
1986	0.00278867
1998	0.0032244
2010	0.00278867
2022	0.00339869
2034	0.00130719
2046	0.0011329
2058	0.00087146
2070	0.00217865
2082	0.0022658
2094	0.00200436
2106	0.00148148
2118	0.00235294
2130	0.00383442
2142	0.00331155
2154	0.0022658
2166	0.00331155
2178	0.00252723
2190	0.00400872
2202	0.00470588
2214	0.00418301
2226	0.00418301
2238	0.00409586
2250	0.00313726
2262	0.00278867
2274	0.00244009
2286	0.00522876
2298	0.0103704
2310	0.013159
2322	0.0121133
2334	0.00801743
2346	0.0121133
2358	0.0127233
2370	0.0127233
2382	0.00993464
2394	0.00496732
2406	0.00444445
2418	0.00409586
2430	0.00383442
2442	0.00357299
2454	0.00348584
2466	0.00540305
2478	0.0043573
2490	0.00383442
2502	0.00705883
2514	0.00409586
2526	0.00592593
2538	0.00627451
2550	0.0054902
2562	0.00409586
2574	0.00261438
2586	0.00366013
2598	0.00200436
2610	0.00505447
2622	0.00470588
2634	0.00427015
2646	0.00217865
2658	0.00470588
2670	0.00357299
2682	0.00383442
2694	0.00374728
2706	0.00374728
2718	0.00374728
2730	0.00444445
2742	0.00244009
2754	0.00252723
2766	0.000610022
2778	0.00183007
2790	0.00305011
2802	0.00313726
2814	0.00348584
2826	0.0032244
2838	0.0032244
2850	0.00488018
2862	0.00627451
2874	0.00583878
2886	0.00566449
2898	0.00488018
2910	0.00400872
2922	0.00531591
2934	0.0043573
2946	0.00505447
2958	0.0054902
2970	0.0054902
2982	0.00732026
2994	0.00522876
3006	0.00470588
3018	0.00723312
3030	0.00653595
3042	0.00488018
3054	0.00531591
3066	0.00557734
3078	0.0075817
3090	0.0100218
3102	0.00627451
3114	0.0054902
3126	0.00496732
3138	0.00427015
3150	0.00496732
3162	0.000610022
3174	0.00461874
3186	0.00331155
3198	0.0032244
3210	0.00488018
3222	0.00374728
3234	0.0020915
3246	0.00470588
3258	0.00278867
3270	0.00139434
3282	0.00305011
3294	0.0011329
3306	0.00540305
3318	0.00531591
3330	0.00610022
3342	0.00749456
3354	0.00392157
3366	0.00383442
3378	0.00592593
3390	0.00418301
3402	0.0064488
3414	0.00505447
3426	0.00470588
3438	0.00400872
3450	0.00479303
3462	0.00784314
3474	0.00331155
3486	0.00583878
3498	0.00967321
3510	0.0064488
3522	0.0166449
3534	0.0225708
3546	0.0253595
3558	0.0724183
3570	0.396776
3582	0.269804
3594	0.0562092
3606	0.0120261
3618	0.0064488
3630	0.00671024
3642	0.00923748
3654	0.00505447
3666	0.0054902
3678	0.00357299
3690	0.00522876
3702	0.00679739
3714	0.00122004
3726	0.00139434
3738	0.000522876
3750	0.000522876
3762	0.00679739
3774	0.00540305
3786	0.00583878
3798	0.00627451
3810	0.0064488
3822	0.00557734
3834	0.00409586
3846	0.00374728
3858	0.00383442
3870	0.00156863
3882	0.00444445
3894	0.00923748
3906	0.00653595
3918	0.00967321
3930	0.00949891
3942	0.00627451
3954	0.00575164
3966	0.00906318
