Infrared Spectrum: Phenol, 3,5-dimethoxy-
Formula: C 8 H 10 O 3
CAS: 500-99-2
Origin: Sadtler Research Labs Under US-EPA Contract
1/CM	ABSORBANCE
450	0
462	0.00758098
474	0.0134854
486	0.019244
498	0.0250026
510	0.0188067
522	0.0193169
534	0.0196085
546	0.021285
558	0.0176403
570	0.0122462
582	0.0104238
594	0.0153806
606	0.0169114
618	0.0183693
630	0.0158909
642	0.013777
654	0.0146517
666	0.0337499
678	0.0507342
690	0.0248569
702	0.0118817
714	0.011007
726	0.0105696
738	0.0109341
750	0.0100594
762	0.00991358
774	0.0108612
786	0.0142872
798	0.0205561
810	0.0481829
822	0.0720922
834	0.0750079
846	0.0435906
858	0.0208477
870	0.0165469
882	0.0164011
894	0.015818
906	0.0155993
918	0.0223056
930	0.0354265
942	0.0278455
954	0.0188067
966	0.0286473
978	0.0490577
990	0.0501511
1002	0.036447
1014	0.0197543
1026	0.0207748
1038	0.0355723
1050	0.0954182
1062	0.154244
1074	0.0982611
1086	0.0391441
1098	0.035062
1110	0.044028
1122	0.0802563
1134	0.228523
1146	0.593649
1158	0.657212
1170	0.241425
1182	0.136749
1194	0.220286
1206	0.306738
1218	0.21285
1230	0.0476727
1242	0.0262418
1254	0.0425701
1266	0.110945
1278	0.0838281
1290	0.0252942
1302	0.0233261
1314	0.0277726
1326	0.0282829
1338	0.0392899
1350	0.0401646
1362	0.0276268
1374	0.0214308
1386	0.0244195
1398	0.0323649
1410	0.0465793
1422	0.0658962
1434	0.111382
1446	0.110216
1458	0.120931
1470	0.176039
1482	0.148048
1494	0.208768
1506	0.145059
1518	0.0418412
1530	0.0322191
1542	0.035791
1554	0.0427159
1566	0.0523379
1578	0.0894409
1590	0.231074
1602	0.465647
1614	0.500344
1626	0.37934
1638	0.192367
1650	0.0688119
1662	0.0401646
1674	0.0324378
1686	0.0271166
1698	0.0243466
1710	0.018588
1722	0.0160367
1734	0.015818
1746	0.0153077
1758	0.0136312
1770	0.0125378
1782	0.0112986
1794	0.0112257
1806	0.0097678
1818	0.00874728
1830	0.0097678
1842	0.00984069
1854	0.00860149
1866	0.00867439
1878	0.00809123
1890	0.0085286
1902	0.00830992
1914	0.00889307
1926	0.0085286
1938	0.00823702
1950	0.00830992
1962	0.00882017
1974	0.00940333
1986	0.00925754
1998	0.00896596
2010	0.00801834
2022	0.00838281
2034	0.00809123
2046	0.00787255
2058	0.00816413
2070	0.00918464
2082	0.00991358
2094	0.00991358
2106	0.00991358
2118	0.0110799
2130	0.0108612
2142	0.00954911
2154	0.0085286
2166	0.00765387
2178	0.00772676
2190	0.00816413
2202	0.00801834
2214	0.00823702
2226	0.00779966
2238	0.00801834
2250	0.00816413
2262	0.0085286
2274	0.00925754
2286	0.00933043
2298	0.0097678
2310	0.00991358
2322	0.00918464
2334	0.00998648
2346	0.0106425
2358	0.00962201
2370	0.00911175
2382	0.00903886
2394	0.00830992
2406	0.0084557
2418	0.00860149
2430	0.00903886
2442	0.00889307
2454	0.00925754
2466	0.0096949
2478	0.00991358
2490	0.0104967
2502	0.0101323
2514	0.00918464
2526	0.00867439
2538	0.00874728
2550	0.00925754
2562	0.00918464
2574	0.00882017
2586	0.00860149
2598	0.00882017
2610	0.00962201
2622	0.00954911
2634	0.00903886
2646	0.00911175
2658	0.00896596
2670	0.0084557
2682	0.0084557
2694	0.0084557
2706	0.00823702
2718	0.0084557
2730	0.0084557
2742	0.00940333
2754	0.00991358
2766	0.0111528
2778	0.012392
2790	0.0136312
2802	0.0150891
2814	0.0157451
2826	0.0195356
2838	0.0424972
2850	0.0783611
2862	0.0461419
2874	0.0279913
2886	0.0304697
2898	0.0401646
2910	0.0553265
2922	0.0656775
2934	0.0661878
2946	0.0963659
2958	0.112475
2970	0.0715819
2982	0.0379049
2994	0.0431532
3006	0.0944706
3018	0.0647299
3030	0.0223056
3042	0.0179319
3054	0.018588
3066	0.0177132
3078	0.0163283
3090	0.0159638
3102	0.015162
3114	0.013048
3126	0.0120275
3138	0.0110799
3150	0.0102781
3162	0.00954911
3174	0.00903886
3186	0.00882017
3198	0.00830992
3210	0.00860149
3222	0.00867439
3234	0.0084557
3246	0.00830992
3258	0.00830992
3270	0.00874728
3282	0.00889307
3294	0.00918464
3306	0.00918464
3318	0.0096949
3330	0.0097678
3342	0.0104238
3354	0.0107154
3366	0.0107883
3378	0.0100594
3390	0.00998648
3402	0.0106425
3414	0.0100594
3426	0.0104238
3438	0.0103509
3450	0.0097678
3462	0.0097678
3474	0.0101323
3486	0.0102052
3498	0.00954911
3510	0.00918464
3522	0.00991358
3534	0.00991358
3546	0.00823702
3558	0.00991358
3570	0.00918464
3582	0.0096949
3594	0.00933043
3606	0.00947622
3618	0.00984069
3630	0.0120275
3642	0.0475269
3654	0.119255
3666	0.0465064
3678	0.00947622
3690	0.00896596
3702	0.0101323
3714	0.00809123
3726	0.00860149
3738	0.00750808
3750	0.00896596
3762	0.00874728
3774	0.00954911
3786	0.0085286
3798	0.0085286
3810	0.00991358
3822	0.00823702
3834	0.00940333
3846	0.00933043
3858	0.00838281
3870	0.00809123
3882	0.00794545
3894	0.00918464
3906	0.00750808
3918	0.00954911
3930	0.00896596
3942	0.00918464
3954	0.0102781
3966	0.00903886
