Infrared Spectrum: 3-Pyridinecarboxaldehyde
Formula: C 6 H 5 N O
CAS: 500-22-1
Origin: Sadtler Research Labs Under US-EPA Contract
1/CM	ABSORBANCE
450	0.0145166
462	0.00563144
474	0.00412972
486	0.00287829
498	0.00362915
510	0.00513086
522	0.00563144
534	0.00400458
546	0.00412972
558	0.00563144
570	0.00563144
582	0.00650744
594	0.0115132
606	0.0152674
618	0.0237772
630	0.0380435
642	0.0345395
654	0.0540618
666	0.10487
678	0.111628
690	0.132652
702	0.252914
714	0.139159
726	0.0630721
738	0.024528
750	0.0232766
762	0.0354155
774	0.0692041
786	0.103869
798	0.123892
810	0.138283
822	0.247908
834	0.232641
846	0.0679526
858	0.0326623
870	0.0261549
882	0.0270309
894	0.0242777
906	0.019272
918	0.0156429
930	0.0120137
942	0.0103869
954	0.010512
966	0.010512
978	0.0126394
990	0.01752
1002	0.0310355
1014	0.0712064
1026	0.0917298
1038	0.0710812
1050	0.0279069
1062	0.0190217
1074	0.0304097
1086	0.0379183
1098	0.0397955
1110	0.0494315
1122	0.0488058
1134	0.0255292
1146	0.0191469
1158	0.0213995
1170	0.0397955
1182	0.0754612
1194	0.145541
1206	0.261299
1218	0.281321
1230	0.166315
1242	0.0838458
1254	0.0427989
1266	0.0287829
1278	0.0211492
1290	0.015768
1302	0.0224006
1314	0.0708309
1326	0.0952338
1338	0.0664509
1350	0.0395452
1362	0.0331629
1374	0.0805921
1386	0.10512
1398	0.0775887
1410	0.0707058
1422	0.121514
1434	0.108874
1446	0.0455521
1458	0.0138909
1470	0.028908
1482	0.0317863
1494	0.0230263
1506	0.00813429
1518	0.00663258
1530	0.0121389
1542	0.00838458
1554	0.0409218
1566	0.121639
1578	0.309479
1590	0.452517
1602	0.220627
1614	0.0371675
1626	0.0255292
1638	0.0295337
1650	0.0406715
1662	0.0508081
1674	0.0372926
1686	0.0486806
1698	0.0957344
1710	0.383313
1722	1.21789
1734	1.2289
1746	0.129523
1758	0.0438001
1770	0.0307852
1782	0.0178954
1794	0.01314
1806	0.0182709
1818	0.021024
1830	0.0202732
1842	0.018396
1854	0.0196475
1866	0.0156429
1878	0.0170194
1890	0.0146417
1902	0.0205235
1914	0.0251537
1926	0.0290332
1938	0.0286577
1950	0.024528
1962	0.0177703
1974	0.0160183
1986	0.0153926
1998	0.0138909
2010	0.0146417
2022	0.0142663
2034	0.0151423
2046	0.0143914
2058	0.0130149
2070	0.010512
2082	0.0090103
2094	0.00850972
2106	0.00838458
2118	0.00788401
2130	0.00813429
2142	0.00825944
2154	0.0090103
2166	0.00951087
2178	0.00788401
2190	0.00763372
2202	0.00800915
2214	0.0090103
2226	0.0090103
2238	0.00850972
2250	0.00800915
2262	0.00738344
2274	0.00663258
2286	0.00500572
2298	0.00250286
2310	0.000876001
2322	0.00187714
2334	0.00337886
2346	0.00438001
2358	0.003504
2370	0.00212743
2382	0.00513086
2394	0.00913544
2406	0.0103869
2418	0.00938573
2430	0.00825944
2442	0.00700801
2454	0.00650744
2466	0.00675772
2478	0.00625715
2490	0.00675772
2502	0.00688287
2514	0.00725829
2526	0.00725829
2538	0.00625715
2550	0.00625715
2562	0.00675772
2574	0.00725829
2586	0.00876001
2598	0.0100114
2610	0.0120137
2622	0.012264
2634	0.00976115
2646	0.00876001
2658	0.0101366
2670	0.0116383
2682	0.0197726
2694	0.0501823
2706	0.0774635
2718	0.141036
2730	0.175701
2742	0.134153
2754	0.0609446
2766	0.0410469
2778	0.0710812
2790	0.141161
2802	0.168192
2814	0.164313
2826	0.175325
2838	0.135905
2850	0.0594429
2862	0.0291583
2874	0.0173949
2886	0.01314
2898	0.0141412
2910	0.0143914
2922	0.0158932
2934	0.0188966
2946	0.0193972
2958	0.0187715
2970	0.01752
2982	0.0221503
2994	0.0345395
3006	0.0432995
3018	0.0494315
3030	0.0678275
3042	0.0858481
3054	0.0963601
3066	0.0795909
3078	0.0580664
3090	0.0616955
3102	0.0569401
3114	0.0165189
3126	0.00813429
3138	0.00926058
3150	0.0108874
3162	0.00863487
3174	0.00713315
3186	0.00538115
3198	0.00412972
3210	0.00375429
3222	0.00425486
3234	0.00362915
3246	0.00375429
3258	0.00375429
3270	0.00325372
3282	0.003504
3294	0.00400458
3306	0.00312858
3318	0.00275315
3330	0.00275315
3342	0.00287829
3354	0.00325372
3366	0.00425486
3378	0.00475543
3390	0.00450515
3402	0.00563144
3414	0.0103869
3426	0.0205235
3438	0.0213995
3450	0.0100114
3462	0.00187714
3474	0.00200229
3486	0.00112629
3498	0.00250286
3510	0.000876001
3522	0.00150172
3534	0.00187714
3546	0.000500572
3558	0.00200229
3570	0.00225257
3582	0.00312858
3594	0.00362915
3606	0.00150172
3618	0.000625715
3630	0.00200229
3642	0.00237772
3654	0.00187714
3666	0.000876001
3678	0.00312858
3690	0.00237772
3702	0.00212743
3714	0.00212743
3726	0.000375429
3738	0.00250286
3750	0.000125143
3762	0.000876001
3774	0.00125143
3786	0.00137657
3798	0.00150172
3810	0.000750858
3822	0.000876001
3834	0.000625715
3846	0.000750858
3858	0.00100114
3870	0.000500572
3882	0.000500572
3894	0.00150172
3906	0.00137657
3918	0.00225257
3930	0.001752
3942	0.000500572
3954	0.00150172
3966	0.00237772
