Infrared Spectrum: 2-Bromo-3'-methoxyacetophenone
Formula: C 9 H 9 Br O 2
CAS: 5000-65-7
Origin: Sadtler Research Labs Under US-EPA Contract
1/CM	ABSORBANCE
450	0.00230384
462	0.0108856
474	0.0172212
486	0.0244783
498	0.0294892
510	0.0367462
522	0.0343272
534	0.038071
546	0.0409508
558	0.0491294
570	0.0472863
582	0.0498205
594	0.0528731
606	0.0570776
618	0.0705551
630	0.0699215
642	0.0479199
654	0.0340968
666	0.0384741
678	0.0782154
690	0.109778
702	0.0916928
714	0.0400868
726	0.0340392
738	0.0423331
750	0.0467104
762	0.0416995
774	0.0552922
786	0.077121
798	0.0683089
810	0.0331177
822	0.02252
834	0.0255726
846	0.0448097
858	0.0711887
870	0.0637012
882	0.055177
894	0.0402596
906	0.0313898
918	0.0240751
930	0.0214257
942	0.023672
954	0.0270701
966	0.0295467
978	0.0354215
990	0.0505117
1002	0.062722
1014	0.0934207
1026	0.129994
1038	0.135696
1050	0.13368
1062	0.0922112
1074	0.0462496
1086	0.0411235
1098	0.0355943
1110	0.0387045
1122	0.0408932
1134	0.0346152
1146	0.0412387
1158	0.0683665
1170	0.0854725
1182	0.0976828
1194	0.0927872
1206	0.121009
1218	0.163054
1230	0.186669
1242	0.151593
1254	0.176301
1266	0.368038
1278	0.57596
1290	0.412099
1302	0.234819
1314	0.140304
1326	0.123716
1338	0.0845509
1350	0.0513756
1362	0.0558681
1374	0.0342696
1386	0.0285676
1398	0.032369
1410	0.0479199
1422	0.118878
1434	0.236259
1446	0.12769
1458	0.110642
1470	0.124177
1482	0.152975
1494	0.127057
1506	0.0391653
1518	0.0236144
1530	0.0239023
1542	0.0276461
1554	0.0369766
1566	0.0625493
1578	0.141859
1590	0.206539
1602	0.188281
1614	0.0786761
1626	0.0334633
1638	0.0249967
1650	0.025515
1662	0.0325417
1674	0.048899
1686	0.113003
1698	0.301342
1710	0.258606
1722	0.113982
1734	0.0543706
1746	0.0345
1758	0.0273005
1770	0.0194099
1782	0.0148598
1794	0.0129015
1806	0.0104249
1818	0.00910017
1830	0.00835142
1842	0.00835142
1854	0.00984892
1866	0.0086394
1878	0.00742988
1890	0.00691152
1902	0.00633556
1914	0.00737229
1926	0.0085818
1938	0.008697
1950	0.00679633
1962	0.00598998
1974	0.00627796
1986	0.00622037
1998	0.00610518
2010	0.005702
2022	0.00622037
2034	0.00679633
2046	0.00702671
2058	0.00748748
2070	0.00823623
2082	0.0086394
2094	0.00817863
2106	0.00696912
2118	0.00587479
2130	0.00506845
2142	0.00403172
2154	0.00420451
2166	0.00420451
2178	0.0042621
2190	0.00403172
2202	0.00316778
2214	0.00224624
2226	0.00178548
2238	0.0013823
2250	0.000979132
2262	0.0013823
2274	0.00178548
2286	0.00247663
2298	0.00397412
2310	0.00466528
2322	0.00449249
2334	0.00380134
2346	0.00489566
2358	0.00322538
2370	0.00374374
2382	0.00380134
2394	0.00195826
2406	0.00161269
2418	0.00155509
2430	0.00213105
2442	0.00213105
2454	0.00380134
2466	0.00357095
2478	0.0028798
2490	0.00339816
2502	0.00351336
2514	0.00345576
2526	0.00316778
2538	0.00305259
2550	0.00408932
2562	0.00455008
2574	0.00478047
2586	0.00420451
2598	0.0043197
2610	0.0042621
2622	0.00351336
2634	0.00345576
2646	0.00241903
2658	0.00190067
2670	0.00184307
2682	0.00184307
2694	0.00218865
2706	0.00236144
2718	0.00230384
2730	0.00247663
2742	0.00213105
2754	0.0029374
2766	0.00328297
2778	0.00345576
2790	0.00385893
2802	0.00541402
2814	0.00748748
2826	0.0124983
2838	0.0294316
2850	0.046192
2862	0.0235568
2874	0.0184883
2886	0.0202162
2898	0.023384
2910	0.0286252
2922	0.039626
2934	0.043197
2946	0.0696336
2958	0.0754508
2970	0.0572504
2982	0.0392805
2994	0.0319658
3006	0.0552346
3018	0.063874
3030	0.0256878
3042	0.0247663
3054	0.0226352
3066	0.025515
3078	0.042909
3090	0.035076
3102	0.0164149
3114	0.0105401
3126	0.00564441
3138	0.00408932
3150	0.00357095
3162	0.0029374
3174	0.0028222
3186	0.00218865
3198	0.00195826
3210	0.00184307
3222	0.00126711
3234	0.00120952
3246	0.00120952
3258	0.00109432
3270	0.000691152
3282	0.00184307
3294	0.0013823
3306	0.00184307
3318	0.00184307
3330	0.00132471
3342	0.00155509
3354	0.00190067
3366	0.00374374
3378	0.00535643
3390	0.00547162
3402	0.00391653
3414	0.00236144
3426	0.00253422
3438	0.00155509
3450	0.00109432
3462	0.00155509
3474	0.00115192
3486	0.00103673
3498	0.0014399
3510	0.0013823
3522	0.00109432
3534	0.00230384
3546	0.00195826
3558	0.0013823
3570	0.00247663
3582	0.00155509
3594	0.00178548
3606	0.00172788
3618	0.00172788
3630	0.00264942
3642	0.00362855
3654	0.00478047
3666	0.00247663
3678	0.000691152
3690	0.000403172
3702	0.00109432
3714	0
3726	0.000115192
3738	0.0013823
3750	0
3762	0
3774	0
3786	0
3798	0
3810	0
3822	0
3834	0
3846	0
3858	0
3870	0
3882	0
3894	0.000979132
3906	0.000748748
3918	0.000921536
3930	0.000806344
3942	0.000921536
3954	0.000230384
3966	0.000691152
