Infrared Spectrum: 2-Pyridineacetonitrile, .alpha.-phenyl-
Formula: C 13 H 10 N 2
CAS: 5005-36-7
Origin: Sadtler Research Labs Under US-EPA Contract
1/CM	ABSORBANCE
450	0.0257632
462	0.0349725
474	0.00776322
486	0.0072685
498	0.0042241
510	0.00273996
522	0.028389
534	0.0662538
546	0.0180381
558	0.00806766
570	0.00597463
582	0.00738267
594	0.00924737
606	0.0246216
618	0.0844821
630	0.0987147
642	0.0479493
654	0.0467696
666	0.0910276
678	0.0995138
690	0.229472
702	0.231222
714	0.0981058
726	0.102825
738	0.253865
750	0.325637
762	0.171856
774	0.0870698
786	0.0334123
798	0.021425
810	0.0176575
822	0.0195983
834	0.0106554
846	0.00905709
858	0.0100465
870	0.0121015
882	0.0068499
894	0.00536575
906	0.00795349
918	0.00955181
930	0.00776322
942	0.00654546
954	0.0100085
966	0.0151459
978	0.0281226
990	0.0480635
1002	0.0509937
1014	0.0187992
1026	0.038055
1038	0.0469979
1050	0.0418224
1062	0.0218816
1074	0.0222241
1086	0.0288076
1098	0.0308626
1110	0.00993236
1122	0.00559409
1134	0.00905709
1146	0.0321945
1158	0.0162875
1170	0.0087146
1182	0.0173531
1194	0.0224524
1206	0.0151078
1218	0.0210064
1230	0.0231755
1242	0.0202072
1254	0.0173911
1266	0.0156787
1278	0.0129768
1290	0.0168203
1302	0.0165159
1314	0.0190275
1326	0.0160973
1338	0.0140804
1350	0.00939959
1362	0.00860043
1374	0.0116829
1386	0.0141565
1398	0.0119112
1410	0.0196744
1422	0.0662538
1434	0.291692
1446	0.135019
1458	0.133573
1470	0.271104
1482	0.0886301
1494	0.136541
1506	0.0628288
1518	0.0134334
1530	0.0133573
1542	0.0187992
1554	0.0347062
1566	0.11211
1578	0.283548
1590	0.375945
1602	0.128778
1614	0.043611
1626	0.0174672
1638	0.0106935
1650	0.00974208
1662	0.00730656
1674	0.00475687
1686	0.00437633
1698	0.00502326
1710	0.00369134
1722	0.0007611
1734	0.00403383
1746	0.00563214
1758	0.00654546
1770	0.00810571
1782	0.00886682
1794	0.0167061
1806	0.0135476
1818	0.00745878
1830	0.0068499
1842	0.0100085
1854	0.00936153
1866	0.0134715
1878	0.0170867
1890	0.0134715
1902	0.00943764
1914	0.011036
1926	0.00962792
1938	0.0168584
1950	0.0216533
1962	0.0182664
1974	0.0134334
1986	0.00616491
1998	0.0022833
2010	0.00148415
2022	0.00125581
2034	0.00091332
2046	0.00144609
2058	0.00133193
2070	0.00091332
2082	0.000570825
2094	0.000646935
2106	0.00068499
2118	0.000418605
2130	0.00038055
2142	0.00022833
2154	0.00022833
2166	0.00068499
2178	0.0015222
2190	0.00235941
2202	0.000951375
2214	0.00083721
2226	0.00182664
2238	0.0064313
2250	0.00955181
2262	0.00555603
2274	0.003463
2286	0.00559409
2298	0.00818183
2310	0.00841016
2322	0.00841016
2334	0.00547992
2346	0.00715434
2358	0.00627908
2370	0.00357717
2382	0.00528964
2394	0.00243552
2406	0.00277801
2418	0.00296829
2430	0.00289218
2442	0.0038055
2454	0.00384356
2466	0.00399578
2478	0.00365328
2490	0.00361523
2502	0.00334884
2514	0.00342495
2526	0.00353912
2538	0.0030444
2550	0.00319662
2562	0.0033869
2574	0.00384356
2586	0.0038055
2598	0.00376744
2610	0.00407188
2622	0.0038055
2634	0.00342495
2646	0.00350106
2658	0.00273996
2670	0.00331079
2682	0.00327273
2694	0.00273996
2706	0.00251163
2718	0.0026258
2730	0.00197886
2742	0.0022833
2754	0.00277801
2766	0.00350106
2778	0.00441438
2790	0.00391967
2802	0.0033869
2814	0.00319662
2826	0.00369134
2838	0.00365328
2850	0.00186469
2862	0.00220719
2874	0.00414799
2886	0.00570825
2898	0.00704018
2910	0.00841016
2922	0.00776322
2934	0.00818183
2946	0.00662157
2958	0.00468076
2970	0.00639324
2982	0.00882876
2994	0.0149937
3006	0.0359239
3018	0.0804863
3030	0.0915223
3042	0.125277
3054	0.123222
3066	0.186736
3078	0.282673
3090	0.152486
3102	0.0700973
3114	0.0340212
3126	0.0142706
3138	0.0098943
3150	0.00981819
3162	0.00624102
3174	0.00468076
3186	0.0042241
3198	0.00293024
3210	0.00312051
3222	0.00331079
3234	0.00289218
3246	0.0022833
3258	0.00194081
3270	0.00243552
3282	0.00186469
3294	0.00182664
3306	0.00148415
3318	0.00148415
3330	0.00159831
3342	0.0015222
3354	0.00156025
3366	0.00136998
3378	0.00205497
3390	0.00190275
3402	0.00121776
3414	0.00186469
3426	0.00190275
3438	0.00216913
3450	0.00171247
3462	0.00232136
3474	0.00232136
3486	0.00178859
3498	0.00186469
3510	0.00163637
3522	0.00239747
3534	0.00213108
3546	0.00277801
3558	0.00239747
3570	0.00251163
3582	0.00372939
3594	0.0038055
3606	0.00201692
3618	0.00266385
3630	0.00201692
3642	0.00315856
3654	0.0038055
3666	0.0038055
3678	0.00430022
3690	0.00410994
3702	0.00509937
3714	0.00407188
3726	0.00441438
3738	0.00372939
3750	0.00243552
3762	0.00247357
3774	0.00201692
3786	0.00289218
3798	0.00209303
3810	0.00391967
3822	0.000342495
3834	0.00315856
3846	0.00148415
3858	0.00293024
3870	0.00395772
3882	0.00327273
3894	0.00293024
3906	0.00487104
3918	0.00376744
3930	0.00452855
3942	0.00270191
3954	0.00224524
3966	0.00551798
