Infrared Spectrum: Benzenepropanoic acid, 4-hydroxy-
Formula: C 9 H 10 O 3
CAS: 501-97-3
Origin: Sadtler Research Labs Under US-EPA Contract
1/CM	ABSORBANCE
450	0.0582297
462	0.00837447
474	0.0364802
486	0.0317808
498	0.0335883
510	0.0355764
522	0.0357572
534	0.0331364
546	0.0453969
558	0.0481683
570	0.038378
582	0.0311482
594	0.0263585
606	0.0302445
618	0.030124
630	0.025997
642	0.0204843
654	0.0131039
666	0.0103627
678	0.0100915
690	0.00719964
702	0.00611517
714	0.00792261
726	0.0132847
738	0.0129834
750	0.00536207
762	0.00551269
774	0.011658
786	0.0108145
798	0.019671
810	0.0363295
822	0.056362
834	0.052476
846	0.0249125
858	0.00448848
870	0.00117484
882	0.00180744
894	0.00090372
906	0.0015062
918	0.00328352
930	0.00469934
942	0.00825398
954	0.00807323
966	0.00560306
978	0.00557294
990	0.00692852
1002	0.00945894
1014	0.0171104
1026	0.0184961
1038	0.0176527
1050	0.0165983
1062	0.0211169
1074	0.0378056
1086	0.078473
1098	0.124593
1110	0.172098
1122	0.236293
1134	0.154807
1146	0.100072
1158	0.117634
1170	0.280394
1182	0.226804
1194	0.133871
1206	0.0806721
1218	0.0575067
1230	0.0526568
1242	0.0660017
1254	0.159235
1266	0.119803
1278	0.0414807
1290	0.0297324
1302	0.0276237
1314	0.02916
1326	0.0430171
1338	0.0502167
1350	0.034974
1362	0.03645
1374	0.0438605
1386	0.0431978
1398	0.0253343
1410	0.0184961
1422	0.0261476
1434	0.0375345
1446	0.0281057
1458	0.0158452
1470	0.00780212
1482	0.00722976
1494	0.0166284
1506	0.0895285
1518	0.203126
1530	0.0322628
1542	0.00548257
1554	0.00331364
1566	0.00286178
1578	0.00783224
1590	0.0250933
1602	0.0389805
1614	0.0453065
1626	0.0279551
1638	0.00831422
1650	0.00271116
1662	0.0030124
1674	0.00090372
1686	0.00355463
1698	0.00409686
1710	0.0137365
1722	0.0247017
1734	0.0382274
1746	0.0754907
1758	0.12637
1770	0.227376
1782	0.279912
1794	0.150469
1806	0.0757016
1818	0.0359982
1830	0.014098
1842	0.00819373
1854	0.0060248
1866	0.00554282
1878	0.0052717
1890	0.00283166
1902	0.00253042
1914	0.00111459
1926	0.000692852
1938	0.00111459
1950	0.000692852
1962	0.000632604
1974	0.000933844
1986	0.000722976
1998	0.0007531
2010	0.00120496
2022	0.00090372
2034	0.000813348
2046	0.000572356
2058	0.000271116
2070	0.000662728
2082	0.000873596
2094	0.0013857
2106	0.00105434
2118	0.000632604
2130	0.000210868
2142	0.000542232
2154	0.00045186
2166	0.000572356
2178	0.000813348
2190	0.000843472
2202	0.000873596
2214	0.00120496
2226	0.00114471
2238	0.00153632
2250	0.00129533
2262	0.00126521
2274	0.00198818
2286	0.00274128
2298	0.00457885
2310	0.00560306
2322	0.00481984
2334	0.003886
2346	0.00542232
2358	0.00524158
2370	0.00427761
2382	0.00421736
2394	0.0015062
2406	0.0016267
2418	0.00283166
2430	0.00427761
2442	0.0030124
2454	0.00180744
2466	0.00135558
2478	0.00129533
2490	0.00135558
2502	0.0015062
2514	0.00189781
2526	0.00144595
2538	0.000783224
2550	0.000873596
2562	0.000662728
2574	0.000572356
2586	0.00120496
2598	0.000662728
2610	0.000933844
2622	0.00105434
2634	0.000783224
2646	0.000722976
2658	0.0007531
2670	0.00102422
2682	0.00129533
2694	0.000963968
2706	0.000843472
2718	0.000873596
2730	0.000572356
2742	0.000542232
2754	0.000692852
2766	0.0013857
2778	0.00120496
2790	0.00156645
2802	0.00156645
2814	0.00105434
2826	0.00174719
2838	0.00256054
2850	0.00466922
2862	0.00792261
2874	0.0109049
2886	0.0101518
2898	0.0090372
2910	0.0111459
2922	0.0202433
2934	0.0348535
2946	0.0350342
2958	0.025033
2970	0.0210266
2982	0.0156645
2994	0.0137667
3006	0.018948
3018	0.0321122
3030	0.0324435
3042	0.0307867
3054	0.0190986
3066	0.0149114
3078	0.0118689
3090	0.00759125
3102	0.00572356
3114	0.00530182
3126	0.00427761
3138	0.00292203
3150	0.00204843
3162	0.00126521
3174	0.00102422
3186	0.000994092
3198	0.00129533
3210	0.000933844
3222	0.000813348
3234	0.0013857
3246	0.000843472
3258	0.0007531
3270	0.00108446
3282	0.0015062
3294	0.00102422
3306	0.0007531
3318	0.00111459
3330	0.00105434
3342	0.00192794
3354	0.00204843
3366	0.00183756
3378	0.00168694
3390	0.00132546
3402	0.00183756
3414	0.00153632
3426	0.00156645
3438	0.00177732
3450	0.000933844
3462	0.00111459
3474	0.00129533
3486	0.00105434
3498	0.00177732
3510	0.00216893
3522	0.00250029
3534	0.00406674
3546	0.00617542
3558	0.0123508
3570	0.08989
3582	0.10209
3594	0.0152126
3606	0.00542232
3618	0.00536207
3630	0.00801298
3642	0.0417519
3654	0.112423
3666	0.0304252
3678	0.00310277
3690	0.00204843
3702	0.00219905
3714	0.000963968
3726	0.00307265
3738	0.00135558
3750	0.00111459
3762	0.000994092
3774	3.0124e-05
3786	0.000632604
3798	0.00177732
3810	0.000843472
3822	0.000843472
3834	0.00222918
3846	0.00111459
3858	0.00108446
3870	0.0015062
3882	0.00180744
3894	0.00195806
3906	0.000722976
3918	0.00117484
3930	0.00198818
3942	0.000331364
3954	0.00219905
3966	0.000722976
