Infrared Spectrum: Benzenepropanoic acid
Formula: C 9 H 10 O 2
CAS: 501-52-0
Origin: Sadtler Research Labs Under US-EPA Contract
1/CM	ABSORBANCE
450	0.0716589
462	0.0445214
474	0.0493982
486	0.0432592
498	0.0475048
510	0.0592663
522	0.0697656
534	0.0860021
546	0.113082
558	0.15003
570	0.113312
582	0.0885265
594	0.0758471
606	0.0749865
618	0.079978
630	0.07906
642	0.069364
654	0.0466442
666	0.0446362
678	0.0635119
690	0.110845
702	0.127884
714	0.0718884
726	0.0506604
738	0.0648315
750	0.0672985
762	0.0428576
774	0.0274243
786	0.0185889
798	0.0214575
810	0.0234656
822	0.0130237
834	0.00476196
846	0.00309814
858	0.000286865
870	0.00269653
882	0.00418823
894	0.00567993
906	0.00768798
918	0.00688476
930	0.00774535
942	0.0148022
954	0.0157776
966	0.0131958
978	0.0131384
990	0.0155481
1002	0.0253589
1014	0.0450952
1026	0.0736096
1038	0.0617907
1050	0.0420544
1062	0.0671838
1074	0.102698
1086	0.12754
1098	0.182389
1110	0.315494
1122	0.451698
1134	0.301897
1146	0.171832
1158	0.121688
1170	0.0936327
1182	0.0972472
1194	0.0971899
1206	0.0781994
1218	0.0605859
1230	0.0514636
1242	0.0479638
1254	0.0512341
1266	0.0608728
1278	0.0495129
1290	0.040448
1302	0.0364319
1314	0.035686
1326	0.0367187
1338	0.0388415
1350	0.0491687
1362	0.0656921
1374	0.0843383
1386	0.0905346
1398	0.0512915
1410	0.029834
1422	0.0341943
1434	0.040448
1446	0.0502014
1458	0.053988
1470	0.0327026
1482	0.0278833
1494	0.0519799
1506	0.0382678
1518	0.00556518
1530	0.00235229
1542	0.0036145
1554	0.00602416
1566	0.00831909
1578	0.0126221
1590	0.0175561
1602	0.0275964
1614	0.0203674
1626	0.00567993
1638	0.00258179
1650	0.00401611
1662	0.00390136
1674	0.00355713
1686	0.00797485
1698	0.0107288
1710	0.02031
1722	0.0406201
1734	0.0702819
1746	0.137982
1758	0.250663
1770	0.449747
1782	0.57373
1794	0.335919
1806	0.167529
1818	0.0779699
1830	0.0323584
1842	0.0191626
1854	0.0125073
1866	0.0099829
1878	0.00889282
1890	0.00476196
1902	0.00349975
1914	0.00447509
1926	0.00556518
1938	0.00797485
1950	0.00883544
1962	0.00504882
1974	0.00154907
1986	0.00126221
1998	0.000803222
2010	0.00109009
2022	0.000975341
2034	0.000344238
2046	0.00057373
2058	0.000114746
2070	0
2082	0.00057373
2094	0.000172119
2106	0.000458984
2118	0.000803222
2130	0.000745849
2142	0.000975341
2154	0.00120483
2166	0.000917968
2178	0.000917968
2190	0.00120483
2202	0.00126221
2214	0.00189331
2226	0.00183594
2238	0.00206543
2250	0.00177856
2262	0.00120483
2274	0.00126221
2286	0.00183594
2298	0.00218017
2310	0.00338501
2322	0.00372924
2334	0.00246704
2346	0.00315552
2358	0.00206543
2370	0.00246704
2382	0.00286865
2394	0.00120483
2406	0.00057373
2418	0.00114746
2430	0.00109009
2442	0.00057373
2454	0.00103271
2466	0.000688476
2478	0.000688476
2490	0.000688476
2502	0.00057373
2514	0.000344238
2526	0.000458984
2538	0.000401611
2550	0.000344238
2562	0.000344238
2574	0.00057373
2586	0.000917968
2598	0.0014917
2610	0.000631103
2622	0.00109009
2634	0.000803222
2646	0.000745849
2658	0.00114746
2670	0.000975341
2682	0.000688476
2694	0.000803222
2706	0.000344238
2718	0.000516357
2730	0.000458984
2742	0.000860595
2754	0.000688476
2766	0.000860595
2778	0.00143432
2790	0.00240967
2802	0.00240967
2814	0.00229492
2826	0.00344238
2838	0.00504882
2850	0.00768798
2862	0.01354
2874	0.0186462
2886	0.0169824
2898	0.0160644
2910	0.0207117
2922	0.0360302
2934	0.0586352
2946	0.0609301
2958	0.0481359
2970	0.0430871
2982	0.0311535
2994	0.0238672
3006	0.0262195
3018	0.0395874
3030	0.0813549
3042	0.0881823
3054	0.0485376
3066	0.071831
3078	0.0852563
3090	0.0477343
3102	0.0333911
3114	0.0193347
3126	0.00768798
3138	0.00327026
3150	0.0029834
3162	0.00258179
3174	0.00235229
3186	0.00126221
3198	0.0014917
3210	0.00103271
3222	0.00057373
3234	0.00183594
3246	0.00137695
3258	0.000975341
3270	0.00137695
3282	0.00114746
3294	0.000860595
3306	0.00154907
3318	0.000516357
3330	0.00109009
3342	0.000745849
3354	0.000745849
3366	0.00109009
3378	0.00137695
3390	0.000229492
3402	0.00131958
3414	0.000975341
3426	0.00137695
3438	0.00109009
3450	0.00166382
3462	0.00137695
3474	0.00172119
3486	0.00166382
3498	0.00309814
3510	0.00522094
3522	0.00711425
3534	0.00877807
3546	0.014458
3558	0.0269079
3570	0.186864
3582	0.214403
3594	0.0320715
3606	0.010614
3618	0.00803222
3630	0.00906493
3642	0.00579467
3654	0.00682739
3666	0.0036145
3678	0.00550781
3690	0.00550781
3702	0.0042456
3714	0.0063684
3726	0.00602416
3738	0.00671264
3750	0.00705688
3762	0.00533569
3774	0.00286865
3786	0.00355713
3798	0.00470459
3810	0.00327026
3822	0.00590942
3834	0.00418823
3846	0.00401611
3858	0.00401611
3870	0.00608154
3882	0.00694213
3894	0.00286865
3906	0.0063684
3918	0.00464721
3930	0.00516357
3942	0.00458984
3954	0.00464721
3966	0.00413086
