Infrared Spectrum: Cycloheptanone
Formula: C 7 H 12 O
CAS: 502-42-1
Origin: Sadtler Research Labs Under US-EPA Contract
1/CM	ABSORBANCE
450	0
462	0.028861
474	0.0371783
486	0.0560586
498	0.0607163
510	0.0409211
522	0.0276966
534	0.0321048
546	0.0313562
558	0.0258668
570	0.0417528
582	0.0257836
594	0.0241202
606	0.0255341
618	0.0293601
630	0.0213755
642	0.0244529
654	0.0261995
666	0.0257005
678	0.030774
690	0.0315226
702	0.0296928
714	0.02595
726	0.0247024
738	0.0256173
750	0.0293601
762	0.0316057
774	0.0239538
786	0.0271144
798	0.0296928
810	0.0415033
822	0.0351822
834	0.0407548
846	0.0575557
858	0.0588865
870	0.0395072
882	0.0276966
894	0.0267817
906	0.0276134
918	0.0346
930	0.0554764
942	0.0664552
954	0.0436658
966	0.0340178
978	0.0342673
990	0.0349327
1002	0.028362
1014	0.0317721
1026	0.0337682
1038	0.0336851
1050	0.0336851
1062	0.0296928
1074	0.0249519
1086	0.0241202
1098	0.0276134
1110	0.0291937
1122	0.0326038
1134	0.0455788
1146	0.0693663
1158	0.0963143
1170	0.0919062
1182	0.0727764
1194	0.0642927
1206	0.063461
1218	0.0556427
1230	0.0517336
1242	0.0627956
1254	0.074523
1266	0.0651245
1278	0.0462442
1290	0.0395903
1302	0.0378437
1314	0.048573
1326	0.0741071
1338	0.0974788
1350	0.0854187
1362	0.0504028
1374	0.0303581
1386	0.028861
1398	0.0335187
1410	0.0490721
1422	0.0747725
1434	0.0894941
1446	0.118438
1458	0.142808
1470	0.0911576
1482	0.0467432
1494	0.0285283
1506	0.0258668
1518	0.0234548
1530	0.022124
1542	0.0232884
1554	0.0230389
1566	0.0212091
1578	0.0213755
1590	0.0207101
1602	0.0223735
1614	0.0224567
1626	0.0231221
1638	0.0254509
1650	0.0296928
1662	0.0341009
1674	0.0500701
1686	0.0714456
1698	0.135655
1710	0.422768
1722	0.629703
1734	0.385341
1746	0.123096
1758	0.0679523
1770	0.0410875
1782	0.0296928
1794	0.0250351
1806	0.0209596
1818	0.0217082
1830	0.021625
1842	0.0199615
1854	0.0189634
1866	0.0192961
1878	0.0189634
1890	0.0200447
1902	0.0181317
1914	0.0180485
1926	0.0183812
1938	0.0181317
1950	0.0182149
1962	0.0173832
1974	0.0169673
1986	0.0178822
1998	0.0181317
2010	0.0177158
2022	0.0179654
2034	0.0171336
2046	0.0174663
2058	0.0168009
2070	0.0162187
2082	0.0163851
2094	0.0168009
2106	0.0173
2118	0.0176327
2130	0.0169673
2142	0.0169673
2154	0.0179654
2166	0.0179654
2178	0.0177158
2190	0.0173832
2202	0.0173
2214	0.0175495
2226	0.0169673
2238	0.0165514
2250	0.0171336
2262	0.0177158
2274	0.0175495
2286	0.0173832
2298	0.0182149
2310	0.0196288
2322	0.0197952
2334	0.0194625
2346	0.019213
2358	0.019213
2370	0.0215418
2382	0.0195457
2394	0.0161356
2406	0.0159692
2418	0.0154702
2430	0.0155534
2442	0.0159692
2454	0.0151375
2466	0.0152207
2478	0.0159692
2490	0.0159692
2502	0.0155534
2514	0.0153038
2526	0.0155534
2538	0.0157197
2550	0.0163019
2562	0.0152207
2574	0.0154702
2586	0.0162187
2598	0.0173
2610	0.0178822
2622	0.0176327
2634	0.0179654
2646	0.0192961
2658	0.0196288
2670	0.0212923
2682	0.0249519
2694	0.026449
2706	0.0243697
2718	0.0208764
2730	0.0179654
2742	0.0181317
2754	0.0186308
2766	0.0201279
2778	0.0212091
2790	0.023538
2802	0.0284452
2814	0.0309404
2826	0.032188
2838	0.039923
2850	0.0864167
2862	0.190716
2874	0.212008
2886	0.148547
2898	0.131996
2910	0.200447
2922	0.38401
2934	0.76095
2946	0.719779
2958	0.362717
2970	0.168841
2982	0.0967302
2994	0.0458283
3006	0.0289442
3018	0.0232053
3030	0.0224567
3042	0.0225399
3054	0.0199615
3066	0.0208764
3078	0.0212091
3090	0.021625
3102	0.0196288
3114	0.0171336
3126	0.0166346
3138	0.0181317
3150	0.0190466
3162	0.0181317
3174	0.0172168
3186	0.0169673
3198	0.0179654
3210	0.0168841
3222	0.0168841
3234	0.0168841
3246	0.017799
3258	0.0183812
3270	0.0182981
3282	0.0168841
3294	0.0166346
3306	0.0169673
3318	0.0174663
3330	0.0158029
3342	0.0159692
3354	0.0172168
3366	0.0185476
3378	0.0192961
3390	0.0199615
3402	0.0217082
3414	0.0279461
3426	0.0297759
3438	0.0239538
3450	0.0184644
3462	0.019213
3474	0.0195457
3486	0.0171336
3498	0.0174663
3510	0.0167178
3522	0.0170505
3534	0.0173832
3546	0.0160524
3558	0.0160524
3570	0.0177158
3582	0.0182981
3594	0.0174663
3606	0.0183812
3618	0.015886
3630	0.0177158
3642	0.0190466
3654	0.0173
3666	0.0179654
3678	0.0169673
3690	0.0191298
3702	0.0180485
3714	0.0153038
3726	0.0184644
3738	0.0182149
3750	0.0183812
3762	0.0168009
3774	0.0181317
3786	0.0151375
3798	0.0181317
3810	0.0183812
3822	0.0168009
3834	0.0185476
3846	0.0182149
3858	0.0202942
3870	0.0157197
3882	0.0199615
3894	0.0172168
3906	0.0200447
3918	0.0177158
3930	0.0182981
3942	0.0148048
3954	0.0177158
3966	0.0190466
