Infrared Spectrum: Cycloheptanol
Formula: C 7 H 14 O
CAS: 502-41-0
Origin: Sadtler Research Labs Under US-EPA Contract
1/CM	ABSORBANCE
450	0.0164106
462	0.0167072
474	0.0132471
486	0.00336121
498	0.0169049
510	0.00899617
522	0.00889731
534	0.0123574
546	0.0121597
558	0.0141368
570	0.0106768
582	0.00652469
594	0.00968818
606	0.00731557
618	0.00682127
630	0.0115665
642	0.00978704
654	0.0114676
666	0.00958932
678	0.00474523
690	0.00909503
702	0.0104791
714	0.00968818
726	0.0149277
738	0.0102813
750	0.0128517
762	0.0150266
774	0.0113688
786	0.0155209
798	0.0176958
810	0.0175969
822	0.0257033
834	0.0255056
846	0.0227376
858	0.0230341
870	0.020365
882	0.0230341
894	0.0279771
906	0.0347984
918	0.0419162
930	0.037863
942	0.0346006
954	0.0340075
966	0.0359847
978	0.0404333
990	0.0422128
1002	0.0599086
1014	0.113391
1026	0.206714
1038	0.234197
1050	0.145125
1062	0.0619846
1074	0.0326235
1086	0.0259999
1098	0.0297566
1110	0.0421139
1122	0.0419162
1134	0.0396425
1146	0.0418174
1158	0.0443877
1170	0.0498249
1182	0.0617869
1194	0.0650492
1206	0.0640606
1218	0.0530873
1230	0.0401368
1242	0.0411253
1254	0.0454751
1266	0.0398402
1278	0.0346006
1290	0.030844
1302	0.0259011
1314	0.0260988
1326	0.028768
1338	0.0352927
1350	0.0404333
1362	0.0474523
1374	0.0519998
1386	0.0486386
1398	0.039247
1410	0.0289657
1422	0.0257033
1434	0.0374676
1446	0.0802735
1458	0.106669
1470	0.082053
1482	0.0396425
1494	0.0176958
1506	0.0143346
1518	0.0124562
1530	0.00810644
1542	0.0116654
1554	0.00860073
1566	0.00701899
1578	0.00949046
1590	0.00711785
1602	0.00642583
1614	0.00919389
1626	0.00642583
1638	0.00949046
1650	0.00642583
1662	0.00523953
1674	0.00701899
1686	0.0107756
1698	0.00850187
1710	0.0100836
1722	0.0120608
1734	0.0111711
1746	0.00761214
1758	0.00573382
1770	0.00741442
1782	0.00652469
1794	0.00593154
1806	0.00652469
1818	0.00563496
1830	0.00573382
1842	0.00474523
1854	0.00425094
1866	0.00444866
1878	0.00395436
1890	0.00484409
1902	0.00514067
1914	0.00454751
1926	0.00415208
1938	0.00514067
1950	0.00425094
1962	0.00494295
1974	0.00444866
1986	0.00355892
1998	0.00395436
2010	0.00247147
2022	0.0021749
2034	0.00148288
2046	0.00158174
2058	0.000790872
2070	0.00118631
2082	0.0021749
2094	0.00336121
2106	0.00355892
2118	0.00336121
2130	0.00405322
2142	0.00415208
2154	0.00375664
2166	0.00504181
2178	0.0043498
2190	0.00494295
2202	0.00514067
2214	0.00484409
2226	0.0055361
2238	0.00533839
2250	0.00454751
2262	0.00494295
2274	0.00464637
2286	0.00464637
2298	0.00533839
2310	0.00484409
2322	0.00464637
2334	0.00266919
2346	0.00355892
2358	0.00158174
2370	0.00207604
2382	0.00336121
2394	0.00425094
2406	0.00326235
2418	0.00355892
2430	0.00326235
2442	0.00227376
2454	0.00296577
2466	0.00257033
2478	0.00266919
2490	0.00247147
2502	0.00207604
2514	0.00138403
2526	0.00197718
2538	0.00187832
2550	0.00148288
2562	0.00138403
2574	0.0016806
2586	0.00207604
2598	0.00316349
2610	0.00375664
2622	0.00682127
2634	0.00741442
2646	0.00711785
2658	0.0120608
2670	0.0158174
2682	0.0163117
2694	0.0176958
2706	0.0159163
2718	0.0139391
2730	0.0118631
2742	0.0102813
2754	0.0106768
2766	0.0132471
2778	0.0157186
2790	0.0182889
2802	0.0218478
2814	0.0264942
2826	0.0317337
2838	0.0485398
2850	0.121498
2862	0.270478
2874	0.306957
2886	0.219072
2898	0.200881
2910	0.330683
2922	0.635663
2934	0.963183
2946	0.764872
2958	0.286395
2970	0.0770112
2982	0.0303497
2994	0.0180912
3006	0.0113688
3018	0.00850187
3030	0.00741442
3042	0.00533839
3054	0.00514067
3066	0.00444866
3078	0.00474523
3090	0.00444866
3102	0.0043498
3114	0.00563496
3126	0.00454751
3138	0.00533839
3150	0.0060304
3162	0.00731557
3174	0.00672241
3186	0.00810644
3198	0.00533839
3210	0.0082053
3222	0.00998476
3234	0.00899617
3246	0.00850187
3258	0.00701899
3270	0.00523953
3282	0.00395436
3294	0.0038555
3306	0.00266919
3318	0.00474523
3330	0.00227376
3342	0.00415208
3354	0.00296577
3366	0.0021749
3378	0.00583268
3390	0.00346007
3402	0.00454751
3414	0.00533839
3426	0.00306463
3438	0.00514067
3450	0.00533839
3462	0.00425094
3474	0.00425094
3486	0.00504181
3498	0.00286691
3510	0.00296577
3522	0.00257033
3534	0.00316349
3546	0.00296577
3558	0.00148288
3570	0.00415208
3582	0.0043498
3594	0.000889731
3606	0.00296577
3618	0.00563496
3630	0.0114676
3642	0.03292
3654	0.0470569
3666	0.0264942
3678	0.00909503
3690	0.00632698
3702	0.00227376
3714	0.00197718
3726	0.000494295
3738	0.00098859
3750	0.00237262
3762	0.0016806
3774	0.00336121
3786	9.8859e-05
3798	0.00098859
3810	0.00187832
3822	0.000593154
3834	0.00187832
3846	0.00227376
3858	0.00306463
3870	0.00336121
3882	0.00543724
3894	0.00346007
3906	0.00454751
3918	0.00583268
3930	0.0055361
3942	0.00672241
3954	0.007711
3966	0.00266919
