Infrared Spectrum: Benzeneethanol, 3-methoxy-
Formula: C 9 H 12 O 2
CAS: 5020-41-7
Origin: Sadtler Research Labs Under US-EPA Contract
1/CM	ABSORBANCE
450	0.063362
462	0.0638927
474	0.0384205
486	0.0161324
498	0.0124177
510	0.00849072
522	0.0132667
534	0.0184673
546	0.0264274
558	0.0370408
570	0.0307789
582	0.0209084
594	0.00827845
606	0.00424536
618	0.00350242
630	0.00339629
642	0.000318402
654	0.000212268
666	0.00137974
678	0.0349181
690	0.181914
702	0.177138
714	0.0724895
726	0.0451069
738	0.0576308
750	0.0663337
762	0.0922304
774	0.228507
786	0.220653
798	0.0604964
810	0.0136913
822	0.0160262
834	0.0496707
846	0.0840581
858	0.0809802
870	0.100721
882	0.0956267
894	0.0534915
906	0.0327954
918	0.0304605
930	0.0273826
942	0.0264274
954	0.0407555
966	0.0486094
978	0.0543406
990	0.0849072
1002	0.141264
1014	0.187433
1026	0.324346
1038	0.686899
1050	0.967411
1062	0.777113
1074	0.302057
1086	0.171619
1098	0.10295
1110	0.0611332
1122	0.064954
1134	0.108151
1146	0.331032
1158	0.588301
1170	0.34674
1182	0.173317
1194	0.134472
1206	0.107195
1218	0.108681
1230	0.154531
1242	0.329546
1254	0.832833
1266	1.01188
1278	0.503712
1290	0.385373
1302	0.363721
1314	0.257587
1326	0.198683
1338	0.169496
1350	0.118233
1362	0.0858624
1374	0.116854
1386	0.167798
1398	0.125557
1410	0.0931857
1422	0.131606
1434	0.310654
1446	0.336445
1458	0.303649
1470	0.352046
1482	0.474631
1494	0.564208
1506	0.180852
1518	0.0618761
1530	0.0503075
1542	0.0555081
1554	0.0626191
1566	0.116747
1578	0.332306
1590	0.630754
1602	0.784543
1614	0.527061
1626	0.167267
1638	0.0527486
1650	0.0291869
1662	0.0154956
1674	0.0131606
1686	0.0114625
1698	0.0129483
1710	0.0107195
1722	0.0135852
1734	0.0168753
1746	0.0120993
1758	0.00933979
1770	0.00658031
1782	0.00159201
1794	0.00148588
1806	0.000849072
1818	0.00350242
1830	0.00742938
1842	0.00933979
1854	0.00456376
1866	0.00403309
1878	0.00350242
1890	0.00445763
1902	0.00785392
1914	0.0144342
1926	0.0133729
1938	0.00318402
1950	0.000106134
1962	0.000849072
1974	0.00297175
1986	0.00318402
1998	0.00413923
2010	0.00551897
2022	0.00626191
2034	0.00658031
2046	0.00912752
2058	0.00987046
2070	0.0101889
2082	0.0101889
2094	0.00965819
2106	0.00849072
2118	0.00700484
2130	0.00647417
2142	0.0053067
2154	0.00477603
2166	0.00392696
2178	0.00339629
2190	0.00392696
2202	0.00541283
2214	0.00604964
2226	0.00392696
2238	0.00180428
2250	0.00053067
2262	0.000106134
2274	0.00053067
2286	0.00180428
2298	0.00350242
2310	0.00541283
2322	0.00573124
2334	0.0056251
2346	0.00604964
2358	0.00413923
2370	0.00350242
2382	0.00392696
2394	0.00392696
2406	0.00573124
2418	0.00668644
2430	0.00647417
2442	0.00583737
2454	0.0056251
2466	0.00477603
2478	0.0049883
2490	0.00520057
2502	0.0056251
2514	0.00668644
2526	0.00742938
2538	0.00668644
2550	0.00817232
2562	0.00849072
2574	0.00679258
2586	0.00700484
2598	0.00721711
2610	0.00774778
2622	0.00721711
2634	0.00700484
2646	0.00785392
2658	0.00785392
2670	0.00796005
2682	0.00796005
2694	0.00912752
2706	0.0109318
2718	0.0132667
2730	0.0164508
2742	0.0187857
2754	0.0201655
2766	0.0222881
2778	0.0239863
2790	0.0281255
2802	0.0332199
2814	0.0419229
2826	0.0683503
2838	0.176607
2850	0.244533
2862	0.17735
2874	0.246019
2886	0.316173
2898	0.261408
2910	0.296963
2922	0.417743
2934	0.458499
2946	0.573124
2958	0.585647
2970	0.361599
2982	0.169284
2994	0.142432
3006	0.260771
3018	0.179048
3030	0.129165
3042	0.153151
3054	0.158564
3066	0.147314
3078	0.12959
3090	0.0976433
3102	0.0537038
3114	0.036404
3126	0.018255
3138	0.00976433
3150	0.00732325
3162	0.00551897
3174	0.00456376
3186	0.00350242
3198	0.00297175
3210	0.00286562
3222	0.00180428
3234	0.00169814
3246	0.00169814
3258	0.00116747
3270	0.00116747
3282	0.000955206
3294	0.000636804
3306	0.00148588
3318	0.00201655
3330	0.00137974
3342	0.00148588
3354	0.00137974
3366	0.000955206
3378	0.00137974
3390	0.000955206
3402	0.000742938
3414	0.00148588
3426	0.00116747
3438	0.000955206
3450	0.00053067
3462	0.000955206
3474	0.00148588
3486	0.000849072
3498	0.000636804
3510	0.000424536
3522	0.00053067
3534	0.00159201
3546	0.00275948
3558	0.00254722
3570	0.00329015
3582	0.00233495
3594	0.00392696
3606	0.00742938
3618	0.0316279
3630	0.0820416
3642	0.0500952
3654	0.056251
3666	0.0897894
3678	0.0662276
3690	0.0206961
3702	0.00976433
3714	0.00583737
3726	0.00350242
3738	0.00169814
3750	0.00137974
3762	0.000106134
3774	0
3786	0
3798	0
3810	0
3822	0
3834	0
3846	0
3858	0.000636804
3870	0
3882	0.000955206
3894	0.000955206
3906	0.000424536
3918	0.00106134
3930	0.000106134
3942	0.00053067
3954	0.000636804
3966	0
