Infrared Spectrum: 2-Pyridinemethanol, 4,5,6-trimethoxy-,
Formula: C 9 H 13 N O 4
CAS: 5024-31-7
Origin: Sadtler Research Labs Under US-EPA Contract
1/CM	ABSORBANCE
450	0.00929513
462	0.000516396
474	0.00555126
486	0.00451847
498	0.010457
510	0.0142009
522	0.0100697
534	0.0215595
546	0.0123935
558	0.00464756
570	0.0201394
582	0.0281436
594	0.0330493
606	0.035244
618	0.0302092
630	0.0384715
642	0.023496
654	0.0125226
666	0.0174284
678	0.016912
690	0.0185903
702	0.0231087
714	0.0317584
726	0.0254325
738	0.0160083
750	0.015621
762	0.0243997
774	0.0322747
786	0.024787
798	0.020914
810	0.0278854
822	0.0493158
834	0.0592564
846	0.0382133
858	0.0241415
870	0.00800414
882	0.00593855
894	0.00903693
906	0.0206558
918	0.0389879
930	0.0387297
942	0.0454428
954	0.0793959
966	0.139169
978	0.109734
990	0.099148
1002	0.188226
1014	0.330881
1026	0.243997
1038	0.176995
1050	0.154402
1062	0.201394
1074	0.210819
1086	0.188226
1098	0.332688
1110	0.593726
1122	0.794088
1134	1.00478
1146	0.559128
1158	0.283889
1170	0.20346
1182	0.247354
1194	0.288149
1206	0.217274
1218	0.212239
1230	0.32675
1242	0.451976
1254	0.384715
1266	0.220243
1278	0.123677
1290	0.0926931
1302	0.0908857
1314	0.0932095
1326	0.0901111
1338	0.115544
1350	0.178802
1362	0.368578
1374	0.993288
1386	1.13065
1398	0.437258
1410	0.329719
1422	0.301059
1434	0.244514
1446	0.241415
1458	0.534986
1470	0.563001
1482	0.541699
1494	0.540796
1506	0.249807
1518	0.102505
1530	0.0796541
1542	0.0835271
1554	0.113994
1566	0.232636
1578	0.497289
1590	0.70359
1602	0.564679
1614	0.184224
1626	0.0596437
1638	0.0211722
1650	0.010457
1662	0.00580945
1674	0.0180739
1686	0.0258198
1698	0.0189776
1710	0.0138136
1722	0.020914
1734	0.0161374
1746	0.0121353
1758	0.00903693
1770	0.0105861
1782	0.00929513
1794	0.00722954
1806	0.00658405
1818	0.00503486
1830	0.00413117
1842	0.00426027
1854	0.000516396
1866	0.00245288
1878	0.00180739
1890	0.00258198
1902	0.00142009
1914	0.00232378
1926	0.00400207
1938	0.00632585
1950	0.00929513
1962	0.00826234
1974	0.00645495
1986	0.00774594
1998	0.0101988
2010	0.0136845
2022	0.0147173
2034	0.00929513
2046	0.00722954
2058	0.00697135
2070	0.00890783
2082	0.00839144
2094	0.00697135
2106	0.00658405
2118	0.00490576
2130	0.00361477
2142	0.00400207
2154	0.00542216
2166	0.00606765
2178	0.00464756
2190	0.00245288
2202	0.00154919
2214	0.00142009
2226	0.00116189
2238	0.000903693
2250	0.00193649
2262	0.00309838
2274	0.00426027
2286	0.00516396
2298	0.00490576
2310	0.00451847
2322	0.00142009
2334	0.000516396
2346	0.000516396
2358	0.000516396
2370	0.000516396
2382	0.00335657
2394	0.00296928
2406	0.00438937
2418	0.00413117
2430	0.00245288
2442	0.00180739
2454	0.00219468
2466	0.00348567
2478	0.00477666
2490	0.00580945
2502	0.00606765
2514	0.00568036
2526	0.00490576
2538	0.00477666
2550	0.00451847
2562	0.00464756
2574	0.00490576
2586	0.00542216
2598	0.00671315
2610	0.00684225
2622	0.00580945
2634	0.00529306
2646	0.00516396
2658	0.00438937
2670	0.00348567
2682	0.00387297
2694	0.00413117
2706	0.00516396
2718	0.00619675
2730	0.00787504
2742	0.00890783
2754	0.00968242
2766	0.0109734
2778	0.0134263
2790	0.0174284
2802	0.0250452
2814	0.0386006
2826	0.0655823
2838	0.123548
2850	0.134521
2862	0.16473
2874	0.18487
2886	0.168732
2898	0.153628
2910	0.157372
2922	0.168603
2934	0.22205
2946	0.361477
2958	0.384844
2970	0.266977
2982	0.201524
2994	0.176607
3006	0.190937
3018	0.17764
3030	0.0804287
3042	0.0451846
3054	0.0355022
3066	0.0317584
3078	0.0287891
3090	0.0236251
3102	0.0185903
3114	0.0138136
3126	0.00955333
3138	0.00735864
3150	0.00555126
3162	0.00387297
3174	0.00284018
3186	0.00219468
3198	0.00142009
3210	0.00129099
3222	0.00142009
3234	0.00180739
3246	0.00129099
3258	0.00129099
3270	0.00142009
3282	0.00142009
3294	0.00167829
3306	0.00245288
3318	0.00271108
3330	0.00335657
3342	0.00464756
3354	0.00503486
3366	0.00529306
3378	0.00593855
3390	0.00619675
3402	0.00658405
3414	0.00787504
3426	0.00826234
3438	0.00826234
3450	0.00839144
3462	0.00942423
3474	0.010457
3486	0.0132972
3498	0.0175575
3510	0.0250452
3522	0.0307256
3534	0.0317584
3546	0.0317584
3558	0.0293055
3570	0.0265944
3582	0.020914
3594	0.0203976
3606	0.0140718
3618	0.0122644
3630	0.0145882
3642	0.0139427
3654	0.0194939
3666	0.020914
3678	0.022205
3690	0.0116189
3702	0.00606765
3714	0.00426027
3726	0.00296928
3738	0.00284018
3750	0.000258198
3762	0.000516396
3774	0.000516396
3786	0.000516396
3798	0.00103279
3810	0.000516396
3822	0.00180739
3834	0.000516396
3846	0.00167829
3858	0.00219468
3870	0.00232378
3882	0.00206558
3894	0.00284018
3906	0.00322748
3918	0.00477666
3930	0.00361477
3942	0.00154919
3954	0.00206558
3966	0.00142009
