Infrared Spectrum: Butanoic acid, 3-methyl-
Formula: C 5 H 10 O 2
CAS: 503-74-2
Origin: Sadtler Research Labs Under US-EPA Contract
1/CM	ABSORBANCE
450	0.00300426
462	0.0233408
474	0.0314292
486	0.0531523
498	0.0677114
510	0.0848126
522	0.110233
534	0.140738
546	0.188806
558	0.229017
570	0.23595
582	0.247736
594	0.275237
606	0.318683
618	0.330238
630	0.328851
642	0.258366
654	0.158533
666	0.109771
678	0.0901278
690	0.112313
702	0.111851
714	0.0848126
726	0.0737199
738	0.0681736
750	0.0586986
762	0.0513035
774	0.0374377
786	0.0207987
798	0.0219542
810	0.0240341
822	0.028656
834	0.0362822
846	0.0374377
858	0.0378999
870	0.0385932
882	0.0365133
894	0.0390554
906	0.0369755
918	0.0344335
930	0.0355889
942	0.0348956
954	0.0425218
966	0.0492237
978	0.0448328
990	0.038131
1002	0.0462194
1014	0.0633206
1026	0.0767242
1038	0.105611
1050	0.174478
1062	0.316372
1074	0.540767
1086	0.816697
1098	0.892497
1110	0.713165
1122	0.533603
1134	0.56041
1146	0.655391
1158	0.751759
1170	0.706232
1182	0.479988
1194	0.276161
1206	0.168239
1218	0.138889
1230	0.135423
1242	0.130801
1254	0.123637
1266	0.123175
1278	0.138658
1290	0.162923
1302	0.17055
1314	0.1516
1326	0.144436
1338	0.146284
1350	0.192273
1362	0.253051
1374	0.359818
1386	0.368138
1398	0.224164
1410	0.135192
1422	0.108847
1434	0.10538
1446	0.120864
1458	0.156222
1470	0.199206
1482	0.141662
1494	0.0660937
1506	0.0247274
1518	0.0161768
1530	0.0131725
1542	0.00323536
1554	0.0168701
1566	0.0196432
1578	0.0203365
1590	0.0226475
1602	0.023803
1614	0.0244963
1626	0.0175634
1638	0.0164079
1650	0.0138658
1662	0.026114
1674	0.0194121
1686	0.0281938
1698	0.0383621
1710	0.0924388
1722	0.200823
1734	0.270152
1746	0.435387
1758	0.924388
1770	1.461
1782	1.96363
1794	1.03139
1806	0.403958
1818	0.176558
1830	0.0741821
1842	0.0457572
1854	0.0337402
1866	0.021492
1878	0.021492
1890	0.0140969
1902	0.0140969
1914	0.0134036
1926	0.0136347
1938	0.0154835
1950	0.0157146
1962	0.0140969
1974	0.0127103
1986	0.0115548
1998	0.00878169
2010	0.00947498
2022	0.00808839
2034	0.00831949
2046	0.0078573
2058	0.00647072
2070	0.00508413
2082	0.00462194
2094	0.00369755
2106	0.00439084
2118	0.00439084
2130	0.00415975
2142	0.00439084
2154	0.00462194
2166	0.00462194
2178	0.00508413
2190	0.00623962
2202	0.00623962
2214	0.00600852
2226	0.00554633
2238	0.00485304
2250	0.00462194
2262	0.00254207
2274	0.000693291
2286	0.000231097
2298	0.000231097
2310	0.000462194
2322	0.00138658
2334	0.000693291
2346	0
2358	0.00184878
2370	0
2382	0.000231097
2394	0.00184878
2406	0.00207987
2418	0.00254207
2430	0.00231097
2442	0.00207987
2454	0.00231097
2466	0.00254207
2478	0.00277316
2490	0.00300426
2502	0.00323536
2514	0.00346645
2526	0.00392865
2538	0.00369755
2550	0.00369755
2562	0.00369755
2574	0.00369755
2586	0.00439084
2598	0.00554633
2610	0.00623962
2622	0.0078573
2634	0.00924388
2646	0.00970607
2658	0.00970607
2670	0.00924388
2682	0.00947498
2694	0.00947498
2706	0.00947498
2718	0.0108616
2730	0.0154835
2742	0.0194121
2754	0.0191811
2766	0.0171012
2778	0.0171012
2790	0.0180256
2802	0.0198743
2814	0.0244963
2826	0.0321225
2838	0.0406731
2850	0.0522279
2862	0.081115
2874	0.183491
2886	0.279396
2898	0.266917
2910	0.250971
2922	0.29488
2934	0.399798
2946	0.49917
2958	0.637366
2970	0.908442
2982	0.803524
2994	0.37068
3006	0.12433
3018	0.0561566
3030	0.0406731
3042	0.0362822
3054	0.0348956
3066	0.0344335
3078	0.0330469
3090	0.0316603
3102	0.030967
3114	0.0311981
3126	0.030967
3138	0.0314292
3150	0.0311981
3162	0.030967
3174	0.0307359
3186	0.0307359
3198	0.0298115
3210	0.0275005
3222	0.0235719
3234	0.0207987
3246	0.0182567
3258	0.0168701
3270	0.0159457
3282	0.0152524
3294	0.0150213
3306	0.0145591
3318	0.0122481
3330	0.0117859
3342	0.0110927
3354	0.00970607
3366	0.00924388
3378	0.00970607
3390	0.00878169
3402	0.0073951
3414	0.00647072
3426	0.00508413
3438	0.00439084
3450	0.00277316
3462	0.00254207
3474	0.00439084
3486	0.00439084
3498	0.00623962
3510	0.00947498
3522	0.0150213
3534	0.0212609
3546	0.030967
3558	0.118091
3570	0.546313
3582	0.563646
3594	0.138427
3606	0.0168701
3618	0.00623962
3630	0.00415975
3642	0.00323536
3654	0.00161768
3666	0.00277316
3678	0.00161768
3690	0.000231097
3702	0.00161768
3714	0
3726	0.00161768
3738	0.000693291
3750	0.000231097
3762	0.00231097
3774	0.00300426
3786	0.00184878
3798	0.00415975
3810	0.00462194
3822	0.00554633
3834	0.00508413
3846	0.00623962
3858	0.00415975
3870	0.00346645
3882	0.00439084
3894	0.00554633
3906	0.00439084
3918	0.00647072
3930	0.00600852
3942	0.00485304
3954	0.00600852
3966	0.0073951
