Infrared Spectrum: Benzene, 1,2,4-trichloro-3-methoxy-
Formula: C 7 H 5 Cl 3 O
CAS: 50375-10-5
Origin: Sadtler Research Labs Under US-EPA Contract
1/CM	ABSORBANCE
450	0
462	0.0448894
474	0.0300004
486	0.0537044
498	0.0643712
510	0.0480747
522	0.0557044
534	0.0480006
546	0.040445
558	0.0419264
570	0.0574081
582	0.0505191
594	0.0453339
606	0.0679268
618	0.146965
630	0.173854
642	0.0891122
654	0.0477784
666	0.0401487
678	0.0380745
690	0.0360004
702	0.040445
714	0.0398524
726	0.0366671
738	0.0408894
750	0.0579266
762	0.0491117
774	0.0508154
786	0.0881492
798	0.458895
810	0.332967
822	0.085927
834	0.0578526
846	0.0511858
858	0.0588156
870	0.136076
882	0.138817
894	0.0556303
906	0.0522229
918	0.0479265
930	0.0478524
942	0.0501488
954	0.0501488
966	0.0498525
978	0.0527414
990	0.072149
1002	0.20304
1014	0.666305
1026	0.50134
1038	0.119927
1050	0.084001
1062	0.0746676
1074	0.0557044
1086	0.060297
1098	0.0816306
1110	0.109409
1122	0.0585933
1134	0.0600748
1146	0.0540747
1158	0.0571859
1170	0.15452
1182	0.264522
1194	0.0848899
1206	0.070149
1218	0.0846677
1230	0.118594
1242	0.162002
1254	0.219336
1266	0.150891
1278	0.0991864
1290	0.0702231
1302	0.0421487
1314	0.0433339
1326	0.0438524
1338	0.044445
1350	0.0707416
1362	0.0985198
1374	0.269855
1386	0.689638
1398	0.319115
1410	0.0963716
1422	0.273559
1434	0.530303
1446	0.207632
1458	0.376375
1470	0.420894
1482	0.0929641
1494	0.0640008
1506	0.0627415
1518	0.0588156
1530	0.0519266
1542	0.0639267
1554	0.095779
1566	0.105705
1578	0.05926
1590	0.0492599
1602	0.0545933
1614	0.0461487
1626	0.0411857
1638	0.0442228
1650	0.045408
1662	0.0361486
1674	0.0402968
1686	0.0384449
1698	0.0392597
1710	0.0377782
1722	0.0407412
1734	0.0406672
1746	0.0370375
1758	0.0351856
1770	0.035556
1782	0.0347412
1794	0.0357782
1806	0.0358523
1818	0.0362967
1830	0.0377782
1842	0.0353338
1854	0.0408153
1866	0.0512599
1878	0.0452598
1890	0.0413338
1902	0.0378523
1914	0.0340004
1926	0.0336301
1938	0.0337041
1950	0.0333338
1962	0.0340745
1974	0.0341486
1986	0.0351115
1998	0.0357782
2010	0.0378523
2022	0.0399264
2034	0.0405931
2046	0.0364449
2058	0.0357041
2070	0.0340004
2082	0.0332597
2094	0.0331115
2106	0.0334819
2118	0.034593
2130	0.0350375
2142	0.0337041
2154	0.0320745
2166	0.0317782
2178	0.0319263
2190	0.0319263
2202	0.03163
2214	0.0314078
2226	0.0320004
2238	0.032593
2250	0.0343708
2262	0.0371857
2274	0.0351115
2286	0.032593
2298	0.032593
2310	0.0334819
2322	0.0336301
2334	0.036519
2346	0.0393338
2358	0.0308152
2370	0.0400005
2382	0.0348152
2394	0.0300004
2406	0.0300744
2418	0.0305189
2430	0.0315559
2442	0.0319263
2454	0.0312596
2466	0.0319263
2478	0.0338523
2490	0.0354819
2502	0.0345189
2514	0.0332597
2526	0.0323708
2538	0.0313337
2550	0.0310374
2562	0.0314819
2574	0.0319263
2586	0.0317041
2598	0.0322226
2610	0.0329634
2622	0.0329634
2634	0.0339264
2646	0.033556
2658	0.0321485
2670	0.0320004
2682	0.0320004
2694	0.0320004
2706	0.0319263
2718	0.0325189
2730	0.0322967
2742	0.0323708
2754	0.0328893
2766	0.0341486
2778	0.035556
2790	0.0368153
2802	0.0376301
2814	0.0406672
2826	0.0436302
2838	0.0528896
2850	0.06126
2862	0.0739269
2874	0.0793343
2886	0.0628897
2898	0.0613341
2910	0.0621489
2922	0.0609637
2934	0.0714824
2946	0.149928
2958	0.156595
2970	0.0933345
2982	0.0799269
2994	0.0635563
3006	0.0693342
3018	0.0870381
3030	0.0708898
3042	0.056297
3054	0.0509636
3066	0.0499266
3078	0.049334
3090	0.0453339
3102	0.0408153
3114	0.0398524
3126	0.0374079
3138	0.0362967
3150	0.0351856
3162	0.0348152
3174	0.0351115
3186	0.0348152
3198	0.0342227
3210	0.0341486
3222	0.0346671
3234	0.0346671
3246	0.0353338
3258	0.0348893
3270	0.0347412
3282	0.0347412
3294	0.0342227
3306	0.0345189
3318	0.0338523
3330	0.0337782
3342	0.0351115
3354	0.0347412
3366	0.0346671
3378	0.0345189
3390	0.0343708
3402	0.034593
3414	0.0344449
3426	0.0352597
3438	0.0345189
3450	0.033556
3462	0.0346671
3474	0.033556
3486	0.0337041
3498	0.0346671
3510	0.0332597
3522	0.0342227
3534	0.034593
3546	0.0339264
3558	0.0328893
3570	0.0338523
3582	0.0351856
3594	0.0340004
3606	0.034593
3618	0.0338523
3630	0.0374079
3642	0.0344449
3654	0.0368894
3666	0.0368894
3678	0.0322226
3690	0.035556
3702	0.0354819
3714	0.0348152
3726	0.030593
3738	0.0303707
3750	0.0418524
3762	0.033556
3774	0.0338523
3786	0.0303707
3798	0.0358523
3810	0.0354078
3822	0.035556
3834	0.0357782
3846	0.0377042
3858	0.0315559
3870	0.030593
3882	0.0356301
3894	0.0321485
3906	0.0322967
3918	0.0348893
3930	0.0327411
3942	0.0328152
3954	0.0342967
3966	0.0352597
