Infrared Spectrum: 2,5-Heptadien-4-one, 2,6-dimethyl-
Formula: C 9 H 14 O
CAS: 504-20-1
Origin: Sadtler Research Labs Under US-EPA Contract
1/CM	ABSORBANCE
450	0.0159268
462	0.0102508
474	0.00254151
486	0.00686208
498	0.00152491
510	0.00864113
522	0.0055066
534	0.00779396
546	0.00465943
558	0.00711623
570	0.00321925
582	0.00787868
594	0.0120298
606	0.00787868
618	0.0120298
630	0.012284
642	0.00999661
654	0.0079634
666	0.0055066
678	0.00211792
690	0.00711623
702	0.0127923
714	0.0192308
726	0.0127075
738	0.0141477
750	0.0350728
762	0.146306
774	0.131904
786	0.0262623
798	0.0118604
810	0.0141477
822	0.0175364
834	0.0256693
846	0.0284649
858	0.0683666
870	0.0947136
882	0.0410877
894	0.0239749
906	0.0194002
918	0.0154185
930	0.0141477
942	0.0136394
954	0.0161809
966	0.0267706
978	0.0287191
990	0.0279566
1002	0.0352423
1014	0.0697221
1026	0.176635
1038	0.200779
1050	0.0956455
1062	0.0517621
1074	0.0387157
1086	0.0575228
1098	0.168079
1110	0.34124
1122	0.123856
1134	0.0451542
1146	0.043121
1158	0.038631
1170	0.0278719
1182	0.0301593
1194	0.0442223
1206	0.105049
1218	0.184429
1230	0.106828
1242	0.0529481
1254	0.0267706
1266	0.021857
1278	0.0186377
1290	0.0194002
1302	0.0220264
1314	0.0227889
1326	0.0246526
1338	0.0329549
1350	0.0602338
1362	0.104541
1374	0.128855
1386	0.187648
1398	0.1153
1410	0.0678583
1422	0.0681125
1434	0.105134
1446	0.175703
1458	0.17799
1470	0.0865808
1482	0.0527787
1494	0.0417655
1506	0.0401559
1518	0.0391393
1530	0.0369366
1542	0.039817
1554	0.0420196
1566	0.0485428
1578	0.0657404
1590	0.09878
1602	0.17655
1614	0.345391
1626	0.604456
1638	0.84717
1650	0.544307
1662	0.214419
1674	0.233141
1686	0.223399
1698	0.109624
1710	0.0432057
1722	0.0266859
1734	0.0327008
1746	0.0288038
1758	0.0178753
1770	0.0141477
1782	0.00872585
1794	0.0074551
1806	0.00533717
1818	0.00474415
1830	0.00372755
1842	0.0055066
1854	0.00228736
1866	0.00516774
1878	0.00406642
1890	0.00525245
1902	0.00432057
1914	0.00703151
1926	0.00711623
1938	0.00703151
1950	0.00465943
1962	0.0039817
1974	0.00313453
1986	0.00288038
1998	0.00118604
2010	0.00110132
2022	0.000931887
2034	0.00288038
2046	0.00449
2058	0.00220264
2070	0.00177906
2082	0.00220264
2094	0.00203321
2106	0.00203321
2118	0.00313453
2130	0.0034734
2142	0.00440528
2154	0.00389698
2166	0.00449
2178	0.00389698
2190	0.00338868
2202	0.00177906
2214	0.00194849
2226	0.00110132
2238	0.00194849
2250	0.000762453
2262	0.000762453
2274	0.000593019
2286	0.00211792
2298	0.00389698
2310	0.0049983
2322	0.00593019
2334	0.00406642
2346	0.00254151
2358	0.00567604
2370	0.000931887
2382	0.00194849
2394	0.00465943
2406	0.00364283
2418	0.00449
2430	0.0034734
2442	0.00372755
2454	0.00372755
2466	0.00525245
2478	0.00364283
2490	0.00440528
2502	0.00245679
2514	0.00194849
2526	0.00127075
2538	0.00118604
2550	0.00110132
2562	0.00135547
2574	0.00338868
2586	0.00304981
2598	0.00237208
2610	0.000508302
2622	0.00118604
2634	0.000762453
2646	0.00313453
2658	0.00228736
2670	0.00406642
2682	0.00228736
2694	0.00304981
2706	0.00313453
2718	0.00703151
2730	0.0115215
2742	0.0151643
2754	0.0116909
2766	0.00855642
2778	0.00643849
2790	0.00737038
2802	0.00982717
2814	0.0138089
2826	0.0182142
2838	0.0265164
2850	0.0456625
2862	0.0780244
2874	0.0898
2886	0.0894612
2898	0.103185
2910	0.146476
2922	0.274822
2934	0.218146
2946	0.16918
2958	0.121569
2970	0.117418
2982	0.164436
2994	0.123348
3006	0.0755676
3018	0.0699762
3030	0.0674347
3042	0.0576923
3054	0.0411725
3066	0.0319383
3078	0.0273636
3090	0.0232125
3102	0.0181294
3114	0.012877
3126	0.00991189
3138	0.0084717
3150	0.00753981
3162	0.00609962
3174	0.00449
3186	0.00338868
3198	0.00432057
3210	0.00330396
3222	0.00626906
3234	0.00423585
3246	0.00432057
3258	0.00271094
3270	0.00635377
3282	0.00440528
3294	0.00762453
3306	0.00559132
3318	0.00694679
3330	0.0049983
3342	0.00432057
3354	0.00457472
3366	0.00372755
3378	0.00482887
3390	0.00245679
3402	0.00440528
3414	0.00313453
3426	0.00449
3438	0.00186377
3450	0.00186377
3462	0.00288038
3474	0.00542189
3486	0.00203321
3498	0.0034734
3510	0.00381226
3522	0.00533717
3534	0.00516774
3546	0.00703151
3558	0.00652321
3570	0.00406642
3582	0.00516774
3594	0.00355811
3606	0.00364283
3618	0.00211792
3630	0.00262623
3642	0.00406642
3654	0.00084717
3666	0.00338868
3678	0.00084717
3690	0.00355811
3702	0.00152491
3714	0.00118604
3726	0.00338868
3738	0.00169434
3750	0.00203321
3762	0
3774	0.00203321
3786	0.00152491
3798	0.00186377
3810	0.000593019
3822	0.0039817
3834	0.00160962
3846	0.00084717
3858	0.000677736
3870	0.00194849
3882	0.00152491
3894	0.000423585
3906	0.00169434
3918	0.00177906
3930	0.00160962
3942	0.000677736
3954	0.00245679
3966	0.00084717
