Infrared Spectrum: 10-Nonadecanone
Formula: C 19 H 38 O
CAS: 504-57-4
Origin: Sadtler Research Labs Under US-EPA Contract
1/CM	ABSORBANCE
450	0.000900487
462	0.00604613
474	0.00939079
486	0.00553156
498	0.00450243
510	0.00656069
522	0.00797574
534	0.00861895
546	0.0056602
558	0.005017
570	0.00385923
582	0.00347331
594	0.00167233
606	0.00514564
618	0.00488836
630	0.00321602
642	0.00270146
654	0.00180097
666	0
678	0.00205826
690	0.005017
702	0.00964808
714	0.0204539
726	0.0226408
738	0.0186529
750	0.0136359
762	0.0128641
774	0.0105486
786	0.00900487
798	0.00617477
810	0.00707525
822	0.00656069
834	0.00591749
846	0.00681797
858	0.00656069
870	0.00849031
882	0.0108058
894	0.0122209
906	0.0117063
918	0.0122209
930	0.0126068
942	0.0137646
954	0.0158228
966	0.0181384
978	0.0190389
990	0.0201966
1002	0.0262428
1014	0.0339612
1026	0.0384637
1038	0.0371772
1050	0.0374345
1062	0.0437379
1074	0.0532574
1086	0.0558302
1098	0.0450244
1110	0.0397501
1122	0.046568
1134	0.0562161
1146	0.0470826
1158	0.0396214
1170	0.0407792
1182	0.0437379
1194	0.0432234
1206	0.0391069
1218	0.0356336
1230	0.0347331
1242	0.0355049
1254	0.0358908
1266	0.0384637
1278	0.0436093
1290	0.0446384
1302	0.0493981
1314	0.0487549
1326	0.0484977
1338	0.0653496
1350	0.0937793
1362	0.103942
1374	0.0764128
1386	0.0568593
1398	0.0391069
1410	0.0461821
1422	0.0549297
1434	0.0571166
1446	0.0814298
1458	0.126583
1470	0.104714
1482	0.0400074
1494	0.018267
1506	0.0142792
1518	0.00913351
1530	0.0072039
1542	0.00591749
1554	0.005017
1566	0.00424515
1578	0.00450243
1590	0.00553156
1602	0.00681797
1614	0.00797574
1626	0.00836167
1638	0.00874759
1650	0.0101626
1662	0.0110631
1674	0.018267
1686	0.0299734
1698	0.0523569
1710	0.122852
1722	0.28494
1734	0.205311
1746	0.0707525
1758	0.0379491
1770	0.0277865
1782	0.0196821
1794	0.01325
1806	0.010034
1818	0.00707525
1830	0.00398787
1842	0.0028301
1854	0.00180097
1866	0.00154369
1878	0.00115777
1890	0.00115777
1902	0.000900487
1914	0.000514564
1926	0.000257282
1938	0.000257282
1950	0.000385923
1962	0.000257282
1974	0
1986	0
1998	0.000385923
2010	0.000514564
2022	0.00102913
2034	0.00141505
2046	0.00167233
2058	0.00141505
2070	0.00167233
2082	0.00154369
2094	0.00115777
2106	0.00141505
2118	0.00154369
2130	0.00141505
2142	0.000771846
2154	0.00128641
2166	0.00205826
2178	0.00231554
2190	0.0021869
2202	0.00167233
2214	0.00115777
2226	0.000514564
2238	0.000257282
2250	0
2262	0.000257282
2274	0.000514564
2286	0.00115777
2298	0.00205826
2310	0.00295874
2322	0.0028301
2334	0.00167233
2346	0.00295874
2358	0.00295874
2370	0.00167233
2382	0.0028301
2394	0.00102913
2406	0.00102913
2418	0.000643205
2430	0.000771846
2442	0.000771846
2454	0.000643205
2466	0.000771846
2478	0.00102913
2490	0.000900487
2502	0.00115777
2514	0.00154369
2526	0.00231554
2538	0.00257282
2550	0.00257282
2562	0.00334467
2574	0.00398787
2586	0.00424515
2598	0.00514564
2610	0.00578884
2622	0.00694661
2634	0.00823302
2646	0.00926215
2658	0.0109345
2670	0.0127355
2682	0.0146651
2694	0.0151796
2706	0.0155656
2718	0.0159515
2730	0.016466
2742	0.0180097
2754	0.018267
2766	0.0194248
2778	0.0225122
2790	0.0289442
2802	0.0384637
2814	0.0506846
2826	0.0675365
2838	0.100855
2850	0.210714
2862	0.487035
2874	0.433263
2886	0.346816
2898	0.346559
2910	0.491795
2922	0.833594
2934	1.28641
2946	0.931232
2958	0.60577
2970	0.536176
2982	0.228338
2994	0.106901
3006	0.0639346
3018	0.0443811
3030	0.0321603
3042	0.0241845
3054	0.0186529
3066	0.0153083
3078	0.0127355
3090	0.0111918
3102	0.00964808
3114	0.00874759
3126	0.00733254
3138	0.00630341
3150	0.00578884
3162	0.00553156
3174	0.00488836
3186	0.00450243
3198	0.00385923
3210	0.00295874
3222	0.00205826
3234	0.00167233
3246	0.00141505
3258	0.000900487
3270	0.000771846
3282	0.000643205
3294	0.00102913
3306	0.000771846
3318	0.000771846
3330	0.00141505
3342	0.00102913
3354	0.00141505
3366	0.0021869
3378	0.00180097
3390	0.00257282
3402	0.00295874
3414	0.00385923
3426	0.00488836
3438	0.00398787
3450	0.0021869
3462	0.00192961
3474	0.000514564
3486	0.00102913
3498	0.000385923
3510	0.000514564
3522	0.000643205
3534	0.000257282
3546	0.00102913
3558	0.000643205
3570	0.00244418
3582	0.00257282
3594	0.00180097
3606	0.000385923
3618	0.00102913
3630	0.00244418
3642	0.00154369
3654	0.00141505
3666	0.00180097
3678	0.00167233
3690	0.00141505
3702	0.00167233
3714	0.000771846
3726	0.00192961
3738	0.00141505
3750	0.000643205
3762	0.000128641
3774	0.00141505
3786	0.000514564
3798	0.000900487
3810	0.00180097
3822	0.00141505
3834	0.0021869
3846	0.00115777
3858	0.00231554
3870	0.00154369
3882	0.00205826
3894	0.000771846
3906	0.0021869
3918	0.00295874
3930	0.00295874
3942	0.00180097
3954	0.00411651
3966	0.00463108
