Infrared Spectrum: Nanofin
Formula: C 7 H 15 N
CAS: 504-03-0
Origin: Sadtler Research Labs Under US-EPA Contract
1/CM	ABSORBANCE
450	0.0036498
462	0.0128572
474	0.0353367
486	0.0537516
498	0.0280371
510	0.00389865
522	0.00257145
534	0.0194103
546	0.0189126
558	0.0163411
570	0.00572355
582	0.00439635
594	0.0014931
606	0.0036498
618	0.00489405
630	0.0034839
642	0.0056406
654	0.00588945
666	0.0104517
678	0.0191615
690	0.0388206
702	0.0710052
714	0.105264
726	0.133135
738	0.106757
750	0.0375764
762	0.00456225
774	0.00273735
786	0.0028203
798	0.0114471
810	0.0187467
822	0.014848
834	0.0044793
846	0.00290325
858	0.0028203
870	0.0023226
882	0.0018249
894	0.0044793
906	0.00804615
918	0.0105346
930	0.0160093
942	0.00987105
954	0.0114471
966	0.0169218
978	0.0119448
990	0.00389865
1002	0.00356685
1014	0.0122766
1026	0.0111982
1038	0.00174195
1050	0.0036498
1062	0.0142674
1074	0.0313551
1086	0.0362492
1098	0.0366639
1110	0.0457055
1122	0.0851067
1134	0.106757
1146	0.0608023
1158	0.0391524
1170	0.0301108
1182	0.0190785
1194	0.0156775
1206	0.0145162
1218	0.0209864
1230	0.0136867
1242	0.0046452
1254	0.0086268
1266	0.0113641
1278	0.0119448
1290	0.0196592
1302	0.0642863
1314	0.157273
1326	0.144416
1338	0.0549129
1350	0.0299449
1362	0.0525074
1374	0.116545
1386	0.101282
1398	0.0252997
1410	0.0145992
1422	0.0656135
1434	0.102775
1446	0.111236
1458	0.127494
1470	0.0881759
1482	0.0341754
1494	0.0063042
1506	0.004977
1518	0.0023226
1530	0.0004977
1542	0
1554	0.00190785
1566	0.0009954
1578	0.00124425
1590	0.00124425
1602	0.0018249
1614	0.00240555
1626	0.00157605
1638	0.00091245
1650	0.0026544
1662	0.0026544
1674	0.00389865
1686	0.0024885
1698	0.0026544
1710	0.00240555
1722	0.00091245
1734	0.0019908
1746	0.00207375
1758	0.0009954
1770	0.001659
1782	0.0009954
1794	0.00074655
1806	0.0018249
1818	0.0018249
1830	0.0014931
1842	0.0023226
1854	0.00207375
1866	0.0031521
1878	0.0014931
1890	0.0008295
1902	0.0013272
1914	0.00141015
1926	0.00091245
1938	0.0018249
1950	0.0014931
1962	0.00107835
1974	0.00058065
1986	0.0003318
1998	0.00124425
2010	0.00174195
2022	0.0011613
2034	0.0011613
2046	0.0008295
2058	0.0009954
2070	0.0006636
2082	0.0004977
2094	0.00124425
2106	0.0013272
2118	0.00091245
2130	0.00091245
2142	0.00091245
2154	0.0006636
2166	0.0008295
2178	0.0004977
2190	0.00091245
2202	0.00074655
2214	0.0006636
2226	0.0008295
2238	0.0003318
2250	0.00041475
2262	0.00107835
2274	0.0003318
2286	0.00041475
2298	0.0013272
2310	0.0014931
2322	0.0024885
2334	0.0008295
2346	0
2358	0.0013272
2370	0
2382	8.295e-05
2394	0.00124425
2406	0.00124425
2418	0.0018249
2430	0.001659
2442	0.0008295
2454	0.0023226
2466	0.0028203
2478	0.00356685
2490	0.0034839
2502	0.00207375
2514	0.00157605
2526	0.00240555
2538	0.0019908
2550	0.0024885
2562	0.00406455
2574	0.0086268
2586	0.0210693
2598	0.036415
2610	0.034756
2622	0.0241384
2634	0.0167559
2646	0.01659
2658	0.0201569
2670	0.0262122
2682	0.029779
2694	0.0343413
2706	0.0448759
2718	0.0484428
2730	0.0437976
2742	0.0394012
2754	0.0404796
2766	0.0550788
2778	0.0851067
2790	0.132886
2802	0.185476
2814	0.154951
2826	0.106508
2838	0.109826
2850	0.155614
2862	0.204804
2874	0.225126
2886	0.185725
2898	0.165402
2910	0.260629
2922	0.520179
2934	0.738089
2946	0.574761
2958	0.402142
2970	0.408114
2982	0.226702
2994	0.0694291
3006	0.0127743
3018	0.00671895
3030	0.00572355
3042	0.0058065
3054	0.0058065
3066	0.0068019
3078	0.0086268
3090	0.008295
3102	0.0077973
3114	0.00688485
3126	0.0063042
3138	0.00622125
3150	0.00472815
3162	0.00505995
3174	0.00605535
3186	0.0068019
3198	0.00738255
3210	0.0063042
3222	0.0048111
3234	0.0044793
3246	0.0028203
3258	0.0023226
3270	0.00257145
3282	0.0024885
3294	0.00439635
3306	0.00389865
3318	0.00406455
3330	0.00804615
3342	0.00721665
3354	0.0043134
3366	0.00456225
3378	0.0028203
3390	0.00290325
3402	0.00340095
3414	0.0029862
3426	0.0034839
3438	0.00290325
3450	0.0019908
3462	0.0029862
3474	0.00223965
3486	0.0029862
3498	0.00290325
3510	0.00207375
3522	0.00157605
3534	0.00141015
3546	0.0011613
3558	0.0018249
3570	0.0004977
3582	0.001659
3594	0.0018249
3606	0.0023226
3618	0.00207375
3630	0.0023226
3642	0.00190785
3654	0.00190785
3666	0.00157605
3678	0.0011613
3690	0.0021567
3702	0.00207375
3714	0.0008295
3726	0.0024885
3738	0.0013272
3750	0.0026544
3762	0.00141015
3774	0.00141015
3786	0.00257145
3798	0.00273735
3810	0.00107835
3822	0.0019908
3834	0.0024885
3846	0.0026544
3858	0.00223965
3870	0.00107835
3882	0.0026544
3894	0.003318
3906	0.0031521
3918	0.0029862
3930	0.00257145
3942	0.00290325
3954	0.00323505
3966	0.0031521
