Infrared Spectrum: Octanedioic acid
Formula: C 8 H 14 O 4
CAS: 505-48-6
Origin: Sadtler Research Labs Under US-EPA Contract
1/CM	ABSORBANCE
450	0.00426575
462	0.0546264
474	0.0443969
486	0.030937
498	0.0430716
510	0.0303572
522	0.0444797
534	0.0610871
546	0.0655599
558	0.0737601
570	0.0752096
582	0.0858119
594	0.0897463
606	0.0886281
618	0.095006
630	0.0844452
642	0.0614599
654	0.0423675
666	0.0469646
678	0.0376462
690	0.0389301
702	0.0344573
714	0.0439413
726	0.0316411
738	0.023648
750	0.0229025
762	0.0367351
774	0.0286592
786	0.030937
798	0.0293218
810	0.0408766
822	0.0380604
834	0.0366109
846	0.0291562
858	0.0272097
870	0.0245177
882	0.0196307
894	0.0215772
906	0.0216186
918	0.0217015
930	0.0234823
942	0.0239379
954	0.0253874
966	0.0273339
978	0.0318896
990	0.0369422
1002	0.0383089
1014	0.0413736
1026	0.0483313
1038	0.0598861
1050	0.0704055
1062	0.0971596
1074	0.123417
1086	0.132984
1098	0.159448
1110	0.205998
1122	0.249567
1134	0.228528
1146	0.174026
1158	0.145491
1170	0.137001
1182	0.132031
1194	0.120145
1206	0.102751
1218	0.0890008
1230	0.0804693
1242	0.0791855
1254	0.0727662
1266	0.0713166
1278	0.062371
1290	0.0589335
1302	0.0544193
1314	0.0525556
1326	0.0526385
1338	0.0608386
1350	0.0690388
1362	0.0779844
1374	0.086019
1386	0.090119
1398	0.0719793
1410	0.0515617
1422	0.0483313
1434	0.0468818
1446	0.0431544
1458	0.0510233
1470	0.0419534
1482	0.0313926
1494	0.0303572
1506	0.0285764
1518	0.0324279
1530	0.0317239
1542	0.0313512
1554	0.0277481
1566	0.0260086
1578	0.0312269
1590	0.0357826
1602	0.0332977
1614	0.0282864
1626	0.0318896
1638	0.0389301
1650	0.0295289
1662	0.0265884
1674	0.0343745
1686	0.0452666
1698	0.068956
1710	0.103745
1722	0.123624
1734	0.13903
1746	0.174813
1758	0.231758
1770	0.348093
1782	0.395845
1794	0.233622
1806	0.123789
1818	0.0582709
1830	0.0301087
1842	0.0172286
1854	0.0131286
1866	0.0105608
1878	0.0088214
1890	0.00886281
1902	0.00865574
1914	0.00778602
1926	0.00820017
1938	0.00757895
1950	0.00720621
1962	0.00720621
1974	0.00786885
1986	0.00712338
1998	0.00687489
2010	0.00691631
2022	0.00658499
2034	0.00612942
2046	0.00554961
2058	0.00534254
2070	0.00509405
2082	0.00459707
2094	0.00463848
2106	0.00430716
2118	0.00397584
2130	0.00364452
2142	0.00314754
2154	0.00285764
2166	0.00265056
2178	0.00244349
2190	0.00231924
2202	0.00173943
2214	0.00169802
2226	0.00099396
2238	0.00099396
2250	0.00016566
2262	0.00057981
2274	0.00115962
2286	0.00339603
2298	0.00646074
2310	0.00915272
2322	0.00778602
2334	0.00513546
2346	0.00927696
2358	0.00699914
2370	0.00592235
2382	0.00766178
2394	0.00132528
2406	0.00153236
2418	0.00140811
2430	0.00161519
2442	0.00144953
2454	0.00149094
2466	0.00128387
2478	0.00140811
2490	0.00124245
2502	0.00169802
2514	0.00157377
2526	0.00194651
2538	0.00161519
2550	0.00107679
2562	0.00132528
2574	0.00115962
2586	0.00227783
2598	0.00153236
2610	0.00132528
2622	0.00161519
2634	0.00194651
2646	0.00173943
2658	0.00140811
2670	0.00157377
2682	0.00153236
2694	0.00194651
2706	0.00153236
2718	0.00169802
2730	0.00178085
2742	0.00190509
2754	0.00240207
2766	0.00265056
2778	0.00327179
2790	0.00323037
2802	0.00376877
2814	0.00509405
2826	0.00683348
2838	0.0108507
2850	0.0218257
2862	0.0444383
2874	0.0529284
2886	0.039717
2898	0.0351199
2910	0.0504021
2922	0.0803451
2934	0.114927
2946	0.13493
2958	0.106437
2970	0.0625366
2982	0.0340845
2994	0.0175185
3006	0.00853149
3018	0.00397584
3030	0.00314754
3042	0.00265056
3054	0.00285764
3066	0.00240207
3078	0.00240207
3090	0.00298188
3102	0.00244349
3114	0.00202934
3126	0.0027748
3138	0.00231924
3150	0.0030233
3162	0.0033132
3174	0.00215358
3186	0.00298188
3198	0.0027748
3210	0.00285764
3222	0.00240207
3234	0.00323037
3246	0.00327179
3258	0.00294047
3270	0.00327179
3282	0.00289905
3294	0.0030233
3306	0.00397584
3318	0.00298188
3330	0.0024849
3342	0.00335462
3354	0.00323037
3366	0.0027748
3378	0.00289905
3390	0.00294047
3402	0.00314754
3414	0.0033132
3426	0.00318896
3438	0.00447282
3450	0.00430716
3462	0.00434858
3474	0.00389301
3486	0.00443141
3498	0.00592235
3510	0.00679206
3522	0.00774461
3534	0.00836583
3546	0.0137084
3558	0.0249318
3570	0.109211
3582	0.131824
3594	0.0293218
3606	0.0103952
3618	0.00571527
3630	0.00782744
3642	0.0027748
3654	0.00778602
3666	0.00256773
3678	0.00244349
3690	0.00240207
3702	0.00298188
3714	0.0027748
3726	0.00447282
3738	0.00480414
3750	0.00687489
3762	0.00178085
3774	0.00215358
3786	0.00219499
3798	0.00451424
3810	0.00285764
3822	0.0033132
3834	0.00534254
3846	0.00430716
3858	0.00343745
3870	0.00554961
3882	0.00770319
3894	0.00513546
3906	0.00749612
3918	0.0063365
3930	0.00542537
3942	0.0030233
3954	0.00637791
3966	0.00472131
