Infrared Spectrum: Spirobicyclo[3.2.0]heptane-6,1'-cyclohexan-7-one
Formula: C 12 H 18 O
CAS: 50515-91-8
Origin: Sadtler Research Labs Under US-EPA Contract
1/CM	ABSORBANCE
450	0.0010857
462	0.0048363
474	0.0003948
486	0.0054285
498	0.007896
510	0.0046389
522	0.003948
534	0.0034545
546	0.0041454
558	0.0076986
570	0.0066129
582	0.0054285
594	0.0080934
606	0.0048363
618	0.0038493
630	0.0055272
642	0.0045402
654	0.0031584
666	0.005922
678	0.0024675
690	0.0022701
702	0.0036519
714	0.0026649
726	0.0035532
738	0.0024675
750	0.0040467
762	0.0042441
774	0.0058233
786	0.0045402
798	0.0075999
810	0.0124362
822	0.0150024
834	0.0268464
846	0.0206283
858	0.0155946
870	0.0180621
882	0.0308931
894	0.022701
906	0.0075012
918	0.0111531
930	0.0259581
942	0.0398748
954	0.0308931
966	0.0160881
978	0.03948
990	0.0874482
1002	0.033558
1014	0.0222075
1026	0.0349398
1038	0.0520149
1050	0.0545811
1062	0.0437241
1074	0.0328671
1086	0.0422436
1098	0.0467838
1110	0.0398748
1122	0.0321762
1134	0.0342489
1146	0.0533967
1158	0.0574434
1170	0.0613914
1182	0.028623
1194	0.0188517
1206	0.021714
1218	0.0310905
1230	0.0654381
1242	0.0506331
1254	0.0275373
1266	0.0298074
1278	0.0249711
1290	0.0227997
1302	0.0231945
1314	0.0232932
1326	0.0225036
1338	0.014805
1350	0.0181608
1362	0.0195426
1374	0.0120414
1386	0.0089817
1398	0.0075012
1410	0.0080934
1422	0.0113505
1434	0.0284256
1446	0.0971208
1458	0.105609
1470	0.062181
1482	0.0254646
1494	0.0075999
1506	0.0051324
1518	0.0035532
1530	0.0026649
1542	0.0022701
1554	0.0020727
1566	0.0020727
1578	0.0015792
1590	0.0016779
1602	0.0017766
1614	0.0024675
1626	0.0033558
1638	0.0037506
1650	0.0054285
1662	0.006909
1674	0.0073038
1686	0.0074025
1698	0.0092778
1710	0.0142128
1722	0.0216153
1734	0.0360255
1746	0.065142
1758	0.148938
1770	0.428654
1782	0.590226
1794	0.248921
1806	0.0640563
1818	0.033558
1830	0.0198387
1842	0.0122388
1854	0.0085869
1866	0.006909
1878	0.0060207
1890	0.0042441
1902	0.0038493
1914	0.0032571
1926	0.0033558
1938	0.0028623
1950	0.0020727
1962	0.001974
1974	0.0025662
1986	0.0023688
1998	0.0016779
2010	0.0020727
2022	0.0020727
2034	0.0020727
2046	0.0021714
2058	0.0021714
2070	0.0018753
2082	0.0018753
2094	0.0017766
2106	0.0018753
2118	0.0020727
2130	0.0016779
2142	0.0017766
2154	0.0015792
2166	0.0018753
2178	0.001974
2190	0.0021714
2202	0.0021714
2214	0.0022701
2226	0.0017766
2238	0.001974
2250	0.0014805
2262	0.0017766
2274	0.001974
2286	0.0013818
2298	0.0003948
2310	0
2322	0.0016779
2334	0.002961
2346	0.0027636
2358	0.0028623
2370	0.0021714
2382	0.0014805
2394	0.0018753
2406	0.0013818
2418	0.0010857
2430	0.000987
2442	0.0007896
2454	0.0011844
2466	0.0013818
2478	0.0017766
2490	0.0021714
2502	0.0015792
2514	0.001974
2526	0.0013818
2538	0.0015792
2550	0.0017766
2562	0.0013818
2574	0.0014805
2586	0.0028623
2598	0.0041454
2610	0.0041454
2622	0.0041454
2634	0.0042441
2646	0.0056259
2658	0.0073038
2670	0.0090804
2682	0.0073038
2694	0.0048363
2706	0.0041454
2718	0.0035532
2730	0.003948
2742	0.0043428
2754	0.0052311
2766	0.0065142
2778	0.0080934
2790	0.0105609
2802	0.0134232
2814	0.0151998
2826	0.0188517
2838	0.0411579
2850	0.122092
2862	0.269944
2874	0.278729
2886	0.177463
2898	0.140944
2910	0.1822
2922	0.324328
2934	0.765616
2946	0.92097
2958	0.639576
2970	0.389075
2982	0.0682017
2994	0.0206283
3006	0.0133245
3018	0.0110544
3030	0.0086856
3042	0.0084882
3054	0.0076986
3066	0.0055272
3078	0.0045402
3090	0.0038493
3102	0.0027636
3114	0.0030597
3126	0.0022701
3138	0.0023688
3150	0.0023688
3162	0.0024675
3174	0.0025662
3186	0.0031584
3198	0.0032571
3210	0.0026649
3222	0.0015792
3234	0.0013818
3246	0.0005922
3258	0.000987
3270	0.0014805
3282	0.0013818
3294	0.0012831
3306	0.0012831
3318	0.000987
3330	0.0010857
3342	0.0005922
3354	0.0012831
3366	0.0014805
3378	0.0008883
3390	0.0010857
3402	0.0013818
3414	0.0016779
3426	0.0013818
3438	0.0015792
3450	0.0017766
3462	0.0015792
3474	0.0011844
3486	0.0013818
3498	0.0011844
3510	0.0026649
3522	0.0041454
3534	0.0056259
3546	0.0037506
3558	0.0026649
3570	0.0085869
3582	0.0099687
3594	0.0024675
3606	0.0008883
3618	0.0007896
3630	0.0010857
3642	0.000987
3654	0.000987
3666	0.0004935
3678	0.0003948
3690	0.0005922
3702	0.0014805
3714	0.0010857
3726	0.001974
3738	0.0015792
3750	0.0007896
3762	0.0010857
3774	0.0012831
3786	0.0022701
3798	0.0022701
3810	0.0016779
3822	0.0011844
3834	0.000987
3846	0.0017766
3858	0.0012831
3870	0.0007896
3882	0
3894	0.0011844
3906	0.0010857
3918	0.0010857
3930	0
3942	0.0002961
3954	0.0001974
3966	0.0006909
