Infrared Spectrum: Eicosanoic acid
Formula: C 20 H 40 O 2
CAS: 506-30-9
Origin: Sadtler Research Labs Under US-EPA Contract
1/CM	ABSORBANCE
450	0.0246753
462	0.0275026
474	0.00805373
486	0.0150793
498	0.0209911
510	0.00951026
522	0.0245039
534	0.0289592
546	0.0257891
558	0.0355564
570	0.0349566
582	0.0171356
594	0.0449809
606	0.0323006
618	0.0323006
630	0.0297303
642	0.017821
654	0.0128517
666	0.0126803
678	0.0077967
690	0.0106241
702	0.0135371
714	0.0198773
726	0.020477
738	0.0147366
750	0.0108811
762	0.0104527
774	0.00908187
786	0.00685424
798	0.0105384
810	0.0113095
822	0.0111381
834	0.010367
846	0.00865348
858	0.00848212
870	0.00985297
882	0.00865348
894	0.00959594
906	0.00993865
918	0.00873916
930	0.00959594
942	0.0077967
954	0.00625449
966	0.00736831
978	0.00796805
990	0.00813941
1002	0.0126803
1014	0.0186778
1026	0.0251893
1038	0.0277597
1050	0.0321292
1062	0.0409541
1074	0.055605
1086	0.0743685
1098	0.0921039
1110	0.105041
1122	0.106498
1134	0.104099
1146	0.0840501
1158	0.0689708
1170	0.0589465
1182	0.0517495
1194	0.0460091
1206	0.0417252
1218	0.0371843
1230	0.0334144
1242	0.0323006
1254	0.0333287
1266	0.0373556
1278	0.0323006
1290	0.0298159
1302	0.0305014
1314	0.0281881
1326	0.0267315
1338	0.0339285
1350	0.0461804
1362	0.0496932
1374	0.0490935
1386	0.0463518
1398	0.0345282
1410	0.0281024
1422	0.0266459
1434	0.032986
1446	0.0504643
1458	0.0736831
1470	0.0540628
1482	0.0167929
1494	0.00591178
1506	0.00445526
1518	0.00325576
1530	0.00197059
1542	0.00317009
1554	0.00291305
1566	0.00334144
1578	0.00368415
1590	0.00376983
1602	0.00471229
1614	0.00651153
1626	0.00805373
1638	0.00753966
1650	0.0131087
1662	0.0118236
1674	0.0171356
1686	0.0220192
1698	0.0344426
1710	0.0619452
1722	0.0727406
1734	0.0632304
1746	0.0809657
1758	0.116693
1770	0.170671
1782	0.190291
1794	0.1017
1806	0.0521779
1818	0.0206484
1830	0.0077967
1842	0.00248466
1854	0.00145653
1866	0.000685424
1878	0.00042839
1890	0.000514068
1902	0.000599746
1914	0.000342712
1926	8.5678e-05
1938	0.00102814
1950	0.000599746
1962	0.000514068
1974	0.000514068
1986	0.00111381
1998	0.00085678
2010	0.00145653
2022	0.00179924
2034	0.00231331
2046	0.00248466
2058	0.00197059
2070	0.00214195
2082	0.00222763
2094	0.00197059
2106	0.00197059
2118	0.00214195
2130	0.00205627
2142	0.00197059
2154	0.00231331
2166	0.00205627
2178	0.00239898
2190	0.00342712
2202	0.00325576
2214	0.00317009
2226	0.00317009
2238	0.00334144
2250	0.00376983
2262	0.00368415
2274	0.00419822
2286	0.00616882
2298	0.00882483
2310	0.0113095
2322	0.0106241
2334	0.00771102
2346	0.00471229
2358	0.01011
2370	0.0042839
2382	0.00496932
2394	0.00402687
2406	0.00376983
2418	0.00445526
2430	0.00462661
2442	0.00445526
2454	0.005055
2466	0.00539771
2478	0.00574043
2490	0.00574043
2502	0.00599746
2514	0.00685424
2526	0.00831077
2538	0.0085678
2550	0.00865348
2562	0.00873916
2574	0.00873916
2586	0.00839644
2598	0.00882483
2610	0.00925322
2622	0.00985297
2634	0.0107954
2646	0.0121663
2658	0.0131087
2670	0.0130231
2682	0.0138798
2694	0.0143082
2706	0.0143939
2718	0.0157648
2730	0.0162788
2742	0.0165359
2754	0.0173926
2766	0.02022
2778	0.0232187
2790	0.027931
2802	0.0358991
2814	0.045238
2826	0.0592892
2838	0.0875629
2850	0.179924
2862	0.347767
2874	0.239813
2886	0.173412
2898	0.196031
2910	0.308012
2922	0.544141
2934	0.85678
2946	0.475256
2958	0.227047
2970	0.159104
2982	0.0733404
2994	0.0378697
3006	0.0232187
3018	0.0172213
3030	0.0143082
3042	0.0130231
3054	0.0106241
3066	0.0085678
3078	0.00976729
3090	0.00908187
3102	0.0105384
3114	0.0109668
3126	0.00951026
3138	0.00873916
3150	0.00908187
3162	0.00916755
3174	0.00925322
3186	0.00925322
3198	0.00968161
3210	0.00899619
3222	0.00916755
3234	0.00822509
3246	0.00736831
3258	0.00719695
3270	0.00788238
3282	0.0070256
3294	0.00745399
3306	0.00625449
3318	0.00539771
3330	0.0058261
3342	0.00599746
3354	0.00659721
3366	0.00685424
3378	0.00711127
3390	0.00685424
3402	0.00651153
3414	0.00591178
3426	0.00539771
3438	0.00488365
3450	0.00651153
3462	0.00548339
3474	0.00514068
3486	0.00659721
3498	0.00565475
3510	0.00685424
3522	0.00813941
3534	0.0107098
3546	0.0167929
3558	0.0180781
3570	0.0539771
3582	0.0632304
3594	0.0164502
3606	0.00839644
3618	0.00839644
3630	0.00976729
3642	0.00659721
3654	0.00839644
3666	0.00522636
3678	0.0107098
3690	0.00865348
3702	0.00728263
3714	0.00805373
3726	0.0085678
3738	0.0102814
3750	0.00634017
3762	0.00762534
3774	0.00462661
3786	0.0058261
3798	0.00976729
3810	0.00522636
3822	0.0108811
3834	0.00925322
3846	0.00693992
3858	0.00753966
3870	0.0114809
3882	0.00908187
3894	0.00891051
3906	0.00925322
3918	0.00951026
3930	0.0107954
3942	0.00968161
3954	0.0106241
3966	0.00848212
