Infrared Spectrum: Heptadecanoic acid
Formula: C 17 H 34 O 2
CAS: 506-12-7
Origin: Sadtler Research Labs Under US-EPA Contract
1/CM	ABSORBANCE
450	0.0095155
462	0
474	0.00471969
486	0.00696535
498	0.00894457
510	0.0136262
522	0.0123321
534	0.0160241
546	0.0180414
558	0.0210863
570	0.0227611
582	0.0212386
594	0.0227991
606	0.025159
618	0.0231417
630	0.0213528
642	0.017775
654	0.0121798
666	0.0113805
678	0.0095155
690	0.00943938
702	0.011076
714	0.0123702
726	0.0124843
738	0.0102006
750	0.00814527
762	0.00746015
774	0.0068131
786	0.00456744
798	0.00255015
810	0.00445325
822	0.00395845
834	0.00441519
846	0.00384426
858	0.00373008
870	0.00422488
882	0.00376814
894	0.00365395
906	0.00331139
918	0.0038062
930	0.00334946
942	0.00395845
954	0.00334946
966	0.00331139
978	0.00403457
990	0.00487194
1002	0.00555705
1014	0.0060138
1026	0.00803108
1038	0.011076
1050	0.0148822
1062	0.0197542
1074	0.0270621
1086	0.036844
1098	0.0471969
1110	0.0573594
1122	0.0573975
1134	0.0578923
1146	0.0461311
1158	0.0364634
1170	0.0305257
1182	0.0258822
1194	0.0223424
1206	0.0183839
1218	0.0149203
1230	0.0119515
1242	0.0112664
1254	0.0119515
1266	0.0120276
1278	0.0119895
1290	0.0120657
1302	0.0121418
1314	0.0113044
1326	0.0104671
1338	0.0141971
1350	0.0209722
1362	0.0227611
1374	0.0231417
1386	0.0217334
1398	0.0140068
1410	0.00959162
1422	0.00955356
1434	0.0123321
1446	0.0178891
1458	0.0282801
1470	0.0239791
1482	0.00829752
1494	0.0035017
1506	0.00148442
1518	0.000875426
1530	0.00178891
1542	0.00137023
1554	0.00095155
1566	0.000418682
1578	0.000228372
1590	0.000799302
1602	0.00117992
1614	0.000685116
1626	0.00125605
1638	0.0015986
1650	0.00209341
1662	0.00182698
1674	0.00266434
1686	0.00384426
1698	0.00589961
1710	0.0095155
1722	0.0141971
1734	0.0226469
1746	0.036844
1758	0.0567504
1770	0.0975148
1782	0.118563
1794	0.0639061
1806	0.0331139
1818	0.014121
1830	0.0060138
1842	0.00274046
1854	0.00171279
1866	0.00121798
1878	0.000913488
1890	0.000799302
1902	0.00057093
1914	0.000532868
1926	0.00038062
1938	0.000647054
1950	0.00076124
1962	0.000837364
1974	0.000532868
1986	0.000647054
1998	0.000837364
2010	0.000608992
2022	0.000608992
2034	0.000723178
2046	0.000875426
2058	0.000608992
2070	0.000608992
2082	0.00057093
2094	0.000723178
2106	0.000418682
2118	0.000494806
2130	0.00057093
2142	0.000456744
2154	0.000494806
2166	0.000913488
2178	0.00076124
2190	0.00095155
2202	0.00095155
2214	0.00095155
2226	0.000647054
2238	0.000494806
2250	0.000685116
2262	0.000418682
2274	0.000304496
2286	0.00117992
2298	0.00255015
2310	0.00331139
2322	0.0030069
2334	0.00133217
2346	0.0022076
2358	0.00121798
2370	0.000723178
2382	0.00293077
2394	0.000913488
2406	0.000799302
2418	0.000875426
2430	0.000913488
2442	0.000494806
2454	0.000456744
2466	0.000456744
2478	0.000913488
2490	0.000799302
2502	0.000989612
2514	0.00102767
2526	0.000989612
2538	0.00121798
2550	0.00171279
2562	0.00129411
2574	0.00182698
2586	0.00205535
2598	0.00216953
2610	0.00201729
2622	0.00277853
2634	0.00277853
2646	0.00281659
2658	0.00327333
2670	0.00388232
2682	0.00422488
2694	0.00441519
2706	0.00441519
2718	0.00468163
2730	0.00437713
2742	0.00475775
2754	0.00464356
2766	0.00529062
2778	0.00544287
2790	0.00692728
2802	0.00902069
2814	0.0116089
2826	0.0158338
2838	0.023941
2850	0.0538958
2862	0.141172
2874	0.101245
2886	0.0674459
2898	0.0688161
2910	0.11274
2922	0.215964
2934	0.38062
2946	0.221978
2958	0.109695
2970	0.0860962
2982	0.040536
2994	0.0213908
3006	0.0134359
3018	0.00989612
3030	0.00719372
3042	0.00559511
3054	0.00437713
3066	0.0041107
3078	0.00312108
3090	0.00255015
3102	0.00258822
3114	0.00239791
3126	0.00209341
3138	0.00175085
3150	0.00201729
3162	0.00102767
3174	0.00167473
3186	0.00144636
3198	0.00114186
3210	0.00106574
3222	0.000799302
3234	0.00038062
3246	0.000456744
3258	0.000913488
3270	0.000342558
3282	0.000685116
3294	0.00057093
3306	0.000799302
3318	0.00156054
3330	0.000799302
3342	0.00121798
3354	0.00076124
3366	0.000608992
3378	0.000647054
3390	0.00125605
3402	0.00182698
3414	0.00102767
3426	0.00106574
3438	0.00144636
3450	0.00144636
3462	0.00148442
3474	0.00171279
3486	0.00167473
3498	0.00144636
3510	0.00293077
3522	0.00224566
3534	0.00315915
3546	0.00464356
3558	0.00909682
3570	0.0310967
3582	0.0391658
3594	0.00856395
3606	0.00422488
3618	0.00376814
3630	0.00319721
3642	0.00289271
3654	0.0038062
3666	0.00243597
3678	0.00197922
3690	0.00156054
3702	0.00186504
3714	0.00182698
3726	0.00156054
3738	0.00285465
3750	0.00255015
3762	0.0019031
3774	0.00129411
3786	0.00197922
3798	0.00205535
3810	0.00038062
3822	0.00133217
3834	0.00171279
3846	0.00224566
3858	0.00194116
3870	0.0019031
3882	0.00277853
3894	0.00121798
3906	0.00224566
3918	0.000723178
3930	0.00224566
3942	0.000799302
3954	0.000837364
3966	3.8062e-05
