Infrared Spectrum: 1-Piperazinecarboxylic acid, methyl ester
Formula: C 6 H 12 N 2 O 2
CAS: 50606-31-0
Origin: Sadtler Research Labs Under US-EPA Contract
1/CM	ABSORBANCE
450	0.0070439
462	0.00549424
474	0.00394458
486	0.00535336
498	0.00507161
510	0.0083118
522	0.0163418
534	0.0136652
546	0.0149331
558	0.0149331
570	0.0163418
582	0.0139469
594	0.00324019
606	0.000422634
618	0.00295844
630	0.00380371
642	0.00281756
654	0.00422634
666	0.00140878
678	0.000281756
690	0.00112702
702	0.00535336
714	0.00394458
726	0.00690302
738	0.0154966
750	0.0298661
762	0.0493073
774	0.076215
786	0.050857
798	0.0377553
810	0.0343742
822	0.00972058
834	0.00464897
846	0.0045081
858	0.00225405
870	0.00352195
882	0.00366283
894	0.00493073
906	0.0070439
918	0.0108476
930	0.0160601
942	0.0129608
954	0.034656
966	0.0366283
978	0.0159192
990	0.0269077
1002	0.168208
1014	0.193425
1026	0.0384597
1038	0.0322611
1050	0.0597323
1062	0.0764968
1074	0.0991781
1086	0.0872035
1098	0.099319
1110	0.154966
1122	0.144682
1134	0.145386
1146	0.299084
1158	0.305424
1170	0.116647
1182	0.136652
1194	0.17328
1206	0.140033
1218	0.134961
1230	0.419816
1242	1.06292
1254	0.472082
1266	0.355717
1278	0.202019
1290	0.316553
1302	0.275557
1314	0.0766376
1326	0.0563512
1338	0.0628316
1350	0.0619863
1362	0.0934021
1374	0.133271
1386	0.177084
1398	0.305142
1410	0.413618
1422	0.195116
1434	0.156375
1446	0.503921
1458	0.406433
1470	0.382484
1482	0.13792
1494	0.0628316
1506	0.0533928
1518	0.0366283
1530	0.0309932
1542	0.0381779
1554	0.0267668
1566	0.019582
1578	0.0207091
1590	0.0178915
1602	0.0202864
1614	0.0252172
1626	0.0283165
1638	0.0270486
1650	0.030007
1662	0.0245128
1674	0.0378962
1686	0.0622681
1698	0.0966423
1710	0.28077
1722	0.742427
1734	1.40526
1746	0.531392
1758	0.130171
1770	0.0738201
1782	0.0380371
1794	0.0256398
1806	0.017328
1818	0.017328
1830	0.0170462
1842	0.00929795
1854	0.0045081
1866	0.00493073
1878	0.00309932
1890	0.00549424
1902	0.00338107
1914	0.00394458
1926	0.00408546
1938	0.00309932
1950	0.00267668
1962	0.00281756
1974	0.00211317
1986	0.00225405
1998	0.00295844
2010	0.00281756
2022	0.00464897
2034	0.00549424
2046	0.00746653
2058	0.00633951
2070	0.00633951
2082	0.0045081
2094	0.00309932
2106	0.00309932
2118	0.00239493
2130	0.00197229
2142	0.0012679
2154	0.00169054
2166	0.00154966
2178	0.0012679
2190	0.000845268
2202	0.0012679
2214	0.0012679
2226	0.00112702
2238	0.000845268
2250	0.000986146
2262	0.00140878
2274	0.00154966
2286	0.00169054
2298	0.0025358
2310	0.00324019
2322	0.00225405
2334	0.00183141
2346	0.00591688
2358	0.00211317
2370	0.00352195
2382	0.00309932
2394	0.00140878
2406	0.000986146
2418	0.00112702
2430	0.00154966
2442	0.00140878
2454	0.000845268
2466	0.000422634
2478	0.000281756
2490	0.00112702
2502	0.00211317
2514	0.00309932
2526	0.00422634
2538	0.00464897
2550	0.00352195
2562	0.00422634
2574	0.00309932
2586	0.00183141
2598	0.00225405
2610	0.00380371
2622	0.00478985
2634	0.00619863
2646	0.00774829
2658	0.0108476
2670	0.0169054
2682	0.0273303
2694	0.0326837
2706	0.0264851
2718	0.0252172
2730	0.0339516
2742	0.0505752
2754	0.0612819
2766	0.0739609
2778	0.119324
2790	0.191031
2802	0.285841
2814	0.162291
2826	0.0876261
2838	0.0918525
2850	0.129185
2862	0.15243
2874	0.168208
2886	0.142709
2898	0.136652
2910	0.1444
2922	0.170322
2934	0.206105
2946	0.333881
2958	0.335994
2970	0.199483
2982	0.115802
2994	0.0728339
3006	0.0746653
3018	0.0691711
3030	0.0456445
3042	0.0221178
3054	0.0139469
3066	0.0121155
3078	0.010425
3090	0.0100023
3102	0.00972058
3114	0.00817092
3126	0.00788917
3138	0.00788917
3150	0.00605775
3162	0.00380371
3174	0.00295844
3186	0.00324019
3198	0.00281756
3210	0.00267668
3222	0.00197229
3234	0.00169054
3246	0.000563512
3258	0.000986146
3270	0.0012679
3282	0.000845268
3294	0.00140878
3306	0.00140878
3318	0.00169054
3330	0.00197229
3342	0.00140878
3354	0.00112702
3366	0.00169054
3378	0.00140878
3390	0.000845268
3402	0.0012679
3414	0.00140878
3426	0.00140878
3438	0.00380371
3450	0.00535336
3462	0.00281756
3474	0
3486	0.00070439
3498	0.000845268
3510	0.000986146
3522	0.0012679
3534	0.000845268
3546	0.0012679
3558	0.0012679
3570	0.00338107
3582	0.00070439
3594	0.00295844
3606	0.00140878
3618	0.00225405
3630	0.0045081
3642	0.00154966
3654	0.00225405
3666	0.000845268
3678	0.00507161
3690	0.0025358
3702	0.00183141
3714	0.00281756
3726	0.00267668
3738	0.00281756
3750	0.0012679
3762	0.00183141
3774	0.00112702
3786	0.00183141
3798	0.00309932
3810	0
3822	0.00267668
3834	0.00211317
3846	0.00239493
3858	0.00211317
3870	0.00521249
3882	0.00154966
3894	0.00267668
3906	0.0012679
3918	0.00211317
3930	0.00225405
3942	0.000986146
3954	0.0025358
3966	0.00183141
