Infrared Spectrum: 2(3H)-Furanone, 3-bromodihydro-
Formula: C 4 H 5 Br O 2
CAS: 5061-21-2
Origin: Sadtler Research Labs Under US-EPA Contract
1/CM	ABSORBANCE
450	0.0129236
462	0.0258471
474	0.0191435
486	0.00193508
498	0.0210785
510	0.0055288
522	0.0106429
534	0.0170702
546	0.0241885
558	0.0287498
570	0.015688
582	0.00628901
594	0.00566702
606	0.00587435
618	0.00932985
630	0.00504503
642	0.0126471
654	0.0255707
666	0.0259854
678	0.0297173
690	0.00870786
702	0.00449215
714	0.00794765
726	0.00124398
738	0.00677278
750	0.0107812
762	0.0109194
774	0.00711833
786	0.00843142
798	0.0082932
810	0.0109885
822	0.0138911
834	0.0137529
846	0.0170702
858	0.0223225
870	0.04271
882	0.0725655
894	0.0664838
906	0.0336566
918	0.0238429
930	0.0192817
942	0.0161717
954	0.013822
966	0.0048377
978	0.0190052
990	0.0416042
1002	0.0494136
1014	0.0435393
1026	0.0812042
1038	0.179686
1050	0.203045
1062	0.0771268
1074	0.0292335
1086	0.0322053
1098	0.0324126
1110	0.0453362
1122	0.0757446
1134	0.206432
1146	0.341058
1158	0.283627
1170	0.133521
1182	0.0699393
1194	0.0818953
1206	0.106153
1218	0.0819645
1230	0.0402911
1242	0.0199037
1254	0.0138911
1266	0.0125089
1278	0.0114031
1290	0.00974451
1302	0.0159644
1314	0.0169319
1326	0.0102283
1338	0.0109194
1350	0.0140293
1362	0.0386325
1374	0.0560482
1386	0.024534
1398	0.00919163
1410	0.00393927
1422	0.00822409
1434	0.0168628
1446	0.0230827
1458	0.0187979
1470	0.0120942
1482	0.01631
1494	0.0115414
1506	0.0082932
1518	0.00545969
1530	0.00373194
1542	0.00511414
1554	0.00504503
1566	0.00290262
1578	0.00304084
1590	0.00387016
1602	0.00580524
1614	0.00497592
1626	0.00449215
1638	0.00504503
1650	0.006911
1662	0.0062199
1674	0.00794765
1686	0.00919163
1698	0.00939896
1710	0.00953718
1722	0.0125089
1734	0.0130618
1746	0.0130618
1758	0.0201801
1770	0.0362827
1782	0.0645487
1794	0.173051
1806	0.38902
1818	0.663594
1830	0.579142
1842	0.23138
1854	0.048377
1866	0.0215623
1878	0.0185215
1890	0.0161026
1902	0.0118178
1914	0.0110576
1926	0.0102974
1938	0.00753299
1950	0.00476859
1962	0.00442304
1974	0.00463037
1986	0.00449215
1998	0.00469948
2010	0.00449215
2022	0.00635812
2034	0.00732566
2046	0.00566702
2058	0.00400838
2070	0.00359372
2082	0.0034555
2094	0.0034555
2106	0.0027644
2118	0.00241885
2130	0.00241885
2142	0.00228063
2154	0.00214241
2166	0.00234974
2178	0.00241885
2190	0.0027644
2202	0.00310995
2214	0.00255707
2226	0.00283351
2238	0.00331728
2250	0.00421571
2262	0.00442304
2274	0.00449215
2286	0.00428482
2298	0.00387016
2310	0.00248796
2322	0.00200419
2334	0.00317906
2346	6.911e-05
2358	0.00380105
2370	0.00145131
2382	0.00062199
2394	0.00172775
2406	0.00221152
2418	0.00234974
2430	0.00200419
2442	0.00214241
2454	0.00200419
2466	0.00214241
2478	0.00221152
2490	0.00310995
2502	0.00269529
2514	0.00234974
2526	0.00179686
2538	0.00124398
2550	0.00124398
2562	0.00089843
2574	0.00096754
2586	0.00089843
2598	0.00082932
2610	0.00055288
2622	0.00027644
2634	0.00082932
2646	0.00055288
2658	0.00103665
2670	0.00117487
2682	0.00110576
2694	0.00103665
2706	0.00110576
2718	0.00200419
2730	0.00234974
2742	0.00165864
2754	0.00082932
2766	0.00089843
2778	0.00076021
2790	0.00124398
2802	0.00145131
2814	0.00117487
2826	0.00179686
2838	0.00179686
2850	0.0041466
2862	0.00684189
2874	0.0108503
2886	0.0109194
2898	0.0134073
2910	0.033311
2922	0.0539058
2934	0.0440231
2946	0.0306848
2958	0.0212859
2970	0.021977
2982	0.0297864
2994	0.0445068
3006	0.0643414
3018	0.0398074
3030	0.010712
3042	0.00566702
3054	0.00338639
3066	0.00228063
3078	0.00228063
3090	0.00290262
3102	0.00290262
3114	0.00221152
3126	0.00158953
3138	0.00241885
3150	0.00234974
3162	0.00158953
3174	0.00172775
3186	0.00186597
3198	0.00200419
3210	0.00172775
3222	0.00186597
3234	0.00158953
3246	0.00117487
3258	0.00103665
3270	0.00110576
3282	0.00152042
3294	0.00131309
3306	0.00145131
3318	0.00145131
3330	0.00165864
3342	0.00055288
3354	0.00152042
3366	0.00103665
3378	0.00165864
3390	0.0006911
3402	0.00117487
3414	0.00082932
3426	0.00179686
3438	0.00221152
3450	0.00082932
3462	0.00145131
3474	0.00131309
3486	0.00103665
3498	0.0013822
3510	0.0020733
3522	0.00228063
3534	0.00110576
3546	0.00158953
3558	0.00172775
3570	0.00234974
3582	0.00186597
3594	0.00476859
3606	0.00587435
3618	0.00877697
3630	0.00753299
3642	0.00463037
3654	0.00221152
3666	0.00041466
3678	0.00304084
3690	0.00221152
3702	0.00131309
3714	0.0006911
3726	0.00041466
3738	0.00200419
3750	0.00041466
3762	0.00013822
3774	0.00041466
3786	0.00117487
3798	0.00076021
3810	0.00165864
3822	0.00041466
3834	0.00027644
3846	0.00020733
3858	0.00124398
3870	0.00283351
3882	0.00013822
3894	0.00262618
3906	0.00338639
3918	0.00020733
3930	0.00324817
3942	0
3954	0.00013822
3966	0.00089843
