Infrared Spectrum: 2-Acetyl-5-norbornene
Formula: C 9 H 12 O
CAS: 5063-03-6
Origin: Sadtler Research Labs Under US-EPA Contract
1/CM	ABSORBANCE
450	0.000667827
462	0.00756871
474	0.00972059
486	0.0210737
498	0.0126145
510	0.00408116
522	0.00623305
534	0.00838494
546	0.009869
558	0.0146922
570	0.0201832
582	0.0919375
594	0.114198
606	0.0297554
618	0.00875595
630	0.00801392
642	0.0100174
654	0.00905277
666	0.0324267
678	0.0256
690	0.0222609
702	0.0751676
714	0.205468
726	0.177123
738	0.0791746
750	0.0465995
762	0.0180313
774	0.0111304
786	0.00905277
798	0.00771711
810	0.0261937
822	0.0485288
834	0.0406632
846	0.02048
858	0.014618
870	0.0129113
882	0.0230029
894	0.0407374
906	0.050087
918	0.0545392
930	0.0623305
942	0.0455606
954	0.0269357
966	0.0258968
978	0.030349
990	0.0409601
1002	0.0368047
1014	0.0262679
1026	0.035098
1038	0.0375467
1050	0.0256742
1062	0.0161763
1074	0.0155826
1086	0.0207026
1098	0.0443734
1110	0.0718285
1122	0.0542424
1134	0.0569137
1146	0.0719027
1158	0.165992
1170	0.297331
1182	0.291544
1194	0.169999
1206	0.0627015
1218	0.0532036
1230	0.0678957
1242	0.0546134
1254	0.0556522
1266	0.0882274
1278	0.0805103
1290	0.0344302
1302	0.0275293
1314	0.043854
1326	0.105071
1338	0.173412
1350	0.246948
1362	0.30772
1374	0.152561
1386	0.0667827
1398	0.0458575
1410	0.0426667
1422	0.0471189
1434	0.0563943
1446	0.0704928
1458	0.0658923
1470	0.0406632
1482	0.0214447
1494	0.013876
1506	0.0144696
1518	0.0155084
1530	0.0151374
1542	0.0143212
1554	0.0129855
1566	0.0184023
1578	0.0218899
1590	0.0120951
1602	0.0100174
1614	0.0174377
1626	0.0227061
1638	0.0172893
1650	0.0166957
1662	0.0178829
1674	0.0381403
1686	0.064334
1698	0.0947572
1710	0.264163
1722	0.639333
1734	0.599412
1746	0.178681
1758	0.0656697
1770	0.0532036
1782	0.0373241
1794	0.0270099
1806	0.0232255
1818	0.0139502
1830	0.00853334
1842	0.00645566
1854	0.0049716
1866	0.00467479
1878	0.00341334
1890	0.00348754
1902	0.00415537
1914	0.00393276
1926	0.00311653
1938	0.00326493
1950	0.00281971
1962	0.00215189
1974	0.00163247
1986	0.000890436
1998	0.00133565
2010	0.00155826
2022	0.00163247
2034	0.0024487
2046	0.00341334
2058	0.00393276
2070	0.00393276
2082	0.00408116
2094	0.00445218
2106	0.00363595
2118	0.00274551
2130	0.00267131
2142	0.0024487
2154	0.00304232
2166	0.00356174
2178	0.00378435
2190	0.00408116
2202	0.00408116
2214	0.00393276
2226	0.00356174
2238	0.00289392
2250	0.00274551
2262	0.00289392
2274	0.00281971
2286	0.00326493
2298	0.00356174
2310	0.0025229
2322	0.00215189
2334	0.0023745
2346	0.00230029
2358	0.00200348
2370	0.00185507
2382	0.00170667
2394	0.00133565
2406	0.00118725
2418	0.00103884
2430	0.00074203
2442	0.000371015
2454	0.000593624
2466	0.00118725
2478	0.00074203
2490	0.00133565
2502	0.00192928
2514	0.00207768
2526	0.00170667
2538	0.00103884
2550	0.000890436
2562	0.000519421
2574	0
2586	0.000519421
2598	0.000667827
2610	0.000371015
2622	0.000593624
2634	0.000519421
2646	0.000371015
2658	0.000667827
2670	0.000816233
2682	0.000667827
2694	0.000445218
2706	0.00074203
2718	0.000816233
2730	0.00111305
2742	0.00126145
2754	0.00126145
2766	0.000816233
2778	0.000890436
2790	0.00148406
2802	0.00274551
2814	0.00333913
2826	0.00563943
2838	0.0100916
2850	0.0174377
2862	0.0514227
2874	0.144028
2886	0.192705
2898	0.171038
2910	0.138166
2922	0.129484
2934	0.17408
2946	0.287982
2958	0.353132
2970	0.485436
2982	0.74203
2994	0.491001
3006	0.134085
3018	0.0631468
3030	0.0333171
3042	0.0278261
3054	0.0426667
3066	0.108485
3078	0.117092
3090	0.0464511
3102	0.0183281
3114	0.0105368
3126	0.0099432
3138	0.0131339
3150	0.0140244
3162	0.00652986
3174	0.00274551
3186	0.00178087
3198	0.00163247
3210	0.000890436
3222	0.00111305
3234	0.000964639
3246	0.000816233
3258	0.000816233
3270	0.00103884
3282	0.00148406
3294	0.00140986
3306	0.00103884
3318	0.00200348
3330	0.00185507
3342	0.00118725
3354	0.00215189
3366	0.00200348
3378	0.00215189
3390	0.00311653
3402	0.00341334
3414	0.00549102
3426	0.0100916
3438	0.0131339
3450	0.00764291
3462	0.0025971
3474	0.00163247
3486	0.00148406
3498	0.00111305
3510	0.00074203
3522	7.4203e-05
3534	0.000964639
3546	0.00126145
3558	0.00281971
3570	0.00348754
3582	0.00319073
3594	0.00274551
3606	0.00155826
3618	0
3630	0.000964639
3642	0.00118725
3654	0.00230029
3666	0.00163247
3678	0.00207768
3690	0.000445218
3702	0.00074203
3714	0.000222609
3726	0.00133565
3738	0.00348754
3750	0.00319073
3762	0.00311653
3774	0.00319073
3786	0.0024487
3798	0.00267131
3810	0.00296812
3822	0.00200348
3834	0.00163247
3846	0.00140986
3858	0.00155826
3870	0.00148406
3882	0.00333913
3894	0.00437798
3906	0.00385856
3918	0.00281971
3930	0.00356174
3942	0.00155826
3954	0.00326493
3966	0.00385856
