Infrared Spectrum: Borneol
Formula: C 10 H 18 O
CAS: 507-70-0
Origin: Sadtler Research Labs Under US-EPA Contract
1/CM	ABSORBANCE
450	0.0191682
462	0.00694283
474	0.00573538
486	0.00105652
498	0.004377
510	0.00935772
522	0.0140366
534	0.0143384
546	0.00890493
558	0.00815027
570	0.0102633
582	0.0123763
594	0.0105652
606	0.00830121
618	0.00422607
630	0.00573538
642	0.0063391
654	0.0063391
666	0.00482979
678	0.0019621
690	0.00316955
702	0.00392421
714	0.00407514
726	0.00588631
738	0.00694283
750	0.00890493
762	0.0102633
774	0.0120745
786	0.00543352
798	0.00664096
810	0.0150931
822	0.0378837
834	0.0353179
846	0.013131
858	0.00860307
870	0.011018
882	0.0141875
894	0.0114708
906	0.015395
918	0.0273185
930	0.0528259
942	0.0638438
954	0.0446756
966	0.0351669
978	0.0507128
990	0.0750127
1002	0.117726
1014	0.162855
1026	0.17991
1038	0.177042
1050	0.297032
1062	0.309409
1074	0.127688
1086	0.107161
1098	0.15244
1110	0.159383
1122	0.10701
1134	0.087389
1146	0.0747108
1158	0.063391
1170	0.0576556
1182	0.0532786
1194	0.0642966
1206	0.0695792
1218	0.0999163
1230	0.142479
1242	0.117575
1254	0.0846723
1266	0.072145
1278	0.0724469
1290	0.0742581
1302	0.0715413
1314	0.0540333
1326	0.0419588
1338	0.0386383
1350	0.0398458
1362	0.0821065
1374	0.150931
1386	0.151988
1398	0.119688
1410	0.0543352
1422	0.0348651
1434	0.0422607
1446	0.0905586
1458	0.169043
1470	0.151686
1482	0.1135
1494	0.0630892
1506	0.0259601
1518	0.0117726
1530	0.00694283
1542	0.004377
1554	0.00513165
1566	0.00452793
1578	0.0067919
1590	0.00482979
1602	0.00498072
1614	0.00482979
1626	0.00301862
1638	0.00301862
1650	0.0019621
1662	0.00301862
1674	0.00181117
1686	0.00301862
1698	0.0024149
1710	0.00332048
1722	0.00482979
1734	0.00739562
1746	0.015244
1758	0.0310918
1770	0.0227906
1782	0.00618817
1794	0.00226397
1806	0.00211303
1818	0.00226397
1830	0.000452793
1842	0.00166024
1854	0.00150931
1866	0.00150931
1878	0.00226397
1890	0.00105652
1902	0.00105652
1914	0.00135838
1926	0.000754655
1938	0.000603724
1950	0.00120745
1962	0.00105652
1974	0.00105652
1986	0.000754655
1998	0.000452793
2010	0.00105652
2022	0.00135838
2034	0.00120745
2046	0.00135838
2058	0.00181117
2070	0.00166024
2082	0.00211303
2094	0.00166024
2106	0.00211303
2118	0.00256583
2130	0.0019621
2142	0.00120745
2154	0.00135838
2166	0.00166024
2178	0.00166024
2190	0.00166024
2202	0.00105652
2214	0.00120745
2226	0.00105652
2238	0.00105652
2250	0.000603724
2262	0.000603724
2274	0.000754655
2286	0.00166024
2298	0.00256583
2310	0.00271676
2322	0.00226397
2334	0.00211303
2346	0.00286769
2358	0.00105652
2370	0.00301862
2382	0.00316955
2394	0.0019621
2406	0.00150931
2418	0.00166024
2430	0.00120745
2442	0.00166024
2454	0.00166024
2466	0.00181117
2478	0.00226397
2490	0.00211303
2502	0.00226397
2514	0.0024149
2526	0.0024149
2538	0.00226397
2550	0.00211303
2562	0.00226397
2574	0.00332048
2586	0.00377328
2598	0.00528259
2610	0.00498072
2622	0.00377328
2634	0.00377328
2646	0.00422607
2658	0.00452793
2670	0.00513165
2682	0.00603724
2694	0.0067919
2706	0.00905586
2718	0.0125273
2730	0.0203757
2742	0.0224887
2754	0.0203757
2766	0.0215831
2778	0.0223378
2790	0.0220359
2802	0.0221869
2814	0.0273185
2826	0.0354688
2838	0.0442228
2850	0.0620326
2862	0.128593
2874	0.336274
2886	0.54154
2898	0.541691
2910	0.523882
2922	0.599045
2934	0.845666
2946	1.1913
2958	1.50931
2970	1.05984
2982	0.498223
2994	0.40857
3006	0.202248
3018	0.0585612
3030	0.0332048
3042	0.0276204
3054	0.0253564
3066	0.0259601
3078	0.0252055
3090	0.0236962
3102	0.0220359
3114	0.0191682
3126	0.0169043
3138	0.0164515
3150	0.0155459
3162	0.013131
3174	0.00965958
3186	0.00799934
3198	0.0067919
3210	0.00467886
3222	0.00316955
3234	0.00181117
3246	0.00166024
3258	0.0024149
3270	0.00120745
3282	0.00181117
3294	0.00120745
3306	0.00211303
3318	0.00166024
3330	0.000754655
3342	0.000754655
3354	0.000603724
3366	0.00150931
3378	0.00286769
3390	0.00362234
3402	0.00301862
3414	0.00316955
3426	0.00286769
3438	0.00271676
3450	0.00377328
3462	0.00347141
3474	0.00271676
3486	0.00256583
3498	0.0024149
3510	0.00301862
3522	0.00362234
3534	0.00301862
3546	0.00271676
3558	0.00316955
3570	0.00377328
3582	0.00332048
3594	0.00392421
3606	0.00332048
3618	0.00467886
3630	0.011018
3642	0.04377
3654	0.0878418
3666	0.0799934
3678	0.0313936
3690	0.00815027
3702	0.00603724
3714	0.00181117
3726	0.00286769
3738	0.00316955
3750	0.00150931
3762	0.00392421
3774	0.00467886
3786	0.00332048
3798	0.00332048
3810	0.00422607
3822	0.00467886
3834	0.004377
3846	0.00467886
3858	0.00724469
3870	0.00739562
3882	0.00332048
3894	0.00588631
3906	0.00181117
3918	0.00528259
3930	0.00377328
3942	0.00120745
3954	0.00347141
3966	0.00422607
