Infrared Spectrum: o-Cresol, 4-bromo-.alpha.,.alpha.,.alpha.-trifluoro
Formula: C 7 H 4 Br F 3 O
CAS: 50824-04-9
Origin: Sadtler Research Labs Under US-EPA Contract
1/CM	ABSORBANCE
450	0.0300157
462	0.0199536
474	0.0142404
486	0.0258374
498	0.015349
510	0.0186746
522	0.0342793
534	0.026008
546	0.0105737
558	0.0161164
570	0.039822
582	0.031039
594	0.0126203
606	0.00545741
618	0.018504
630	0.0741014
642	0.0493725
654	0.00264343
666	0.0360701
678	0.233731
690	0.00656594
702	0.0118528
714	0.0157753
726	0.00818611
738	0.0069923
750	0.00989155
762	0.0521012
774	0.0147521
786	0.00434887
798	0.0171397
810	0.0402484
822	0.103605
834	0.075551
846	0.0395662
858	0.0252405
870	0.00869774
882	0.037008
894	0.056109
906	0.0100621
918	0.00238762
930	0.00358142
942	0.00460469
954	0.00648067
966	0.0042636
978	0.0015349
990	0.00511632
1002	0.00571322
1014	0.00545741
1026	0.0159459
1038	0.0383724
1050	0.185467
1062	0.218041
1074	0.0687292
1086	0.0739308
1098	0.0930318
1110	0.16466
1122	0.484771
1134	0.778022
1146	0.739479
1158	0.723021
1170	0.659664
1182	0.597671
1194	0.281227
1206	0.132086
1218	0.0860394
1230	0.0671943
1242	0.109148
1254	0.184443
1266	0.274149
1278	0.85272
1290	0.278925
1302	0.343135
1314	0.638687
1326	0.610462
1338	0.365902
1350	0.0793882
1362	0.0342793
1374	0.0286514
1386	0.0306126
1398	0.0564501
1410	0.104629
1422	0.167986
1434	0.130466
1446	0.0364964
1458	0.0554268
1470	0.191777
1482	0.410585
1494	0.405724
1506	0.145474
1518	0.0292483
1530	0.0225118
1542	0.0121086
1554	0.0196978
1566	0.0280545
1578	0.0723959
1590	0.0737603
1602	0.0636129
1614	0.0916674
1626	0.0518454
1638	0.016287
1650	0.014411
1662	0.0113412
1674	0.00750394
1686	0.00605431
1698	0.00503105
1710	0.00784502
1722	0.0119381
1734	0.00673649
1746	0.00682176
1758	0.0117675
1770	0.0176513
1782	0.0150079
1794	0.00613958
1806	0.00400778
1818	0.00460469
1830	0.0048605
1842	0.0057985
1854	0.00289925
1866	0.00417833
1878	0.00434887
1890	0.00767448
1902	0.010659
1914	0.00554268
1926	0.00247289
1938	0.00179071
1950	0.00204653
1962	0.00187598
1974	0.00179071
1986	0.00144962
1998	0.0015349
2010	0.00102326
2022	0.00289925
2034	0.00434887
2046	0.00349615
2058	0.00170544
2070	0.00187598
2082	0.00298452
2094	0.00255816
2106	0.0015349
2118	0.00179071
2130	0.0021318
2142	0.00085272
2154	0.0027287
2166	0.00247289
2178	0.00315506
2190	0.00306979
2202	0.00162017
2214	0.0021318
2226	0.00289925
2238	0.00468996
2250	0.00503105
2262	0.00375197
2274	0.00451942
2286	0.00375197
2298	0.00648067
2310	0.00750394
2322	0.00690703
2334	0.00886829
2346	0.0112559
2358	0.00332561
2370	0.0113412
2382	0.00844193
2394	0.00375197
2406	0.0042636
2418	0.00477523
2430	0.00648067
2442	0.00673649
2454	0.00682176
2466	0.00767448
2478	0.00741866
2490	0.00733339
2502	0.00827138
2514	0.00767448
2526	0.00707758
2538	0.00631013
2550	0.0063954
2562	0.00613958
2574	0.00613958
2586	0.00690703
2598	0.00750394
2610	0.00741866
2622	0.00656594
2634	0.0063954
2646	0.00716285
2658	0.0079303
2670	0.00861247
2682	0.00724812
2694	0.0057985
2706	0.00665122
2718	0.00707758
2730	0.00673649
2742	0.00801557
2754	0.00861247
2766	0.00895356
2778	0.00886829
2790	0.00844193
2802	0.00758921
2814	0.00835666
2826	0.00878302
2838	0.00810084
2850	0.00784502
2862	0.0085272
2874	0.00886829
2886	0.00869774
2898	0.00972101
2910	0.0100621
2922	0.0109148
2934	0.0111706
2946	0.0100621
2958	0.00929465
2970	0.00963574
2982	0.00955046
2994	0.00886829
3006	0.00903883
3018	0.00955046
3030	0.0124497
3042	0.0145815
3054	0.0123644
3066	0.0115117
3078	0.0157753
3090	0.0170544
3102	0.0110001
3114	0.00980628
3126	0.00997682
3138	0.00810084
3150	0.00903883
3162	0.00937992
3174	0.00784502
3186	0.00972101
3198	0.00844193
3210	0.00980628
3222	0.0091241
3234	0.00963574
3246	0.00955046
3258	0.0102326
3270	0.010659
3282	0.0105737
3294	0.011597
3306	0.0110854
3318	0.0120234
3330	0.0127055
3342	0.012535
3354	0.012535
3366	0.0117675
3378	0.0121086
3390	0.011597
3402	0.0122792
3414	0.0115117
3426	0.0110001
3438	0.00937992
3450	0.0113412
3462	0.0150079
3474	0.00920938
3486	0.00306979
3498	0.00861247
3510	0.0100621
3522	0.0107443
3534	0.0111706
3546	0.00929465
3558	0.0121939
3570	0.00741866
3582	0.0144962
3594	0.0127908
3606	0.0127908
3618	0.0183335
3630	0.0445973
3642	0.24601
3654	0.526725
3666	0.0984892
3678	0.0232793
3690	0.0079303
3702	0.0124497
3714	0.00528686
3726	0.00545741
3738	0.0048605
3750	0
3762	0.00835666
3774	0.00997682
3786	0.0116823
3798	0.00648067
3810	0.00349615
3822	0.00588377
3834	0.00306979
3846	0.0120234
3858	0.0165428
3870	0.00289925
3882	0.00281398
3894	0.0105737
3906	0.0057985
3918	0.00989155
3930	0.0100621
3942	0.0140699
3954	0.00989155
3966	0.0110854
