Infrared Spectrum: Hydrocinnamonitrile, .beta.-ethyl-.beta.-methyl
Formula: C 12 H 15 N
CAS: 50843-73-7
Origin: Sadtler Research Labs Under US-EPA Contract
1/CM	ABSORBANCE
450	0
462	0.0301751
474	0.0335408
486	0.0277379
498	0.0317999
510	0.0352236
522	0.0357459
534	0.0450885
546	0.0555338
558	0.0402721
570	0.0258809
582	0.0244302
594	0.0273897
606	0.0385313
618	0.0349335
630	0.0285503
642	0.0247204
654	0.0286083
666	0.0407944
678	0.0752636
690	0.221555
702	0.312312
714	0.115652
726	0.0627874
738	0.0623812
750	0.115652
762	0.196544
774	0.0814147
786	0.0662111
798	0.0414327
810	0.0291306
822	0.0247784
834	0.0291886
846	0.0266933
858	0.0258229
870	0.0262291
882	0.03209
894	0.028028
906	0.0327864
918	0.02797
930	0.0286663
942	0.0326123
954	0.0427093
966	0.0286083
978	0.0262291
990	0.0304072
1002	0.0565783
1014	0.0713176
1026	0.0735227
1038	0.0761921
1050	0.0416068
1062	0.0338309
1074	0.0385893
1086	0.0405042
1098	0.0389375
1110	0.0374867
1122	0.0313357
1134	0.0287824
1146	0.0361521
1158	0.0376028
1170	0.0353397
1182	0.0363262
1194	0.0372546
1206	0.0368484
1218	0.038009
1230	0.0307554
1242	0.0337148
1254	0.0391696
1266	0.0385893
1278	0.0384152
1290	0.0427093
1302	0.0474677
1314	0.0606983
1326	0.0743351
1338	0.058029
1350	0.0446823
1362	0.0378349
1374	0.0569845
1386	0.138979
1398	0.0981851
1410	0.0455528
1422	0.07213
1434	0.111706
1446	0.129869
1458	0.150991
1470	0.176176
1482	0.112924
1494	0.134743
1506	0.11687
1518	0.0459009
1530	0.0367904
1542	0.0325543
1554	0.0303492
1566	0.0288984
1578	0.0378929
1590	0.0551856
1602	0.0832716
1614	0.050021
1626	0.0298269
1638	0.0283182
1650	0.0317419
1662	0.0292466
1674	0.0305233
1686	0.0284342
1698	0.0269835
1710	0.0252426
1722	0.0266353
1734	0.0292466
1746	0.0284922
1758	0.0271576
1770	0.0258809
1782	0.0310455
1794	0.0413166
1806	0.0316838
1818	0.0249525
1830	0.0253006
1842	0.0250685
1854	0.0269835
1866	0.0313937
1878	0.0327284
1890	0.0318579
1902	0.0255328
1914	0.0254747
1926	0.0257649
1938	0.0347013
1950	0.0350495
1962	0.0333667
1974	0.0247204
1986	0.0226313
1998	0.0227474
2010	0.0231536
2022	0.0217609
2034	0.0223412
2046	0.022051
2058	0.0222831
2070	0.0215868
2082	0.021935
2094	0.0215288
2106	0.021993
2118	0.0215868
2130	0.0218189
2142	0.0215288
2154	0.0217609
2166	0.0217609
2178	0.0224572
2190	0.0221671
2202	0.0222831
2214	0.0215868
2226	0.0229215
2238	0.0275057
2250	0.0369645
2262	0.0315678
2274	0.0258229
2286	0.024024
2298	0.024082
2310	0.0248944
2322	0.0265193
2334	0.0222831
2346	0.0225153
2358	0.021935
2370	0.0215288
2382	0.0222831
2394	0.0234437
2406	0.0230375
2418	0.0230955
2430	0.0232696
2442	0.0229215
2454	0.0223992
2466	0.0223992
2478	0.0229795
2490	0.0230375
2502	0.0231536
2514	0.0229215
2526	0.0229215
2538	0.0229215
2550	0.0235017
2562	0.0236178
2574	0.0250105
2586	0.0255908
2598	0.0258809
2610	0.0262291
2622	0.0257649
2634	0.0253587
2646	0.0256488
2658	0.0257649
2670	0.0256488
2682	0.0248364
2694	0.024024
2706	0.0245463
2718	0.0251846
2730	0.0257649
2742	0.0279119
2754	0.0306973
2766	0.0288404
2778	0.0292466
2790	0.0306973
2802	0.0316258
2814	0.0328444
2826	0.0366743
2838	0.046075
2850	0.0541411
2862	0.0737549
2874	0.118089
2886	0.178033
2898	0.18842
2910	0.149425
2922	0.198053
2934	0.294207
2946	0.32444
2958	0.273375
2970	0.392798
2982	0.572572
2994	0.255734
3006	0.0938329
3018	0.0738129
3030	0.117451
3042	0.157549
3054	0.125111
3066	0.19225
3078	0.185577
3090	0.122325
3102	0.117915
3114	0.074103
3126	0.0496148
3138	0.0337148
3150	0.0297108
3162	0.0304652
3174	0.030001
3186	0.0294207
3198	0.0302331
3210	0.0302331
3222	0.0278539
3234	0.0272736
3246	0.0251846
3258	0.0253006
3270	0.0249525
3282	0.0247784
3294	0.0251266
3306	0.0244302
3318	0.0249525
3330	0.024082
3342	0.0234437
3354	0.0237339
3366	0.0228054
3378	0.0223992
3390	0.0232116
3402	0.0232116
3414	0.0235598
3426	0.0242561
3438	0.0235598
3450	0.0229795
3462	0.0224572
3474	0.0233857
3486	0.0226313
3498	0.0229215
3510	0.0232696
3522	0.0235598
3534	0.0235598
3546	0.0243142
3558	0.0237919
3570	0.0237339
3582	0.0234437
3594	0.0248944
3606	0.0229215
3618	0.0245463
3630	0.0255328
3642	0.0233857
3654	0.0275638
3666	0.0223412
3678	0.0277959
3690	0.0268094
3702	0.023966
3714	0.0253587
3726	0.0253587
3738	0.0256488
3750	0.0253587
3762	0.0222831
3774	0.025939
3786	0.0237919
3798	0.0238499
3810	0.0213547
3822	0.0264612
3834	0.0235017
3846	0.0221671
3858	0.0251266
3870	0.0250105
3882	0.0214707
3894	0.0242561
3906	0.0255328
3918	0.0223412
3930	0.0262291
3942	0.0233277
3954	0.0276798
3966	0.0243142
