Infrared Spectrum: Ether, 4-chlorobutyl o-tolyl,
Formula: C 11 H 15 Cl O
CAS: 50873-93-3
Origin: Sadtler Research Labs Under US-EPA Contract
1/CM	ABSORBANCE
450	0.0206015
462	0.00760578
474	0.0059888
486	0.00640802
498	0.00766566
510	0.00802499
522	0.0103606
534	0.00616846
546	0.00976174
558	0.00479104
570	0.00568936
582	0.00826454
594	0.00778544
606	0.013355
618	0.00706678
630	0.0103007
642	0.0089832
654	0.0225778
666	0.0383283
678	0.014972
690	0.0148522
702	0.0225778
714	0.0515037
726	0.0573128
738	0.122471
750	0.196433
762	0.0864783
774	0.0371306
786	0.017128
798	0.0144929
810	0.0140737
822	0.0151517
834	0.0188048
846	0.0214998
858	0.0183856
870	0.0126963
882	0.0124567
894	0.0144929
906	0.0173076
918	0.0234761
930	0.0288061
942	0.0303632
954	0.0322197
966	0.0374899
978	0.0429996
990	0.0444369
1002	0.0343158
1014	0.0412029
1026	0.0571332
1038	0.0859393
1050	0.145228
1062	0.105702
1074	0.0553365
1086	0.0292253
1098	0.0253326
1110	0.0485093
1122	0.184275
1134	0.0544382
1146	0.0228772
1158	0.0279677
1170	0.0343757
1182	0.0753391
1194	0.131694
1206	0.0592292
1218	0.10163
1230	0.277162
1242	0.59888
1254	0.233144
1266	0.0964796
1278	0.10157
1290	0.105642
1302	0.10169
1314	0.0692904
1326	0.0409035
1338	0.0225179
1350	0.0204817
1362	0.0200625
1374	0.0317406
1386	0.0664158
1398	0.0389272
1410	0.016589
1422	0.0207811
1434	0.0482098
1446	0.104265
1458	0.115883
1470	0.102229
1482	0.141755
1494	0.28315
1506	0.165291
1518	0.0448561
1530	0.0205416
1542	0.0159901
1554	0.0123369
1566	0.0137144
1578	0.0329384
1590	0.09091
1602	0.110014
1614	0.0447962
1626	0.0130556
1638	0.00922275
1650	0.00880354
1662	0.0070069
1674	0.0162296
1686	0.0119776
1698	0.00826454
1710	0.00443171
1722	0.00491082
1734	0.00556958
1746	0.00461138
1758	0.00712667
1770	0.00610858
1782	0.00437182
1794	0.00527014
1806	0.00443171
1818	0.00287462
1830	0.00395261
1842	0.00413227
1854	0.00335373
1866	0.00419216
1878	0.00724645
1890	0.00712667
1902	0.00407238
1914	0.00479104
1926	0.00790522
1938	0.00389272
1950	0.00329384
1962	0.00377294
1974	0.00413227
1986	0.00419216
1998	0.00479104
2010	0.00413227
2022	0.0034735
2034	0.00377294
2046	0.00395261
2058	0.00407238
2070	0.00419216
2082	0.00407238
2094	0.0034735
2106	0.00275485
2118	0.00227574
2130	0.00179664
2142	0.0010181
2154	0.000119776
2166	0.000119776
2178	0.000239552
2190	0.000119776
2202	0.0010181
2214	0.00173675
2226	0.00173675
2238	0.00179664
2250	0.00209608
2262	0.00191642
2274	0.00161698
2286	0.000958208
2298	0.000419216
2310	0.000119776
2322	0.00155709
2334	0.0019763
2346	0.00173675
2358	0.00059888
2370	0.00353339
2382	0.0014972
2394	0.00185653
2406	0.00263507
2418	0.00323395
2430	0.00323395
2442	0.00305429
2454	0.00317406
2466	0.00377294
2478	0.00485093
2490	0.00455149
2502	0.00383283
2514	0.00419216
2526	0.0044916
2538	0.00556958
2550	0.00479104
2562	0.00329384
2574	0.00341362
2586	0.00311418
2598	0.00305429
2610	0.00257518
2622	0.00239552
2634	0.00257518
2646	0.00263507
2658	0.0025153
2670	0.00311418
2682	0.00305429
2694	0.00359328
2706	0.00395261
2718	0.00443171
2730	0.00622835
2742	0.00916286
2754	0.00844421
2766	0.00616846
2778	0.00562947
2790	0.00574925
2802	0.00682723
2814	0.0085041
2826	0.0113787
2838	0.0167686
2850	0.0329384
2862	0.0607264
2874	0.086598
2886	0.0939044
2898	0.0831245
2910	0.100732
2922	0.131215
2934	0.153134
2946	0.169184
2958	0.185653
2970	0.16559
2982	0.091988
2994	0.0674339
3006	0.049707
3018	0.0339565
3030	0.0669548
3042	0.0633016
3054	0.045994
3066	0.0575524
3078	0.0665955
3090	0.047611
3102	0.0209009
3114	0.0167088
3126	0.00904309
3138	0.00515037
3150	0.00425205
3162	0.0034735
3174	0.00323395
3186	0.0029944
3198	0.00281474
3210	0.00257518
3222	0.00263507
3234	0.0025153
3246	0.00269496
3258	0.00233563
3270	0.00221586
3282	0.00209608
3294	0.00161698
3306	0.00179664
3318	0.00179664
3330	0.00179664
3342	0.00179664
3354	0.00185653
3366	0.00173675
3378	0.00161698
3390	0.00167686
3402	0.00191642
3414	0.00161698
3426	0.00167686
3438	0.00137742
3450	0.000718656
3462	0.00161698
3474	0.00161698
3486	0.00173675
3498	0.000958208
3510	0.00113787
3522	0.00209608
3534	0.00119776
3546	0
3558	0.00173675
3570	0.00131754
3582	0.00143731
3594	0.00239552
3606	0.00269496
3618	0.00239552
3630	0.00275485
3642	0.00275485
3654	0.00461138
3666	0.0029944
3678	0.00377294
3690	0.00287462
3702	0.00215597
3714	0.00161698
3726	0.000239552
3738	0.00119776
3750	0.00155709
3762	0.00287462
3774	0.0034735
3786	0.00227574
3798	0.00335373
3810	0.00365317
3822	0.00287462
3834	0.00137742
3846	0.00353339
3858	0.00269496
3870	0.00431194
3882	0.00281474
3894	0.0040125
3906	0.00263507
3918	0.00275485
3930	0.00263507
3942	0.00245541
3954	0.000778544
3966	0.00107798
