Infrared Spectrum: Phenol, 2,4-dinitro-
Formula: C 6 H 4 N 2 O 5
CAS: 51-28-5
Origin: Sadtler Research Labs Under US-EPA Contract
1/CM	ABSORBANCE
450	0.0253966
462	0.00229718
474	0.0243756
486	0.0210575
498	0.0134002
510	0.0413492
522	0.0523246
534	0.0426254
546	0.0251413
558	0.0336919
570	0.055898
582	0.0519417
594	0.0372653
606	0.0230994
618	0.03433
630	0.0821879
642	0.129918
654	0.071723
666	0.0880585
678	0.150976
690	0.181732
702	0.203428
714	0.265579
726	0.111286
738	0.134257
750	0.0869099
762	0.0638105
774	0.0426254
786	0.0246309
798	0.0208022
810	0.0268004
822	0.0502827
834	0.189262
846	0.16629
858	0.0375206
870	0.0230994
882	0.019526
894	0.0243756
906	0.0631724
918	0.165269
930	0.0784869
942	0.0183774
954	0.0172288
966	0.0183774
978	0.0187603
990	0.0181222
1002	0.0149317
1014	0.0139107
1026	0.0196536
1038	0.0290976
1050	0.0446673
1062	0.135661
1074	0.0830813
1086	0.0340748
1098	0.0500274
1110	0.087548
1122	0.0788698
1134	0.193601
1146	0.204832
1158	0.0571742
1170	0.0519417
1182	0.0792526
1194	0.191176
1206	0.298888
1218	0.151359
1230	0.0936738
1242	0.0834641
1254	0.21351
1266	0.470283
1278	0.336026
1290	0.143063
1302	0.107202
1314	0.20547
1326	0.772873
1338	0.986638
1350	1.20576
1362	0.375716
1374	0.178414
1386	0.142042
1398	0.110647
1410	0.104777
1422	0.135661
1434	0.260602
1446	0.367676
1458	0.292252
1470	0.247202
1482	0.337685
1494	0.262389
1506	0.173565
1518	0.117922
1530	0.126472
1542	0.398943
1554	0.703319
1566	0.55145
1578	0.225762
1590	0.324923
1602	0.775808
1614	0.689664
1626	0.601478
1638	0.375589
1650	0.104394
1662	0.0461988
1674	0.040073
1686	0.0435188
1698	0.0371377
1710	0.0196536
1722	0.0178669
1734	0.0248861
1746	0.020547
1758	0.0188879
1770	0.0186327
1782	0.0136554
1794	0.0159526
1806	0.0167184
1818	0.0144212
1830	0.0182498
1842	0.0178669
1854	0.0107202
1866	0.0102097
1878	0.00650867
1890	0.00880585
1902	0.00842299
1914	0.0100821
1926	0.0107202
1938	0.0134002
1950	0.0108478
1962	0.00829536
1974	0.00765726
1986	0.00663629
1998	0.00625343
2010	0.00536008
2022	0.00599819
2034	0.00510484
2046	0.00689153
2058	0.00855061
2070	0.0072744
2082	0.00587057
2094	0.0048496
2106	0.00523246
2118	0.00625343
2130	0.00536008
2142	0.00497722
2154	0.00497722
2166	0.00612581
2178	0.00650867
2190	0.00587057
2202	0.00612581
2214	0.00523246
2226	0.00408387
2238	0.00331815
2250	0.00408387
2262	0.00625343
2274	0.00638105
2286	0.00344577
2298	0.00140383
2310	0.000255242
2322	0.000510484
2334	0.00102097
2346	0.000255242
2358	0.000382863
2370	0.00893347
2382	0.00842299
2394	0.00676391
2406	0.00663629
2418	0.00740202
2430	0.0079125
2442	0.00842299
2454	0.00867823
2466	0.0119964
2478	0.0113583
2490	0.00931633
2502	0.00625343
2514	0.00740202
2526	0.00982682
2538	0.00944395
2550	0.00893347
2562	0.00944395
2574	0.012124
2586	0.0156974
2598	0.0149317
2610	0.013145
2622	0.0127621
2634	0.0118688
2646	0.0105925
2658	0.0102097
2670	0.0116135
2682	0.0139107
2694	0.0123792
2706	0.00957157
2718	0.0104649
2730	0.0130173
2742	0.0153145
2754	0.0144212
2766	0.0126345
2778	0.0128897
2790	0.0142936
2802	0.0162079
2814	0.0178669
2826	0.0197813
2838	0.0197813
2850	0.0183774
2862	0.0204194
2874	0.0265452
2886	0.0344577
2898	0.0312671
2910	0.0243756
2922	0.0233546
2934	0.0247585
2946	0.0251413
2958	0.0208022
2970	0.019526
2982	0.0193984
2994	0.0171012
3006	0.014804
3018	0.0134002
3030	0.0149317
3042	0.0163355
3054	0.0150593
3066	0.0153145
3078	0.0215679
3090	0.0418597
3102	0.0724887
3114	0.0578123
3126	0.0372653
3138	0.0278214
3150	0.0283319
3162	0.0330538
3174	0.0432635
3186	0.0583228
3198	0.0752964
3210	0.0997996
3222	0.131322
3234	0.147785
3246	0.143701
3258	0.13681
3270	0.124303
3282	0.111286
3294	0.100182
3306	0.0892071
3318	0.0796355
3330	0.0735097
3342	0.0694258
3354	0.0630448
3366	0.0529627
3378	0.0453055
3390	0.042753
3402	0.0389244
3414	0.0336919
3426	0.0285871
3438	0.0264175
3450	0.026928
3462	0.0243756
3474	0.0210575
3486	0.0213127
3498	0.0227165
3510	0.0228442
3522	0.0193984
3534	0.0179946
3546	0.0181222
3558	0.0183774
3570	0.0140383
3582	0.0119964
3594	0.0103373
3606	0.0119964
3618	0.0102097
3630	0.00638105
3642	0.00574294
3654	0.00523246
3666	0.00612581
3678	0.00433911
3690	0.000510484
3702	0.00191431
3714	0.00561532
3726	0.00382863
3738	0.00344577
3750	0.000255242
3762	0.00561532
3774	0.0048496
3786	0.000255242
3798	0.000255242
3810	0.00497722
3822	0.00536008
3834	0.00140383
3846	0.000255242
3858	0.00370101
3870	0.00676391
3882	0.00395625
3894	0.000510484
3906	0.000255242
3918	0.00638105
3930	0.00536008
3942	0.000255242
3954	0.000255242
3966	0.0109754
