Infrared Spectrum: Aniline, 3-chloro-2-methoxy-,
Formula: C 7 H 8 Cl N O
CAS: 51114-68-2
Origin: Sadtler Research Labs Under US-EPA Contract
1/CM	ABSORBANCE
450	0.000514232
462	0.00539944
474	0.0116988
486	0.0150413
498	0.0197337
510	0.0376675
522	0.0532873
534	0.0605508
546	0.0473093
558	0.034325
570	0.0320109
582	0.0402387
594	0.0416528
606	0.0383103
618	0.0433883
630	0.0708997
642	0.0496234
654	0.0253902
666	0.0169697
678	0.0131772
690	0.0116988
702	0.0118916
714	0.0217263
726	0.102589
738	0.213599
750	0.083627
762	0.110496
774	0.202607
786	0.0690999
798	0.0422313
810	0.0531587
822	0.0377961
834	0.0306611
846	0.023269
858	0.0214049
870	0.0257116
882	0.0410743
894	0.142892
906	0.238025
918	0.0932688
930	0.0257759
942	0.0146556
954	0.00932046
966	0.00629934
978	0.0137557
990	0.070964
1002	0.292341
1014	0.319917
1026	0.0602294
1038	0.0274471
1050	0.0802202
1062	0.0743065
1074	0.0346464
1086	0.0493663
1098	0.0696142
1110	0.0440954
1122	0.0137557
1134	0.00713497
1146	0.0155555
1158	0.0305968
1170	0.0404315
1182	0.0562441
1194	0.05438
1206	0.0791274
1218	0.163204
1230	0.452781
1242	0.363305
1254	0.0843983
1266	0.0511018
1278	0.0893478
1290	0.156969
1302	0.161212
1314	0.250302
1326	0.132865
1338	0.0330394
1350	0.0206978
1362	0.0158769
1374	0.0144628
1386	0.0148484
1398	0.019348
1410	0.0246189
1422	0.0467951
1434	0.125151
1446	0.153498
1458	0.36909
1470	0.310082
1482	0.582239
1494	0.535958
1506	0.105739
1518	0.0436454
1530	0.0352249
1542	0.04101
1554	0.0388888
1566	0.063122
1578	0.164297
1590	0.186859
1602	0.27325
1614	0.572919
1626	0.348007
1638	0.0872909
1650	0.039853
1662	0.0250045
1674	0.0220477
1686	0.021662
1698	0.0191551
1710	0.0172268
1722	0.0164554
1734	0.0102204
1746	0.00347107
1758	0.00134986
1770	0.00102846
1782	0.000321395
1794	0.00334251
1806	0.00964185
1818	0.00662074
1830	0.00372818
1842	0.00424241
1854	0.00552799
1866	0.00662074
1878	0.00623506
1890	0.0145271
1902	0.0152341
1914	0.0052066
1926	0.00379246
1938	0.0039853
1950	0.0039853
1962	0.00372818
1974	0.00475665
1986	0.00687785
1998	0.0120845
2010	0.0157484
2022	0.0109917
2034	0.00951329
2046	0.00739208
2058	0.00552799
2070	0.00456381
2082	0.00385674
2094	0.00475665
2106	0.00482093
2118	0.00533516
2130	0.00392102
2142	0.00327823
2154	0.00340679
2166	0.00321395
2178	0.00340679
2190	0.00314967
2202	0.00340679
2214	0.00347107
2226	0.00308539
2238	0.00314967
2250	0.00334251
2262	0.00295683
2274	0.00314967
2286	0.00449953
2298	0.0039853
2310	0.00359962
2322	0.00302111
2334	0.00295683
2346	0.00327823
2358	0.00269972
2370	0.00250688
2382	0.00430669
2394	0.00289255
2406	0.0012213
2418	6.4279e-05
2430	0.000321395
2442	0.00102846
2454	0.00173553
2466	0.00199265
2478	0.0015427
2490	0.00134986
2502	0.00218549
2514	0.00327823
2526	0.00308539
2538	0.00218549
2550	0.00218549
2562	0.00115702
2574	0.00147842
2586	0.00359962
2598	0.00668502
2610	0.00700641
2622	0.0036639
2634	0.002764
2646	0.00347107
2658	0.00334251
2670	0.0039853
2682	0.00392102
2694	0.00424241
2706	0.00527088
2718	0.00597795
2730	0.00604223
2742	0.00617078
2754	0.00694213
2766	0.00784204
2778	0.00977041
2790	0.0116345
2802	0.0138843
2814	0.0179338
2826	0.0363819
2838	0.0937831
2850	0.0834341
2862	0.0410743
2874	0.0400458
2886	0.058751
2898	0.0765563
2910	0.0816986
2922	0.0908905
2934	0.115766
2946	0.165326
2958	0.115059
2970	0.0905691
2982	0.0677501
2994	0.0628006
3006	0.0930117
3018	0.075335
3030	0.0683929
3042	0.0721853
3054	0.05483
3066	0.0668502
3078	0.0759135
3090	0.0506519
3102	0.0199908
3114	0.0091919
3126	0.00636362
3138	0.00546372
3150	0.00604223
3162	0.00629934
3174	0.00700641
3186	0.00771348
3198	0.00591367
3210	0.00314967
3222	0.00115702
3234	0.00115702
3246	0.0012213
3258	0.00134986
3270	0.00141414
3282	0.0015427
3294	0.00205693
3306	0.00289255
3318	0.002764
3330	0.00302111
3342	0.002764
3354	0.00347107
3366	0.00527088
3378	0.00906334
3390	0.0231404
3402	0.0719925
3414	0.0690356
3426	0.0286042
3438	0.0127915
3450	0.00758492
3462	0.0088705
3474	0.0167125
3486	0.0446739
3498	0.0886407
3510	0.0540586
3522	0.0262258
3534	0.0128558
3546	0.00539944
3558	0.00218549
3570	0.00212121
3582	0.00109274
3594	0.000899906
3606	0.00102846
3618	0.000899906
3630	0.0015427
3642	0.000578511
3654	0.000514232
3666	0.000707069
3678	0.0012213
3690	0.000835627
3702	0.000899906
3714	0.00141414
3726	0.00102846
3738	0.00147842
3750	0.00102846
3762	0.00102846
3774	0.000128558
3786	0.000192837
3798	0.00115702
3810	0.00186409
3822	0.00302111
3834	0.00224976
3846	0.00134986
3858	0.00231404
3870	0.00147842
3882	0.00109274
3894	0.0012213
3906	0.00205693
3918	0.0012213
3930	0.00179981
3942	0.00179981
3954	0.00218549
3966	0.00115702
