Infrared Spectrum: N-Phthalyl-dl-valine
Formula: C 13 H 13 N O 4
CAS: 5115-65-1
Origin: Sadtler Research Labs Under US-EPA Contract
1/CM	ABSORBANCE
450	0
462	0.0127422
474	0.014045
486	0.0130679
498	0.0162433
510	0.02007
522	0.0305732
534	0.0345221
546	0.0284563
558	0.0285377
570	0.0288634
582	0.0190523
594	0.0214949
606	0.0304511
618	0.0339114
630	0.0477935
642	0.0485263
654	0.0298811
666	0.0217798
678	0.0180752
690	0.0232047
702	0.0330158
714	0.122619
726	0.112522
738	0.0281713
750	0.0205993
762	0.0200293
774	0.0141264
786	0.0161212
798	0.013475
810	0.0123758
822	0.0122944
834	0.0142892
846	0.00989253
858	0.0100961
870	0.0127422
882	0.0156326
894	0.0273978
906	0.0387152
918	0.0180345
930	0.015999
942	0.0177903
954	0.0292298
966	0.0232861
978	0.0151848
990	0.0182381
1002	0.0208842
1014	0.0246296
1026	0.021902
1038	0.0195001
1050	0.024141
1062	0.051946
1074	0.0787739
1086	0.0672936
1098	0.0538593
1110	0.0703469
1122	0.0692477
1134	0.0703062
1146	0.0609836
1158	0.0616349
1170	0.0630191
1182	0.0560577
1194	0.0545921
1206	0.044781
1218	0.0365169
1230	0.0303697
1242	0.0276828
1254	0.0280085
1266	0.0311839
1278	0.0329344
1290	0.0396515
1302	0.045066
1314	0.0578489
1326	0.0725859
1338	0.0777561
1350	0.107474
1362	0.133244
1374	0.21731
1386	0.255211
1398	0.109713
1410	0.0574011
1422	0.0504397
1434	0.024141
1446	0.017546
1458	0.0265429
1470	0.0468572
1482	0.0171389
1494	0.00989253
1506	0.0100554
1518	0.0105032
1530	0.0111138
1542	0.0123351
1554	0.0128644
1566	0.0142485
1578	0.0174239
1590	0.0195815
1602	0.0191337
1614	0.0221462
1626	0.016569
1638	0.0182381
1650	0.0235711
1662	0.0283749
1674	0.0398958
1686	0.061065
1698	0.101856
1710	0.195123
1722	0.252036
1734	0.312083
1746	0.342534
1758	0.139025
1770	0.144846
1782	0.197728
1794	0.146678
1806	0.0574011
1818	0.0292298
1830	0.018808
1842	0.0149406
1854	0.0119687
1866	0.010951
1878	0.0101775
1890	0.00915975
1902	0.0093633
1914	0.0100554
1926	0.00948543
1938	0.0103811
1950	0.0100147
1962	0.0093633
1974	0.0101775
1986	0.00940401
1998	0.00928188
2010	0.00887478
2022	0.0089562
2034	0.00899691
2046	0.00911904
2058	0.0093633
2070	0.00924117
2082	0.00940401
2094	0.00924117
2106	0.00928188
2118	0.00920046
2130	0.0093633
2142	0.00972969
2154	0.00972969
2166	0.00985182
2178	0.0101368
2190	0.0103811
2202	0.00997395
2214	0.0104218
2226	0.0105439
2238	0.0108289
2250	0.0113988
2262	0.0118059
2274	0.0123758
2286	0.0135971
2298	0.0163654
2310	0.0184823
2322	0.0176681
2334	0.0147777
2346	0.0171796
2358	0.0155105
2370	0.0151034
2382	0.0168132
2394	0.0131493
2406	0.0132308
2418	0.01376
2430	0.0141671
2442	0.0148591
2454	0.0151034
2466	0.0151034
2478	0.0151034
2490	0.0148591
2502	0.0151441
2514	0.0152255
2526	0.0151441
2538	0.0151848
2550	0.015307
2562	0.015307
2574	0.0153477
2586	0.0154698
2598	0.0154698
2610	0.0150627
2622	0.0153477
2634	0.015999
2646	0.0157141
2658	0.0156733
2670	0.0162433
2682	0.0159176
2694	0.0162433
2706	0.0160397
2718	0.0161212
2730	0.0162026
2742	0.0166911
2754	0.0166504
2766	0.0168539
2778	0.0177089
2790	0.0178717
2802	0.0184823
2814	0.0183602
2826	0.0191744
2838	0.0195001
2850	0.0207214
2862	0.0229197
2874	0.0296776
2886	0.0351327
2898	0.0338707
2910	0.0370054
2922	0.0386745
2934	0.0426234
2946	0.0437225
2958	0.0448217
2970	0.0664794
2982	0.0622049
2994	0.0357027
3006	0.0284563
3018	0.0237339
3030	0.0236118
3042	0.0243039
3054	0.0261358
3066	0.0298404
3078	0.0283749
3090	0.0318759
3102	0.026258
3114	0.0231233
3126	0.0228383
3138	0.0229197
3150	0.0228383
3162	0.0231233
3174	0.0233675
3186	0.0240189
3198	0.0243853
3210	0.0240189
3222	0.0245888
3234	0.0249145
3246	0.0248331
3258	0.0247924
3270	0.0251995
3282	0.0251181
3294	0.0249552
3306	0.0249145
3318	0.0250774
3330	0.0246703
3342	0.0243039
3354	0.0239375
3366	0.0232861
3378	0.0224312
3390	0.0207214
3402	0.0202329
3414	0.0188894
3426	0.0184009
3438	0.0174239
3450	0.0170168
3462	0.0182788
3474	0.0192151
3486	0.0184823
3498	0.0163654
3510	0.0166097
3522	0.0160804
3534	0.0148999
3546	0.0145742
3558	0.0144928
3570	0.0393259
3582	0.052923
3594	0.0168539
3606	0.0119687
3618	0.0123758
3630	0.0131086
3642	0.0112767
3654	0.0114395
3666	0.0107881
3678	0.0116431
3690	0.0111953
3702	0.0117652
3714	0.0126608
3726	0.0114802
3738	0.0123758
3750	0.0117652
3762	0.0111138
3774	0.0118059
3786	0.0116024
3798	0.0118059
3810	0.011236
3822	0.0120502
3834	0.0127422
3846	0.0120094
3858	0.0118059
3870	0.0124166
3882	0.0122537
3894	0.0127422
3906	0.0125387
3918	0.0122944
3930	0.0140042
3942	0.0120909
3954	0.0134343
3966	0.0120502
