Infrared Spectrum: Thiophene, 2,3-dichlorotetrahydro-, 1,1-dioxide
Formula: C 4 H 6 Cl 2 O 2 S
CAS: 51275-92-4
Origin: Sadtler Research Labs Under US-EPA Contract
1/CM	ABSORBANCE
450	0.118105
462	0.118228
474	0.104435
486	0.171677
498	0.14175
510	0.0538183
522	0.023153
534	0.0184731
546	0.0381777
558	0.1351
570	0.118228
582	0.0365767
594	0.0456901
606	0.0237687
618	0.0091134
630	0.00652716
642	0.00147785
654	0.00357147
666	0.0153942
678	0.0486458
690	0.0634243
702	0.0543109
714	0.0700746
726	0.182391
738	0.213426
750	0.0993853
762	0.0431039
774	0.0413797
786	0.0592371
798	0.0938433
810	0.10542
822	0.0608381
834	0.0386704
846	0.0209362
858	0.0190889
870	0.035222
882	0.0988927
894	0.154805
906	0.0889172
918	0.0385472
930	0.019212
942	0.00640401
954	0.00431039
966	0.00800501
978	0.023153
990	0.019212
1002	0.0190889
1014	0.0216751
1026	0.00899024
1038	0.00985232
1050	0.0174879
1062	0.0274633
1074	0.0235224
1086	0.0151479
1098	0.029557
1110	0.0896561
1122	0.20345
1134	0.324634
1146	0.252096
1158	0.38227
1170	0.536705
1182	0.434734
1194	0.358748
1206	0.178081
1218	0.115026
1230	0.069582
1242	0.0536951
1254	0.0874393
1266	0.114533
1278	0.140149
1290	0.109484
1302	0.0774639
1314	0.108991
1326	0.126602
1338	0.138179
1350	0.271308
1362	0.792742
1374	1.23154
1386	0.351974
1398	0.0854689
1410	0.0557888
1422	0.0681042
1434	0.0474143
1446	0.0495079
1458	0.0399019
1470	0.0203204
1482	0.0108376
1494	0.00640401
1506	0.00357147
1518	0.00307885
1530	0.00357147
1542	0.000492616
1554	0.00480301
1566	0.0045567
1578	0.00566508
1590	0.00517247
1602	0.00591139
1614	0.00788186
1626	0.00640401
1638	0.00467985
1650	0.00147785
1662	0.00443354
1674	0.00233993
1686	0.00357147
1698	0.00270939
1710	0.00763555
1722	0.0091134
1734	0.00837447
1746	0.0129312
1758	0.0123154
1770	0.00886709
1782	0.00591139
1794	0.00369462
1806	0.00517247
1818	0.0045567
1830	0.003202
1842	0.00369462
1854	0.00467985
1866	0.00431039
1878	0.00467985
1890	0.00357147
1902	0.00394093
1914	0.00394093
1926	0.00431039
1938	0.00467985
1950	0.00443354
1962	0.00418724
1974	0.00406408
1986	0.00357147
1998	0.00344831
2010	0.00357147
2022	0.00406408
2034	0.00394093
2046	0.00394093
2058	0.00443354
2070	0.00394093
2082	0.00394093
2094	0.00443354
2106	0.00467985
2118	0.0045567
2130	0.0045567
2142	0.00431039
2154	0.00418724
2166	0.00406408
2178	0.00443354
2190	0.00443354
2202	0.00467985
2214	0.00529562
2226	0.00554193
2238	0.00529562
2250	0.00591139
2262	0.00665032
2274	0.00677347
2286	0.0077587
2298	0.0091134
2310	0.0108376
2322	0.0108376
2334	0.00985232
2346	0.0103449
2358	0.0077587
2370	0.0091134
2382	0.00788186
2394	0.00517247
2406	0.00431039
2418	0.00431039
2430	0.00443354
2442	0.00504931
2454	0.00517247
2466	0.00566508
2478	0.00640401
2490	0.00714293
2502	0.00763555
2514	0.00603455
2526	0.00591139
2538	0.00541878
2550	0.00406408
2562	0.00406408
2574	0.00344831
2586	0.00270939
2598	0.00233993
2610	0.00221677
2622	0.00221677
2634	0.00197046
2646	0.00209362
2658	0.001601
2670	0.001601
2682	0.001601
2694	0.000985232
2706	0.00184731
2718	0.000985232
2730	0.00221677
2742	0.001601
2754	0.00110839
2766	0.000738924
2778	0.00147785
2790	0.000369462
2802	0.000738924
2814	0.00061577
2826	0.000738924
2838	0.00110839
2850	0.00172416
2862	0.00443354
2874	0.00689662
2886	0.00960601
2898	0.00849763
2910	0.00529562
2922	0.00665032
2934	0.0121922
2946	0.0251234
2958	0.0371925
2970	0.0432271
2982	0.0481532
2994	0.0501237
3006	0.0280791
3018	0.0152711
3030	0.00504931
3042	0.00221677
3054	0.001601
3066	0.00172416
3078	0.000985232
3090	0.00135469
3102	0.000738924
3114	0.000985232
3126	0.000862078
3138	0.000492616
3150	0.00061577
3162	0.000492616
3174	0.00061577
3186	0.000738924
3198	0.00061577
3210	0.00061577
3222	0.000738924
3234	0.000862078
3246	0.00110839
3258	0.000738924
3270	0.00061577
3282	0.000369462
3294	0.000492616
3306	0.000492616
3318	0.000738924
3330	0.000738924
3342	0.000862078
3354	0.001601
3366	0.000985232
3378	0.000862078
3390	0.000246308
3402	0.000738924
3414	0.000862078
3426	0.000985232
3438	0.00110839
3450	0.000123154
3462	0.00061577
3474	0.000492616
3486	0.000492616
3498	0.000123154
3510	0.000492616
3522	0.000862078
3534	0.000985232
3546	0.00246308
3558	0.00221677
3570	0.00209362
3582	0.000738924
3594	0.00135469
3606	0.000985232
3618	0.001601
3630	0.00209362
3642	0.00221677
3654	0.00184731
3666	0.000123154
3678	0.00270939
3690	0.00184731
3702	0.00172416
3714	0.00184731
3726	0.00110839
3738	0.00258623
3750	0
3762	0.000985232
3774	0.000738924
3786	0.000862078
3798	0.001601
3810	0.000123154
3822	0.00221677
3834	0.00258623
3846	0.00258623
3858	0.00184731
3870	0.001601
3882	0.00258623
3894	0.000492616
3906	0.001601
3918	0.000738924
3930	0.00184731
3942	0.000246308
3954	0.00184731
3966	0.000492616
