Infrared Spectrum: 2-Butanone, 3-hydroxy-
Formula: C 4 H 8 O 2
CAS: 513-86-0
Origin: Sadtler Research Labs Under US-EPA Contract
1/CM	ABSORBANCE
450	0.0534391
462	0.0192417
474	0.0290906
486	0.0247133
498	0.0233454
510	0.0217951
522	0.0170531
534	0.0176002
546	0.015594
558	0.0213392
570	0.039669
582	0.0516152
594	0.0385746
606	0.0362948
618	0.0590019
630	0.069945
642	0.0568132
654	0.0394866
666	0.0294553
678	0.0260812
690	0.0274491
702	0.0278139
714	0.0290906
726	0.0417664
738	0.0569956
750	0.0493354
762	0.0242573
774	0.00902811
786	0.00346533
798	0.0116727
810	0.0270843
822	0.0412192
834	0.0245309
846	0.0165971
858	0.0175091
870	0.0176002
882	0.0271755
894	0.0407633
906	0.0486971
918	0.0542598
930	0.0729544
942	0.101133
954	0.142352
966	0.166245
978	0.159679
990	0.107425
1002	0.0846271
1014	0.0964822
1026	0.134874
1038	0.207373
1050	0.246586
1062	0.26446
1074	0.244032
1086	0.268381
1098	0.343615
1110	0.530652
1122	0.812803
1134	0.784351
1146	0.506668
1158	0.207646
1170	0.20026
1182	0.266922
1194	0.255705
1206	0.195883
1218	0.134327
1230	0.124843
1242	0.192417
1254	0.313977
1266	0.35237
1278	0.248136
1290	0.125846
1302	0.0933816
1314	0.096847
1326	0.11618
1338	0.19187
1350	0.376901
1362	0.516426
1374	0.539771
1386	0.396325
1398	0.299204
1410	0.210929
1422	0.158767
1434	0.149374
1446	0.167704
1458	0.170531
1470	0.12457
1482	0.0748695
1494	0.0435903
1506	0.0384834
1518	0.0339238
1530	0.0287258
1542	0.0306408
1554	0.0237102
1566	0.0196977
1578	0.0192417
1590	0.0141349
1602	0.012767
1614	0.0180562
1626	0.028361
1638	0.0456877
1650	0.0479675
1662	0.0341062
1674	0.0666621
1686	0.0895515
1698	0.0995828
1710	0.295465
1722	0.711761
1734	0.850284
1746	0.727903
1758	0.219775
1770	0.0766933
1782	0.0419488
1794	0.0357477
1806	0.0333766
1818	0.015138
1830	0.00866334
1842	0.00291818
1854	9.1193e-05
1866	0.00346533
1878	0.00209744
1890	0.00191505
1902	0.00328295
1914	0.00200625
1926	0.00273579
1938	0.00483323
1950	0.00428607
1962	0.00492442
1974	0.00547158
1986	0.00465084
1998	0.005198
2010	0.00483323
2022	0.00428607
2034	0.00446846
2046	0.0039213
2058	0.00200625
2070	0.00273579
2082	0.0026446
2094	0.0026446
2106	0.0039213
2118	0.00337414
2130	0.00300937
2142	0.00373891
2154	0.00355653
2166	0.00419488
2178	0.00401249
2190	0.00209744
2202	0.00218863
2214	0.00200625
2226	0.00164147
2238	0.00273579
2250	0.00310056
2262	0.00337414
2274	0.00446846
2286	0.00401249
2298	0.00401249
2310	0.005198
2322	0.00501562
2334	0.00574516
2346	0.00474204
2358	0.00373891
2370	0.00373891
2382	0.00273579
2394	0.00273579
2406	0.00364772
2418	0.00383011
2430	0.00273579
2442	0.00310056
2454	0.00291818
2466	0.00300937
2478	0.00446846
2490	0.00501562
2502	0.005198
2514	0.00592755
2526	0.00556277
2538	0.00510681
2550	0.00528919
2562	0.00474204
2574	0.005198
2586	0.00620112
2598	0.0065659
2610	0.00793379
2622	0.00848095
2634	0.00702186
2646	0.00683948
2658	0.00775141
2670	0.00875453
2682	0.0100312
2694	0.00994004
2706	0.0118551
2718	0.0141349
2730	0.0163235
2742	0.0180562
2754	0.0210656
2766	0.0266284
2778	0.0353829
2790	0.0486971
2802	0.0603698
2814	0.0649294
2826	0.0660237
2838	0.0755078
2850	0.106149
2862	0.147277
2874	0.172446
2886	0.168069
2898	0.14755
2910	0.133689
2922	0.140802
2934	0.183389
2946	0.212388
2958	0.18576
2970	0.231721
2982	0.393407
2994	0.379089
3006	0.25835
3018	0.102957
3030	0.050065
3042	0.0351093
3054	0.0289082
3066	0.0248957
3078	0.0213392
3090	0.0182386
3102	0.015594
3114	0.0150468
3126	0.0145909
3138	0.010852
3150	0.00966646
3162	0.00902811
3174	0.00857214
3186	0.00893691
3198	0.0101224
3210	0.0100312
3222	0.00975765
3234	0.00811618
3246	0.00610993
3258	0.00510681
3270	0.00455965
3282	0.00364772
3294	0.00373891
3306	0.00237102
3318	0.00209744
3330	0.00200625
3342	0.00173267
3354	0.00182386
3366	0.00273579
3378	0.00246221
3390	0.00346533
3402	0.0039213
3414	0.00556277
3426	0.0123111
3438	0.0193329
3450	0.0225247
3462	0.0207008
3474	0.015594
3486	0.0229806
3498	0.0579076
3510	0.168069
3522	0.262909
3534	0.272029
3546	0.19342
3558	0.125117
3570	0.0842623
3582	0.0603698
3594	0.0386658
3606	0.0251693
3618	0.0196065
3630	0.0239838
3642	0.034471
3654	0.0341062
3666	0.0286346
3678	0.0193329
3690	0.00465084
3702	0.00191505
3714	0.00091193
3726	9.1193e-05
3738	0.00091193
3750	0.000273579
3762	9.1193e-05
3774	0.00100312
3786	9.1193e-05
3798	0.000729544
3810	0.00100312
3822	0.00209744
3834	0.00428607
3846	0.00337414
3858	0.0012767
3870	0.00209744
3882	0.00145909
3894	0.00328295
3906	0.00355653
3918	0.00218863
3930	0.00145909
3942	0.0013679
3954	0.00109432
3966	0.00100312
