Infrared Spectrum: 2-Propanol, 1-butoxy-
Formula: C 7 H 16 O 2
CAS: 5131-66-8
Origin: Sadtler Research Labs Under US-EPA Contract
1/CM	ABSORBANCE
450	0.00610667
462	0.0243573
474	0.0358073
486	0.023247
498	0.0356685
510	0.0278964
522	0.0214427
534	0.0172097
546	0.0210958
558	0.0147115
570	0.00909061
582	0.00721698
594	0.00735576
606	0.00631485
618	0.00617607
630	0.0081191
642	0.00881304
654	0.00916001
666	0.00777213
678	0.00874364
690	0.00659243
702	0.00548213
714	0.00589849
726	0.0080497
738	0.00957637
750	0.0122827
762	0.00964577
774	0.00888243
786	0.0104785
798	0.0116582
810	0.0172791
822	0.0258146
834	0.0346276
846	0.0458694
858	0.0450367
870	0.030464
882	0.0206794
894	0.0197773
906	0.023247
918	0.035044
930	0.0539191
942	0.0780682
954	0.0951392
966	0.10187
978	0.0973598
990	0.0961107
1002	0.0953474
1014	0.083134
1026	0.0832034
1038	0.113459
1050	0.165088
1062	0.192777
1074	0.211097
1086	0.302003
1098	0.445856
1110	0.566116
1122	0.693871
1134	0.594776
1146	0.368066
1158	0.223449
1170	0.12824
1182	0.074321
1194	0.0535028
1206	0.0507964
1218	0.0634261
1230	0.0893795
1242	0.123868
1254	0.170432
1266	0.170848
1278	0.0997192
1290	0.066757
1302	0.0718228
1314	0.100205
1326	0.126644
1338	0.0971516
1350	0.0913919
1362	0.108324
1374	0.168072
1386	0.187294
1398	0.119705
1410	0.0917389
1422	0.0611361
1434	0.0536416
1446	0.0800113
1458	0.133445
1470	0.126644
1482	0.0748067
1494	0.0412894
1506	0.0205406
1518	0.0192915
1530	0.0116582
1542	0.00909061
1554	0.0058291
1566	0.00416364
1578	0.00610667
1590	0.0046494
1602	0.00437182
1614	0.00527394
1626	0.00367788
1638	0.0057597
1650	0.00284515
1662	0.00353909
1674	0.00381667
1686	0.00492697
1698	0.00395546
1710	0.00353909
1722	0.00548213
1734	0.00673122
1746	0.00867425
1758	0.00798031
1770	0.00555152
1782	0.00492697
1794	0.00520455
1806	0.00416364
1818	0.00360849
1830	0.00291455
1842	0.00333091
1854	0.00333091
1866	0.0034697
1878	0.00367788
1890	0.0034697
1902	0.00395546
1914	0.00416364
1926	0.00478819
1938	0.00513516
1950	0.00555152
1962	0.00645364
1974	0.00596788
1986	0.00645364
1998	0.00714758
2010	0.00700879
2022	0.00680061
2034	0.0069394
2046	0.00624546
2058	0.00610667
2070	0.00680061
2082	0.00721698
2094	0.00860486
2106	0.00999274
2118	0.00950698
2130	0.00846607
2142	0.00735576
2154	0.00687001
2166	0.0069394
2178	0.00749455
2190	0.00825789
2202	0.00860486
2214	0.00853546
2226	0.00846607
2238	0.00763334
2250	0.00673122
2262	0.00673122
2274	0.00756395
2286	0.00617607
2298	0.00458
2310	0.000971516
2322	0.000624546
2334	0.00478819
2346	0.0105479
2358	0.000763334
2370	0.0174179
2382	0.0145033
2394	0.0092294
2406	0.00888243
2418	0.00832728
2430	0.00784152
2442	0.00770273
2454	0.00687001
2466	0.00652304
2478	0.00687001
2490	0.00659243
2502	0.00700879
2514	0.00777213
2526	0.00818849
2538	0.00818849
2550	0.00839667
2562	0.00916001
2574	0.0101315
2586	0.0116582
2598	0.01374
2610	0.0155443
2622	0.0163076
2634	0.016724
2646	0.017973
2658	0.0187364
2670	0.0185282
2682	0.0190833
2694	0.021304
2706	0.0244267
2718	0.028174
2730	0.0322682
2742	0.0359461
2754	0.0380279
2766	0.0397628
2778	0.0454531
2790	0.0574582
2802	0.0681449
2814	0.0724473
2826	0.0829952
2838	0.123174
2850	0.227543
2862	0.379516
2874	0.512475
2886	0.552376
2898	0.454878
2910	0.402346
2922	0.435933
2934	0.523092
2946	0.582077
2958	0.483329
2970	0.594429
2982	0.466119
2994	0.261268
3006	0.0870895
3018	0.0451061
3030	0.0302558
3042	0.0233164
3054	0.0181812
3066	0.0158912
3078	0.0145033
3090	0.013393
3102	0.0124215
3114	0.0106173
3126	0.0104785
3138	0.00881304
3150	0.00770273
3162	0.00902122
3174	0.0080497
3186	0.00791092
3198	0.00832728
3210	0.0069394
3222	0.00478819
3234	0.00458
3246	0.00451061
3258	0.00326152
3270	0.00402485
3282	0.00263697
3294	0.00291455
3306	0.00319212
3318	0.00249818
3330	0.00173485
3342	0.0023594
3354	0.00284515
3366	0.00381667
3378	0.00367788
3390	0.00277576
3402	0.00166546
3414	0.00208182
3426	0.00104091
3438	0.000971516
3450	0.000624546
3462	0.00270637
3474	0.00194303
3486	0.00208182
3498	0.00319212
3510	0.00215121
3522	0.00208182
3534	0.00367788
3546	0.00173485
3558	0.00319212
3570	0.00430243
3582	0.00777213
3594	0.0149197
3606	0.0508658
3618	0.134624
3630	0.0868119
3642	0.0324764
3654	0.0293537
3666	0.0208182
3678	0.0136012
3690	0.00707819
3702	0.00645364
3714	0.00603728
3726	0.00326152
3738	0.0046494
3750	0.00555152
3762	0.00506576
3774	0.00409425
3786	0.0069394
3798	0.00430243
3810	0.00444122
3822	0.00388606
3834	0.00298394
3846	0.00367788
3858	0.00652304
3870	0.00284515
3882	0.00513516
3894	0.00555152
3906	0.00638425
3918	0.00166546
3930	0.00458
3942	0.000763334
3954	0.000485758
3966	0.00242879
