Infrared Spectrum: Ethyl 1-methylnipecotate
Formula: C 9 H 17 N O 2
CAS: 5166-67-6
Origin: Sadtler Research Labs Under US-EPA Contract
1/CM	ABSORBANCE
450	0.031093
462	0.0116448
474	0.007203
486	0.016927
498	0.0110446
510	0.0138058
522	0.0139258
534	0.0151263
546	0.0109245
558	0.00084035
570	0.0162067
582	0.00804335
594	0.0084035
606	0.00804335
618	0.0111646
630	0.00900375
642	0.004802
654	0.0134456
666	0.0159666
678	0.0148862
690	0.0199283
702	0.0162067
714	0.0206486
726	0.0181275
738	0.0228095
750	0.0381759
762	0.0356549
774	0.0390163
786	0.0444185
798	0.0451388
810	0.026411
822	0.0152464
834	0.0166869
846	0.0279717
858	0.0654273
870	0.0835548
882	0.0439383
894	0.0187278
906	0.026291
918	0.0248504
930	0.0218491
942	0.031213
954	0.0349346
966	0.0349346
978	0.0291722
990	0.0566636
1002	0.0878766
1014	0.140338
1026	0.300725
1038	0.31141
1050	0.253786
1062	0.235298
1074	0.147662
1086	0.158586
1098	0.274674
1110	0.224013
1122	0.236859
1134	0.414773
1146	0.842871
1158	1.07277
1170	0.714898
1182	0.698091
1194	0.450428
1206	0.462193
1218	0.475398
1230	0.38488
1242	0.396765
1254	0.355828
1266	0.284398
1278	0.267471
1290	0.267711
1302	0.353667
1314	0.391243
1326	0.221132
1338	0.134696
1350	0.0837949
1362	0.100602
1374	0.219932
1386	0.211288
1398	0.105644
1410	0.0662676
1422	0.0583443
1434	0.0930388
1446	0.200243
1458	0.248624
1470	0.222693
1482	0.100242
1494	0.0380559
1506	0.0165669
1518	0.00924385
1530	0.007203
1542	0.00348145
1554	0.00708295
1566	0.0081634
1578	0.0091238
1590	0.007203
1602	0.00828345
1614	0.0110446
1626	0.0108045
1638	0.0154865
1650	0.009604
1662	0.0141659
1674	0.0224493
1686	0.0304927
1698	0.038416
1710	0.0774323
1722	0.14382
1734	0.379118
1746	0.928827
1758	0.949596
1770	0.294123
1782	0.0825944
1794	0.0340942
1806	0.0188478
1818	0.0115248
1830	0.0074431
1842	0.0043218
1854	0.00420175
1866	0.0038416
1878	0.0055223
1890	0.00636265
1902	0.0062426
1914	0.00348145
1926	0.002401
1938	0.0019208
1950	0.00156065
1962	0.0019208
1974	0.00204085
1986	0.002401
1998	0.00348145
2010	0.0043218
2022	0.00372155
2034	0.0045619
2046	0.004802
2058	0.00324135
2070	0.00300125
2082	0.00252105
2094	0.00156065
2106	0.0016807
2118	0.00156065
2130	0.0004802
2142	0.00060025
2154	0.00060025
2166	0.00108045
2178	0.0014406
2190	0.00108045
2202	0.0002401
2214	0
2226	0.00108045
2238	0.00084035
2250	0.00084035
2262	0.0007203
2274	0.0009604
2286	0.0019208
2298	0.00276115
2310	0.0028812
2322	0.00204085
2334	0.0016807
2346	0.00228095
2358	0.00252105
2370	0.0040817
2382	0.0033614
2394	0.00252105
2406	0.0019208
2418	0.0028812
2430	0.00204085
2442	0.0014406
2454	0.0012005
2466	0.00204085
2478	0.0021609
2490	0.0028812
2502	0.0033614
2514	0.00420175
2526	0.00324135
2538	0.00372155
2550	0.00540225
2562	0.0064827
2574	0.00660275
2586	0.00828345
2598	0.0115248
2610	0.0134456
2622	0.0157265
2634	0.0181275
2646	0.0232897
2658	0.033494
2670	0.0442985
2682	0.057504
2694	0.0691488
2706	0.0896774
2718	0.109246
2730	0.112127
2742	0.134576
2754	0.165309
2766	0.269152
2778	0.476478
2790	0.597969
2802	0.36015
2814	0.182236
2826	0.100602
2838	0.121971
2850	0.201444
2862	0.208527
2874	0.207686
2886	0.196042
2898	0.222693
2910	0.278756
2922	0.329297
2934	0.525219
2946	1.03123
2958	0.830626
2970	0.483801
2982	0.470116
2994	0.269992
3006	0.135536
3018	0.0695089
3030	0.0373356
3042	0.0243702
3054	0.0176473
3066	0.0148862
3078	0.0135657
3090	0.012005
3102	0.0102042
3114	0.00924385
3126	0.00732305
3138	0.00756315
3150	0.0062426
3162	0.0060025
3174	0.00588245
3186	0.007203
3198	0.00636265
3210	0.0057624
3222	0.0045619
3234	0.00324135
3246	0.00252105
3258	0.00156065
3270	0.0007203
3282	0.0009604
3294	0.0009604
3306	0.00180075
3318	0.00156065
3330	0.00108045
3342	0.0019208
3354	0.00228095
3366	0.00228095
3378	0.00252105
3390	0.0014406
3402	0.00228095
3414	0
3426	0.00228095
3438	0.00108045
3450	0.00228095
3462	0.00540225
3474	0.00924385
3486	0.0109245
3498	0.00540225
3510	0.00396165
3522	0.00204085
3534	0.0016807
3546	0.00156065
3558	0.00204085
3570	0.0043218
3582	0.0021609
3594	0.0026411
3606	0.00108045
3618	0.0031213
3630	0.0033614
3642	0.00132055
3654	0.0043218
3666	0.0019208
3678	0.0050421
3690	0.0019208
3702	0.002401
3714	0.0052822
3726	0.0028812
3738	0.00468195
3750	0.0043218
3762	0.0031213
3774	0.00324135
3786	0.0019208
3798	0.00372155
3810	0.00228095
3822	0.00468195
3834	0.0038416
3846	0.00228095
3858	0.0060025
3870	0.00492205
3882	0.0033614
3894	0.0079233
3906	0.00444185
3918	0.0057624
3930	0.00564235
3942	0.00612255
3954	0.00732305
3966	0.0060025
