Infrared Spectrum: Benzene, 1,5-dimethyl-2,4-bis(1-methylethyl)-
Formula: C 14 H 22
CAS: 5186-68-5
Origin: Sadtler Research Labs Under US-EPA Contract
1/CM	ABSORBANCE
450	0.00706249
462	0.0176562
474	0.0420032
486	0.0334539
498	0.015426
510	0.00762005
522	0.00427466
534	0.00390295
546	0.00669078
558	0.0109654
570	0.0094786
582	0.00501808
594	0.00297368
606	0.00446052
618	0.00538979
630	0.0107796
642	0.00483223
654	0.00520394
666	0.00446052
678	0.00130098
690	0
702	0.00037171
714	0.00148684
726	0.00538979
738	0.00966446
750	0.00074342
762	0.00594736
774	0.0237894
786	0.011523
798	0.0057615
810	0.00650492
822	0.00427466
834	0.00315953
846	0.0037171
858	0.015426
870	0.0691381
882	0.0579868
894	0.0702532
906	0.015426
918	0.00966446
930	0.00873518
942	0.00446052
954	0.00446052
966	0.00483223
978	0.0091069
990	0.0163552
1002	0.0325246
1014	0.062819
1026	0.0468355
1038	0.0260197
1050	0.0382861
1062	0.0455345
1074	0.0302944
1086	0.0328963
1098	0.0550131
1110	0.0637483
1122	0.0626331
1134	0.0421891
1146	0.0221167
1158	0.0325246
1170	0.0237894
1182	0.0152401
1194	0.0195148
1206	0.0405164
1218	0.0252763
1230	0.0139391
1242	0.0234177
1254	0.0776874
1266	0.0574292
1278	0.0306661
1290	0.0291792
1302	0.0315954
1314	0.0336398
1326	0.0284358
1338	0.0310378
1350	0.0607746
1362	0.102406
1374	0.12285
1386	0.0747137
1398	0.0812186
1410	0.0600312
1422	0.0488799
1434	0.0700673
1446	0.118761
1458	0.219495
1470	0.241983
1482	0.126567
1494	0.119133
1506	0.24347
1518	0.0821479
1530	0.0297368
1542	0.0195148
1554	0.0206299
1566	0.0191431
1578	0.0137533
1590	0.0130098
1602	0.0139391
1614	0.0172845
1626	0.010222
1638	0.00631907
1650	0.00631907
1662	0.00631907
1674	0.00687663
1686	0.00501808
1698	0.0126381
1710	0.0349407
1722	0.021745
1734	0.0126381
1746	0.0120806
1758	0.0113372
1770	0.0124523
1782	0.0139391
1794	0.0208158
1806	0.0122664
1818	0.00446052
1830	0.00223026
1842	0.00260197
1854	0.00260197
1866	0.00241611
1878	0.00297368
1890	0.00427466
1902	0.00557565
1914	0.00390295
1926	0.00278782
1938	0.00204441
1950	0.00167269
1962	0.00148684
1974	0.00204441
1986	0.00241611
1998	0.00260197
2010	0.00241611
2022	0.00185855
2034	0.00185855
2046	0.00204441
2058	0.00185855
2070	0.00185855
2082	0.00185855
2094	0.00185855
2106	0.00185855
2118	0.00185855
2130	0.00185855
2142	0.00204441
2154	0.00185855
2166	0.00185855
2178	0.00204441
2190	0.00204441
2202	0.00241611
2214	0.00260197
2226	0.00315953
2238	0.00390295
2250	0.00464637
2262	0.0037171
2274	0.00260197
2286	0.00148684
2298	0.00074342
2310	0.000185855
2322	0.00241611
2334	0.00353124
2346	0.00185855
2358	0.00353124
2370	0.00260197
2382	0.00260197
2394	0.00538979
2406	0.00557565
2418	0.00520394
2430	0.00464637
2442	0.00427466
2454	0.00464637
2466	0.00594736
2478	0.00613322
2490	0.00483223
2502	0.00390295
2514	0.00297368
2526	0.00278782
2538	0.00278782
2550	0.00297368
2562	0.00353124
2574	0.00464637
2586	0.00669078
2598	0.00854933
2610	0.00724834
2622	0.00557565
2634	0.00557565
2646	0.00650492
2658	0.00780591
2670	0.00854933
2682	0.00854933
2694	0.00929275
2706	0.0122664
2718	0.0208158
2730	0.0252763
2742	0.0254621
2754	0.023046
2766	0.0234177
2778	0.0206299
2790	0.0211875
2802	0.0254621
2814	0.0343832
2826	0.0408881
2838	0.0531545
2850	0.0849357
2862	0.144038
2874	0.388065
2886	0.501994
2898	0.349779
2910	0.354611
2922	0.415943
2934	0.710338
2946	0.706807
2958	0.783751
2970	1.85855
2982	0.665733
2994	0.254621
3006	0.215964
3018	0.25109
3030	0.127311
3042	0.0665361
3054	0.0583585
3066	0.0492516
3078	0.0407022
3090	0.0354983
3102	0.0323388
3114	0.0310378
3126	0.0308519
3138	0.0237894
3150	0.0178421
3162	0.0178421
3174	0.0185855
3186	0.0172845
3198	0.0148684
3210	0.012824
3222	0.0109654
3234	0.00817762
3246	0.00650492
3258	0.00464637
3270	0.00353124
3282	0.00260197
3294	0.00241611
3306	0.00297368
3318	0.00278782
3330	0.00204441
3342	0.00241611
3354	0.00223026
3366	0.00278782
3378	0.00427466
3390	0.0037171
3402	0.00390295
3414	0.00315953
3426	0.0037171
3438	0.00353124
3450	0.00260197
3462	0.00241611
3474	0.00260197
3486	0.00278782
3498	0.00260197
3510	0.00278782
3522	0.00297368
3534	0.00223026
3546	0.00353124
3558	0.00278782
3570	0.00315953
3582	0.00278782
3594	0.00260197
3606	0.00241611
3618	0.00148684
3630	0.00204441
3642	0.00297368
3654	0.00223026
3666	0.00148684
3678	0
3690	0.00111513
3702	0.00241611
3714	0.00130098
3726	0.00260197
3738	0.00185855
3750	0.00074342
3762	0.00130098
3774	0.00297368
3786	0.00167269
3798	0.00241611
3810	0.00185855
3822	0.00260197
3834	0.00241611
3846	0.00297368
3858	0.00260197
3870	0.0037171
3882	0.00315953
3894	0.00315953
3906	0.00297368
3918	0.00185855
3930	0.00148684
3942	0.000557565
3954	0.00241611
3966	0.00167269
