Infrared Spectrum: Cycloheptane, trans-1,2-dibromo-,
Formula: C 7 H 12 Br 2
CAS: 52021-35-9
Origin: Sadtler Research Labs Under US-EPA Contract
1/CM	ABSORBANCE
450	0
462	0.0190234
474	0.0228045
486	0.0192598
498	0.0303666
510	0.029894
522	0.062033
534	0.15585
546	0.183145
558	0.0622693
570	0.0361563
582	0.0275308
594	0.0547072
606	0.0892093
618	0.0282398
630	0.0187871
642	0.0198505
654	0.0386377
666	0.0436003
678	0.0581337
690	0.0721945
702	0.068768
714	0.0706585
726	0.0427732
738	0.05388
750	0.0641598
762	0.0238679
774	0.020914
786	0.0197324
798	0.020205
810	0.0250495
822	0.0400556
834	0.0196142
846	0.0290669
858	0.0332024
870	0.0241042
882	0.0432458
894	0.0391103
906	0.0610877
918	0.0864917
930	0.0636872
942	0.0622693
954	0.065814
966	0.0457271
978	0.0203232
990	0.0181963
1002	0.064278
1014	0.0548253
1026	0.0204413
1038	0.0146516
1050	0.0128792
1062	0.0300121
1074	0.0410008
1086	0.0193779
1098	0.0193779
1110	0.0525803
1122	0.0720764
1134	0.0361563
1146	0.0760938
1158	0.129265
1170	0.130683
1182	0.0379287
1194	0.0465543
1206	0.0890911
1218	0.120285
1230	0.101734
1242	0.0682953
1254	0.0614422
1266	0.033675
1278	0.0282398
1290	0.0245769
1302	0.0228045
1314	0.0212684
1326	0.0315482
1338	0.0417098
1350	0.0408827
1362	0.0415916
1374	0.036629
1386	0.0153605
1398	0.0131155
1410	0.0172511
1422	0.0406464
1434	0.123475
1446	0.1783
1458	0.206068
1470	0.145334
1482	0.0511624
1494	0.0219774
1506	0.0161876
1518	0.0133519
1530	0.00803474
1542	0.0101616
1554	0.00921632
1566	0.00803474
1578	0.00661685
1590	0.00484448
1602	0.00744395
1614	0.00791659
1626	0.00626237
1638	0.00933448
1650	0.0118158
1662	0.00460816
1674	0.00921632
1686	0.0100434
1698	0.0108705
1710	0.00779843
1722	0.00874369
1734	0.00862553
1746	0.0111069
1758	0.00992527
1770	0.0111069
1782	0.00850738
1794	0.00980711
1806	0.00791659
1818	0.00685316
1830	0.00779843
1842	0.0073258
1854	0.00708948
1866	0.00555343
1878	0.00626237
1890	0.00555343
1902	0.00708948
1914	0.00649869
1926	0.00673501
1938	0.00697132
1950	0.00685316
1962	0.00626237
1974	0.00649869
1986	0.00756211
1998	0.00638053
2010	0.00803474
2022	0.00685316
2034	0.00756211
2046	0.0073258
2058	0.0073258
2070	0.00744395
2082	0.00768027
2094	0.00708948
2106	0.00708948
2118	0.0073258
2130	0.00720764
2142	0.00791659
2154	0.00850738
2166	0.0081529
2178	0.0081529
2190	0.00803474
2202	0.00838922
2214	0.00850738
2226	0.00838922
2238	0.0081529
2250	0.00898001
2262	0.00886185
2274	0.00850738
2286	0.00874369
2298	0.0073258
2310	0.00626237
2322	0.00638053
2334	0.00685316
2346	0.00898001
2358	0.0073258
2370	0.00874369
2382	0.0081529
2394	0.0081529
2406	0.00803474
2418	0.0081529
2430	0.00898001
2442	0.00945264
2454	0.00886185
2466	0.00886185
2478	0.00850738
2490	0.00827106
2502	0.00768027
2514	0.00827106
2526	0.00921632
2538	0.00980711
2550	0.0105161
2562	0.0107524
2574	0.0111069
2586	0.0106342
2598	0.0100434
2610	0.0102797
2622	0.0108705
2634	0.0109887
2646	0.0118158
2658	0.0137063
2670	0.0168966
2682	0.0189053
2694	0.0213866
2706	0.0215048
2718	0.0178419
2730	0.0158332
2742	0.0140608
2754	0.0129974
2766	0.0131155
2778	0.0151242
2790	0.0174874
2802	0.0228045
2814	0.0261129
2826	0.0307211
2838	0.0415916
2850	0.0807019
2862	0.172393
2874	0.288306
2886	0.209258
2898	0.160222
2910	0.220247
2922	0.339468
2934	0.767554
2946	1.18158
2958	0.639117
2970	0.178537
2982	0.10327
2994	0.0655777
3006	0.0316663
3018	0.0263492
3030	0.0242224
3042	0.0194961
3054	0.0148879
3066	0.0135882
3078	0.0120521
3090	0.0116976
3102	0.0106342
3114	0.0109887
3126	0.0105161
3138	0.0107524
3150	0.0109887
3162	0.00968896
3174	0.00980711
3186	0.00980711
3198	0.0100434
3210	0.00945264
3222	0.0108705
3234	0.0111069
3246	0.0102797
3258	0.0118158
3270	0.0105161
3282	0.0102797
3294	0.0106342
3306	0.0106342
3318	0.00992527
3330	0.00980711
3342	0.00898001
3354	0.00945264
3366	0.00933448
3378	0.00933448
3390	0.00968896
3402	0.00968896
3414	0.0102797
3426	0.00898001
3438	0.0095708
3450	0.0095708
3462	0.0095708
3474	0.00921632
3486	0.00909817
3498	0.00921632
3510	0.00838922
3522	0.00874369
3534	0.00803474
3546	0.00886185
3558	0.00779843
3570	0.00874369
3582	0.00909817
3594	0.00803474
3606	0.00791659
3618	0.00827106
3630	0.0103979
3642	0.00827106
3654	0.00862553
3666	0.00921632
3678	0.0081529
3690	0.00673501
3702	0.00850738
3714	0.00909817
3726	0.00697132
3738	0.00791659
3750	0.00992527
3762	0.00850738
3774	0.00862553
3786	0.00768027
3798	0.00791659
3810	0.0109887
3822	0.00980711
3834	0.0109887
3846	0.011225
3858	0.00886185
3870	0.0124066
3882	0.011225
3894	0.0132337
3906	0.0118158
3918	0.0106342
3930	0.0142971
3942	0.0124066
3954	0.0105161
3966	0.0150061
