Infrared Spectrum: Nonanophenone, 2-phenyl-,
Formula: C 21 H 26 O
CAS: 52072-38-5
Origin: Sadtler Research Labs Under US-EPA Contract
1/CM	ABSORBANCE
450	0.00606773
462	0.00225468
474	0.000198942
486	0.00490724
498	0.00759295
510	0.0136275
522	0.0103781
534	0.0109418
546	0.00998026
558	0.00998026
570	0.0129312
582	0.0275866
594	0.0205905
606	0.00809031
618	0.00878661
630	0.0059351
642	0.00928396
654	0.0253319
666	0.0316981
678	0.0430709
690	0.106533
702	0.187503
714	0.0525207
726	0.0409157
738	0.0500008
750	0.0749348
762	0.0356438
774	0.0208558
786	0.0119034
798	0.00878661
810	0.0109087
822	0.0102124
834	0.013097
846	0.0109418
858	0.00805715
870	0.00825609
882	0.00852135
894	0.00961553
906	0.0118039
918	0.0162801
930	0.0246688
942	0.0229446
954	0.0284487
966	0.0357101
978	0.0331238
990	0.033588
1002	0.0362406
1014	0.01943
1026	0.0244036
1038	0.0150533
1050	0.0110744
1062	0.0149538
1074	0.0203916
1086	0.0122349
1098	0.0128318
1110	0.0123676
1122	0.00944975
1134	0.00739401
1146	0.00991394
1158	0.0193968
1170	0.0381305
1182	0.0788142
1194	0.0524544
1206	0.0705249
1218	0.0767916
1230	0.0548085
1242	0.0564332
1254	0.0620367
1266	0.059351
1278	0.0489729
1290	0.0418441
1302	0.0318307
1314	0.0300071
1326	0.0330907
1338	0.0414463
1350	0.0466519
1362	0.0306039
1374	0.0210215
1386	0.0172748
1398	0.00835556
1410	0.00689666
1422	0.00928396
1434	0.0165785
1446	0.0637278
1458	0.0538801
1470	0.0334554
1482	0.0204247
1494	0.0420099
1506	0.0134286
1518	0.00374674
1530	0.00431041
1542	0.00268572
1554	0.00391253
1566	0.00643246
1578	0.0205573
1590	0.027885
1602	0.0406505
1614	0.0119365
1626	0.00586879
1638	0.00470829
1650	0.00716191
1662	0.0151859
1674	0.0280508
1686	0.0848156
1698	0.233226
1710	0.07898
1722	0.0259288
1734	0.0130307
1746	0.0117044
1758	0.0130307
1770	0.0120691
1782	0.0054709
1794	0.00673087
1806	0.00951606
1818	0.00484092
1830	0.00159154
1842	0.000928396
1854	0.00135944
1866	0.00218836
1878	0.00361411
1890	0.00411147
1902	0.00328254
1914	0.00232099
1926	0.00202258
1938	0.00454251
1950	0.00596826
1962	0.0054709
1974	0.00281835
1986	0.000696297
1998	0.000132628
2010	0.000132628
2022	3.3157e-05
2034	0.000464198
2046	9.9471e-05
2058	0.000431041
2070	0
2082	6.6314e-05
2094	0.000232099
2106	0.000198942
2118	0.000198942
2130	3.3157e-05
2142	0.000265256
2154	0.000232099
2166	0.000629983
2178	0.000563669
2190	0.000563669
2202	0.000397884
2214	0.000431041
2226	0.000364727
2238	0.000265256
2250	0.00066314
2262	0.000828925
2274	0.00109418
2286	0.00182364
2298	0.00298413
2310	0.00440988
2322	0.00417778
2334	0.00288466
2346	0.00444304
2358	0.00314992
2370	0.00321623
2382	0.00364727
2394	0.00169101
2406	0.00165785
2418	0.00135944
2430	0.00112734
2442	0.00102787
2454	0.00119365
2466	0.000862082
2478	0.000795768
2490	0.00112734
2502	0.00102787
2514	0.0011605
2526	0.00142575
2538	0.00139259
2550	0.00175732
2562	0.00165785
2574	0.00208889
2586	0.00265256
2598	0.00288466
2610	0.00314992
2622	0.0028515
2634	0.00318307
2646	0.0035478
2658	0.00368043
2670	0.00427725
2682	0.0042441
2694	0.00444304
2706	0.00454251
2718	0.00507302
2730	0.00507302
2742	0.00566985
2754	0.00553722
2766	0.00600142
2778	0.00736085
2790	0.00865398
2802	0.010975
2814	0.0133954
2826	0.0175069
2838	0.0255309
2850	0.0517581
2862	0.130141
2874	0.11038
2886	0.0888608
2898	0.0834893
2910	0.124206
2922	0.210514
2934	0.33157
2946	0.232099
2958	0.165221
2970	0.157264
2982	0.0598815
2994	0.0320628
3006	0.0273214
3018	0.0288797
3030	0.0628657
3042	0.0480445
3054	0.0384953
3066	0.0797094
3078	0.0815994
3090	0.0553722
3102	0.0284819
3114	0.0157827
3126	0.00689666
3138	0.00480777
3150	0.00437672
3162	0.00444304
3174	0.0033157
3186	0.00225468
3198	0.00175732
3210	0.00162469
3222	0.00135944
3234	0.00125997
3246	0.00106102
3258	0.00122681
3270	0.000563669
3282	0.00119365
3294	0.00102787
3306	0.00106102
3318	0.000828925
3330	0.00102787
3342	0.000862082
3354	0.00155838
3366	0.00198942
3378	0.00311676
3390	0.00149207
3402	0.0011605
3414	0.00119365
3426	0.000862082
3438	0.000895239
3450	0.00119365
3462	0.000795768
3474	0.00109418
3486	0.00112734
3498	0.00106102
3510	0.000265256
3522	0.00099471
3534	0.000928396
3546	0.00119365
3558	0.000596826
3570	0.00162469
3582	0.00265256
3594	0.00268572
3606	0.00122681
3618	0.00122681
3630	0.00112734
3642	0.00179048
3654	0.00152522
3666	0.00185679
3678	0.00135944
3690	0.00142575
3702	0.00198942
3714	0.00172416
3726	0.00182364
3738	0.000895239
3750	0.00135944
3762	0.00169101
3774	0.000895239
3786	0.000795768
3798	0.00106102
3810	0.00185679
3822	0.000198942
3834	0.00129312
3846	0.00149207
3858	0.000629983
3870	0.00129312
3882	0.00152522
3894	0.00106102
3906	0.00235415
3918	0.00155838
3930	0.00212205
3942	0.00175732
3954	0.00205573
3966	0.00155838
