Infrared Spectrum: 2-Methoxyphenylacetone
Formula: C 10 H 12 O 2
CAS: 5211-62-1
Origin: Sadtler Research Labs Under US-EPA Contract
1/CM	ABSORBANCE
450	0.0210353
462	0.0175688
474	0.0207202
486	0.019696
498	0.0254472
510	0.0528641
522	0.072954
534	0.073663
546	0.0482946
558	0.0251321
570	0.0299379
582	0.0231625
594	0.0134721
606	0.0129206
618	0.0147326
630	0.0167022
642	0.0136296
654	0.00716934
666	0.00701178
678	0.00661786
690	0.00338771
702	0.0074057
714	0.0371073
726	0.0414404
738	0.101789
750	0.346728
762	0.201136
774	0.0519187
786	0.0271017
798	0.0122115
810	0.0110298
822	0.0129994
834	0.0208778
846	0.0285198
858	0.0170961
870	0.0074057
882	0.00701178
894	0.00472704
906	0.00464826
918	0.00677542
930	0.00953286
942	0.00559366
954	0.00827232
966	0.0187506
978	0.030647
990	0.0341923
1002	0.0427797
1014	0.0668876
1026	0.135036
1038	0.215395
1050	0.212638
1062	0.0993466
1074	0.0293864
1086	0.0271017
1098	0.0522338
1110	0.171828
1122	0.169149
1134	0.0820929
1146	0.131806
1158	0.22351
1170	0.179943
1182	0.17301
1194	0.124636
1206	0.13669
1218	0.218074
1230	0.286301
1242	0.632636
1254	0.710868
1266	0.230049
1278	0.148665
1290	0.185536
1302	0.150477
1314	0.138581
1326	0.129994
1338	0.0925712
1350	0.144017
1362	0.223825
1374	0.101553
1386	0.0590092
1398	0.0555427
1410	0.0663361
1422	0.0858746
1434	0.11794
1446	0.155362
1458	0.171828
1470	0.238479
1482	0.21705
1494	0.441506
1506	0.305446
1518	0.0732691
1530	0.0349801
1542	0.0274956
1554	0.0256836
1566	0.0292289
1578	0.0636575
1590	0.128969
1602	0.140629
1614	0.0784689
1626	0.0256836
1638	0.0203263
1650	0.0173325
1662	0.0211141
1674	0.0339559
1686	0.0605849
1698	0.0965892
1710	0.16584
1722	0.39392
1734	0.578511
1746	0.373751
1758	0.166707
1770	0.0998981
1782	0.073663
1794	0.0483734
1806	0.0389193
1818	0.0215868
1830	0.0124479
1842	0.0102419
1854	0.00850867
1866	0.0093753
1878	0.00953286
1890	0.0160719
1902	0.0123691
1914	0.00866624
1926	0.0132357
1938	0.010951
1950	0.00614515
1962	0.00622394
1974	0.00559366
1986	0.00764205
1998	0.0115025
2010	0.013866
2022	0.0129994
2034	0.0108722
2046	0.01166
2058	0.0130781
2070	0.0135508
2082	0.0125267
2094	0.00953286
2106	0.00803597
2118	0.00795718
2130	0.0083511
2142	0.00842989
2154	0.00913894
2166	0.00874502
2178	0.0078784
2190	0.00795718
2202	0.00764205
2214	0.00819354
2226	0.00795718
2238	0.00732691
2250	0.00779962
2262	0.00764205
2274	0.00748448
2286	0.0063815
2298	0.00496339
2310	0.00039392
2322	0.000551488
2334	0.00338771
2346	0.000315136
2358	0.000709056
2370	0.00874502
2382	0.00866624
2394	0.00504218
2406	0.00480582
2418	0.00472704
2430	0.00512096
2442	0.00456947
2454	0.00480582
2466	0.00535731
2478	0.00685421
2490	0.00811475
2502	0.00709056
2514	0.00598758
2526	0.00748448
2538	0.00827232
2550	0.0074057
2562	0.00583002
2574	0.0063815
2586	0.00575123
2598	0.0063815
2610	0.00669664
2622	0.00614515
2634	0.00464826
2646	0.00496339
2658	0.00236352
2670	0.000472704
2682	0.00126054
2694	0.00425434
2706	0.0059088
2718	0.00519974
2730	0.00551488
2742	0.00551488
2754	0.00598758
2766	0.00646029
2778	0.00709056
2790	0.00819354
2802	0.0105571
2814	0.0157568
2826	0.0240291
2838	0.0749236
2850	0.120146
2862	0.0560154
2874	0.0373436
2886	0.0440403
2898	0.0695663
2910	0.116049
2922	0.143387
2934	0.141732
2946	0.18144
2958	0.184906
2970	0.133224
2982	0.0783113
2994	0.076578
3006	0.143151
3018	0.119437
3030	0.101159
3042	0.0991103
3054	0.0724813
3066	0.0879229
3078	0.11471
3090	0.0948559
3102	0.040495
3114	0.0305682
3126	0.0198536
3138	0.012054
3150	0.00969043
3162	0.00945408
3174	0.0101631
3186	0.00992678
3198	0.00882381
3210	0.00811475
3222	0.00756326
3234	0.00732691
3246	0.00693299
3258	0.00653907
3270	0.00496339
3282	0.00748448
3294	0.00653907
3306	0.00598758
3318	0.00630272
3330	0.00527853
3342	0.00630272
3354	0.0059088
3366	0.00551488
3378	0.00583002
3390	0.00653907
3402	0.00677542
3414	0.00756326
3426	0.0103995
3438	0.0115812
3450	0.0129994
3462	0.00921773
3474	0.00772083
3486	0.00559366
3498	0.0034665
3510	0.00291501
3522	0.00519974
3534	0.00307258
3546	0.00362406
3558	0.0034665
3570	0.00661786
3582	0.00890259
3594	0.00929651
3606	0.0044119
3618	0.0054361
3630	0.00512096
3642	0.00449069
3654	0.00559366
3666	0.00386042
3678	0.00519974
3690	0.00378163
3702	0.00354528
3714	0.0044119
3726	0.00559366
3738	0.00315136
3750	0.0083511
3762	0.00598758
3774	0.00551488
3786	0.00551488
3798	0.00386042
3810	0.00764205
3822	0.00220595
3834	0.00527853
3846	0.00362406
3858	0.00433312
3870	0.00370285
3882	0.00291501
3894	0.0034665
3906	0.00504218
3918	0.000630272
3930	0.00330893
3942	0.000472704
3954	0.00189082
3966	0.00315136
