Infrared Spectrum: Benzene, 1-chloro-4-(trichloromethyl)-
Formula: C 7 H 4 Cl 4
CAS: 5216-25-1
Origin: Sadtler Research Labs Under US-EPA Contract
1/CM	ABSORBANCE
450	0.0108534
462	0.0220112
474	0.071866
486	0.079575
498	0.00562959
510	0.0166352
522	0.0167873
534	0.00441238
546	0.0023837
558	0.00314445
570	0.00258657
582	0.00152151
594	0.00116649
606	0.00218083
618	0.00725253
630	0.0162802
642	0.0154687
654	0.0071511
666	0.00907834
678	0.0297202
690	0.0679101
702	0.0834802
714	0.0468118
726	0.0381899
738	0.108534
750	0.235276
762	0.44778
774	0.375559
786	0.107368
798	0.210881
810	0.308562
822	0.134806
834	0.0471161
846	0.0557887
858	0.151695
870	0.314141
882	0.121822
894	0.0208954
906	0.0101941
918	0.00603532
930	0.0050717
942	0.00760755
954	0.0074554
966	0.00491955
978	0.00431095
990	0.0047674
1002	0.013795
1014	0.119286
1026	0.0388492
1038	0.00872332
1050	0.00786113
1062	0.00988981
1074	0.0212504
1086	0.0783578
1098	0.32327
1110	0.0793721
1122	0.00994053
1134	0.00730325
1146	0.00608604
1158	0.0111577
1170	0.0393057
1182	0.179183
1194	0.0599475
1206	0.0340311
1218	0.010042
1230	0.00633963
1242	0.00542672
1254	0.00644106
1266	0.0068468
1278	0.0068468
1290	0.00400664
1302	0.00633963
1314	0.0077597
1326	0.0105491
1338	0.0071511
1350	0.00710038
1362	0.00765827
1374	0.00760755
1386	0.023482
1398	0.0519849
1410	0.0457467
1422	0.015418
1434	0.00547744
1446	0.00867261
1458	0.0229241
1470	0.0133386
1482	0.0654756
1494	0.242529
1506	0.0224676
1518	0.00583246
1530	0.00344876
1542	0.00420951
1554	0.00725253
1566	0.0151644
1578	0.0274886
1590	0.0810458
1602	0.0882983
1614	0.0098391
1626	0.00415879
1638	0.00415879
1650	0.00669464
1662	0.00846974
1674	0.00324589
1686	0.000760755
1698	0.000659321
1710	0.00243442
1722	0.002688
1734	0.00400664
1746	0.0104984
1758	0.0236341
1770	0.0355019
1782	0.0247499
1794	0.0232284
1806	0.0149108
1818	0.00649178
1830	0.00213011
1842	0.00182581
1854	0.00152151
1866	0.000760755
1878	0.00258657
1890	0.00583246
1902	0.00973766
1914	0.00735397
1926	0.00248513
1938	0.00167366
1950	0.00172438
1962	0.00172438
1974	0.0017751
1986	0.00126793
1998	0.00106506
2010	0.000912906
2022	0.00131864
2034	0.0023837
2046	0.00334732
2058	0.00304302
2070	0.00197796
2082	0.00101434
2094	0.00101434
2106	0.00106506
2118	0.000557887
2130	0.000659321
2142	0.000659321
2154	0.000152151
2166	0.000608604
2178	0.000710038
2190	0.000710038
2202	0.000760755
2214	0.000710038
2226	0.000760755
2238	0.000760755
2250	0.000760755
2262	0.000811472
2274	0.000963623
2286	0.00101434
2298	0.00162294
2310	0.00213011
2322	0.00147079
2334	0
2346	0.000811472
2358	0.00253585
2370	0.00167366
2382	0.00233298
2394	0.00202868
2406	0.00106506
2418	0.000760755
2430	0.00121721
2442	0.000811472
2454	0.00116649
2466	0.00167366
2478	0.00131864
2490	0.00111577
2502	0.000811472
2514	0.000811472
2526	0.00147079
2538	0.00192725
2550	0.00243442
2562	0.00136936
2574	0.00136936
2586	0.00157223
2598	0.00147079
2610	0.00152151
2622	0.00050717
2634	0.000557887
2646	0.000608604
2658	0.000557887
2670	0.0020794
2682	0.00111577
2694	0.00131864
2706	0.00136936
2718	0.000710038
2730	0.00167366
2742	0.000862189
2754	0.00233298
2766	0.00263728
2778	0.00547744
2790	0.00197796
2802	0.00243442
2814	0.000760755
2826	0.000608604
2838	0.00111577
2850	0.000659321
2862	0.000608604
2874	0.000405736
2886	0.000760755
2898	0.000304302
2910	0.000304302
2922	0.000253585
2934	0.000405736
2946	0.0023837
2958	0.000405736
2970	0.000760755
2982	0.002688
2994	0.000557887
3006	0.00111577
3018	0.00142008
3030	0.00233298
3042	0.00258657
3054	0.00314445
3066	0.00329661
3078	0.00486883
3090	0.00750612
3102	0.00618747
3114	0.00481812
3126	0.00182581
3138	0.00142008
3150	0.00213011
3162	0.00111577
3174	0.000608604
3186	0.000405736
3198	0.000405736
3210	0.000710038
3222	0.000811472
3234	0.00121721
3246	0.00116649
3258	0.000963623
3270	0.000963623
3282	0.000912906
3294	0.000963623
3306	0.00182581
3318	0.00152151
3330	0.00157223
3342	0.000659321
3354	0.0017751
3366	0.000557887
3378	0.00172438
3390	0.00126793
3402	0.000811472
3414	0.00142008
3426	0.000456453
3438	0.00142008
3450	0.000963623
3462	0.00182581
3474	0.00136936
3486	0.00157223
3498	0.00152151
3510	0.00202868
3522	0.0020794
3534	0.00172438
3546	0.00136936
3558	0.00187653
3570	0.00233298
3582	0.00720181
3594	0.00441238
3606	0.00213011
3618	0.00101434
3630	0.000608604
3642	0.00167366
3654	0.0017751
3666	0.00116649
3678	0.000963623
3690	0.00192725
3702	0.00233298
3714	0.00101434
3726	0.00253585
3738	0.00152151
3750	0.00172438
3762	0.00263728
3774	0.00172438
3786	0.00157223
3798	0.0023837
3810	0.00197796
3822	0.00304302
3834	0.00162294
3846	0.00111577
3858	0.00167366
3870	0.00126793
3882	0.00136936
3894	0.00167366
3906	0.00202868
3918	0.00309374
3930	0.00213011
3942	0.00213011
3954	0.00197796
3966	0.00278944
