Infrared Spectrum: Benzenemethanol, 2-chloro-4-nitro-
Formula: C 7 H 6 Cl N O 3
CAS: 52301-88-9
Origin: Sadtler Research Labs Under US-EPA Contract
1/CM	ABSORBANCE
450	0
462	0.0370417
474	0.0436286
486	0.0293698
498	0.0303773
510	0.0272775
522	0.0131738
534	0.022163
546	0.0309972
558	0.0368867
570	0.0215431
582	0.0270451
594	0.0219305
606	0.0230929
618	0.0254177
630	0.0317721
642	0.0326246
654	0.0250302
666	0.0207681
678	0.0291374
690	0.039134
702	0.0538576
714	0.0847773
726	0.125074
738	0.153824
750	0.0893494
762	0.0426211
774	0.0402189
786	0.0895044
798	0.224652
810	0.124144
822	0.088187
834	0.120812
846	0.0848548
858	0.0478907
870	0.0500605
882	0.0898144
894	0.144059
906	0.0678839
918	0.0294473
930	0.0247203
942	0.0345619
954	0.0429311
966	0.0452559
978	0.0454109
990	0.0574223
1002	0.0726109
1014	0.114147
1026	0.202954
1038	0.252705
1050	0.182264
1062	0.151886
1074	0.102058
1086	0.0645517
1098	0.066799
1110	0.108878
1122	0.125074
1134	0.137008
1146	0.0808252
1158	0.0709836
1170	0.0903568
1182	0.111745
1194	0.121354
1206	0.0875671
1218	0.0530827
1230	0.0476582
1242	0.0547876
1254	0.0653266
1266	0.0748582
1278	0.0788104
1290	0.0809027
1302	0.0818326
1314	0.0785779
1326	0.121432
1338	0.341589
1350	0.77493
1362	0.349958
1374	0.182109
1386	0.140262
1398	0.115077
1410	0.0780355
1422	0.0699762
1434	0.0604445
1446	0.0759431
1458	0.102446
1470	0.103918
1482	0.104461
1494	0.112985
1506	0.16537
1518	0.241391
1530	0.332987
1542	0.680079
1554	0.61266
1566	0.179241
1578	0.123136
1590	0.147237
1602	0.112365
1614	0.0546326
1626	0.0364217
1638	0.0433186
1650	0.0458759
1662	0.0256502
1674	0.0264251
1686	0.0369642
1698	0.0364992
1710	0.0308422
1722	0.0381266
1734	0.0268901
1746	0.0175134
1758	0.0206906
1770	0.0231704
1782	0.021853
1794	0.0247978
1806	0.0203807
1818	0.0157311
1830	0.0117014
1842	0.0135613
1854	0.016506
1866	0.0145687
1878	0.0135613
1890	0.0152661
1902	0.0155761
1914	0.0189858
1926	0.0179009
1938	0.0145687
1950	0.0148787
1962	0.0134063
1974	0.0135613
1986	0.0141037
1998	0.0136388
2010	0.0148012
2022	0.0134063
2034	0.0140262
2046	0.0141037
2058	0.0134063
2070	0.0134063
2082	0.0122439
2094	0.0130963
2106	0.0133288
2118	0.0125539
2130	0.0126314
2142	0.0119339
2154	0.0120889
2166	0.0134063
2178	0.0133288
2190	0.0127089
2202	0.0139487
2214	0.0143362
2226	0.0148787
2238	0.0152661
2250	0.0148787
2262	0.0151111
2274	0.0155761
2286	0.0150336
2298	0.0130188
2310	0.011469
2322	0.011314
2334	0.011314
2346	0.0115465
2358	0.011314
2370	0.011314
2382	0.0138712
2394	0.0175134
2406	0.0175134
2418	0.0181334
2430	0.0188308
2442	0.0184433
2454	0.0180559
2466	0.0188308
2478	0.0185208
2490	0.0174359
2502	0.0172809
2514	0.016506
2526	0.016971
2538	0.0174359
2550	0.0173584
2562	0.0179784
2574	0.0179784
2586	0.0183658
2598	0.0181334
2610	0.0173584
2622	0.0168935
2634	0.0160411
2646	0.0160411
2658	0.0165835
2670	0.0178234
2682	0.0189083
2694	0.0207681
2706	0.0202257
2718	0.0198382
2730	0.0192183
2742	0.0186758
2754	0.0180559
2766	0.0179784
2778	0.0185208
2790	0.0199932
2802	0.0213881
2814	0.0229379
2826	0.0256502
2838	0.0303773
2850	0.0422337
2862	0.0485106
2874	0.0514554
2886	0.0609095
2898	0.0636992
2910	0.0623819
2922	0.0726884
2934	0.0791978
2946	0.0633893
2958	0.0466508
2970	0.0377391
2982	0.0299898
2994	0.022628
3006	0.0173584
3018	0.0168935
3030	0.0180559
3042	0.0191408
3054	0.0190633
3066	0.0230154
3078	0.0292149
3090	0.0316171
3102	0.0344069
3114	0.0296023
3126	0.0206906
3138	0.0197607
3150	0.0194507
3162	0.0175134
3174	0.0172034
3186	0.016196
3198	0.0165835
3210	0.0153436
3222	0.0158861
3234	0.0154986
3246	0.0155761
3258	0.0148787
3270	0.0154211
3282	0.0154211
3294	0.0161185
3306	0.0157311
3318	0.0154986
3330	0.0151111
3342	0.0167385
3354	0.0157311
3366	0.0172034
3378	0.0145687
3390	0.0162735
3402	0.0151886
3414	0.0156536
3426	0.0146462
3438	0.0151886
3450	0.0145687
3462	0.0127863
3474	0.0134838
3486	0.0139487
3498	0.0120889
3510	0.0148787
3522	0.0132513
3534	0.0157311
3546	0.0135613
3558	0.0151111
3570	0.0132513
3582	0.0151886
3594	0.0170485
3606	0.0139487
3618	0.0204582
3630	0.0241003
3642	0.0353368
3654	0.0464958
3666	0.0509129
3678	0.0674964
3690	0.0355693
3702	0.0136388
3714	0.0123989
3726	0.011314
3738	0.017126
3750	0.0117789
3762	0.011314
3774	0.0130963
3786	0.011314
3798	0.011469
3810	0.0109265
3822	0.0175134
3834	0.0146462
3846	0.010849
3858	0.0196832
3870	0.016196
3882	0.0112365
3894	0.0168935
3906	0.0136388
3918	0.011159
3930	0.011314
3942	0.0119339
3954	0.0137163
3966	0.0112365
