Infrared Spectrum: Adamantaneacetic acid, .delta.[2(.alpha.)]-,.alpha.-cyano-, ethyl ester
Formula: C 15 H 21 N O 2
CAS: 52567-21-2
Origin: Sadtler Research Labs Under US-EPA Contract
1/CM	ABSORBANCE
450	0.0096498
462	0.0115573
474	0.00931318
486	0.00572256
498	0.00471269
510	0.00460049
522	0.00426387
534	0.00302959
546	0.003254
558	0.00336621
570	0.00100986
582	0.00258076
594	0.00100986
606	0.00145869
618	0.00258076
630	0.000673242
642	0.00246855
654	0.00224414
666	0.00213193
678	0.00280518
690	0.00190752
702	0.00291738
714	0.00931318
726	0.0200851
738	0.0242367
750	0.0250222
762	0.0168311
774	0.0192996
786	0.0305203
798	0.022778
810	0.0132404
822	0.0106597
834	0.0138015
846	0.0278273
858	0.0318668
870	0.0167188
882	0.00886435
894	0.00460049
906	0.00504932
918	0.0145869
930	0.025471
942	0.0142503
954	0.0678852
966	0.0866238
978	0.0212071
990	0.0273785
1002	0.0400579
1014	0.0841553
1026	0.0804524
1038	0.145308
1050	0.134312
1062	0.148225
1074	0.0712514
1086	0.0628359
1098	0.239899
1110	0.187498
1122	0.343353
1134	0.220375
1146	0.0692317
1158	0.0557669
1170	0.0654167
1182	0.0621627
1194	0.0951515
1206	0.25572
1218	0.744718
1230	0.789488
1242	0.833698
1254	0.189518
1266	0.101996
1278	0.216784
1290	0.24809
1302	0.150694
1314	0.114227
1326	0.0589087
1338	0.0388236
1350	0.051503
1362	0.0592453
1374	0.106148
1386	0.0408433
1398	0.031979
1410	0.0256954
1422	0.0235635
1434	0.0311935
1446	0.0969468
1458	0.134312
1470	0.066651
1482	0.0354574
1494	0.0149235
1506	0.010323
1518	0.0102108
1530	0.00875215
1542	0.00751787
1554	0.0122306
1566	0.019524
1578	0.0396091
1590	0.0902144
1602	0.220487
1614	0.233952
1626	0.0628359
1638	0.025471
1650	0.0180653
1662	0.01627
1674	0.018963
1686	0.0306325
1698	0.0473514
1710	0.0745054
1722	0.171901
1734	0.461171
1746	0.439851
1758	0.179531
1770	0.0819111
1782	0.0341109
1794	0.0176165
1806	0.00942539
1818	0.00403945
1830	0.00168311
1842	0.000561035
1854	0.000448828
1866	0.000336621
1878	0.00100986
1890	0.00112207
1902	0.00145869
1914	0.00179531
1926	0.00145869
1938	0.000448828
1950	0.000112207
1962	0.000224414
1974	0.00134648
1986	0.00134648
1998	0.00145869
2010	0.000785449
2022	0.000785449
2034	0.000785449
2046	0.00100986
2058	0.00246855
2070	0.00302959
2082	0.00359062
2094	0.00370283
2106	0.00381504
2118	0.00392725
2130	0.00336621
2142	0.00201973
2154	0.00201973
2166	0.00213193
2178	0.00235635
2190	0.00190752
2202	0.00347842
2214	0.0133526
2226	0.0285006
2238	0.00987422
2250	0.00280518
2262	0.00201973
2274	0.00235635
2286	0.00246855
2298	0.003254
2310	0.00403945
2322	0.00605918
2334	0.00695683
2346	0.00662021
2358	0.00617139
2370	0.00246855
2382	0.00190752
2394	0.00235635
2406	0.00347842
2418	0.00392725
2430	0.00359062
2442	0.0015709
2454	0.000673242
2466	0.00168311
2478	0.00100986
2490	0.000785449
2502	0.00112207
2514	0.00123428
2526	0.00112207
2538	0
2550	0.000448828
2562	0.00246855
2574	0.00403945
2586	0.00269297
2598	0.0031418
2610	0.003254
2622	0.00336621
2634	0.00706904
2646	0.0080789
2658	0.0080789
2670	0.00987422
2682	0.00583476
2694	0.00516152
2706	0.00549814
2718	0.00359062
2730	0.00392725
2742	0.00460049
2754	0.00460049
2766	0.00527373
2778	0.00605918
2790	0.00718125
2802	0.0111085
2814	0.0144747
2826	0.0172799
2838	0.0209827
2850	0.0537472
2862	0.296675
2874	0.182673
2886	0.0675486
2898	0.0907755
2910	0.382289
2922	0.862199
2934	0.974742
2946	0.277039
2958	0.126233
2970	0.0962736
2982	0.121969
2994	0.127916
3006	0.0695683
3018	0.0425265
3030	0.0219926
3042	0.0134648
3054	0.00998642
3066	0.00740566
3078	0.00617139
3090	0.00594697
3102	0.00549814
3114	0.00527373
3126	0.00448828
3138	0.00392725
3150	0.00392725
3162	0.00460049
3174	0.00381504
3186	0.00291738
3198	0.00302959
3210	0.00224414
3222	0.00347842
3234	0.00415166
3246	0.00235635
3258	0.00213193
3270	0.00213193
3282	0.00213193
3294	0.00392725
3306	0.00280518
3318	0.00258076
3330	0.00269297
3342	0.00291738
3354	0.003254
3366	0.00437607
3378	0.00448828
3390	0.0015709
3402	0.00134648
3414	0.00134648
3426	0.00168311
3438	0.00235635
3450	0.00336621
3462	0.00448828
3474	0.00213193
3486	0.000897656
3498	0.00112207
3510	0.000673242
3522	0.000897656
3534	0.00134648
3546	0.00145869
3558	0.00145869
3570	0.00112207
3582	0.00100986
3594	0.00201973
3606	0.000448828
3618	0.00134648
3630	0.00235635
3642	0.000897656
3654	0.00134648
3666	0.00100986
3678	0.00201973
3690	0.0015709
3702	0.00246855
3714	0.00213193
3726	0.003254
3738	0.00246855
3750	0.00123428
3762	0.00213193
3774	0.000785449
3786	0.00123428
3798	0.00235635
3810	0.00235635
3822	0.00347842
3834	0.00269297
3846	0.00246855
3858	0.00258076
3870	0.00246855
3882	0.00246855
3894	0.00258076
3906	0.00190752
3918	0.0015709
3930	0.003254
3942	0.0031418
3954	0.00269297
3966	0.00336621
