Infrared Spectrum: Benzene, 1,2,3-trimethyl-
Formula: C 9 H 12
CAS: 526-73-8
Origin: Sadtler Research Labs Under US-EPA Contract
1/CM	ABSORBANCE
450	0
462	0.0034801
474	0.00762552
486	0.0140228
498	0.00685785
510	0.00982618
522	0.0133575
534	0.0244631
546	0.0200618
558	0.00716492
570	0.00552722
582	0.00798377
594	0.00102356
606	0.00445249
618	0.00475955
630	0.00240537
642	0.00250772
654	0.00363364
666	0.00516898
678	0.00358246
690	0.0181682
702	0.0370529
714	0.0474932
726	0.0243095
738	0.0280455
750	0.143247
762	0.354459
774	0.246678
786	0.0783023
798	0.0157116
810	0.015251
822	0.0116686
834	0.00818848
846	0.00593665
858	0.00496427
870	0.00680667
882	0.00808612
894	0.00716492
906	0.00772788
918	0.00895615
930	0.00854673
942	0.0081373
954	0.0120268
966	0.025026
978	0.0397653
990	0.0478514
1002	0.0463161
1014	0.0407377
1026	0.0252819
1038	0.0159164
1050	0.0159675
1062	0.0208806
1074	0.0397653
1086	0.0737475
1098	0.0744128
1110	0.0380253
1122	0.0127433
1134	0.00967264
1146	0.00941675
1158	0.013511
1170	0.0140228
1182	0.0133575
1194	0.0142275
1206	0.0117198
1218	0.011208
1230	0.0112592
1242	0.016684
1254	0.01955
1266	0.0138692
1278	0.011208
1290	0.0107474
1302	0.0108497
1314	0.0121804
1326	0.0146881
1338	0.0149952
1350	0.0170935
1362	0.0205736
1374	0.0374111
1386	0.0656102
1398	0.0589571
1410	0.037667
1422	0.0407377
1434	0.0744128
1446	0.139255
1458	0.192532
1470	0.27805
1482	0.270629
1494	0.159164
1506	0.0734404
1518	0.0544534
1530	0.0438084
1542	0.0418636
1554	0.0411471
1566	0.0405842
1578	0.0584965
1590	0.085979
1602	0.0656614
1614	0.034801
1626	0.0208806
1638	0.0182705
1650	0.0215459
1662	0.0153534
1674	0.00916086
1686	0.00916086
1698	0.0156093
1710	0.0378205
1722	0.0337775
1734	0.014074
1746	0.00972382
1758	0.0117198
1770	0.0171958
1782	0.0145857
1794	0.00864908
1806	0.00736963
1818	0.00542487
1830	0.00762552
1842	0.0156093
1854	0.0128457
1866	0.00537369
1878	0.00542487
1890	0.00762552
1902	0.0151487
1914	0.0228254
1926	0.0171958
1938	0.00562958
1950	0.00276361
1962	0.00225183
1974	0.00199594
1986	0.00220065
1998	0.00220065
2010	0.00179123
2022	0.00220065
2034	0.00332657
2046	0.00317304
2058	0.00179123
2070	0.00179123
2082	0.00189359
2094	0.00204712
2106	0.00214948
2118	0.0025589
2130	0.00276361
2142	0.00230301
2154	0.00235419
2166	0.00184241
2178	0.0020983
2190	0.0025589
2202	0.00199594
2214	0.00143298
2226	0.00158652
2238	0.00235419
2250	0.00317304
2262	0.00281479
2274	0.00261008
2286	0.00189359
2298	0.00174005
2310	0.00138181
2322	0.0025589
2334	0.00342893
2346	0.00373599
2358	0.00327539
2370	0.00245654
2382	0.00266126
2394	0.00342893
2406	0.00481073
2418	0.00450366
2430	0.00424777
2442	0.00440131
2454	0.00486191
2466	0.00460602
2478	0.00486191
2490	0.00424777
2502	0.00383835
2514	0.00383835
2526	0.00399188
2538	0.00414542
2550	0.0046572
2562	0.00481073
2574	0.00491309
2586	0.00373599
2598	0.00332657
2610	0.00317304
2622	0.00394071
2634	0.00516898
2646	0.00486191
2658	0.00470838
2670	0.00450366
2682	0.00506662
2694	0.00537369
2706	0.00747199
2718	0.0132551
2730	0.0215459
2742	0.0292738
2754	0.0247702
2766	0.0174517
2778	0.0174517
2790	0.017247
2802	0.0189359
2814	0.0253843
2826	0.0356199
2838	0.0505127
2850	0.0815266
2862	0.159624
2874	0.266074
2886	0.279381
2898	0.245399
2910	0.28455
2922	0.406507
2934	0.508351
2946	0.480306
2958	0.41925
2970	0.369198
2982	0.337109
2994	0.229175
3006	0.175848
3018	0.251233
3030	0.314131
3042	0.289821
3054	0.273649
3066	0.265665
3078	0.211979
3090	0.120319
3102	0.0507174
3114	0.0303486
3126	0.0222624
3138	0.018117
3150	0.0141763
3162	0.0117709
3174	0.0111056
3186	0.00967264
3198	0.0072161
3210	0.0055784
3222	0.00399188
3234	0.00368482
3246	0.00322421
3258	0.00250772
3270	0.00332657
3282	0.00291715
3294	0.00327539
3306	0.00307068
3318	0.00322421
3330	0.00307068
3342	0.00312186
3354	0.00337775
3366	0.00322421
3378	0.00266126
3390	0.00296832
3402	0.00307068
3414	0.00342893
3426	0.00373599
3438	0.00358246
3450	0.00368482
3462	0.00363364
3474	0.00327539
3486	0.00245654
3498	0.00250772
3510	0.00235419
3522	0.00281479
3534	0.0020983
3546	0.00225183
3558	0.00266126
3570	0.00296832
3582	0.00322421
3594	0.0030195
3606	0.00199594
3618	0.00250772
3630	0.00240537
3642	0.00261008
3654	0.00404306
3666	0.0030195
3678	0.00158652
3690	0.00332657
3702	0.0020983
3714	0.00138181
3726	0.00220065
3738	0.00138181
3750	0.00322421
3762	0.00220065
3774	0.00179123
3786	0.0025589
3798	0.00122827
3810	0.00281479
3822	0.00388953
3834	0.00460602
3846	0.00450366
3858	0.00440131
3870	0.00373599
3882	0.00291715
3894	0.00358246
3906	0.00409424
3918	0.00378717
3930	0.00250772
3942	0.00291715
3954	0.00383835
3966	0.00409424
