Infrared Spectrum: Quinoline, 6-methoxy-
Formula: C 10 H 9 N O
CAS: 5263-87-6
Origin: Sadtler Research Labs Under US-EPA Contract
1/CM	ABSORBANCE
450	0.0150042
462	0.0161124
474	0.0480816
486	0.00809885
498	0.0083546
510	0.0111679
522	0.00605282
534	0.0146632
546	0.0129582
558	0.00477406
570	0.00758734
582	0.00238703
594	0.0107416
606	0.0362317
618	0.0574592
630	0.00988912
642	0.00127877
654	0.00477406
666	0.00332479
678	0.0041773
690	0.00520031
702	0.0393007
714	0.0774079
726	0.019352
738	0.00682008
750	0.0182437
762	0.0569477
774	0.0884053
786	0.0901103
798	0.0349529
810	0.0225063
822	0.0949696
834	0.28704
846	0.262403
858	0.111764
870	0.0639383
882	0.0305199
894	0.0312019
906	0.0697353
918	0.0289853
930	0.0166239
942	0.021739
954	0.0309461
966	0.0260016
978	0.019693
990	0.0180732
1002	0.0229325
1014	0.0452683
1026	0.124807
1038	0.308523
1050	0.201448
1062	0.0481668
1074	0.0282181
1086	0.0216538
1098	0.0233588
1110	0.173486
1122	0.144415
1134	0.0447568
1146	0.141261
1158	0.275787
1170	0.125916
1182	0.0646203
1194	0.0476553
1206	0.0713551
1218	0.456775
1230	0.85251
1242	0.333587
1254	0.378344
1266	0.429409
1278	0.0953106
1290	0.0317986
1302	0.0437338
1314	0.14774
1326	0.166836
1338	0.100255
1350	0.0505538
1362	0.0786867
1374	0.208098
1386	0.125404
1398	0.0317134
1410	0.0260016
1422	0.0623185
1434	0.160954
1446	0.117987
1458	0.10878
1470	0.213469
1482	0.243988
1494	0.518326
1506	0.562316
1518	0.0913038
1530	0.0282181
1542	0.0265131
1554	0.0388745
1566	0.0983797
1578	0.0951401
1590	0.158908
1602	0.270757
1614	0.161636
1626	0.381498
1638	0.179453
1650	0.0561804
1662	0.0318839
1674	0.0259163
1686	0.0202897
1698	0.0127024
1710	0.00895135
1722	0.0124466
1734	0.0161124
1746	0.00895135
1758	0.0043478
1770	0.00647908
1782	0.00741684
1794	0.00954811
1806	0.00596757
1818	0.00392155
1830	0.00366579
1842	0.00196077
1854	0.00289853
1866	0.0137254
1878	0.0120204
1890	0.00596757
1902	0.0140664
1914	0.0160272
1926	0.0191815
1938	0.0275361
1950	0.0123614
1962	0.00358054
1974	0.00341004
1986	0.000682008
1998	0
2010	0.000937761
2022	0.00341004
2034	0.0045183
2046	0.00826935
2058	0.0114236
2070	0.0128729
2082	0.00716108
2094	0.00196077
2106	0.000937761
2118	0.00196077
2130	0.00383629
2142	0.00341004
2154	0.00255753
2166	0.00332479
2178	0.00358054
2190	0.00375104
2202	0.00238703
2214	0.00144927
2226	0.000511506
2238	0.000170502
2250	0.00247228
2262	0.00409205
2274	0.00366579
2286	0.00213128
2298	0.00213128
2310	0.00255753
2322	0.00272803
2334	0.00596757
2346	0.00520031
2358	0.00537081
2370	0.0088661
2382	0.00937761
2394	0.00545606
2406	0.00341004
2418	0.00349529
2430	0.00264278
2442	0.00255753
2454	0.00409205
2466	0.00315429
2478	0.00264278
2490	0.00366579
2502	0.00281328
2514	0.00306904
2526	0.00366579
2538	0.00426255
2550	0.00383629
2562	0.00392155
2574	0.0041773
2586	0.00664958
2598	0.0086956
2610	0.00699058
2622	0.00485931
2634	0.00426255
2646	0.00264278
2658	0.00119351
2670	0.00127877
2682	0.00366579
2694	0.00647908
2706	0.00613807
2718	0.00528556
2730	0.00554131
2742	0.00664958
2754	0.00639382
2766	0.00656433
2778	0.00826935
2790	0.0115941
2802	0.0153452
2814	0.0202045
2826	0.0310314
2838	0.0751914
2850	0.0996584
2862	0.0463765
2874	0.0356349
2886	0.0437338
2898	0.0593347
2910	0.0782604
2922	0.0877233
2934	0.0972714
2946	0.158823
2958	0.166239
2970	0.106308
2982	0.0705878
2994	0.0744241
3006	0.157629
3018	0.158993
3030	0.115941
3042	0.133588
3054	0.128559
3066	0.125745
3078	0.132054
3090	0.108525
3102	0.0340151
3114	0.0140664
3126	0.00963336
3138	0.00639382
3150	0.0046888
3162	0.00673483
3174	0.00588232
3186	0.00588232
3198	0.00613807
3210	0.00409205
3222	0.0040068
3234	0.00204602
3246	0.00153452
3258	0.00161977
3270	0.00196077
3282	0.000937761
3294	0.00349529
3306	0.00247228
3318	0.000596757
3330	0.00366579
3342	0.00221653
3354	0.00230178
3366	0.000596757
3378	0.00127877
3390	0.00085251
3402	0.00221653
3414	0.00272803
3426	0.00298379
3438	0.00196077
3450	0.00161977
3462	0.00460355
3474	0.00187552
3486	0.00144927
3498	0.00264278
3510	0.00238703
3522	0.00221653
3534	0.00409205
3546	0.0043478
3558	0.00179027
3570	0.00272803
3582	0.00264278
3594	0.00537081
3606	0.00332479
3618	0.00554131
3630	0.00477406
3642	0.00409205
3654	0.00332479
3666	0.00298379
3678	0.0045183
3690	0.00272803
3702	0.00520031
3714	0.00426255
3726	0.00443305
3738	0.0040068
3750	0.00426255
3762	0.00306904
3774	0.00690533
3786	0.00477406
3798	0.0045183
3810	0.00375104
3822	0.00528556
3834	0.00520031
3846	0.0046888
3858	0.00699058
3870	0.00179027
3882	0.00494456
3894	0.00375104
3906	0.00784309
3918	0.00136402
3930	0.00664958
3942	0.00460355
3954	0.00528556
3966	0.00801359
