Infrared Spectrum: Acetic acid, cyano-, 1-methylheptyl ester
Formula: C 11 H 19 N O 2
CAS: 52688-08-1
Origin: Sadtler Research Labs Under US-EPA Contract
1/CM	ABSORBANCE
450	0.0331503
462	0.00323418
474	0.00939932
486	0.00707476
498	0.00939932
510	0.00333524
522	0.00272884
534	0.00202136
546	0.000606408
558	0.00495233
570	0.00333524
582	0.0112185
594	0.0213253
606	0.0150591
618	0.00747903
630	0.00586194
642	0.0047502
654	0.0022235
666	0.00131388
678	0.00656942
690	0.00828758
702	0.00778224
714	0.0106121
726	0.0195061
738	0.0147559
750	0.0112185
762	0.0113196
774	0.0098036
786	0.011926
798	0.0142506
810	0.0167773
822	0.0278948
834	0.0489169
846	0.0462891
858	0.0323418
870	0.0250649
882	0.023852
894	0.0236499
906	0.023852
918	0.0286022
930	0.0434592
942	0.0688273
954	0.0691305
966	0.0735775
978	0.100967
990	0.0751946
1002	0.0547789
1014	0.0495233
1026	0.0701412
1038	0.111781
1050	0.108345
1062	0.0810565
1074	0.0695348
1086	0.0607419
1098	0.0601355
1110	0.123303
1122	0.227504
1134	0.188492
1146	0.171209
1158	0.22235
1170	0.349695
1182	0.363744
1194	0.301183
1206	0.217195
1218	0.172927
1230	0.182529
1242	0.247819
1254	0.456019
1266	0.763771
1278	0.521309
1290	0.265405
1302	0.214567
1314	0.165853
1326	0.18647
1338	0.143213
1350	0.102887
1362	0.100158
1374	0.0828758
1386	0.122494
1398	0.0702423
1410	0.0572045
1422	0.0562949
1434	0.0436614
1446	0.0596301
1458	0.102281
1470	0.0983392
1482	0.0375973
1494	0.0172826
1506	0.0137452
1518	0.0109153
1530	0.0101068
1542	0.0105111
1554	0.00828758
1566	0.00656942
1578	0.00677156
1590	0.00525554
1602	0.0050534
1614	0.00525554
1626	0.00697369
1638	0.00707476
1650	0.00990466
1662	0.00838864
1674	0.0117239
1686	0.0160698
1698	0.0212243
1710	0.0317354
1722	0.0606408
1734	0.100664
1746	0.21952
1758	0.734562
1770	0.851902
1782	0.250548
1794	0.0989456
1806	0.0551831
1818	0.0289054
1830	0.0181922
1842	0.0122292
1854	0.00889398
1866	0.00798437
1878	0.00646835
1890	0.00636728
1902	0.0053566
1914	0.00485126
1926	0.00353738
1938	0.00323418
1950	0.0022235
1962	0.00262777
1974	0.00212243
1986	0.00181922
1998	0.00192029
2010	0.00161709
2022	0.00151602
2034	0.00151602
2046	0.00181922
2058	0.00141495
2070	0.00181922
2082	0.00171816
2094	0.00202136
2106	0.00212243
2118	0.0022235
2130	0.00192029
2142	0.00161709
2154	0.00171816
2166	0.00161709
2178	0.00192029
2190	0.00151602
2202	0.0022235
2214	0.00192029
2226	0.00181922
2238	0.00242563
2250	0.00434592
2262	0.00586194
2274	0.00464913
2286	0.00181922
2298	0.000606408
2310	0.00050534
2322	0.000303204
2334	0.000101068
2346	0.00303204
2358	0.000202136
2370	0.000303204
2382	0.00161709
2394	0.0025267
2406	0.00202136
2418	0.00192029
2430	0.00181922
2442	0.00171816
2454	0.00171816
2466	0.00192029
2478	0.00161709
2490	0.00202136
2502	0.00242563
2514	0.00323418
2526	0.00333524
2538	0.00343631
2550	0.00272884
2562	0.00293097
2574	0.00293097
2586	0.00353738
2598	0.00384058
2610	0.00404272
2622	0.00434592
2634	0.00424486
2646	0.00454806
2658	0.00586194
2670	0.00667049
2682	0.0072769
2694	0.00768117
2706	0.0075801
2718	0.00808544
2730	0.00939932
2742	0.0110164
2754	0.01041
2766	0.00970253
2778	0.0100057
2790	0.0123303
2802	0.0165752
2814	0.0212243
2826	0.0289054
2838	0.043055
2850	0.0834822
2862	0.202641
2874	0.251457
2886	0.207594
2898	0.158374
2910	0.215982
2922	0.36718
2934	0.617829
2946	0.616818
2958	0.39841
2970	0.427417
2982	0.278948
2994	0.226999
3006	0.0725668
3018	0.0358791
3030	0.025267
3042	0.0183944
3054	0.0138463
3066	0.0116228
3078	0.0101068
3090	0.00889398
3102	0.00859078
3114	0.00747903
3126	0.00687262
3138	0.00697369
3150	0.00555874
3162	0.00596301
3174	0.00545767
3186	0.00555874
3198	0.0053566
3210	0.00485126
3222	0.00373952
3234	0.00323418
3246	0.00242563
3258	0.00192029
3270	0.00141495
3282	0.00141495
3294	0.00131388
3306	0.000909612
3318	0.00111175
3330	0.00232456
3342	0.00151602
3354	0.00192029
3366	0.00151602
3378	0.00181922
3390	0.00181922
3402	0.0022235
3414	0.00212243
3426	0.00161709
3438	0.00202136
3450	0.00171816
3462	0.00181922
3474	0.00192029
3486	0.00293097
3498	0.0053566
3510	0.00677156
3522	0.00464913
3534	0.00171816
3546	0.00131388
3558	0.000909612
3570	0.00181922
3582	0.000606408
3594	0.00212243
3606	0.000101068
3618	0.00212243
3630	0.00272884
3642	0.0022235
3654	0.00212243
3666	0.000808544
3678	0.00323418
3690	0.00192029
3702	0.00192029
3714	0.00192029
3726	0.00212243
3738	0.0028299
3750	0.00151602
3762	0.00121282
3774	0.00171816
3786	0.00141495
3798	0.00363845
3810	0.000909612
3822	0.00161709
3834	0.00323418
3846	0.00101068
3858	0.00272884
3870	0.00232456
3882	0.00131388
3894	0.00232456
3906	0.00202136
3918	0.00303204
3930	0.0028299
3942	0.00161709
3954	0.00121282
3966	0.000909612
