Infrared Spectrum: Acetic acid, cyano-, 1,3-dimethylbutyl ester
Formula: C 9 H 15 N O 2
CAS: 52688-05-8
Origin: Sadtler Research Labs Under US-EPA Contract
1/CM	ABSORBANCE
450	0.0102455
462	0.0150331
474	0.0116817
486	0.0190546
498	0.0172354
510	0.00670264
522	0.00392583
534	0.000861768
546	0.0023938
558	0.00277681
570	0.00440459
582	0.0103412
594	0.0170439
606	0.0145543
618	0.00880918
630	0.00402158
642	0.00287256
654	0.0023938
666	0.00373433
678	0.00526636
690	0.0069899
702	0.00306406
714	0.00315982
726	0.00411734
738	0.00708565
750	0.00507486
762	0.00421309
774	0.00612813
786	0.00880918
798	0.0150331
810	0.0265233
822	0.034375
834	0.0222145
846	0.0178099
858	0.025087
870	0.0246083
882	0.0317897
894	0.0265233
906	0.023938
918	0.0249913
930	0.0465355
942	0.069516
954	0.0566852
966	0.0687499
978	0.0828255
990	0.0436629
1002	0.0605153
1014	0.112604
1026	0.0924964
1038	0.0862726
1050	0.0546744
1062	0.0589832
1074	0.0344707
1086	0.0270021
1098	0.0393541
1110	0.101784
1122	0.287256
1134	0.232869
1146	0.157895
1158	0.237369
1170	0.353325
1182	0.325653
1194	0.281607
1206	0.190068
1218	0.146884
1230	0.152629
1242	0.219081
1254	0.406276
1266	0.736524
1278	0.511699
1290	0.277489
1302	0.208548
1314	0.14267
1326	0.165938
1338	0.148894
1350	0.103891
1362	0.100635
1374	0.122084
1386	0.130606
1398	0.0891451
1410	0.0574512
1422	0.0526636
1434	0.0400243
1446	0.0443332
1458	0.0771761
1470	0.0931667
1482	0.0537169
1494	0.0163736
1506	0.010054
1518	0.00727715
1530	0.00622388
1542	0.00689414
1554	0.00507486
1566	0.00402158
1578	0.00402158
1590	0.00392583
1602	0.00354282
1614	0.00383008
1626	0.0047876
1638	0.00555362
1650	0.0073729
1662	0.00679839
1674	0.0095752
1686	0.0130223
1698	0.0180971
1710	0.0297789
1722	0.0563979
1734	0.0842618
1746	0.194855
1758	0.69966
1770	0.834096
1782	0.240242
1794	0.0786124
1806	0.0511316
1818	0.0280553
1830	0.0156076
1842	0.0103412
1854	0.0069899
1866	0.0071814
1878	0.00574512
1890	0.00469185
1902	0.00450034
1914	0.00402158
1926	0.00306406
1938	0.0023938
1950	0.0022023
1962	0.00201079
1974	0.00191504
1986	0.00124478
1998	0.00153203
2010	0.000574512
2022	0.000383008
2034	0
2046	0.000191504
2058	0.000383008
2070	0.000670264
2082	0.00134053
2094	0.00095752
2106	0.000861768
2118	0.000766016
2130	0.00105327
2142	0.000766016
2154	0.000574512
2166	0.000574512
2178	0.00047876
2190	0.000766016
2202	0.000766016
2214	0.000670264
2226	0.000861768
2238	0.00105327
2250	0.00277681
2262	0.00469185
2274	0.00392583
2286	0.00210654
2298	0.00363858
2310	0.00545786
2322	0.00488335
2334	0.00430884
2346	0.00622388
2358	0.00430884
2370	0.00450034
2382	0.00536211
2394	0.00124478
2406	0.00047876
2418	9.5752e-05
2430	0
2442	0.000287256
2454	0.000670264
2466	0.000383008
2478	0.000766016
2490	0.000766016
2502	0.00124478
2514	0.00181929
2526	0.00172354
2538	0.00143628
2550	0.00134053
2562	0.00114902
2574	0.00114902
2586	0.00191504
2598	0.00201079
2610	0.00248955
2622	0.0025853
2634	0.0023938
2646	0.0023938
2658	0.00201079
2670	0.00229805
2682	0.00248955
2694	0.00335132
2706	0.00392583
2718	0.0045961
2730	0.00766016
2742	0.00909644
2754	0.00708565
2766	0.00517061
2778	0.00612813
2790	0.00670264
2802	0.00727715
2814	0.0107242
2826	0.0150331
2838	0.0219272
2850	0.0330344
2862	0.0400243
2874	0.0862726
2886	0.146979
2898	0.120552
2910	0.156172
2922	0.197824
2934	0.231624
2946	0.250966
2958	0.277681
2970	0.513997
2982	0.297789
2994	0.212952
3006	0.0637708
3018	0.0240338
3030	0.012352
3042	0.00861768
3054	0.00631963
3066	0.00603238
3078	0.00622388
3090	0.00545786
3102	0.00536211
3114	0.00564937
3126	0.00469185
3138	0.00507486
3150	0.00507486
3162	0.00517061
3174	0.00631963
3186	0.00612813
3198	0.00641538
3210	0.00564937
3222	0.00411734
3234	0.00315982
3246	0.00210654
3258	0.00105327
3270	0.00153203
3282	0.00114902
3294	0.00105327
3306	0.000766016
3318	0.00095752
3330	0.00162778
3342	0.00181929
3354	0.00134053
3366	0.00095752
3378	0.00162778
3390	0.00143628
3402	0.00172354
3414	0.00134053
3426	0.00143628
3438	0.00134053
3450	0.00105327
3462	0.00124478
3474	0.00153203
3486	0.00181929
3498	0.00440459
3510	0.00622388
3522	0.00354282
3534	0.00162778
3546	0.000383008
3558	0.000191504
3570	0.000766016
3582	0.00114902
3594	0.00153203
3606	0.000191504
3618	0.000574512
3630	0.000861768
3642	0.0025853
3654	0.0022023
3666	0.00201079
3678	0.00095752
3690	0.00162778
3702	0.000574512
3714	0.00201079
3726	0.000383008
3738	0.00229805
3750	0.00095752
3762	0.00124478
3774	0.00344707
3786	0.00201079
3798	0.00124478
3810	0.00153203
3822	0.00191504
3834	0.00201079
3846	0.00210654
3858	0.00210654
3870	0.00268106
3882	0.00229805
3894	0.00153203
3906	0.00325557
3918	0.0023938
3930	0.00114902
3942	0.0023938
3954	0.00277681
3966	0.0022023
