Infrared Spectrum: Acetic acid, cyano-, 1-methylbutyl ester
Formula: C 8 H 13 N O 2
CAS: 52688-04-7
Origin: Sadtler Research Labs Under US-EPA Contract
1/CM	ABSORBANCE
450	0.0221265
462	0.026669
474	0.0224195
486	0.0238849
498	0.0168513
510	0.00688705
522	0.00718012
534	0.00454252
546	0.00380986
558	0.00586132
570	0.00893851
582	0.0196354
594	0.0306254
606	0.0235918
618	0.0152394
630	0.00937811
642	0.00644745
654	0.00556825
666	0.00615439
678	0.0105504
690	0.0126018
702	0.00879198
714	0.00820585
726	0.0102573
738	0.0159721
750	0.0187562
762	0.0142137
774	0.0118692
786	0.0123088
798	0.017877
810	0.0385382
822	0.0718012
834	0.0549499
846	0.044546
858	0.0400035
870	0.0391243
882	0.0404431
894	0.0297462
906	0.028867
918	0.0452787
930	0.0543637
942	0.0868941
954	0.116347
966	0.113123
978	0.100815
990	0.105504
1002	0.171004
1014	0.131733
1026	0.102866
1038	0.0754645
1050	0.0704824
1062	0.0841099
1074	0.044253
1086	0.0526053
1098	0.130854
1110	0.28867
1122	0.394174
1134	0.278999
1146	0.21511
1158	0.313874
1170	0.493377
1182	0.519899
1194	0.451908
1206	0.306987
1218	0.229764
1230	0.243245
1242	0.356368
1254	0.645624
1266	1.11365
1278	0.850478
1290	0.435203
1302	0.316218
1314	0.228445
1326	0.262294
1338	0.211301
1350	0.141111
1362	0.133492
1374	0.111072
1386	0.155178
1398	0.111219
1410	0.0783952
1422	0.0726804
1434	0.0521657
1446	0.066526
1458	0.107555
1470	0.112244
1482	0.0507004
1494	0.0161186
1506	0.01099
1518	0.00879198
1530	0.00835238
1542	0.00937811
1554	0.00659398
1566	0.00527519
1578	0.00527519
1590	0.00424946
1602	0.00380986
1614	0.00410292
1626	0.00512865
1638	0.00615439
1650	0.00952464
1662	0.00908505
1674	0.013188
1686	0.0174374
1698	0.0235918
1710	0.0404431
1722	0.0794209
1734	0.121622
1746	0.292919
1758	1.04229
1770	1.33345
1782	0.447658
1794	0.129682
1806	0.0744388
1818	0.042055
1830	0.0235918
1842	0.0161186
1854	0.01099
1866	0.00952464
1878	0.00791278
1890	0.00703358
1902	0.00600785
1914	0.00512865
1926	0.00395639
1938	0.00322373
1950	0.00249106
1962	0.00219799
1974	0.0017584
1986	0.0013188
1998	0.00161186
2010	0.000879198
2022	0.000439599
2034	0.000146533
2046	0.000146533
2058	0.000293066
2070	0.00102573
2082	0.0017584
2094	0.00190493
2106	0.00190493
2118	0.0017584
2130	0.0017584
2142	0.000879198
2154	0.000586132
2166	0.000879198
2178	0.00117226
2190	0.00102573
2202	0.000879198
2214	0.00102573
2226	0.00161186
2238	0.00219799
2250	0.00439599
2262	0.00761972
2274	0.00586132
2286	0.00205146
2298	0.00190493
2310	0.00249106
2322	0.00190493
2334	0.00263759
2346	0.00410292
2358	0.00234453
2370	0.00380986
2382	0.00410292
2394	0.00293066
2406	0.00234453
2418	0.00161186
2430	0.0013188
2442	0.00161186
2454	0.00205146
2466	0.00190493
2478	0.00234453
2490	0.00234453
2502	0.00293066
2514	0.00366332
2526	0.00424946
2538	0.00351679
2550	0.00249106
2562	0.00205146
2574	0.00249106
2586	0.00337026
2598	0.00322373
2610	0.00380986
2622	0.00380986
2634	0.00366332
2646	0.00322373
2658	0.00351679
2670	0.00395639
2682	0.00512865
2694	0.00542172
2706	0.00659398
2718	0.00718012
2730	0.00849891
2742	0.0104038
2754	0.0111365
2766	0.00864545
2778	0.00776625
2790	0.00864545
2802	0.0111365
2814	0.0149464
2826	0.017877
2838	0.0243245
2850	0.0427876
2862	0.0609577
2874	0.112244
2886	0.203974
2898	0.147998
2910	0.130414
2922	0.195475
2934	0.265664
2946	0.394467
2958	0.334095
2970	0.495135
2982	0.476818
2994	0.320761
3006	0.103013
3018	0.0414688
3030	0.0297462
3042	0.0241779
3054	0.0162652
3066	0.0120157
3078	0.0104038
3090	0.00937811
3102	0.00937811
3114	0.00879198
3126	0.00761972
3138	0.00718012
3150	0.00674052
3162	0.00747318
3174	0.00761972
3186	0.00761972
3198	0.00732665
3210	0.00674052
3222	0.00600785
3234	0.00512865
3246	0.00380986
3258	0.00278413
3270	0.00219799
3282	0.00249106
3294	0.00234453
3306	0.0013188
3318	0.00219799
3330	0.00219799
3342	0.00205146
3354	0.00205146
3366	0.00190493
3378	0.00219799
3390	0.00249106
3402	0.00263759
3414	0.00293066
3426	0.00351679
3438	0.00278413
3450	0.00249106
3462	0.00293066
3474	0.00351679
3486	0.00410292
3498	0.00805931
3510	0.011283
3522	0.00791278
3534	0.00468906
3546	0.00205146
3558	0.00190493
3570	0.00146533
3582	0.0013188
3594	0.00161186
3606	0.00161186
3618	0.00102573
3630	0.0017584
3642	0.00234453
3654	0.00249106
3666	0.00205146
3678	0.00322373
3690	0.00234453
3702	0.0013188
3714	0.00278413
3726	0.00205146
3738	0.00307719
3750	0.00219799
3762	0.00234453
3774	0.00410292
3786	0.00337026
3798	0.00278413
3810	0.00263759
3822	0.00322373
3834	0.00205146
3846	0.00190493
3858	0.00322373
3870	0.00219799
3882	0.00293066
3894	0.00249106
3906	0.00410292
3918	0.00322373
3930	0.00263759
3942	0.00366332
3954	0.00307719
3966	0.00366332
