Infrared Spectrum: Cyclohexyl cyanoacetate
Formula: C 9 H 13 N O 2
CAS: 52688-11-6
Origin: Sadtler Research Labs Under US-EPA Contract
1/CM	ABSORBANCE
450	0.0203016
462	0.00578912
474	0.00975427
486	0.00935775
498	0.00222048
510	0.000634424
522	0.000872333
534	0.00206188
546	0.0026963
558	0.00586842
570	0.00222048
582	0.00570982
594	0.0107059
606	0.00967497
618	0.00658215
630	0.00491679
642	0.00563051
654	0.00285491
666	0.000475818
678	0.00452027
690	0.00745448
702	0.00658215
714	0.00499609
726	0.00840612
738	0.00872333
750	0.00563051
762	0.00475818
774	0.00380654
786	0.00444097
798	0.00880263
810	0.0105473
822	0.0191913
834	0.0190327
846	0.0153055
858	0.00927845
870	0.0150676
882	0.0268837
894	0.0642354
906	0.0594772
918	0.0354484
930	0.0416341
942	0.05234
954	0.0793823
966	0.0864403
978	0.0952429
990	0.04893
1002	0.0855679
1014	0.179066
1026	0.136243
1038	0.166536
1050	0.0494058
1062	0.0160985
1074	0.0127678
1086	0.0158606
1098	0.0195085
1110	0.0318005
1122	0.096829
1134	0.0726415
1146	0.0891366
1158	0.213563
1170	0.35163
1182	0.352581
1194	0.286284
1206	0.188662
1218	0.154165
1230	0.196037
1242	0.292469
1254	0.472487
1266	0.703259
1278	0.438149
1290	0.211818
1302	0.165664
1314	0.139335
1326	0.171453
1338	0.158685
1350	0.0911985
1362	0.0546398
1374	0.0343382
1386	0.0214911
1398	0.0203809
1410	0.0341796
1422	0.0379861
1434	0.0310868
1446	0.0551949
1458	0.0912778
1470	0.0445683
1482	0.0125299
1494	0.005234
1506	0.00412376
1518	0.00380654
1530	0.00594773
1542	0.00808891
1554	0.00570982
1566	0.00237909
1578	0.00237909
1590	0.00158606
1602	0.00182397
1614	0.00190327
1626	0.00229979
1638	0.00174467
1650	0.00333073
1662	0.00317212
1674	0.00547191
1686	0.00943706
1698	0.0146711
1710	0.0264872
1722	0.0475818
1734	0.0728002
1746	0.186124
1758	0.618008
1770	0.722212
1782	0.257338
1794	0.0857265
1806	0.0477404
1818	0.0293421
1830	0.0172881
1842	0.0122127
1854	0.0103094
1866	0.00824751
1878	0.00594773
1890	0.00459957
1902	0.00436166
1914	0.00412376
1926	0.0026963
1938	0.00214118
1950	0.00118954
1962	0.00111024
1974	0.00118954
1986	0.00126885
1998	0.00134815
2010	0.00118954
2022	0.000951636
2034	0.00079303
2046	0.00126885
2058	0.00166536
2070	0.00158606
2082	0.00174467
2094	0.00229979
2106	0.00245839
2118	0.00214118
2130	0.00198257
2142	0.00229979
2154	0.0026963
2166	0.0025377
2178	0.0026963
2190	0.00214118
2202	0.00214118
2214	0.00166536
2226	0.00182397
2238	0.00237909
2250	0.00372724
2262	0.00499609
2274	0.00428236
2286	0.00174467
2298	0.000713727
2310	0.000317212
2322	0.000713727
2334	0.00126885
2346	0.00222048
2358	0.000872333
2370	0.00103094
2382	0.00158606
2394	0.00206188
2406	0.00166536
2418	0.000872333
2430	0.00103094
2442	0.00118954
2454	0.000951636
2466	0.00118954
2478	0.00142745
2490	0.00190327
2502	0.00214118
2514	0.00206188
2526	0.0025377
2538	0.00198257
2550	0.00103094
2562	0.00166536
2574	0.00126885
2586	0.00190327
2598	0.0026963
2610	0.0026963
2622	0.00245839
2634	0.00245839
2646	0.00348933
2658	0.00563051
2670	0.007851
2682	0.00658215
2694	0.00547191
2706	0.00555121
2718	0.00499609
2730	0.00412376
2742	0.00285491
2754	0.002617
2766	0.00325142
2778	0.00436166
2790	0.00642354
2802	0.00888194
2814	0.00888194
2826	0.00935775
2838	0.0128471
2850	0.0301351
2862	0.140128
2874	0.206188
2886	0.0993667
2898	0.0543226
2910	0.074862
2922	0.13767
2934	0.297466
2946	0.709445
2958	0.544177
2970	0.161778
2982	0.0432201
2994	0.0171294
3006	0.0102301
3018	0.00729588
3030	0.00618563
3042	0.00459957
3054	0.00348933
3066	0.00325142
3078	0.00317212
3090	0.00245839
3102	0.00229979
3114	0.00182397
3126	0.00166536
3138	0.00229979
3150	0.00237909
3162	0.00301351
3174	0.002617
3186	0.00222048
3198	0.00182397
3210	0.0025377
3222	0.00174467
3234	0.00182397
3246	0.00166536
3258	0.00158606
3270	0.00158606
3282	0.00206188
3294	0.00182397
3306	0.000475818
3318	0.00126885
3330	0.00174467
3342	0.00150676
3354	0.00142745
3366	0.00111024
3378	0.00158606
3390	0.00103094
3402	0.00198257
3414	0.002617
3426	0.00198257
3438	0.00237909
3450	0.00103094
3462	0.00214118
3474	0.00229979
3486	0.00293421
3498	0.00412376
3510	0.0053133
3522	0.00380654
3534	0.00126885
3546	0.00126885
3558	0.00134815
3570	0.00142745
3582	0.00134815
3594	0.00206188
3606	0.000237909
3618	0.00174467
3630	0.00198257
3642	0.00118954
3654	0.00190327
3666	0.00142745
3678	0.002617
3690	0.00245839
3702	0.00190327
3714	0.002617
3726	0.00198257
3738	0.00325142
3750	0.00103094
3762	0.00111024
3774	0.00166536
3786	0.000951636
3798	0.00348933
3810	0.000634424
3822	0.00245839
3834	0.00182397
3846	0.00142745
3858	0.00214118
3870	0.00198257
3882	0.00229979
3894	0.00150676
3906	0.00372724
3918	0.00182397
3930	0.00134815
3942	0.00103094
3954	0.00222048
3966	0.0025377
