Infrared Spectrum: 2-Hexanol, 5-methyl-, cyanoacetate
Formula: C 10 H 17 N O 2
CAS: 52688-06-9
Origin: Sadtler Research Labs Under US-EPA Contract
1/CM	ABSORBANCE
450	0.00441718
462	0.0191411
474	0.0075022
486	0.0106573
498	0.00497809
510	0.0044873
522	0.00322524
534	0.000841368
546	0.00238388
558	0.00560912
570	0.00217353
582	0.00813322
594	0.0128309
606	0.0103769
618	0.00673094
630	0.00392638
642	0.00238388
654	0.00224365
666	0.00336547
678	0.00336547
690	0.0060298
702	0.00427695
714	0.00238388
726	0.00434707
738	0.00504821
750	0.00624015
762	0.00581946
774	0.00539878
786	0.00504821
798	0.00595969
810	0.011078
822	0.0179492
834	0.0326731
846	0.0408765
858	0.0203331
870	0.00932516
882	0.0103769
894	0.0142331
906	0.0151446
918	0.019702
930	0.0296582
942	0.0424891
954	0.0509729
966	0.0533568
978	0.0499913
990	0.0291674
1002	0.0281157
1014	0.0504821
1026	0.0802805
1038	0.0827345
1050	0.0766346
1062	0.0402454
1074	0.0476775
1086	0.0321122
1098	0.0287467
1110	0.0628221
1122	0.158317
1134	0.131534
1146	0.0957757
1158	0.146398
1170	0.238107
1182	0.235022
1194	0.198002
1206	0.136512
1218	0.113515
1230	0.12284
1242	0.151867
1254	0.284593
1266	0.510921
1278	0.399299
1290	0.17816
1302	0.142331
1314	0.107415
1326	0.126906
1338	0.0968274
1350	0.0705347
1362	0.0724979
1374	0.0732691
1386	0.0904471
1398	0.0633831
1410	0.038142
1422	0.0363892
1434	0.0250307
1446	0.032603
1458	0.0597371
1470	0.0712358
1482	0.0349168
1494	0.0118493
1506	0.00813322
1518	0.00581946
1530	0.00490798
1542	0.00518844
1554	0.00434707
1566	0.00322524
1578	0.00322524
1590	0.00280456
1602	0.00273445
1614	0.00287467
1626	0.0035057
1638	0.00371604
1650	0.00553901
1662	0.00476775
1674	0.00673094
1686	0.00869414
1698	0.0118493
1710	0.01844
1722	0.0374409
1734	0.0585452
1746	0.123751
1758	0.47355
1770	0.611044
1782	0.171709
1794	0.0618405
1806	0.0365995
1818	0.0192813
1830	0.0105872
1842	0.00771254
1854	0.00553901
1866	0.00532866
1878	0.00413673
1890	0.00371604
1902	0.00343559
1914	0.00308502
1926	0.00231376
1938	0.00147239
1950	0.00140228
1962	0.00140228
1974	0.00126205
1986	0.000981596
1998	0.00119194
2010	0.000981596
2022	0.000490798
2034	0.000280456
2046	0.000420684
2058	0.00035057
2070	0.000560912
2082	0.00070114
2094	0.000841368
2106	0.00119194
2118	0.00119194
2130	0.000981596
2142	0.00070114
2154	0.000420684
2166	0.000631026
2178	0.000631026
2190	0.00070114
2202	0.000631026
2214	0.000420684
2226	0.000631026
2238	0.000911482
2250	0.00189308
2262	0.00343559
2274	0.00294479
2286	0.00140228
2298	0.00133217
2310	0.00168274
2322	0.00161262
2334	0.00175285
2346	0.00266433
2358	0.00119194
2370	0.00182296
2382	0.00217353
2394	0.00105171
2406	0.000420684
2418	0
2430	0.000210342
2442	0.000280456
2454	0.00035057
2466	0.000631026
2478	0.00070114
2490	0.000771254
2502	0.00105171
2514	0.00133217
2526	0.00119194
2538	0.00140228
2550	0.00126205
2562	0.00112182
2574	0.000981596
2586	0.00175285
2598	0.00203331
2610	0.0025241
2622	0.0025241
2634	0.0025241
2646	0.00259422
2658	0.00217353
2670	0.00231376
2682	0.00238388
2694	0.00315513
2706	0.00343559
2718	0.0039965
2730	0.00624015
2742	0.00645049
2754	0.00525855
2766	0.0044873
2778	0.00518844
2790	0.00518844
2802	0.00666083
2814	0.00876425
2826	0.0118493
2838	0.0161262
2850	0.0281157
2862	0.0575636
2874	0.0907275
2886	0.128659
2898	0.0936723
2910	0.115127
2922	0.161052
2934	0.189448
2946	0.238808
2958	0.260894
2970	0.417108
2982	0.175565
2994	0.142892
3006	0.0390535
3018	0.0150044
3030	0.00918493
3042	0.00715163
3054	0.00588958
3066	0.00546889
3078	0.00546889
3090	0.00490798
3102	0.00469764
3114	0.0044873
3126	0.00392638
3138	0.00392638
3150	0.00385627
3162	0.00392638
3174	0.00497809
3186	0.00497809
3198	0.00469764
3210	0.00420684
3222	0.00329536
3234	0.00259422
3246	0.00196319
3258	0.00119194
3270	0.000981596
3282	0.000981596
3294	0.00154251
3306	0.000771254
3318	0.00119194
3330	0.00189308
3342	0.00196319
3354	0.00175285
3366	0.00175285
3378	0.00161262
3390	0.00189308
3402	0.00147239
3414	0.00182296
3426	0.00203331
3438	0.00189308
3450	0.00147239
3462	0.00105171
3474	0.00231376
3486	0.00182296
3498	0.00385627
3510	0.00476775
3522	0.00308502
3534	0.00147239
3546	0.00126205
3558	0.00119194
3570	0.000841368
3582	0.00210342
3594	0.00224365
3606	0.000911482
3618	0.000981596
3630	0.00196319
3642	0.00210342
3654	0.0025241
3666	0.00126205
3678	0.00224365
3690	0.00238388
3702	0.00105171
3714	0.00238388
3726	0.00217353
3738	0.00273445
3750	0.00175285
3762	0.00196319
3774	0.00336547
3786	0.00238388
3798	0.00273445
3810	0.00189308
3822	0.00273445
3834	0.00259422
3846	0.00294479
3858	0.00154251
3870	0.00245399
3882	0.00231376
3894	0.00231376
3906	0.00357581
3918	0.00112182
3930	0.00203331
3942	0.00168274
3954	0.00196319
3966	0.00280456
