Infrared Spectrum: Phenol, 2,4,6-trimethyl-
Formula: C 9 H 12 O
CAS: 527-60-6
Origin: Sadtler Research Labs Under US-EPA Contract
1/CM	ABSORBANCE
450	0.00535873
462	0.0122615
474	0.00435965
486	0.00953673
498	0.0218891
510	0.014623
522	0.00644865
534	0.00726608
546	0.0149863
558	0.0330607
570	0.0481378
582	0.0330607
594	0.014078
606	0.0106266
618	0.00899177
630	0.00935508
642	0.00717525
654	0.00781104
666	0.00635782
678	0.00735691
690	0.00708443
702	0.0094459
714	0.0247047
726	0.0478653
738	0.0262487
750	0.0467754
762	0.111716
774	0.05168
786	0.00980921
798	0.00726608
810	0.00781104
822	0.0100817
834	0.0354221
846	0.111625
858	0.105358
870	0.0351497
882	0.0157129
894	0.0136239
906	0.0234331
918	0.0531332
930	0.0546773
942	0.0281561
954	0.027157
966	0.0237056
978	0.0278836
990	0.0428699
1002	0.0754764
1014	0.100635
1026	0.0695727
1038	0.039691
1050	0.0298818
1062	0.0237056
1074	0.02089
1086	0.0170753
1098	0.0138056
1110	0.0164395
1122	0.0315166
1134	0.0655764
1146	0.208264
1158	0.246593
1170	0.0895544
1182	0.261034
1194	0.876471
1206	0.677017
1218	0.205176
1230	0.245866
1242	0.231334
1254	0.0924609
1266	0.0856489
1278	0.0876471
1290	0.122343
1302	0.181016
1314	0.140235
1326	0.0676654
1338	0.0395093
1350	0.0319708
1362	0.0296093
1374	0.043324
1386	0.0601268
1398	0.0428699
1410	0.0461396
1422	0.0651222
1434	0.108174
1446	0.171116
1458	0.18038
1470	0.219617
1482	0.466028
1494	0.512168
1506	0.218981
1518	0.105086
1530	0.0785645
1542	0.0654855
1554	0.0487736
1566	0.0397818
1578	0.0372387
1590	0.0324249
1602	0.0330607
1614	0.0326065
1626	0.0215258
1638	0.0237964
1650	0.0237964
1662	0.0124432
1674	0.0143505
1686	0.0159854
1698	0.016712
1710	0.022979
1722	0.0353313
1734	0.03079
1746	0.0187102
1758	0.0155312
1770	0.0112624
1782	0.00790186
1794	0.00581286
1806	0.00399634
1818	0.00281561
1830	0.00408717
1842	0.00435965
1854	0.00163487
1866	0.00363304
1878	0.00426882
1890	0.00581286
1902	0.00635782
1914	0.00790186
1926	0.0049046
1938	0.00317891
1950	0.00572204
1962	0.00517708
1974	0.00217982
1986	0.00217982
1998	0.00326974
2010	0.00272478
2022	0.00136239
2034	0.000363304
2046	0.00127156
2058	0.00254313
2070	0.00272478
2082	0.00127156
2094	0.000272478
2106	0.000544956
2118	0.00108991
2130	0.000817434
2142	0.00136239
2154	0.00145322
2166	0.00127156
2178	0.00190735
2190	0.00254313
2202	0.00263395
2214	0.00281561
2226	0.00217982
2238	0.00263395
2250	0.00336056
2262	0.00181652
2274	0.000544956
2286	0.000363304
2298	0.00118074
2310	0.00217982
2322	0.00263395
2334	0.00336056
2346	0.00372387
2358	0.00390552
2370	0.00326974
2382	0.00481378
2394	0.00572204
2406	0.0045413
2418	0.0049046
2430	0.00672112
2442	0.00617617
2454	0.00590369
2466	0.00653947
2478	0.00544956
2490	0.00508626
2502	0.0049046
2514	0.00408717
2526	0.00299726
2538	0.00317891
2550	0.00281561
2562	0.00281561
2574	0.00281561
2586	0.00254313
2598	0.0024523
2610	0.00317891
2622	0.00435965
2634	0.00508626
2646	0.00426882
2658	0.00345139
2670	0.00326974
2682	0.00426882
2694	0.00581286
2706	0.00681195
2718	0.00799269
2730	0.0129881
2742	0.0262487
2754	0.0236148
2766	0.0111716
2778	0.00917343
2790	0.0108991
2802	0.0145322
2814	0.0192551
2826	0.0272478
2838	0.04069
2850	0.0801994
2862	0.174023
2874	0.250226
2886	0.215439
2898	0.176293
2910	0.226702
2922	0.377473
2934	0.46512
2946	0.301179
2958	0.187011
2970	0.163759
2982	0.189554
2994	0.170571
3006	0.183105
3018	0.255948
3030	0.206357
3042	0.130971
3054	0.088192
3066	0.0572204
3078	0.0366937
3090	0.0243414
3102	0.0186193
3114	0.0135331
3126	0.0090826
3138	0.00690278
3150	0.00508626
3162	0.00372387
3174	0.00354221
3186	0.00299726
3198	0.00326974
3210	0.00317891
3222	0.00308808
3234	0.00290643
3246	0.00217982
3258	0.00181652
3270	0.00263395
3282	0.00254313
3294	0.002089
3306	0.00281561
3318	0.0024523
3330	0.0024523
3342	0.00227065
3354	0.0024523
3366	0.00381469
3378	0.00435965
3390	0.0049046
3402	0.0045413
3414	0.00399634
3426	0.00345139
3438	0.00399634
3450	0.00317891
3462	0.0024523
3474	0.00308808
3486	0.00108991
3498	0.000817434
3510	0.00190735
3522	0.00190735
3534	0.00254313
3546	0.00190735
3558	0.00136239
3570	0.00236148
3582	0.00435965
3594	0.00336056
3606	0.00635782
3618	0.0114441
3630	0.0367845
3642	0.150135
3654	0.325248
3666	0.218255
3678	0.0257946
3690	0.00681195
3702	0.00336056
3714	0.000272478
3726	0.000272478
3738	0.000272478
3750	0.000544956
3762	0.000635782
3774	0.00090826
3786	0.00136239
3798	0.00045413
3810	0.00190735
3822	0.000272478
3834	0.00127156
3846	0.00172569
3858	0.00190735
3870	0.00236148
3882	0.00181652
3894	0
3906	0.00127156
3918	0.00136239
3930	0.00336056
3942	0.00217982
3954	0.000544956
3966	0.00254313
