Infrared Spectrum: 2-Furancarbonyl chloride
Formula: C 5 H 3 Cl O 2
CAS: 527-69-5
Origin: Sadtler Research Labs Under US-EPA Contract
1/CM	ABSORBANCE
450	0.00108282
462	0.0049219
474	0.00275626
486	0.00462659
498	0.0165376
510	0.0252001
522	0.0379971
534	0.0650675
546	0.0808176
558	0.0535503
570	0.0428205
582	0.062705
594	0.0897755
606	0.055519
618	0.0363236
630	0.0363236
642	0.0323861
654	0.0336658
666	0.0219517
678	0.0418361
690	0.0682175
702	0.0537471
714	0.0378002
726	0.0378986
738	0.0816051
750	0.210559
762	0.359791
774	0.17709
786	0.0709738
798	0.0826879
810	0.290786
822	0.98438
834	0.824812
846	0.251903
858	0.183488
870	0.0812114
882	0.0940083
894	0.0953864
906	0.0419346
918	0.0449862
930	0.0760926
942	0.226604
954	0.296102
966	0.165868
978	0.10523
990	0.0607362
1002	0.0882004
1014	0.249639
1026	0.228868
1038	0.0566018
1050	0.0400643
1062	0.0432143
1074	0.0728441
1086	0.0996193
1098	0.0726472
1110	0.0426237
1122	0.0362252
1134	0.0286455
1146	0.0550268
1158	0.152284
1170	0.162226
1182	0.0593581
1194	0.0317955
1206	0.0375049
1218	0.0496128
1230	0.139684
1242	0.242157
1254	0.294034
1266	0.182602
1278	0.076191
1290	0.0478409
1302	0.0389814
1314	0.0328783
1326	0.0366189
1338	0.0352408
1350	0.0365205
1362	0.0369142
1374	0.05798
1386	0.119701
1398	0.110447
1410	0.0426237
1422	0.0311064
1434	0.0320908
1446	0.0536487
1458	0.146476
1470	0.267653
1482	0.162915
1494	0.040458
1506	0.0241173
1518	0.0311064
1530	0.0270704
1542	0.0170298
1554	0.0758957
1566	0.149921
1578	0.0975521
1590	0.069891
1602	0.053944
1614	0.0271689
1626	0.0248064
1638	0.029433
1650	0.037308
1662	0.0369142
1674	0.0337642
1686	0.020672
1698	0.0207704
1710	0.0338627
1722	0.0465612
1734	0.0657566
1746	0.197664
1758	0.506168
1770	0.622522
1782	0.490418
1794	0.572811
1806	0.479885
1818	0.187524
1830	0.0525659
1842	0.0342564
1854	0.0233298
1866	0.0181126
1878	0.0164391
1890	0.0162423
1902	0.017522
1914	0.0149626
1926	0.015947
1938	0.0135844
1950	0.013486
1962	0.0125016
1974	0.0125016
1986	0.013486
1998	0.00945005
2010	0.0100407
2022	0.0100407
2034	0.0110251
2046	0.00915473
2058	0.0110251
2070	0.0106313
2082	0.0104344
2094	0.0129938
2106	0.011911
2118	0.0123047
2130	0.0077766
2142	0.00925317
2154	0.00748129
2166	0.00659535
2178	0.0069891
2190	0.00620159
2202	0.00885942
2214	0.00472502
2226	0.00580784
2238	0.0057094
2250	0.00689066
2262	0.00600472
2274	0.00344533
2286	0.00452815
2298	0.00275626
2310	0.0049219
2322	0.00295314
2334	0.00748129
2346	0.00364221
2358	0.00236251
2370	0.00295314
2382	0.00246095
2394	0.0090563
2406	0.0077766
2418	0.00895786
2430	0.00541409
2442	0.00521721
2454	0.00649691
2466	0.00630003
2478	0.00895786
2490	0.00511878
2502	0.00649691
2514	0.00511878
2526	0.00630003
2538	0.00659535
2550	0.00876098
2562	0.00738285
2574	0.00423283
2586	0.00649691
2598	0.00462659
2610	0.00541409
2622	0.00748129
2634	0.00669378
2646	0.00915473
2658	0.00511878
2670	0.00689066
2682	0.00472502
2694	0.0101391
2706	0.00738285
2718	0.0123047
2730	0.0109266
2742	0.00738285
2754	0.00797348
2766	0.00610316
2778	0.00836723
2790	0.00748129
2802	0.00964692
2814	0.0102376
2826	0.00876098
2838	0.00885942
2850	0.00708754
2862	0.00954849
2874	0.00580784
2886	0.00836723
2898	0.00649691
2910	0.00620159
2922	0.00689066
2934	0.00452815
2946	0.00826879
2958	0.00600472
2970	0.00630003
2982	0.00728441
2994	0.00866254
3006	0.00787504
3018	0.00728441
3030	0.00866254
3042	0.00787504
3054	0.0107297
3066	0.00600472
3078	0.00807192
3090	0.00679222
3102	0.00846567
3114	0.00630003
3126	0.00836723
3138	0.011911
3150	0.0118126
3162	0.0121079
3174	0.00748129
3186	0.00679222
3198	0.00767816
3210	0.00679222
3222	0.0077766
3234	0.0069891
3246	0.00767816
3258	0.00846567
3270	0.00935161
3282	0.00787504
3294	0.00630003
3306	0.00669378
3318	0.00748129
3330	0.0117141
3342	0.00836723
3354	0.0100407
3366	0.00915473
3378	0.0077766
3390	0.00728441
3402	0.00797348
3414	0.00836723
3426	0.00846567
3438	0.0090563
3450	0.00876098
3462	0.00738285
3474	0.00757973
3486	0.00708754
3498	0.0120094
3510	0.0124032
3522	0.0108282
3534	0.011911
3546	0.013486
3558	0.0133876
3570	0.0104344
3582	0.023822
3594	0.0225423
3606	0.0109266
3618	0.00610316
3630	0.0041344
3642	0.0077766
3654	0.00393752
3666	0.00885942
3678	0.00482346
3690	0.00748129
3702	0.00866254
3714	0.00620159
3726	0.0105329
3738	0.00836723
3750	0.00649691
3762	0.00915473
3774	0.0128954
3786	0.0128954
3798	0.0126001
3810	0.0124032
3822	0.0114188
3834	0.0140766
3846	0.0147657
3858	0.0115172
3870	0.0149626
3882	0.018211
3894	0.0170298
3906	0.0195892
3918	0.0202782
3930	0.0223454
3942	0.0229361
3954	0
3966	0.00187032
