Infrared Spectrum: 2,5-Cyclohexadiene-1,4-dione, 2,6-dimethyl-
Formula: C 8 H 8 O 2
CAS: 527-61-7
Origin: Sadtler Research Labs Under US-EPA Contract
1/CM	ABSORBANCE
450	0.0184725
462	0.0215847
474	0.0109429
486	0.0067264
498	0.00642522
510	0.00522049
522	0.00291143
534	0.0034134
546	0.000702758
558	0.00562206
570	0.00471852
582	0.00301182
594	0.00180709
606	0.00281103
618	0.00190749
630	0.00612403
642	0.0114449
654	0.00692719
666	0.00301182
678	0.00190749
690	0.000401576
702	0.00381497
714	0.00491931
726	0.00411615
738	0.00532088
750	0.00481891
762	0.00863388
774	0.0114449
786	0.0167658
798	0.016565
810	0.0103406
822	0.00803152
834	0.0083327
846	0.0105414
858	0.0144567
870	0.0125492
882	0.0155611
894	0.0441734
906	0.103105
918	0.176191
930	0.120372
942	0.0512009
954	0.0120473
966	0.0084331
978	0.00943704
990	0.00963782
1002	0.0134528
1014	0.0318249
1026	0.0470848
1038	0.0348367
1050	0.0199784
1062	0.013754
1074	0.0112441
1086	0.0112441
1098	0.0105414
1110	0.0083327
1122	0.00622443
1134	0.00612403
1146	0.0084331
1158	0.0204804
1170	0.067264
1182	0.0926637
1194	0.0736892
1206	0.0349371
1218	0.0175689
1230	0.0151595
1242	0.0197776
1254	0.044073
1266	0.131416
1278	0.239139
1290	0.191953
1302	0.155008
1314	0.158221
1326	0.0687699
1338	0.0383505
1350	0.0346359
1362	0.0431694
1374	0.0630474
1386	0.0678663
1398	0.0352383
1410	0.0178701
1422	0.0347363
1434	0.0631478
1446	0.0556183
1458	0.0385513
1470	0.0211831
1482	0.0185729
1494	0.0153603
1506	0.0148583
1518	0.0126496
1530	0.01275
1542	0.0181713
1554	0.0182717
1566	0.0185729
1578	0.0195768
1590	0.0267048
1602	0.0617423
1614	0.127099
1626	0.120975
1638	0.0926637
1650	0.238034
1662	0.801144
1674	0.986271
1686	0.275381
1698	0.0657581
1710	0.0379489
1722	0.033632
1734	0.0450769
1746	0.0443741
1758	0.029315
1770	0.023693
1782	0.0180709
1794	0.0146575
1806	0.00793113
1818	0.00642522
1830	0.006626
1842	0.00451773
1854	0.00250985
1866	0.00311221
1878	0.00150591
1890	0.00240946
1902	0.00180709
1914	0.00250985
1926	0.00200788
1938	0.00140552
1950	0.0017067
1962	0.00120473
1974	0.000803152
1986	0.000602364
1998	0.000602364
2010	0.000401576
2022	0.000803152
2034	0.000702758
2046	0.00140552
2058	0.00140552
2070	0.00180709
2082	0.00210827
2094	0.00190749
2106	0.00180709
2118	0.0017067
2130	0.0017067
2142	0.0017067
2154	0.00190749
2166	0.00220867
2178	0.00210827
2190	0.00140552
2202	0.00140552
2214	0.00200788
2226	0.00210827
2238	0.0017067
2250	0.00140552
2262	0.00110433
2274	0.000903546
2286	0.00110433
2298	0.0016063
2310	0.00240946
2322	0.0016063
2334	0
2346	0.000301182
2358	0
2370	0
2382	0.00180709
2394	0.0017067
2406	0.0016063
2418	0.00150591
2430	0.00050197
2442	0.000602364
2454	0.000803152
2466	0.00120473
2478	0.00130512
2490	0.00120473
2502	0.000903546
2514	0.000903546
2526	0.000903546
2538	0.00110433
2550	0.00230906
2562	0.00281103
2574	0.00220867
2586	0.00150591
2598	0.000602364
2610	0.000200788
2622	0.000301182
2634	0
2646	0.000401576
2658	0.000803152
2670	0.00050197
2682	0.000903546
2694	0.000803152
2706	0.000702758
2718	0.000401576
2730	0.000702758
2742	0.00110433
2754	0.0016063
2766	0.00110433
2778	0.00140552
2790	0.0017067
2802	0.00271064
2814	0.00361418
2826	0.00401576
2838	0.00481891
2850	0.0101398
2862	0.0147579
2874	0.0154607
2886	0.0144567
2898	0.0125492
2910	0.0140552
2922	0.0256005
2934	0.0646537
2946	0.0591321
2958	0.0284115
2970	0.0415631
2982	0.0413623
2994	0.0439726
3006	0.0316241
3018	0.0177697
3030	0.0182717
3042	0.0304194
3054	0.029315
3066	0.01275
3078	0.00742916
3090	0.00622443
3102	0.00481891
3114	0.00351379
3126	0.00261024
3138	0.00130512
3150	0.000803152
3162	0.00100394
3174	0.000401576
3186	0.000602364
3198	0.000301182
3210	0.000803152
3222	0.00120473
3234	0.00140552
3246	0.00240946
3258	0.00291143
3270	0.00421655
3282	0.0102402
3294	0.0197776
3306	0.0185729
3318	0.0113445
3330	0.0119469
3342	0.00803152
3354	0.00220867
3366	0.0017067
3378	0.00120473
3390	0.0016063
3402	0.0016063
3414	0.00140552
3426	0.00130512
3438	0.000803152
3450	0.000803152
3462	0.000702758
3474	0.000702758
3486	0.000903546
3498	0.000401576
3510	0.000903546
3522	0.00100394
3534	0.00050197
3546	0.000803152
3558	0.00140552
3570	0.00110433
3582	0.000903546
3594	0.00130512
3606	0.000903546
3618	0.000803152
3630	0.00120473
3642	0.00250985
3654	0.00592325
3666	0.00391537
3678	0.00150591
3690	0.0016063
3702	0.000702758
3714	0.0016063
3726	0.000602364
3738	0.00180709
3750	0
3762	0.000903546
3774	0.00110433
3786	0.00140552
3798	0.000602364
3810	0.00140552
3822	0.000702758
3834	0.000702758
3846	0.00110433
3858	0.00100394
3870	0.00050197
3882	0
3894	0.00150591
3906	0.00190749
3918	0.000903546
3930	0.00150591
3942	0
3954	0.00130512
3966	0.00230906
