Infrared Spectrum: Benzene, 1,2,3,5-tetramethyl-
Formula: C 10 H 14
CAS: 527-53-7
Origin: Sadtler Research Labs Under US-EPA Contract
1/CM	ABSORBANCE
450	0
462	0.0123958
474	0.010663
486	0.0116627
498	0.0125957
510	0.013662
522	0.0156613
534	0.0267909
546	0.0534485
558	0.0283237
570	0.0137287
582	0.012729
594	0.0149283
606	0.0125957
618	0.0118626
630	0.0123958
642	0.0121292
654	0.0125957
666	0.0126624
678	0.0143285
690	0.0222591
702	0.0419857
714	0.0304563
726	0.0171942
738	0.013862
750	0.0125957
762	0.0123958
774	0.0131289
786	0.0140619
798	0.0157946
810	0.0192601
822	0.0205264
834	0.0671772
846	0.190868
858	0.103565
870	0.0376539
882	0.0227922
894	0.0187936
906	0.0181272
918	0.0188603
930	0.0178606
942	0.0171942
954	0.0191268
966	0.0237253
978	0.0334553
990	0.0459844
1002	0.0667106
1014	0.071509
1026	0.0475172
1038	0.0357878
1050	0.0317225
1062	0.0297232
1074	0.0351214
1086	0.0316559
1098	0.0212594
1110	0.0181938
1122	0.0186603
1134	0.0235253
1146	0.026591
1158	0.0197933
1170	0.0182605
1182	0.018527
1194	0.0218592
1206	0.0326556
1218	0.0317892
1230	0.018527
1242	0.018727
1254	0.0190602
1266	0.0181272
1278	0.0184604
1290	0.0195267
1302	0.0201265
1314	0.0219925
1326	0.0250581
1338	0.0277905
1350	0.0291234
1362	0.0321224
1374	0.0485168
1386	0.0749079
1398	0.0579803
1410	0.0472506
1422	0.0603128
1434	0.0865706
1446	0.132622
1458	0.165944
1470	0.17494
1482	0.223924
1494	0.201332
1506	0.12609
1518	0.0959007
1530	0.0702428
1542	0.0640449
1554	0.0713757
1566	0.0781734
1578	0.0822387
1590	0.0771071
1602	0.0792397
1614	0.105897
1626	0.0626454
1638	0.0227922
1650	0.0177939
1662	0.0157946
1674	0.0149283
1686	0.0152615
1698	0.0176607
1710	0.0277905
1722	0.0345882
1734	0.0251914
1746	0.0223924
1758	0.0193268
1770	0.0139952
1782	0.0124624
1794	0.0121959
1806	0.0119293
1818	0.011796
1830	0.0115294
1842	0.0116627
1854	0.0118626
1866	0.0133288
1878	0.015728
1890	0.0162611
1902	0.013862
1914	0.0129289
1926	0.0128623
1938	0.0118626
1950	0.0121292
1962	0.0114628
1974	0.010863
1986	0.0105298
1998	0.0103298
2010	0.0102632
2022	0.010663
2034	0.0107297
2046	0.0103965
2058	0.0102632
2070	0.0103965
2082	0.0101965
2094	0.010663
2106	0.0112628
2118	0.0109296
2130	0.0105298
2142	0.0103965
2154	0.0102632
2166	0.0105298
2178	0.010863
2190	0.0107297
2202	0.0100632
2214	0.0101299
2226	0.00992996
2238	0.0101965
2250	0.0101965
2262	0.010663
2274	0.0105964
2286	0.0102632
2298	0.00986331
2310	0.00979667
2322	0.00973002
2334	0.0115961
2346	0.0131955
2358	0.011796
2370	0.0127956
2382	0.0120626
2394	0.0125291
2406	0.0131289
2418	0.0130622
2430	0.0133288
2442	0.0129956
2454	0.0137287
2466	0.0137953
2478	0.0139286
2490	0.0132622
2502	0.0125291
2514	0.0123291
2526	0.0120626
2538	0.0115961
2550	0.0109963
2562	0.0105298
2574	0.0105964
2586	0.010663
2598	0.0109296
2610	0.010663
2622	0.010663
2634	0.0110629
2646	0.0115294
2658	0.0119959
2670	0.012729
2682	0.0130622
2694	0.013662
2706	0.0148616
2718	0.0172608
2730	0.0287902
2742	0.0419857
2754	0.0297899
2766	0.0247249
2778	0.024525
2790	0.0246583
2802	0.0279905
2814	0.0347215
2826	0.0453179
2838	0.0633118
2850	0.103298
2862	0.207996
2874	0.347615
2886	0.329755
2898	0.275706
2910	0.331687
2922	0.528154
2934	0.66644
2946	0.513159
2958	0.376805
2970	0.331221
2982	0.323557
2994	0.289968
3006	0.353213
3018	0.351347
3030	0.25378
3042	0.191268
3054	0.147417
3066	0.0992329
3078	0.0708426
3090	0.0533152
3102	0.0423189
3114	0.0341217
3126	0.0273907
3138	0.0221925
3150	0.0184604
3162	0.0163278
3174	0.0146617
3186	0.0131955
3198	0.0119293
3210	0.0116627
3222	0.0109963
3234	0.0111962
3246	0.0105964
3258	0.010663
3270	0.0117293
3282	0.010863
3294	0.0103965
3306	0.0102632
3318	0.010663
3330	0.0111962
3342	0.0105964
3354	0.010663
3366	0.010863
3378	0.010863
3390	0.0103298
3402	0.0103298
3414	0.010863
3426	0.010663
3438	0.0109963
3450	0.0105298
3462	0.0110629
3474	0.0111295
3486	0.010863
3498	0.0112628
3510	0.0115961
3522	0.010663
3534	0.0107297
3546	0.0109296
3558	0.0105964
3570	0.0109296
3582	0.0111295
3594	0.0103965
3606	0.0100632
3618	0.0104631
3630	0.010663
3642	0.0103965
3654	0.010663
3666	0.010863
3678	0.0105298
3690	0.00953009
3702	0.010863
3714	0.010663
3726	0.010663
3738	0.010863
3750	0.0110629
3762	0.0100632
3774	0.00986331
3786	0.00986331
3798	0.00966338
3810	0.0105298
3822	0.00979667
3834	0.00959674
3846	0.010863
3858	0.0121292
3870	0.0119293
3882	0.0113961
3894	0.0112628
3906	0.0129956
3918	0.0126624
3930	0.0125957
3942	0.0109296
3954	0.0129289
3966	0.0123291
