Infrared Spectrum: Thiophene, 2,3-dihydro-3,3,4-trichloro-, 1,1-dioxide
Formula: C 4 H 3 Cl 3 O 2 S
CAS: 52819-09-7
Origin: Sadtler Research Labs Under US-EPA Contract
1/CM	ABSORBANCE
450	0.022941
462	0.0177945
474	0.0164861
486	0.051639
498	0.111826
510	0.0908916
522	0.252176
534	0.289248
546	0.0894087
558	0.0293086
570	0.016835
582	0.00959508
594	0.0140437
606	0.0185796
618	0.0230282
630	0.0380314
642	0.0144798
654	0.0161372
666	0.0120375
678	0.0151777
690	0.0131714
702	0.0341061
714	0.103365
726	0.242232
738	0.179864
750	0.055477
762	0.0220687
774	0.035589
786	0.0687357
798	0.195216
810	0.152823
822	0.0555642
834	0.0314021
846	0.0192774
858	0.0288725
870	0.0858324
882	0.148724
894	0.158668
906	0.254967
918	0.401162
930	0.100661
942	0.0361124
954	0.0558259
966	0.0635892
978	0.0552153
990	0.191291
1002	0.240837
1014	0.0410844
1026	0.0209347
1038	0.0271279
1050	0.0529474
1062	0.0232899
1074	0.0308787
1086	0.0390781
1098	0.0289597
1110	0.0307915
1122	0.0419567
1134	0.0771096
1146	0.182132
1158	0.433872
1170	0.403778
1182	0.101621
1194	0.0845239
1206	0.069259
1218	0.0381186
1230	0.0440501
1242	0.152213
1254	0.654995
1266	0.38075
1278	0.0410844
1290	0.0266045
1302	0.0264301
1314	0.0625425
1326	0.150992
1338	0.287067
1350	0.466931
1362	0.836953
1374	0.617923
1386	0.202892
1398	0.0703058
1410	0.0670783
1422	0.0303553
1434	0.00994399
1446	0.0081122
1458	0.0121247
1470	0.012997
1482	0.00558259
1494	0.00558259
1506	0.004972
1518	0.00889726
1530	0.0162244
1542	0.032885
1554	0.0443118
1566	0.0529474
1578	0.0735332
1590	0.177422
1602	0.208737
1614	0.0871408
1626	0.0437885
1638	0.0191902
1650	0.0112524
1662	0.00628042
1674	0.00514645
1686	0.0037508
1698	0.00505922
1710	0.00628042
1722	0.004972
1734	0.00479754
1746	0.00881003
1758	0.0152649
1770	0.0145671
1782	0.00976954
1794	0.0100312
1806	0.00566982
1818	0.00418694
1830	0.0021807
1842	0.000785052
1854	0
1866	0.000959508
1878	0.00148288
1890	0.00209347
1902	0.0015701
1914	0.00122119
1926	0.00139565
1938	0.0015701
1950	0.00087228
1962	0.000610596
1974	0.0015701
1986	0.00226793
1998	0.0015701
2010	0.0015701
2022	0.00139565
2034	0.000697824
2046	0.00087228
2058	0.00226793
2070	0.00392526
2082	0.00427417
2094	0.0043614
2106	0.00471031
2118	0.004972
2130	0.0043614
2142	0.0021807
2154	0.00340189
2166	0.00540814
2178	0.00671656
2190	0.00601873
2202	0.00505922
2214	0.0037508
2226	0.0021807
2238	0.00235516
2250	0.0027913
2262	0.00244238
2274	0.00296575
2286	0.00427417
2298	0.00584428
2310	0.00732715
2322	0.00793775
2334	0.00401249
2346	0.00462308
2358	0.00322744
2370	0.00305298
2382	0.00357635
2394	0.00122119
2406	0.00183179
2418	0.00270407
2430	0.00261684
2442	0.0027913
2454	0.00383803
2466	0.00401249
2478	0.00558259
2490	0.00610596
2502	0.00619319
2514	0.0111652
2526	0.00645487
2538	0.00139565
2550	0.0015701
2562	0.0015701
2574	0.00165733
2586	0.00087228
2598	0.00183179
2610	0.00174456
2622	0.00183179
2634	0.000610596
2646	8.7228e-05
2658	0.00174456
2670	0.00183179
2682	0.00165733
2694	0.000959508
2706	0.00444863
2718	0.00305298
2730	0.00453586
2742	0.00139565
2754	0.00662933
2766	0.00139565
2778	0.00610596
2790	0.00174456
2802	0.00532091
2814	0.00270407
2826	0.00235516
2838	0.00165733
2850	0.00139565
2862	0.00314021
2874	0.00148288
2886	0.000785052
2898	0.00104674
2910	0.00270407
2922	0.00357635
2934	0.000697824
2946	0.00706547
2958	0.00296575
2970	0.00462308
2982	0.0108163
2994	0.00558259
3006	0.00261684
3018	0.00479754
3030	0.0115141
3042	0.0102057
3054	0.00296575
3066	0.00453586
3078	0.0106418
3090	0.0247728
3102	0.0488477
3114	0.0278257
3126	0.012997
3138	0.010729
3150	0.00575705
3162	0.00462308
3174	0.00558259
3186	0.00479754
3198	0.00244238
3210	0.00104674
3222	0.00139565
3234	0.00130842
3246	0.0015701
3258	0.00104674
3270	0.00104674
3282	0.00183179
3294	0.00148288
3306	0.00270407
3318	0.00514645
3330	0.00392526
3342	0.00244238
3354	0.00287852
3366	0.00209347
3378	0.00252961
3390	0.00191902
3402	0.00261684
3414	0.00322744
3426	0.00261684
3438	0.00305298
3450	0.00305298
3462	0.00357635
3474	0.00322744
3486	0.00340189
3498	0.00305298
3510	0.00348912
3522	0.00322744
3534	0.00314021
3546	0.00401249
3558	0.00392526
3570	0.004972
3582	0.00523368
3594	0.00723992
3606	0.00287852
3618	0.0027913
3630	0.00444863
3642	0.00331466
3654	0.00619319
3666	0.00392526
3678	0.00409972
3690	0.00523368
3702	0.00549536
3714	0.00645487
3726	0.00619319
3738	0.00671656
3750	0.00915894
3762	0.00418694
3774	0.00549536
3786	0.00340189
3798	0.00723992
3810	0.00148288
3822	0.00610596
3834	0.00819943
3846	0.00828666
3858	0.00628042
3870	0.00558259
3882	0.00671656
3894	0.00785052
3906	0.00619319
3918	0.00636764
3930	0.00314021
3942	0.00532091
3954	0.00793775
3966	0.00706547
