Infrared Spectrum: Cyclopentanemethanol, .alpha.-methyl-
Formula: C 7 H 14 O
CAS: 52829-98-8
Origin: Sadtler Research Labs Under US-EPA Contract
1/CM	ABSORBANCE
450	0.027361
462	0.0233324
474	0.0290396
486	0.0399504
498	0.0282003
510	0.0189681
522	0.0122537
534	0.0102394
546	0.00788937
558	0.00990368
570	0.0120858
582	0.0114144
594	0.0129251
606	0.0156109
618	0.0120858
630	0.0110787
642	0.00788937
654	0.00537149
666	0.00352504
678	0.00436433
690	0.00386076
702	0.00470005
714	0.00402862
726	0.00386076
738	0.00251789
750	0.00201431
762	0.00436433
774	0.00402862
786	0.00503577
798	0.00772151
810	0.00856081
822	0.0132609
834	0.0169538
846	0.021486
858	0.0268574
870	0.0612685
882	0.124384
894	0.120019
906	0.0600935
918	0.0483434
930	0.0644579
942	0.0896367
954	0.111794
966	0.107262
978	0.0753687
990	0.0518684
1002	0.0575756
1014	0.0887974
1026	0.148052
1038	0.205795
1050	0.233995
1062	0.226442
1074	0.200759
1086	0.193038
1098	0.212845
1110	0.254139
1122	0.241717
1134	0.16148
1146	0.110787
1158	0.110116
1170	0.113976
1182	0.0965189
1194	0.0822509
1206	0.0815795
1218	0.10038
1230	0.151912
1242	0.202774
1254	0.179609
1266	0.122369
1278	0.0946725
1290	0.0812438
1302	0.0780544
1314	0.0775509
1326	0.0857759
1338	0.0901403
1350	0.0960153
1362	0.133951
1374	0.222413
1386	0.25481
1398	0.168363
1410	0.0879581
1422	0.0580792
1434	0.0647936
1446	0.103065
1458	0.129251
1470	0.102394
1482	0.0595899
1494	0.0322289
1506	0.0174573
1518	0.00956796
1530	0.00721794
1542	0.00570721
1554	0.00436433
1566	0.00318932
1578	0.00302146
1590	0.00201431
1602	0.00218217
1614	0.00184645
1626	0.00151073
1638	0.00151073
1650	0.00167859
1662	0.00134287
1674	0.00235003
1686	0.00302146
1698	0.00570721
1710	0.0100715
1722	0.0189681
1734	0.0203109
1746	0.014268
1758	0.0129251
1770	0.00973582
1782	0.00537149
1794	0.00235003
1806	0.00201431
1818	0.00151073
1830	0.000335718
1842	0.000839295
1854	0.000671436
1866	0.000167859
1878	0.000335718
1890	0.000167859
1902	0.000335718
1914	0.000671436
1926	0.00151073
1938	0.00134287
1950	0.000839295
1962	0.000335718
1974	0.000335718
1986	0.000167859
1998	0.000503577
2010	0.000335718
2022	0.000503577
2034	0.000503577
2046	0.000671436
2058	0.000671436
2070	0.000671436
2082	0.000503577
2094	0.000335718
2106	0.000503577
2118	0.000839295
2130	0.000671436
2142	0.00117501
2154	0.00134287
2166	0.00184645
2178	0.00201431
2190	0.00251789
2202	0.0028536
2214	0.00251789
2226	0.00268574
2238	0.00268574
2250	0.00302146
2262	0.00235003
2274	0.00218217
2286	0.00201431
2298	0.00352504
2310	0.00386076
2322	0.00386076
2334	0.00453219
2346	0.00553935
2358	0.00587506
2370	0.00486791
2382	0.00520363
2394	0.00436433
2406	0.00436433
2418	0.00402862
2430	0.00251789
2442	0.00151073
2454	0.00134287
2466	0.00218217
2478	0.00235003
2490	0.00235003
2502	0.00201431
2514	0.00184645
2526	0.00235003
2538	0.00251789
2550	0.00335718
2562	0.00470005
2574	0.0065465
2586	0.00822509
2598	0.00990368
2610	0.0117501
2622	0.0141002
2634	0.0149395
2646	0.0151073
2658	0.0146037
2670	0.0146037
2682	0.0141002
2694	0.0134287
2706	0.0139323
2718	0.0156109
2730	0.0174573
2742	0.0189681
2754	0.0204788
2766	0.0229967
2778	0.0263539
2790	0.0298789
2802	0.0355861
2814	0.0470005
2826	0.0668079
2838	0.107094
2850	0.197402
2862	0.400847
2874	0.719612
2886	0.782894
2898	0.593382
2910	0.542688
2922	0.615371
2934	0.727669
2946	1.02696
2958	1.50502
2970	1.5255
2982	0.998929
2994	0.420151
3006	0.138484
3018	0.0696615
3030	0.0436433
3042	0.0302146
3054	0.022661
3066	0.0179609
3078	0.0149395
3090	0.0120858
3102	0.00973582
3114	0.00839295
3126	0.00772151
3138	0.00671436
3150	0.00721794
3162	0.00705008
3174	0.00788937
3186	0.00788937
3198	0.00772151
3210	0.00721794
3222	0.00553935
3234	0.0036929
3246	0.00218217
3258	0.00184645
3270	0.00134287
3282	0.00151073
3294	0.00151073
3306	0.00167859
3318	0.00268574
3330	0.00335718
3342	0.0028536
3354	0.00302146
3366	0.00251789
3378	0.00335718
3390	0.00436433
3402	0.00503577
3414	0.00553935
3426	0.00671436
3438	0.0073858
3450	0.00721794
3462	0.00889653
3474	0.00856081
3486	0.00755365
3498	0.00705008
3510	0.0065465
3522	0.00604292
3534	0.00621078
3546	0.00587506
3558	0.00671436
3570	0.00621078
3582	0.00553935
3594	0.0065465
3606	0.00788937
3618	0.0125894
3630	0.0292075
3642	0.0621078
3654	0.109948
3666	0.0961832
3678	0.0327325
3690	0.0134287
3702	0.00872867
3714	0.00906439
3726	0.0073858
3738	0.00688222
3750	0.00788937
3762	0.0065465
3774	0.00839295
3786	0.00923225
3798	0.00990368
3810	0.0114144
3822	0.0115823
3834	0.0110787
3846	0.010743
3858	0.011918
3870	0.0102394
3882	0.00973582
3894	0.00889653
3906	0.00923225
3918	0.00923225
3930	0.00839295
3942	0.00856081
3954	0.00721794
3966	0.0073858
