Infrared Spectrum: Pyridine, 3-ethyl-4-methyl-
Formula: C 8 H 11 N
CAS: 529-21-5
Origin: Sadtler Research Labs Under US-EPA Contract
1/CM	ABSORBANCE
450	0.0463699
462	0.0185031
474	0.00302778
486	0.00941976
498	0.0283153
510	0.0241662
522	0.0102608
534	0.00426132
546	0.00499023
558	0.0172696
570	0.011214
582	0.00414918
594	0.00527058
606	0.0089712
618	0.00700875
630	0.0033642
642	0.00246708
654	0.0022428
666	0.00156996
678	0.00207459
690	0.00364455
702	0.00599949
714	0.0148585
726	0.0313431
738	0.0557896
750	0.0577521
762	0.0295489
774	0.0192881
786	0.0311188
798	0.0324085
810	0.0803483
822	0.208244
834	0.137428
846	0.0467624
858	0.0111579
870	0.00667233
882	0.00370062
894	0.00487809
906	0.00599949
918	0.0114383
930	0.0139054
942	0.0158117
954	0.0342588
966	0.0462578
978	0.0290443
990	0.0218673
1002	0.0143539
1014	0.0113261
1026	0.0185031
1038	0.0246708
1050	0.0389687
1062	0.0548925
1074	0.0442392
1086	0.0245026
1098	0.0111579
1110	0.00751338
1122	0.00801801
1134	0.00790587
1146	0.0100926
1158	0.0116626
1170	0.0122793
1182	0.0308946
1194	0.0509676
1206	0.0386883
1218	0.0369501
1230	0.0301096
1242	0.0146903
1254	0.0137372
1266	0.0145782
1278	0.0123354
1290	0.0144661
1302	0.0192881
1314	0.0230448
1326	0.0211384
1338	0.0205216
1350	0.0177742
1362	0.0209702
1374	0.0363894
1386	0.05764
1398	0.0834322
1410	0.138381
1422	0.122345
1434	0.0954311
1446	0.10872
1458	0.144548
1470	0.153015
1482	0.116289
1494	0.10429
1506	0.0672279
1518	0.0282593
1530	0.0278107
1542	0.0321842
1554	0.0605556
1566	0.0894877
1578	0.136643
1590	0.253773
1602	0.229495
1614	0.0913941
1626	0.0302778
1638	0.0206898
1650	0.0187274
1662	0.0163164
1674	0.0095319
1686	0.00515844
1698	0.00835443
1710	0.0144661
1722	0.0148025
1734	0.0146343
1746	0.0100365
1758	0.00852264
1770	0.0089712
1782	0.0105972
1794	0.0105412
1806	0.00684054
1818	0.00398097
1830	0.00420525
1842	0.00543879
1854	0.0050463
1866	0.00442953
1878	0.00779373
1890	0.0109897
1902	0.00689661
1914	0.00622377
1926	0.0123354
1938	0.0108215
1950	0.00358848
1962	0.00269136
1974	0.00213066
1986	0.00100926
1998	0.00061677
2010	0.00100926
2022	0.0011214
2034	0.00123354
2046	0.00179424
2058	0.00162603
2070	0.00145782
2082	0.0005607
2094	0.00106533
2106	0.0011214
2118	0.0011214
2130	0.00162603
2142	0.00196245
2154	0.00207459
2166	0.00252315
2178	0.00263529
2190	0.00257922
2202	0.00291564
2214	0.00330813
2226	0.00297171
2238	0.00313992
2250	0.00297171
2262	0.00291564
2274	0.00353241
2286	0.00358848
2298	0.00291564
2310	0.00106533
2322	0.0005607
2334	0.00123354
2346	0.00319599
2358	0.0005607
2370	0.00555093
2382	0.00599949
2394	0.00437346
2406	0.0044856
2418	0.00515844
2430	0.00622377
2442	0.00667233
2454	0.00678447
2466	0.00661626
2478	0.00543879
2490	0.00476595
2502	0.0039249
2514	0.0033642
2526	0.0033642
2538	0.0039249
2550	0.00347634
2562	0.00313992
2574	0.00302778
2586	0.00381276
2598	0.00431739
2610	0.00532665
2622	0.00583128
2634	0.00611163
2646	0.00627984
2658	0.0061677
2670	0.00599949
2682	0.00627984
2694	0.00627984
2706	0.00644805
2718	0.0072891
2730	0.0102047
2742	0.0132325
2754	0.0123915
2766	0.0111579
2778	0.0125036
2790	0.0148025
2802	0.0157557
2814	0.0174938
2826	0.0218112
2838	0.0300535
2850	0.0465381
2862	0.0813015
2874	0.148529
2886	0.221476
2898	0.192152
2910	0.161482
2922	0.18548
2934	0.274855
2946	0.355203
2958	0.321954
2970	0.485678
2982	0.547748
2994	0.265267
3006	0.190133
3018	0.192152
3030	0.181835
3042	0.169668
3054	0.216823
3066	0.195348
3078	0.106028
3090	0.064873
3102	0.0459774
3114	0.0278107
3126	0.0183349
3138	0.0151389
3150	0.0139614
3162	0.0131204
3174	0.012055
3186	0.0100926
3198	0.00779373
3210	0.00695268
3222	0.00633591
3234	0.00639198
3246	0.00639198
3258	0.00583128
3270	0.00695268
3282	0.00689661
3294	0.00734517
3306	0.00695268
3318	0.00706482
3330	0.00756945
3342	0.0078498
3354	0.00740124
3366	0.00745731
3378	0.00644805
3390	0.00751338
3402	0.00796194
3414	0.00779373
3426	0.00852264
3438	0.00762552
3450	0.00678447
3462	0.00768159
3474	0.00773766
3486	0.00818622
3498	0.00762552
3510	0.0072891
3522	0.00717696
3534	0.00661626
3546	0.00667233
3558	0.00745731
3570	0.00835443
3582	0.00796194
3594	0.00656019
3606	0.00656019
3618	0.00510237
3630	0.00386883
3642	0.00678447
3654	0.00695268
3666	0.00566307
3678	0.00358848
3690	0.0050463
3702	0.00644805
3714	0.00532665
3726	0.0061677
3738	0.00555093
3750	0.005607
3762	0.00650412
3774	0.00745731
3786	0.00813015
3798	0.00353241
3810	0.00807408
3822	0.00487809
3834	0.00515844
3846	0.00790587
3858	0.00930762
3870	0.00599949
3882	0.00835443
3894	0.00667233
3906	0.00813015
3918	0.00779373
3930	0.00650412
3942	0.0101487
3954	0.00891513
3966	0.00790587
