Infrared Spectrum: 1-Naphthalenol, 1,2,3,4-tetrahydro-
Formula: C 10 H 12 O
CAS: 529-33-9
Origin: Sadtler Research Labs Under US-EPA Contract
1/CM	ABSORBANCE
450	0.00659944
462	0.0148324
474	0.0300569
486	0.0223466
498	0.0127415
510	0.0128722
522	0.0178381
534	0.0187529
546	0.0187529
558	0.00960513
570	0.0116307
582	0.0218892
594	0.0215625
606	0.0182301
618	0.0133296
630	0.00777558
642	0.00751421
654	0.0109773
666	0.00503126
678	0
690	0.00633808
702	0.00921308
714	0.0207131
726	0.126958
738	0.330037
750	0.160674
762	0.113889
774	0.126173
786	0.039466
798	0.0249603
810	0.0284887
822	0.0169887
834	0.0236534
846	0.0390086
858	0.0307103
870	0.0288807
882	0.0374404
894	0.0292728
906	0.0439092
918	0.0462614
930	0.0303836
942	0.0394006
954	0.0755995
966	0.150219
978	0.0862501
990	0.0816109
1002	0.122057
1014	0.0752728
1026	0.113824
1038	0.191057
1050	0.141594
1062	0.141529
1074	0.170344
1086	0.105526
1098	0.0496592
1110	0.0418182
1122	0.0429944
1134	0.0297302
1146	0.0465881
1158	0.0782785
1170	0.0844206
1182	0.0837018
1194	0.0808922
1206	0.0836365
1218	0.0837672
1230	0.0774944
1242	0.0690654
1254	0.0751421
1266	0.085074
1278	0.0860541
1290	0.0588722
1302	0.0468495
1314	0.0505086
1326	0.0616819
1338	0.0816762
1350	0.112844
1362	0.109446
1374	0.138654
1386	0.121992
1398	0.0652757
1410	0.0397273
1422	0.0346961
1434	0.0625313
1446	0.115784
1458	0.125585
1470	0.0744234
1482	0.0742274
1494	0.112844
1506	0.0360029
1518	0.0118267
1530	0.00914774
1542	0.00882103
1554	0.0079716
1566	0.0107813
1578	0.0194716
1590	0.0241108
1602	0.0286194
1614	0.0231307
1626	0.0140483
1638	0.0105199
1650	0.0105852
1662	0.00731819
1674	0.0101932
1686	0.0113693
1698	0.0125455
1710	0.0142443
1722	0.0142443
1734	0.013983
1746	0.0128068
1758	0.0101932
1770	0.00869035
1782	0.00829831
1794	0.011696
1806	0.0150938
1818	0.0145057
1830	0.0126762
1842	0.0123494
1854	0.00947444
1866	0.0079716
1878	0.00921308
1890	0.0105199
1902	0.0112387
1914	0.0180995
1926	0.0173154
1938	0.0142443
1950	0.0179688
1962	0.0100625
1974	0.00738353
1986	0.00712217
1998	0.00712217
2010	0.00712217
2022	0.00659944
2034	0.00731819
2046	0.00751421
2058	0.00771024
2070	0.0079716
2082	0.00777558
2094	0.00712217
2106	0.00725285
2118	0.00712217
2130	0.00692615
2142	0.00725285
2154	0.00738353
2166	0.00771024
2178	0.00810228
2190	0.00810228
2202	0.00836365
2214	0.00855967
2226	0.00901706
2238	0.00927842
2250	0.00875569
2262	0.00862501
2274	0.00842899
2286	0.0068608
2298	0.00405114
2310	0.0014375
2322	0.000588069
2334	0.000588069
2346	0.000718751
2358	0.000588069
2370	0.000588069
2382	0.00516194
2394	0.0102585
2406	0.00973581
2418	0.0100625
2430	0.00967047
2442	0.00953979
2454	0.00973581
2466	0.00921308
2478	0.00901706
2490	0.0094091
2502	0.00947444
2514	0.0094091
2526	0.00934376
2538	0.00921308
2550	0.00927842
2562	0.00927842
2574	0.00980115
2586	0.0104546
2598	0.0109773
2610	0.0119574
2622	0.0117614
2634	0.0111733
2646	0.0115654
2658	0.0132642
2670	0.0152898
2682	0.0157472
2694	0.013787
2706	0.0126108
2718	0.0121534
2730	0.0125455
2742	0.0123494
2754	0.0131989
2766	0.0145057
2778	0.017054
2790	0.0190142
2802	0.0216932
2814	0.0244375
2826	0.0300569
2838	0.0619433
2850	0.13408
2862	0.169037
2874	0.202818
2886	0.21373
2898	0.209679
2910	0.213665
2922	0.308344
2934	0.417529
2946	0.60643
2958	0.56912
2970	0.133949
2982	0.0374404
2994	0.0286194
3006	0.0401194
3018	0.0973581
3030	0.149174
3042	0.104154
3054	0.099449
3066	0.133165
3078	0.160477
3090	0.0909547
3102	0.0294034
3114	0.0212358
3126	0.0120227
3138	0.00967047
3150	0.00960513
3162	0.0106506
3174	0.00914774
3186	0.00738353
3198	0.00718751
3210	0.00666478
3222	0.00646876
3234	0.00575001
3246	0.00516194
3258	0.00522728
3270	0.00496592
3282	0.00529262
3294	0.00522728
3306	0.00561933
3318	0.00581535
3330	0.00522728
3342	0.00503126
3354	0.00568467
3366	0.00607671
3378	0.00627274
3390	0.00633808
3402	0.0062074
3414	0.0062074
3426	0.00601137
3438	0.00529262
3450	0.00457387
3462	0.00516194
3474	0.00568467
3486	0.0054233
3498	0.00627274
3510	0.00548864
3522	0.00568467
3534	0.0054233
3546	0.00274432
3558	0.00470455
3570	0.00163352
3582	0.0039858
3594	0.00274432
3606	0.0054233
3618	0.0130029
3630	0.0354148
3642	0.0705029
3654	0.0578921
3666	0.0214318
3678	0.0054233
3690	0.00503126
3702	0.00280966
3714	0.00280966
3726	0.00196023
3738	0.0011108
3750	0.0050966
3762	0.00555398
3774	0.00503126
3786	0.00607671
3798	0.00568467
3810	0.00777558
3822	0.00503126
3834	0.00418182
3846	0.00555398
3858	0.00457387
3870	0.00385512
3882	0.00457387
3894	0.00300569
3906	0.0025483
3918	0.00267898
3930	0.00267898
3942	0.00248296
3954	0.00352841
3966	0.00346307
