Infrared Spectrum: Benzonitrile, 2-methyl-
Formula: C 8 H 7 N
CAS: 529-19-1
Origin: Sadtler Research Labs Under US-EPA Contract
1/CM	ABSORBANCE
450	0.152188
462	0.0579477
474	0.0259328
486	0.00601533
498	0.00140358
510	0.00240613
522	0.000735207
534	0.00554747
546	0.0264675
558	0.04839
570	0.0240613
582	0.0162414
594	0.00942402
606	0.00855514
618	0.00454492
630	0.00835462
642	0.00828779
654	0.00367603
666	0.00855514
678	0.00929034
690	0.0138353
702	0.0573461
714	0.140224
726	0.0786671
738	0.125921
750	0.306782
762	0.401757
774	0.167026
786	0.0199843
798	0.00761942
810	0.00715156
822	0.0111618
834	0.0128995
846	0.0108276
858	0.0084883
870	0.00735207
882	0.0131001
894	0.0097582
906	0.00701788
918	0.0114291
930	0.0216552
942	0.0233261
954	0.0167761
966	0.012298
978	0.00902299
990	0.00908983
1002	0.0107608
1014	0.0124317
1026	0.0137684
1038	0.0351563
1050	0.0386318
1062	0.0194496
1074	0.0101592
1086	0.0103597
1098	0.0266011
1110	0.0448476
1122	0.0346216
1134	0.012699
1146	0.0139689
1158	0.0280047
1170	0.0280715
1182	0.0154393
1194	0.0142363
1206	0.0240613
1218	0.0262001
1230	0.0131669
1242	0.0131669
1254	0.0179792
1266	0.0221899
1278	0.033619
1290	0.0354236
1302	0.0196501
1314	0.0161746
1326	0.017645
1338	0.0130332
1350	0.0120307
1362	0.0155062
1374	0.0179792
1386	0.0366267
1398	0.0414389
1410	0.0212542
1422	0.029542
1434	0.0467191
1446	0.075459
1458	0.108744
1470	0.107006
1482	0.15827
1494	0.172038
1506	0.0792687
1518	0.0415058
1530	0.026668
1542	0.0231256
1554	0.0178455
1566	0.0161077
1578	0.0212542
1590	0.0321486
1602	0.0515982
1614	0.052066
1626	0.0346216
1638	0.0138353
1650	0.00675054
1662	0.00401022
1674	0.0030745
1686	0.006149
1698	0.0133674
1710	0.0124317
1722	0.00634952
1734	0.00888932
1746	0.00621584
1758	0.00327501
1770	0.00407706
1782	0.0030745
1794	0.00815411
1806	0.0163082
1818	0.0146373
1830	0.00681737
1842	0.0108944
1854	0.00902299
1866	0.00260664
1878	0.00494594
1890	0.00929034
1902	0.00895616
1914	0.0137016
1926	0.0202516
1938	0.0133006
1950	0.0109613
1962	0.015974
1974	0.00802044
1986	0.00193827
1998	0.00100256
2010	0.0012699
2022	0.00120307
2034	0.00120307
2046	0.000802044
2058	0.000267348
2070	0.000200511
2082	0.00066837
2094	0.00113623
2106	0.00133674
2118	0.00100256
2130	0.000200511
2142	0
2154	0.000601533
2166	0.000601533
2178	0.0018046
2190	0.00247297
2202	0.00501277
2214	0.0182465
2226	0.0775309
2238	0.0894279
2250	0.0132337
2262	0.00274032
2274	0.00340869
2286	0.00287399
2298	0.00207195
2310	0.00227246
2322	0.0048791
2334	0.00474543
2346	0.000467859
2358	0.000401022
2370	0.000802044
2382	0.00213878
2394	0.00267348
2406	0.00274032
2418	0.00274032
2430	0.00294083
2442	0.00280715
2454	0.0018046
2466	0.0012699
2478	0.000868881
2490	0.00133674
2502	0.00167092
2514	0.00066837
2526	0.000334185
2538	0.000267348
2550	0.00066837
2562	0.00140358
2574	0.00187144
2586	0.0018046
2598	0.00260664
2610	0.00314134
2622	0.0018046
2634	0.0012699
2646	0.00120307
2658	0.000868881
2670	0.00207195
2682	0.00414389
2694	0.00421073
2706	0.00280715
2718	0.00267348
2730	0.00260664
2742	0.00394338
2754	0.00628268
2766	0.00768625
2778	0.00568114
2790	0.00454492
2802	0.00394338
2814	0.00421073
2826	0.00521329
2838	0.00708472
2850	0.0112955
2862	0.0219894
2874	0.0382308
2886	0.0428425
2898	0.0359583
2910	0.0357578
2922	0.0511303
2934	0.0869549
2946	0.0896284
2958	0.0602201
2970	0.0554079
2982	0.0552074
2994	0.0552074
3006	0.0479221
3018	0.051665
3030	0.0956437
3042	0.116096
3054	0.0923687
3066	0.112754
3078	0.162347
3090	0.1308
3102	0.0561431
3114	0.0321486
3126	0.0155062
3138	0.00868881
3150	0.00775309
3162	0.00695105
3174	0.00461175
3186	0.00294083
3198	0.00213878
3210	0.00187144
3222	0.00133674
3234	0.00133674
3246	0.000868881
3258	0.000868881
3270	0.00120307
3282	0.00140358
3294	0.00100256
3306	0.00160409
3318	0.00207195
3330	0.00193827
3342	0.00274032
3354	0.00207195
3366	0.0018046
3378	0.00160409
3390	0.00233929
3402	0.00367603
3414	0.00427757
3426	0.00461175
3438	0.00454492
3450	0.00314134
3462	0.00233929
3474	0.00200511
3486	0.00153725
3498	0.00253981
3510	0.00247297
3522	0.00260664
3534	0.00187144
3546	0.00147041
3558	0.000868881
3570	0.0018046
3582	0.00247297
3594	0.0012699
3606	0.00200511
3618	0.00207195
3630	0.00407706
3642	0.00788677
3654	0.0108276
3666	0.0113623
3678	0.000935718
3690	0.000534696
3702	0.00200511
3714	0.00267348
3726	0.00274032
3738	0.00160409
3750	0.00427757
3762	0.00300767
3774	0.00253981
3786	0.00267348
3798	0.00267348
3810	0.00514645
3822	0.00173776
3834	0.00421073
3846	0.00387655
3858	0.00340869
3870	0.0030745
3882	0.006149
3894	0.00688421
3906	0.00621584
3918	0.00294083
3930	0.00327501
3942	0.00387655
3954	0.00260664
3966	0.0030745
