Infrared Spectrum: 2-Iodoanisole
Formula: C 7 H 7 I O
CAS: 529-28-2
Origin: Sadtler Research Labs Under US-EPA Contract
1/CM	ABSORBANCE
450	0.00627919
462	0.00531316
474	0.0108195
486	0.0115924
498	0.00202866
510	0.00801805
522	0.00898408
534	0.00908068
546	0.0185478
558	0.0303333
570	0.0344873
582	0.0166157
594	0.00917729
606	0.00125584
618	0.00734183
630	0.0117856
642	0.1109
654	0.0877155
666	0.00115924
678	0.00579618
690	0.0117856
702	0.0369023
714	0.0710998
726	0.0659798
738	0.267011
750	0.459057
762	0.14703
774	0.033328
786	0.0519724
798	0.0494607
810	0.0189342
822	0.013138
834	0.014104
846	0.0115924
858	0.0101433
870	0.00782484
882	0.00241508
894	0.00241508
906	0.00376752
918	0.00879087
930	0.0140074
942	0.00618259
954	0.00579618
966	0.0123652
978	0.0184512
990	0.0280149
1002	0.0757368
1014	0.366125
1026	0.554694
1038	0.22209
1050	0.329223
1062	0.337434
1074	0.0584448
1086	0.0170021
1098	0.0170987
1110	0.0540011
1122	0.0935117
1134	0.0396072
1146	0.024344
1158	0.0513928
1170	0.0489777
1182	0.0570924
1194	0.038931
1206	0.025793
1218	0.0454034
1230	0.139012
1242	0.490067
1254	0.69844
1266	0.504171
1278	0.466496
1290	0.394913
1302	0.20673
1314	0.0377718
1326	0.0204798
1338	0.0165191
1350	0.0155531
1362	0.0186444
1374	0.0218323
1386	0.0186444
1398	0.0220255
1410	0.0291741
1422	0.0884883
1434	0.265368
1446	0.227403
1458	0.262664
1470	0.740076
1482	0.821222
1494	0.151184
1506	0.052069
1518	0.0255032
1530	0.020673
1542	0.0250202
1554	0.0341009
1566	0.124811
1578	0.289906
1590	0.243729
1602	0.0737081
1614	0.0175817
1626	0.00840446
1638	0.00589278
1650	0.0064724
1662	0.00618259
1674	0.0156497
1686	0.0122686
1698	0.00869427
1710	0.00598939
1722	0.00608599
1734	0.00869427
1746	0.00695542
1758	0.0127516
1770	0.0127516
1782	0.00734183
1794	0.00753503
1806	0.00840446
1818	0.006569
1830	0.00521656
1842	0.00618259
1854	0.0096603
1866	0.00821125
1878	0.00830786
1890	0.02019
1902	0.0122686
1914	0.00666561
1926	0.0140074
1938	0.0095637
1950	0.00173885
1962	0.00154565
1974	0.00115924
1986	0.00202866
1998	0.00251168
2010	0.00367091
2022	0.00705202
2034	0.0153599
2046	0.0180648
2058	0.0140074
2070	0.013621
2082	0.0135244
2094	0.00946709
2106	0.00463694
2118	0.00444374
2130	0.00222187
2142	0.00193206
2154	0.00164225
2166	0.000772824
2178	0.00154565
2190	0.00096603
2202	0.00115924
2214	0.00173885
2226	0.00183546
2238	0.00289809
2250	0.00347771
2262	0.00695542
2274	0.00840446
2286	0.00444374
2298	0.00251168
2310	0.00135244
2322	0.00212527
2334	0.0033811
2346	0.00193206
2358	0.00193206
2370	0.00763164
2382	0.00492675
2394	0.00289809
2406	0.00231847
2418	0.00280149
2430	0.00231847
2442	0.00241508
2454	0.00289809
2466	0.00289809
2478	0.00405733
2490	0.00483015
2502	0.00695542
2514	0.00598939
2526	0.00908068
2538	0.0123652
2550	0.0111093
2562	0.00850106
2574	0.00714862
2586	0.00724523
2598	0.0064724
2610	0.00531316
2622	0.00521656
2634	0.00540977
2646	0.0030913
2658	0.0030913
2670	0.00135244
2682	0.000483015
2694	0.000579618
2706	0.00164225
2718	0.00183546
2730	0.00260828
2742	0.00202866
2754	0.0030913
2766	0.0030913
2778	0.00222187
2790	0.00280149
2802	0.00608599
2814	0.0113026
2826	0.0251168
2838	0.0847208
2850	0.140751
2862	0.0587346
2874	0.0433747
2886	0.0483015
2898	0.057672
2910	0.0807601
2922	0.0943811
2934	0.116793
2946	0.199485
2958	0.19253
2970	0.136886
2982	0.0688779
2994	0.0552569
3006	0.122396
3018	0.150121
3030	0.0556433
3042	0.0375786
3054	0.0376752
3066	0.104911
3078	0.198712
3090	0.102109
3102	0.0424087
3114	0.0106263
3126	0.00772824
3138	0.00888748
3150	0.00898408
3162	0.00560297
3174	0.00405733
3186	0.0033811
3198	0.00212527
3210	0.00212527
3222	0.0033811
3234	0.00125584
3246	0.00386412
3258	0.00154565
3270	0.00106263
3282	0.000386412
3294	0.00115924
3306	0.00222187
3318	0.00164225
3330	0.00106263
3342	0.00164225
3354	0.00289809
3366	0.0031879
3378	0.00270488
3390	0.000772824
3402	0.00135244
3414	0.000193206
3426	0.00115924
3438	0.00193206
3450	0
3462	0.00289809
3474	0.00106263
3486	0.0030913
3498	0.00231847
3510	0.00367091
3522	0.00125584
3534	0.00135244
3546	0.00405733
3558	0.00135244
3570	0.0030913
3582	0.00260828
3594	0.00193206
3606	0.00289809
3618	0.00444374
3630	0.00425053
3642	0.00492675
3654	0.00502336
3666	0.0030913
3678	0.00463694
3690	0.00347771
3702	0.00280149
3714	0.00386412
3726	0.00521656
3738	0.00531316
3750	0.00299469
3762	0.00434714
3774	0.00425053
3786	0.00183546
3798	0.00164225
3810	0.00212527
3822	0.00289809
3834	0.0031879
3846	0.00347771
3858	0.00434714
3870	0.00386412
3882	0.00463694
3894	0.00405733
3906	0.00289809
3918	0.00386412
3930	0.00357431
3942	0.0033811
3954	0.00299469
3966	0.0031879
