Infrared Spectrum: 1(2H)-Naphthalenone, 3,4-dihydro-
Formula: C 10 H 10 O
CAS: 529-34-0
Origin: Sadtler Research Labs Under US-EPA Contract
1/CM	ABSORBANCE
450	0.000749656
462	0.00309233
474	0.0138686
486	0.0327974
498	0.00721544
510	0.00759027
522	0.00590354
534	0.0117134
546	0.0714047
558	0.0917392
570	0.0251135
582	0.00946441
594	0.00393569
606	0.00196785
618	0.000749656
630	0.00730915
642	0.0206155
654	0.00993294
666	0.00431052
678	0.00487276
690	0.00487276
702	0.00552871
714	0.0102141
726	0.0801195
738	0.170172
750	0.145152
762	0.242795
774	0.0748719
786	0.0168673
798	0.0283932
810	0.0102141
822	0.00543501
834	0.00290492
846	0.00468535
858	0.0138686
870	0.00899587
882	0.0151805
894	0.0657823
906	0.0872412
918	0.0245512
930	0.0066532
942	0.00187414
954	0.00712173
966	0.00768397
978	0.00440423
990	0.0040294
1002	0.00506018
1014	0.0317667
1026	0.102328
1038	0.0376702
1050	0.0109637
1062	0.00740285
1074	0.00702803
1086	0.00702803
1098	0.0105889
1110	0.0589417
1122	0.0723418
1134	0.0330786
1146	0.0273624
1158	0.0350464
1170	0.0384199
1182	0.124818
1194	0.102328
1206	0.0469472
1218	0.0912706
1230	0.142435
1242	0.067469
1254	0.0549123
1266	0.0583795
1278	0.231363
1290	0.358148
1302	0.0823685
1314	0.0845237
1326	0.164924
1338	0.0969867
1350	0.0793698
1362	0.0250198
1374	0.0066532
1386	0.00609096
1398	0.00627837
1410	0.0200533
1422	0.0594102
1434	0.0594102
1446	0.0989546
1458	0.133814
1470	0.0643767
1482	0.047322
1494	0.0275499
1506	0.00618466
1518	0.00431052
1530	0.00346716
1542	0.0027175
1554	0.00496647
1566	0.0123693
1578	0.0276436
1590	0.0587543
1602	0.128566
1614	0.131002
1626	0.0427304
1638	0.0238016
1650	0.0148057
1662	0.0212715
1674	0.036452
1686	0.107013
1698	0.473314
1710	0.900805
1722	0.440985
1734	0.0823685
1746	0.0325163
1758	0.0208967
1770	0.0199596
1782	0.0183666
1794	0.00946441
1806	0.00571613
1818	0.00852734
1830	0.0116197
1842	0.00983923
1854	0.00983923
1866	0.00543501
1878	0.00421682
1890	0.0040294
1902	0.00318604
1914	0.00496647
1926	0.00759027
1938	0.0126504
1950	0.0106826
1962	0.00955811
1974	0.00852734
1986	0.00468535
1998	0.00253009
2010	0.00224897
2022	0.00215526
2034	0.00121819
2046	0.000843363
2058	0.000281121
2070	0.000374828
2082	0.000187414
2094	0.00093707
2106	0.00149931
2118	0.00159302
2130	0.00168673
2142	0.00196785
2154	0.00149931
2166	0.00178043
2178	0.00206155
2190	0.00103078
2202	0.0013119
2214	0.0013119
2226	0.00140561
2238	0.00290492
2250	0.0027175
2262	0.00253009
2274	0.00374828
2286	0.00224897
2298	0.00149931
2310	0.00103078
2322	0.00093707
2334	0.00187414
2346	0.00421682
2358	0.000281121
2370	0.00833992
2382	0.00712173
2394	0.00299862
2406	0.00187414
2418	0.00103078
2430	0.000655949
2442	0.00149931
2454	0.00206155
2466	0.00206155
2478	0.00309233
2490	0.00327975
2502	0.00374828
2514	0.00374828
2526	0.0027175
2538	0.00290492
2550	0.00196785
2562	0.00187414
2574	0.00253009
2586	0.00374828
2598	0.0040294
2610	0.00618466
2622	0.00515389
2634	0.0067469
2646	0.00721544
2658	0.00571613
2670	0.00627837
2682	0.00787139
2694	0.0067469
2706	0.00515389
2718	0.00515389
2730	0.00552871
2742	0.00562242
2754	0.00590354
2766	0.00637208
2778	0.00871475
2790	0.0093707
2802	0.0102141
2814	0.0137749
2826	0.020147
2838	0.0337345
2850	0.0638145
2862	0.064283
2874	0.0943629
2886	0.106357
2898	0.0990483
2910	0.0792761
2922	0.0729978
2934	0.182448
2946	0.371173
2958	0.318698
2970	0.147682
2982	0.0354212
2994	0.0109637
3006	0.014712
3018	0.0342968
3030	0.0723418
3042	0.0684998
3054	0.0598788
3066	0.0960497
3078	0.126036
3090	0.0690621
3102	0.0186477
3114	0.0119008
3126	0.00712173
3138	0.00730915
3150	0.00955811
3162	0.00815251
3174	0.00590354
3186	0.00590354
3198	0.0053413
3210	0.00543501
3222	0.00506018
3234	0.00562242
3246	0.00440423
3258	0.00487276
3270	0.00440423
3282	0.00496647
3294	0.00496647
3306	0.00506018
3318	0.00496647
3330	0.00468535
3342	0.00412311
3354	0.00627837
3366	0.00571613
3378	0.00684061
3390	0.0149931
3402	0.0189288
3414	0.00871475
3426	0.00506018
3438	0.00309233
3450	0.00365457
3462	0.0053413
3474	0.00506018
3486	0.00571613
3498	0.00459164
3510	0.00524759
3522	0.0040294
3534	0.00299862
3546	0.00374828
3558	0.00168673
3570	0.00309233
3582	0.00318604
3594	0.00215526
3606	0.0027175
3618	0.00290492
3630	0.00412311
3642	0.0026238
3654	0.00318604
3666	0.00309233
3678	0.00234268
3690	9.3707e-05
3702	0
3714	0.00112448
3726	0.00196785
3738	0.00196785
3750	0.00112448
3762	0.00290492
3774	0.000843363
3786	0.00224897
3798	0.00196785
3810	0.00140561
3822	0.00149931
3834	0.00412311
3846	0.00206155
3858	0.00356087
3870	0.0026238
3882	0.00140561
3894	0
3906	0.000562242
3918	0.000562242
3930	0.000655949
3942	0.000562242
3954	0.000374828
3966	9.3707e-05
