Infrared Spectrum: Cyclohexaneacetic acid
Formula: C 8 H 14 O 2
CAS: 5292-21-7
Origin: Sadtler Research Labs Under US-EPA Contract
1/CM	ABSORBANCE
450	0.0222441
462	0.00849132
474	0.0191185
486	0.0137007
498	0.0219837
510	0.0369346
522	0.0285475
534	0.0153677
546	0.0128672
558	0.0187017
570	0.0432901
582	0.0872054
594	0.0931441
606	0.0888203
618	0.0731921
630	0.0757968
642	0.0533443
654	0.0350593
666	0.0242237
678	0.0214627
690	0.0204729
702	0.0219837
714	0.0174515
726	0.010523
738	0.0106272
750	0.00760572
762	0.00442799
774	0.00401124
786	0.00333402
798	0.00406333
810	0.00453218
822	0.00328192
834	0.00489684
846	0.00906436
858	0.00687641
870	0.00739735
882	0.00880389
894	0.00968948
906	0.0118253
918	0.00974158
930	0.00703269
942	0.00906436
954	0.0095332
966	0.0114607
978	0.00833504
990	0.0052094
1002	0.00489684
1014	0.00932483
1026	0.0145342
1038	0.0200041
1050	0.0332881
1062	0.0522503
1074	0.0809541
1086	0.123202
1098	0.208116
1110	0.226869
1122	0.137684
1134	0.11393
1146	0.130652
1158	0.107887
1170	0.0791308
1182	0.0635026
1194	0.0439673
1206	0.047093
1218	0.0500102
1230	0.0368305
1242	0.027714
1254	0.0288601
1266	0.0269847
1278	0.0311001
1290	0.0366742
1302	0.0336527
1314	0.0265158
1326	0.0254219
1338	0.0312043
1350	0.0412064
1362	0.0496977
1374	0.0533964
1386	0.0499061
1398	0.0307876
1410	0.018858
1422	0.020525
1434	0.0255782
1446	0.0449571
1458	0.0539694
1470	0.0235465
1482	0.00739735
1494	0.00494893
1506	0.00265679
1518	0.00151073
1530	0.00156282
1542	0.000833504
1554	0.000625128
1566	0.000885598
1578	0.000416752
1590	0.000416752
1602	0.00182329
1614	0.00104188
1626	0.00135444
1638	0.00145863
1650	0.00140654
1662	0.00281308
1674	0.00416752
1686	0.0078141
1698	0.0112002
1710	0.0150552
1722	0.0253177
1734	0.0464678
1746	0.0849653
1758	0.164721
1770	0.331162
1782	0.372941
1794	0.178891
1806	0.0763698
1818	0.0339653
1830	0.0148989
1842	0.00916854
1854	0.00510521
1866	0.00354239
1878	0.00406333
1890	0.00307355
1902	0.0026047
1914	0.00229214
1926	0.00213585
1938	0.00255261
1950	0.00239632
1962	0.00270889
1974	0.00265679
1986	0.00224004
1998	0.00187538
2010	0.00135444
2022	0.00114607
2034	0.00145863
2046	0.00104188
2058	0.000729316
2070	0.00135444
2082	0.00229214
2094	0.00114607
2106	0.00114607
2118	0.00145863
2130	0.00182329
2142	0.00135444
2154	0.00197957
2166	0.00208376
2178	0.00270889
2190	0.00265679
2202	0.00229214
2214	0.0026047
2226	0.00244842
2238	0.00265679
2250	0.00192748
2262	0.00208376
2274	0.00197957
2286	0.00380286
2298	0.00562615
2310	0.00916854
2322	0.00791829
2334	0.00312564
2346	0.00218795
2358	0.00677222
2370	5.2094e-05
2382	0.00140654
2394	0.00145863
2406	0.0017712
2418	0.00130235
2430	0.000833504
2442	0.000156282
2454	0.000833504
2466	0.000468846
2478	0.000416752
2490	0.000937692
2502	0.000416752
2514	0.000156282
2526	0.00192748
2538	0.00161491
2550	0.000468846
2562	0.00161491
2574	0.00218795
2586	0.00296936
2598	0.00359449
2610	0.0034903
2622	0.00583453
2634	0.00744944
2646	0.0102625
2658	0.00974158
2670	0.010523
2682	0.0078141
2694	0.00401124
2706	0.00322983
2718	0.0026047
2730	0.00244842
2742	0.0017191
2754	0.00224004
2766	0.00192748
2778	0.0034903
2790	0.00531359
2802	0.00760572
2814	0.00797038
2826	0.0107835
2838	0.0226088
2850	0.0749633
2862	0.167691
2874	0.121171
2886	0.0527712
2898	0.06319
2910	0.129193
2922	0.270472
2934	0.4963
2946	0.404562
2958	0.115701
2970	0.0368305
2982	0.0184934
2994	0.0095853
3006	0.00640756
3018	0.00421961
3030	0.00401124
3042	0.00364658
3054	0.0034903
3066	0.00156282
3078	0.000833504
3090	0.00281308
3102	0.00255261
3114	0.00281308
3126	0.00338611
3138	0.00338611
3150	0.00250051
3162	0.00296936
3174	0.00359449
3186	0.00281308
3198	0.00166701
3210	0.0026047
3222	0.00281308
3234	0.00333402
3246	0.00510521
3258	0.00416752
3270	0.00265679
3282	0.00255261
3294	0.00281308
3306	0.00208376
3318	0.00145863
3330	0.00208376
3342	0.00156282
3354	0.00328192
3366	0.00197957
3378	0.00114607
3390	0.00187538
3402	0.00270889
3414	0.000677222
3426	0.00406333
3438	0.00296936
3450	0.000937692
3462	0.00380286
3474	0.00265679
3486	0.00250051
3498	0.00250051
3510	0.00489684
3522	0.00515731
3534	0.00583453
3546	0.00744944
3558	0.0206292
3570	0.134923
3582	0.119139
3594	0.0157324
3606	0.00687641
3618	0.00500102
3630	0.00526149
3642	0.00505312
3654	0.00489684
3666	0.00567825
3678	0.00500102
3690	0.00369867
3702	0.00333402
3714	0.00369867
3726	0.00500102
3738	0.00401124
3750	0.0069806
3762	0.00552196
3774	0.00302145
3786	0.0034903
3798	0.00599081
3810	0.00369867
3822	0.0043759
3834	0.0069285
3846	0.00489684
3858	0.00500102
3870	5.2094e-05
3882	0.0052094
3894	0.0060429
3906	0.00380286
3918	0.00218795
3930	0.00312564
3942	0.0069285
3954	0.000833504
3966	0.00052094
