Infrared Spectrum: Naphthalene, 1,7-dimethoxy-
Formula: C 12 H 12 O 2
CAS: 5309-18-2
Origin: Sadtler Research Labs Under US-EPA Contract
1/CM	ABSORBANCE
450	0.0356796
462	0.0383072
474	0.0450835
486	0.0259991
498	0.0139676
510	0.0308393
522	0.0302862
534	0.053796
546	0.0272437
558	0.0399667
570	0.0649977
582	0.0496472
594	0.0611255
606	0.0355413
618	0.0139676
630	0.00898904
642	0.00290415
654	0.00843587
666	0.010372
678	0.00940392
690	0.0608489
702	0.118102
714	0.118794
726	0.217535
738	0.279767
750	0.043424
762	0.0125847
774	0.032084
786	0.0192227
798	0.0179781
810	0.107454
822	0.53713
834	0.220439
846	0.0903053
858	0.134559
870	0.0703911
882	0.0533811
894	0.0472962
906	0.124879
918	0.0452218
930	0.0188078
942	0.0206057
954	0.0284884
966	0.0261374
978	0.0356796
990	0.0943158
1002	0.175217
1014	0.0782738
1026	0.176047
1038	0.422485
1050	0.328446
1062	0.186696
1074	0.188355
1086	0.328308
1098	0.603926
1110	0.380997
1122	0.0777207
1134	0.0633382
1146	0.0854651
1158	0.221407
1170	0.274926
1182	0.284607
1194	0.286128
1206	0.393167
1218	0.76075
1230	1.10054
1242	0.662009
1254	1.29553
1266	1.29401
1278	0.663668
1290	0.128474
1302	0.0735719
1314	0.0540726
1326	0.0795185
1338	0.10455
1350	0.0634765
1362	0.125708
1374	0.282256
1386	0.363019
1398	0.168856
1410	0.0694231
1422	0.118379
1434	0.530215
1446	0.593968
1458	0.424698
1470	0.844694
1482	0.506152
1494	0.180196
1506	0.462037
1518	0.382933
1530	0.0897522
1542	0.0522748
1554	0.0609872
1566	0.116304
1578	0.315723
1590	0.450282
1602	0.654264
1614	0.395518
1626	0.32402
1638	0.398007
1650	0.0992944
1662	0.0372008
1674	0.029733
1686	0.0318074
1698	0.0268288
1710	0.0284884
1722	0.0283501
1734	0.0212971
1746	0.0116166
1758	0.013691
1770	0.0145208
1782	0.00968051
1794	0.01134
1806	0.019361
1818	0.0120315
1830	0.00636148
1842	0.0038722
1854	0.00497855
1866	0.00705294
1878	0.0114783
1890	0.0282118
1902	0.030701
1914	0.0190844
1926	0.013691
1938	0.012723
1950	0.0164569
1962	0.0123081
1974	0.0102337
1986	0.0102337
1998	0.00857417
2010	0.00525513
2022	0.00511684
2034	0.00719124
2046	0.0114783
2058	0.0161803
2070	0.0215737
2082	0.0222652
2094	0.0194993
2106	0.0124464
2118	0.00815929
2130	0.0102337
2142	0.0106486
2154	0.012723
2166	0.0107869
2178	0.00580831
2190	0.00511684
2202	0.00442538
2214	0.00345732
2226	0.00331903
2238	0.00179781
2250	0.00179781
2262	0.0020744
2274	0.00442538
2286	0.00414879
2298	0.00359562
2310	0.0020744
2322	0.0020744
2334	0.00110634
2346	0.000414879
2358	0
2370	0.000276586
2382	0.0020744
2394	0.000553172
2406	0.000138293
2418	0.00124464
2430	0.00165952
2442	0.00345732
2454	0.00525513
2466	0.00732953
2478	0.00926563
2490	0.00885075
2502	0.00829758
2514	0.00663806
2526	0.00649977
2538	0.00553172
2550	0.00345732
2562	0.00221269
2574	0.00456367
2586	0.00760612
2598	0.00732953
2610	0.00732953
2622	0.00705294
2634	0.00746782
2646	0.00940392
2658	0.00636148
2670	0.00345732
2682	0.00331903
2694	0.00567001
2706	0.0078827
2718	0.00940392
2730	0.00760612
2742	0.00705294
2754	0.00815929
2766	0.0114783
2778	0.0139676
2790	0.0177015
2802	0.0271054
2814	0.0442538
2826	0.0807631
2838	0.198312
2850	0.268842
2862	0.121145
2874	0.0918266
2886	0.108145
2898	0.134559
2910	0.190983
2922	0.23413
2934	0.239247
2946	0.4359
2958	0.430091
2970	0.229566
2982	0.127368
2994	0.175079
3006	0.400635
3018	0.217258
3030	0.116443
3042	0.0894756
3054	0.150186
3066	0.311574
3078	0.196929
3090	0.0980497
3102	0.0879543
3114	0.0499238
3126	0.0222652
3138	0.0141059
3150	0.0117549
3162	0.00968051
3174	0.00940392
3186	0.00774441
3198	0.00815929
3210	0.00691465
3222	0.00677636
3234	0.00580831
3246	0.00539343
3258	0.00539343
3270	0.00553172
3282	0.00677636
3294	0.00304245
3306	0.00470196
3318	0.0040105
3330	0.00290415
3342	0.00456367
3354	0.00539343
3366	0.00456367
3378	0.00622319
3390	0.00663806
3402	0.00456367
3414	0.00511684
3426	0.00553172
3438	0.00608489
3450	0.00304245
3462	0.00663806
3474	0.00373391
3486	0.00373391
3498	0.00636148
3510	0.00691465
3522	0.00484025
3534	0.0059466
3546	0.00152122
3558	0.00511684
3570	0.0059466
3582	0.00359562
3594	0.00484025
3606	0.00456367
3618	0.00179781
3630	0.00442538
3642	0.0020744
3654	0.00746782
3666	0.00276586
3678	0.00124464
3690	0.00262757
3702	0.00124464
3714	0.00138293
3726	0.00331903
3738	0.00290415
3750	0.00359562
3762	0.0038722
3774	0.0038722
3786	0.00636148
3798	0.00276586
3810	0.00484025
3822	0.00345732
3834	0.00470196
3846	0.00428708
3858	0.0040105
3870	0.00567001
3882	0.00732953
3894	0.0114783
3906	0.00428708
3918	0.00857417
3930	0.00871246
3942	0.00912734
3954	0.010372
3966	0.00871246
