Infrared Spectrum: Carbamic acid, allyl-, ethyl ester
Formula: C 6 H 11 N O 2
CAS: 5325-60-0
Origin: Sadtler Research Labs Under US-EPA Contract
1/CM	ABSORBANCE
450	0.0239819
462	0.0215312
474	0.0218813
486	0.0201307
498	0.0175634
510	0.0130704
522	0.01167
534	0.0102696
546	0.0130704
558	0.0087525
570	0.0050181
582	0.0039678
594	0.00460965
606	0.00297585
618	0.00274245
630	0.0057183
642	0.0067686
654	0.00449295
666	0.005835
678	0.00647685
690	0.0061851
702	0.00390945
714	0.00390945
726	0.00297585
738	0.00589335
750	0.00227565
762	0.0107948
774	0.0224648
786	0.0228732
798	0.0146459
810	0.00787725
822	0.00682695
834	0.00717705
846	0.0089859
858	0.0117284
870	0.0145875
882	0.0142374
894	0.018672
906	0.0302837
918	0.0599255
930	0.0647685
942	0.0379275
954	0.021181
966	0.0186136
978	0.0250905
990	0.0347766
1002	0.0349517
1014	0.0447545
1026	0.0762051
1038	0.10573
1050	0.0832655
1062	0.0721206
1074	0.072179
1086	0.0598088
1098	0.0617927
1110	0.0589919
1122	0.0546739
1134	0.0832071
1146	0.0871166
1158	0.0773721
1170	0.0855995
1182	0.0951688
1194	0.141324
1206	0.286615
1218	0.412768
1230	0.333412
1242	0.219163
1254	0.169157
1266	0.151477
1278	0.12096
1290	0.0671025
1302	0.0532736
1314	0.0742212
1326	0.0844325
1338	0.0608007
1350	0.0438209
1362	0.0325593
1374	0.0530402
1386	0.0631347
1398	0.050006
1410	0.044346
1422	0.0445794
1434	0.0477303
1446	0.0591086
1458	0.0690281
1470	0.094352
1482	0.160579
1494	0.323726
1506	0.464116
1518	0.230249
1530	0.0860662
1542	0.0479053
1554	0.0333762
1566	0.0232233
1578	0.0166881
1590	0.0136539
1602	0.0121952
1614	0.0105614
1626	0.00962775
1638	0.0159879
1650	0.0206559
1662	0.0123119
1674	0.010328
1686	0.0126036
1698	0.0183219
1710	0.0277163
1722	0.0502977
1734	0.139165
1746	0.420937
1758	0.5835
1770	0.262225
1782	0.0634848
1794	0.0224648
1806	0.0140624
1818	0.01167
1830	0.0099195
1842	0.0087525
1854	0.00776055
1866	0.00565995
1878	0.00414285
1890	0.0028008
1902	0.00227565
1914	0.002334
1926	0.00192555
1938	0.0018672
1950	0.0017505
1962	0.0015171
1974	0.0019839
1986	0.0019839
1998	0.00192555
2010	0.00204225
2022	0.0015171
2034	0.0016338
2046	0.001167
2058	0.001167
2070	0.001167
2082	0.0016338
2094	0.00169215
2106	0.00145875
2118	0.00087525
2130	0.00075855
2142	0.0008169
2154	0.0014004
2166	0.00134205
2178	0.00087525
2190	0.00087525
2202	0.0009336
2214	0.0007002
2226	0.0004668
2238	0.00052515
2250	0.00052515
2262	0.0010503
2274	0.00052515
2286	0.0001167
2298	0.00110865
2310	0.0005835
2322	0.0007002
2334	0.00017505
2346	0.00075855
2358	0.0007002
2370	0.0001167
2382	0.00017505
2394	0.0008169
2406	0.00087525
2418	0.0008169
2430	0.00145875
2442	0.0009336
2454	0.0009336
2466	0.00040845
2478	0.0004668
2490	0.00017505
2502	0.0001167
2514	0.0005835
2526	0.0001167
2538	0.00052515
2550	0.0001167
2562	0.00064185
2574	5.835e-05
2586	0.00052515
2598	0.0004668
2610	0.0007002
2622	0.00075855
2634	0.00017505
2646	0.0005835
2658	0.00075855
2670	0.00087525
2682	0.00134205
2694	0.00192555
2706	0.0024507
2718	0.0029175
2730	0.0024507
2742	0.00250905
2754	0.0024507
2766	0.00309255
2778	0.00297585
2790	0.00309255
2802	0.00344265
2814	0.0038511
2826	0.00460965
2838	0.00659355
2850	0.0102696
2862	0.0160463
2874	0.0239235
2886	0.032501
2898	0.0345432
2910	0.0409617
2922	0.0508812
2934	0.0597504
2946	0.0689697
2958	0.0571246
2970	0.0637766
2982	0.0942936
2994	0.0993117
3006	0.0615593
3018	0.0363521
3030	0.0209477
3042	0.0106197
3054	0.00846075
3066	0.00962775
3078	0.0154628
3090	0.0255573
3102	0.02334
3114	0.00752715
3126	0.0040845
3138	0.00297585
3150	0.0028008
3162	0.0022173
3174	0.00180885
3186	0.00227565
3198	0.002334
3210	0.0018672
3222	0.00134205
3234	0.0015171
3246	0.00122535
3258	0.00134205
3270	0.00099195
3282	0.0015171
3294	0.0012837
3306	0.00075855
3318	0.0010503
3330	0.00157545
3342	0.00169215
3354	0.00110865
3366	0.001167
3378	0.00122535
3390	0.00122535
3402	0.0017505
3414	0.00227565
3426	0.0022173
3438	0.00437625
3450	0.008169
3462	0.021006
3474	0.0418953
3486	0.0432374
3498	0.0224064
3510	0.0085191
3522	0.0044346
3534	0.0039678
3546	0.0024507
3558	0.00239235
3570	0.00262575
3582	0.0021006
3594	0.00204225
3606	0.00110865
3618	0.001167
3630	0.00122535
3642	0.00122535
3654	0.00122535
3666	0.0012837
3678	0.0012837
3690	0.00134205
3702	0.0003501
3714	0.0008169
3726	0.001167
3738	0.00099195
3750	0.0001167
3762	0.00040845
3774	5.835e-05
3786	5.835e-05
3798	0.00064185
3810	5.835e-05
3822	5.835e-05
3834	5.835e-05
3846	0.00040845
3858	5.835e-05
3870	0.0002334
3882	5.835e-05
3894	0.00052515
3906	0.0007002
3918	0.0002334
3930	0.00029175
3942	0.00099195
3954	5.835e-05
3966	5.835e-05
