Infrared Spectrum: Acetamide, 2-chloro-N-hexyl-,
Formula: C 8 H 16 Cl N O
CAS: 5326-81-8
Origin: Sadtler Research Labs Under US-EPA Contract
1/CM	ABSORBANCE
450	0.0125239
462	0.0316177
474	0.0594372
486	0.0823293
498	0.0717558
510	0.0631328
522	0.052662
534	0.0379823
546	0.0251505
558	0.011292
570	0.00893099
582	0.00574868
594	0.00420886
606	0.00975222
618	0.00872568
630	0.0102655
642	0.00790443
654	0.00215576
666	0.0072885
678	0.0184779
690	0.0159115
702	0.017246
714	0.0195044
726	0.0305912
738	0.0531753
750	0.0767859
762	0.143306
774	0.107172
786	0.0476319
798	0.0232
810	0.0166301
822	0.00533806
834	0.00739116
846	0.00328496
858	0.0104708
870	0.00780178
882	0.00964957
894	0.00677523
906	0.0106761
918	0.0163221
930	0.0176567
942	0.0140637
954	0.00964957
966	0.0103682
978	0.0108814
990	0.0123186
1002	0.0146797
1014	0.0120106
1026	0.0130372
1038	0.0152956
1050	0.0180673
1062	0.0199151
1074	0.0248425
1086	0.0263823
1098	0.0317204
1110	0.0278195
1122	0.0301806
1134	0.0280248
1146	0.0284354
1158	0.0252531
1170	0.0271009
1182	0.0326443
1194	0.0415753
1206	0.0531753
1218	0.0750408
1230	0.108712
1242	0.170613
1254	0.247091
1266	0.18211
1278	0.131912
1290	0.0935187
1302	0.07617
1314	0.0606691
1326	0.0454762
1338	0.0388036
1350	0.0479399
1362	0.0521487
1374	0.058924
1386	0.0582054
1398	0.0419859
1410	0.0555364
1422	0.105529
1434	0.0756567
1446	0.113023
1458	0.135094
1470	0.16548
1482	0.171742
1494	0.241855
1506	0.425094
1518	0.752564
1530	0.614082
1542	0.248733
1554	0.119593
1566	0.0694974
1578	0.0436284
1590	0.0285381
1602	0.020839
1614	0.0197098
1626	0.0159115
1638	0.0269983
1650	0.0357239
1662	0.0481452
1674	0.0857169
1686	0.180057
1698	0.544072
1710	1.02655
1722	0.564603
1734	0.183239
1746	0.0782231
1758	0.0441416
1770	0.0266903
1782	0.0204283
1794	0.0117027
1806	0.0110867
1818	0.0105735
1830	0.00544071
1842	0.00307965
1854	0.00769913
1866	0.00513275
1878	0.00523541
1890	0.00307965
1902	0.00400354
1914	0.00287434
1926	0.00390089
1938	0.0041062
1950	0.002977
1962	0.00266903
1974	0.00338762
1986	0.00451682
1998	0.00359292
2010	0.00420886
2022	0.00390089
2034	0.00472213
2046	0.00400354
2058	0.00400354
2070	0.00390089
2082	0.0031823
2094	0.00359292
2106	0.00349027
2118	0.0041062
2130	0.00379824
2142	0.00338762
2154	0.00379824
2166	0.00328496
2178	0.00379824
2190	0.00338762
2202	0.002977
2214	0.0031823
2226	0.00256638
2238	0.00359292
2250	0.00307965
2262	0.00359292
2274	0.00400354
2286	0.00533806
2298	0.00831506
2310	0.00944426
2322	0.00759647
2334	0.00513275
2346	0.0102655
2358	0.00544071
2370	0.00544071
2382	0.00698054
2394	0.00379824
2406	0.00328496
2418	0.00349027
2430	0.00338762
2442	0.00307965
2454	0.00287434
2466	0.00256638
2478	0.00236106
2490	0.0020531
2502	0.00225841
2514	0.00164248
2526	0.00184779
2538	0.00225841
2550	0.002977
2562	0.002977
2574	0.00379824
2586	0.00359292
2598	0.00451682
2610	0.00482478
2622	0.00482478
2634	0.00523541
2646	0.00544071
2658	0.00667258
2670	0.00841771
2682	0.00913629
2694	0.00862302
2706	0.00913629
2718	0.00995753
2730	0.0110867
2742	0.0124213
2754	0.0123186
2766	0.0121133
2778	0.0129345
2790	0.0158089
2802	0.0201204
2814	0.026177
2826	0.0357239
2838	0.052354
2850	0.09937
2862	0.213317
2874	0.257869
2886	0.229947
2898	0.1972
2910	0.249965
2922	0.414418
2934	0.65227
2946	0.592525
2958	0.399431
2970	0.427147
2982	0.231384
2994	0.100089
3006	0.0557417
3018	0.0366478
3030	0.0266903
3042	0.0219682
3054	0.0161168
3066	0.0144744
3078	0.0123186
3090	0.0107788
3102	0.00995753
3114	0.00903364
3126	0.00739116
3138	0.00687789
3150	0.00708319
3162	0.00656992
3174	0.00687789
3186	0.00749382
3198	0.00656992
3210	0.00636461
3222	0.00554337
3234	0.00605665
3246	0.00574868
3258	0.00595399
3270	0.00523541
3282	0.00595399
3294	0.00574868
3306	0.00554337
3318	0.00595399
3330	0.00513275
3342	0.00677523
3354	0.00769913
3366	0.00708319
3378	0.00872568
3390	0.0130372
3402	0.0176567
3414	0.020531
3426	0.0308992
3438	0.072885
3450	0.134375
3462	0.114871
3474	0.0459894
3486	0.0187859
3498	0.0108814
3510	0.00872568
3522	0.00708319
3534	0.00585134
3546	0.00574868
3558	0.0041062
3570	0.0082124
3582	0.00533806
3594	0.00862302
3606	0.00626195
3618	0.00431151
3630	0.0108814
3642	0.00451682
3654	0.0138584
3666	0.00400354
3678	0.00379824
3690	0.00975222
3702	0.00605665
3714	0.00841771
3726	0.00338762
3738	0.00338762
3750	0.0176567
3762	0.0020531
3774	0.00492744
3786	0.00708319
3798	0.00852037
3810	0.00102655
3822	0.00605665
3834	0.00595399
3846	0.00626195
3858	0.00266903
3870	0.0050301
3882	0.00564602
3894	0.002977
3906	0.00461947
3918	0.00574868
3930	0.00225841
3942	0.00656992
3954	0.00708319
3966	0.00656992
