Infrared Spectrum: 2,4,6-Cycloheptatrien-1-one, 2-hydroxy-
Formula: C 7 H 6 O 2
CAS: 533-75-5
Origin: Sadtler Research Labs Under US-EPA Contract
1/CM	ABSORBANCE
450	0.0103839
462	0.0104726
474	0.00541381
486	0.00541381
498	0.00186377
510	0.00319504
522	0.00319504
534	0.00523631
546	0.0102951
558	0.00994011
570	0.00301753
582	0.00088751
594	0.000532506
606	0.00177502
618	0.0043488
630	0.00426005
642	0.0137564
654	0.0422455
666	0.0745508
678	0.0875085
690	0.109164
702	0.193832
714	0.319149
726	0.30628
738	0.337165
750	0.289861
762	0.159131
774	0.065587
786	0.0309741
798	0.0121589
810	0.00692258
822	0.00443755
834	0.00718883
846	0.0176614
858	0.0368317
870	0.0386067
882	0.0314179
894	0.0259153
906	0.0464168
918	0.0441092
930	0.0387842
942	0.066652
954	0.0588419
966	0.0118039
978	0.00159752
990	0.00150877
1002	0.00576882
1014	0.00816509
1026	0.00674508
1038	0.00647882
1050	0.00781009
1062	0.0118926
1074	0.0153539
1086	0.020324
1098	0.023874
1110	0.0239628
1122	0.0246728
1134	0.0215665
1146	0.0161527
1158	0.0164189
1170	0.0201465
1182	0.0341691
1194	0.0928335
1206	0.156202
1218	0.144043
1230	0.13783
1242	0.289683
1254	0.485823
1266	0.852631
1278	0.77808
1290	0.308321
1302	0.270336
1314	0.230043
1326	0.0927448
1338	0.0284891
1350	0.0276903
1362	0.0312404
1374	0.0250278
1386	0.0321279
1398	0.0828934
1410	0.186643
1422	0.328556
1434	0.469049
1446	0.537565
1458	0.520613
1470	0.532417
1482	0.666165
1494	0.661372
1506	0.383582
1518	0.126559
1530	0.086976
1542	0.110229
1554	0.170934
1566	0.267407
1578	0.311782
1590	0.258975
1602	0.241669
1614	0.542446
1626	0.88751
1638	0.690483
1650	0.190548
1662	0.0545819
1674	0.0267141
1686	0.0212115
1698	0.0184602
1710	0.0144664
1722	0.0173952
1734	0.0225428
1746	0.0208565
1758	0.0240515
1770	0.0253828
1782	0.0177502
1794	0.0136677
1806	0.0121589
1818	0.0126026
1830	0.0110051
1842	0.00683383
1854	0.0048813
1866	0.00443755
1878	0.00532506
1890	0.00772134
1902	0.00647882
1914	0.00426005
1926	0.00310629
1938	0.00479255
1950	0.0105614
1962	0.0126026
1974	0.00967386
1986	0.00878635
1998	0.00683383
2010	0.00248503
2022	0.000976261
2034	0.000355004
2046	8.8751e-05
2058	0
2070	8.8751e-05
2082	0.000266253
2094	0.00106501
2106	0.00133127
2118	0.00142002
2130	0.00150877
2142	0.00168627
2154	0.00177502
2166	0.00177502
2178	0.000798759
2190	0.000355004
2202	0.000355004
2214	0.000443755
2226	0.000621257
2238	0.000976261
2250	0.000532506
2262	0
2274	0.000532506
2286	0.00213002
2298	0.00355004
2310	0.00328379
2322	0.00292878
2334	0.00230753
2346	0.00213002
2358	0.0039938
2370	0.00230753
2382	0.00355004
2394	0.00292878
2406	0.0041713
2418	0.00541381
2430	0.00523631
2442	0.0047038
2454	0.00639007
2466	0.00692258
2478	0.00692258
2490	0.00718883
2502	0.00736633
2514	0.00683383
2526	0.00585757
2538	0.00523631
2550	0.0047038
2562	0.0047038
2574	0.00497006
2586	0.00541381
2598	0.00603507
2610	0.00585757
2622	0.00523631
2634	0.00505881
2646	0.00532506
2658	0.00665633
2670	0.00834259
2682	0.00958511
2694	0.00985136
2706	0.0086976
2718	0.00807634
2730	0.00860885
2742	0.00816509
2754	0.00931886
2766	0.0102064
2778	0.0107389
2790	0.0100289
2802	0.0092301
2814	0.00825384
2826	0.0086976
2838	0.00878635
2850	0.0101176
2862	0.0104726
2874	0.0103839
2886	0.0114489
2898	0.0120701
2910	0.0123364
2922	0.0136677
2934	0.0146439
2946	0.0143777
2958	0.0151764
2970	0.0171289
2982	0.017839
2994	0.0213002
3006	0.0336366
3018	0.0563569
3030	0.0674508
3042	0.0672733
3054	0.0816509
3066	0.0809409
3078	0.0591969
3090	0.0529843
3102	0.0552031
3114	0.0595519
3126	0.0629245
3138	0.0636345
3150	0.0632795
3162	0.063457
3174	0.063812
3186	0.0632795
3198	0.0583094
3210	0.0500556
3222	0.0433105
3234	0.0412692
3246	0.0409142
3258	0.0366542
3270	0.0309741
3282	0.0259153
3294	0.0223653
3306	0.0197915
3318	0.0182827
3330	0.0163302
3342	0.0148214
3354	0.0148214
3366	0.0135789
3378	0.0133127
3390	0.0126914
3402	0.0134014
3414	0.0129576
3426	0.0126914
3438	0.0122476
3450	0.0122476
3462	0.0126914
3474	0.0121589
3486	0.0111826
3498	0.0105614
3510	0.00914135
3522	0.00967386
3534	0.0085201
3546	0.00816509
3558	0.00727758
3570	0.00816509
3582	0.00727758
3594	0.00692258
3606	0.0041713
3618	0.0041713
3630	0.00381629
3642	0.00337254
3654	0.00328379
3666	0
3678	0.00337254
3690	0.00177502
3702	0.00177502
3714	0.00195252
3726	0.00266253
3738	0.00239628
3750	0.000798759
3762	0.00142002
3774	0.00221878
3786	0.00168627
3798	0.00159752
3810	0.00168627
3822	0.00124251
3834	0.00195252
3846	0.00150877
3858	0.00195252
3870	0.00266253
3882	0.00213002
3894	0.00346129
3906	0.00363879
3918	0.00426005
3930	0.00381629
3942	0.00230753
3954	0.00319504
3966	0.00221878
