Infrared Spectrum: Butanoic acid, 2-bromo-, ethyl ester
Formula: C 6 H 11 Br O 2
CAS: 533-68-6
Origin: Sadtler Research Labs Under US-EPA Contract
1/CM	ABSORBANCE
450	0.00191776
462	0.0135841
474	0.0237056
486	0.0330813
498	0.0543364
510	0.0288196
522	0.00767102
534	0.0261561
546	0.0342
558	0.0360112
570	0.034786
582	0.0476775
594	0.0315897
606	0.0335607
618	0.0430962
630	0.0443747
642	0.0348392
654	0.0370766
666	0.058385
678	0.0520458
690	0.0505542
702	0.0457598
714	0.0394205
726	0.0303645
738	0.0404327
750	0.048157
762	0.0405925
774	0.0437355
786	0.0425635
798	0.0462392
810	0.0599299
822	0.0556682
834	0.0408056
846	0.0318028
858	0.0456532
870	0.0460794
882	0.0402729
894	0.0456532
906	0.0466121
918	0.0352654
930	0.0352121
942	0.0486364
954	0.0507673
966	0.0378757
978	0.0344131
990	0.0377159
1002	0.0454934
1014	0.0703177
1026	0.142234
1038	0.152888
1050	0.0833158
1062	0.0670149
1074	0.107874
1086	0.123429
1098	0.120179
1110	0.115119
1122	0.110271
1134	0.14772
1146	0.333157
1158	0.393353
1170	0.174356
1182	0.13142
1194	0.165992
1206	0.263638
1218	0.215002
1230	0.163755
1242	0.183306
1254	0.259483
1266	0.303165
1278	0.19332
1290	0.152195
1302	0.177179
1314	0.129235
1326	0.0966869
1338	0.0717028
1350	0.0799598
1362	0.0840616
1374	0.115065
1386	0.091413
1398	0.0622738
1410	0.0429364
1422	0.0343065
1434	0.0497018
1446	0.0704243
1458	0.0751121
1470	0.0815579
1482	0.0549757
1494	0.0318028
1506	0.0181654
1518	0.0250906
1530	0.0236523
1542	0.0123589
1554	0.0198701
1566	0.0228
1578	0.0199766
1590	0.0202963
1602	0.0237056
1614	0.0210953
1626	0.0194972
1638	0.0202963
1650	0.0204028
1662	0.0171533
1674	0.0171
1686	0.0201364
1698	0.0248776
1710	0.0399532
1722	0.0572131
1734	0.0958878
1746	0.300875
1758	0.53271
1770	0.271043
1782	0.0932242
1794	0.0486897
1806	0.030471
1818	0.0221075
1830	0.0175794
1842	0.0206691
1854	0.0207224
1866	0.0164075
1878	0.0164607
1890	0.0167804
1902	0.0174729
1914	0.0168869
1926	0.0168869
1938	0.0167271
1950	0.0134776
1962	0.0147028
1974	0.0164075
1986	0.0148626
1998	0.0145963
2010	0.0159813
2022	0.0153953
2034	0.0140635
2046	0.0151822
2058	0.0139037
2070	0.0128383
2082	0.013371
2094	0.015129
2106	0.0148093
2118	0.0131579
2130	0.0128916
2142	0.0115065
2154	0.0103878
2166	0.0123056
2178	0.0135308
2190	0.011986
2202	0.00964205
2214	0.0107607
2226	0.0105477
2238	0.0115065
2250	0.0134776
2262	0.0121458
2274	0.00985513
2286	0.008257
2298	0.0103346
2310	0.00942897
2322	0.0093757
2334	0.0128383
2346	0.0103346
2358	0.00596635
2370	0.0121458
2382	0.0117196
2394	0.00777757
2406	0.00740467
2418	0.00889626
2430	0.00799065
2442	0.00783084
2454	0.00804392
2466	0.00857663
2478	0.00596635
2490	0.00772429
2502	0.00964205
2514	0.00745794
2526	0.00596635
2538	0.00538037
2550	0.0053271
2562	0.00506075
2574	0.00708504
2586	0.00687196
2598	0.00415514
2610	0.00292991
2622	0.00394205
2634	0.00474112
2646	0.00468785
2658	0.00601962
2670	0.00474112
2682	0.00138505
2694	0.00308972
2706	0.00436822
2718	0.00479439
2730	0.00511402
2742	0.00708504
2754	0.00628598
2766	0.00463458
2778	0.00729813
2790	0.00788411
2802	0.00729813
2814	0.00713831
2826	0.0103878
2838	0.0113467
2850	0.0142766
2862	0.022214
2874	0.0262093
2886	0.0550822
2898	0.0587579
2910	0.0514598
2922	0.0558813
2934	0.0612617
2946	0.108566
2958	0.0965271
2970	0.111656
2982	0.223259
2994	0.197422
3006	0.0834224
3018	0.0397934
3030	0.0243981
3042	0.0154486
3054	0.0136374
3066	0.0125187
3078	0.0107607
3090	0.00628598
3102	0.00847009
3114	0.0121991
3126	0.00958878
3138	0.00847009
3150	0.0103878
3162	0.00719158
3174	0.00554018
3186	0.00910934
3198	0.0103878
3210	0.0053271
3222	0.00617944
3234	0.00836355
3246	0.00681869
3258	0.00564673
3270	0.00729813
3282	0.00639252
3294	0.00431495
3306	0.00884299
3318	0.0101748
3330	0.00548691
3342	0.00362243
3354	0.00639252
3366	0.00926915
3378	0.00548691
3390	0.0116131
3402	0.008257
3414	0.00266355
3426	0.0049542
3438	0.00910934
3450	0.00847009
3462	0.00958878
3474	0.0105477
3486	0.00740467
3498	0.00633925
3510	0.00889626
3522	0.0101748
3534	0.00815046
3546	0.0057
3558	0.00852336
3570	0.0066056
3582	0.00916261
3594	0.00980186
3606	0.00841682
3618	0.00388878
3630	0.00420841
3642	0.00836355
3654	0.00490093
3666	0.00575327
3678	0.00490093
3690	0.00378224
3702	0.00591308
3714	0.0069785
3726	0.00772429
3738	0.00106542
3750	0.000799065
3762	0.0069785
3774	0.0066056
3786	0.00783084
3798	0.00777757
3810	0.00490093
3822	0.000799065
3834	0.00191776
3846	0.00580654
3858	0.00623271
3870	0.00511402
3882	0.00623271
3894	0.00207757
3906	0.000745794
3918	0.00575327
3930	0.0066056
3942	0.00564673
3954	0
3966	0.000799065
