Infrared Spectrum: Benzhydrol, .alpha.-propyl-,
Formula: C 16 H 18 O
CAS: 5331-17-9
Origin: Sadtler Research Labs Under US-EPA Contract
1/CM	ABSORBANCE
450	0
462	0.0145071
474	0.0102293
486	0.00943889
498	0.00948539
510	0.00576563
522	0.00423123
534	0.0061841
546	0.00971787
558	0.0132516
570	0.0155765
582	0.0208772
594	0.0337103
606	0.0653283
618	0.0284562
630	0.0372441
642	0.0947144
654	0.0270613
666	0.0337103
678	0.0644913
690	0.204354
702	0.462366
714	0.150557
726	0.0558894
738	0.069885
750	0.179385
762	0.176596
774	0.103688
786	0.0336173
798	0.0278052
810	0.0227835
822	0.0175759
834	0.0167389
846	0.0296186
858	0.0346403
870	0.0395689
882	0.0403594
894	0.0280377
906	0.0404989
918	0.0333848
930	0.0319434
942	0.023853
954	0.0246434
966	0.0528206
978	0.0808583
990	0.0611901
1002	0.0675136
1014	0.0795099
1026	0.12159
1038	0.0963883
1050	0.0625385
1062	0.0816952
1074	0.0589117
1086	0.0442186
1098	0.0551454
1110	0.0531926
1122	0.0571448
1134	0.0564474
1146	0.0527741
1158	0.0715124
1170	0.069141
1182	0.0827647
1194	0.0794169
1206	0.0630964
1218	0.0504027
1230	0.046311
1242	0.0457066
1254	0.046311
1266	0.062585
1278	0.0639334
1290	0.0627245
1302	0.0710939
1314	0.0832761
1326	0.085136
1338	0.07765
1350	0.0565404
1362	0.0683041
1374	0.0583072
1386	0.0488218
1398	0.0311065
1410	0.0265498
1422	0.0292931
1434	0.0501238
1446	0.134516
1458	0.0968997
1470	0.0672812
1482	0.0595627
1494	0.131029
1506	0.0456601
1518	0.0145071
1530	0.00999685
1542	0.0106478
1554	0.0108338
1566	0.0109268
1578	0.0176224
1590	0.0348728
1602	0.0562614
1614	0.0185523
1626	0.0113918
1638	0.00869494
1650	0.00906692
1662	0.0100898
1674	0.0132981
1686	0.0127867
1698	0.0102758
1710	0.00795099
1722	0.0092994
1734	0.0126472
1746	0.0141351
1758	0.0126007
1770	0.0115313
1782	0.0119962
1794	0.0210631
1806	0.0263638
1818	0.0140421
1830	0.0092529
1842	0.00743952
1854	0.00818347
1866	0.0122752
1878	0.0173899
1890	0.0184128
1902	0.0119962
1914	0.007765
1926	0.00915991
1938	0.0194822
1950	0.0254339
1962	0.0189243
1974	0.00646308
1986	0.00544015
1998	0.0046962
2010	0.00418473
2022	0.00404524
2034	0.00390575
2046	0.00385925
2058	0.00395225
2070	0.00385925
2082	0.00381275
2094	0.00385925
2106	0.00339428
2118	0.00353377
2130	0.00353377
2142	0.00390575
2154	0.00362677
2166	0.00371976
2178	0.00381275
2190	0.00390575
2202	0.00390575
2214	0.00376626
2226	0.00399874
2238	0.00367326
2250	0.00413823
2262	0.00441721
2274	0.0046032
2286	0.00516117
2298	0.00650958
2310	0.00902042
2322	0.00878793
2334	0.00660257
2346	0.00967138
2358	0.0061841
2370	0.00711404
2382	0.00697455
2394	0.00446371
2406	0.00441721
2418	0.00399874
2430	0.00409174
2442	0.00399874
2454	0.00371976
2466	0.00334778
2478	0.00381275
2490	0.00362677
2502	0.00376626
2514	0.00367326
2526	0.00399874
2538	0.00381275
2550	0.00418473
2562	0.00441721
2574	0.00516117
2586	0.00557964
2598	0.00585862
2610	0.00516117
2622	0.00530066
2634	0.00571913
2646	0.00525416
2658	0.00516117
2670	0.00502168
2682	0.00511467
2694	0.00492868
2706	0.00534716
2718	0.00530066
2730	0.00683506
2742	0.00883443
2754	0.00902042
2766	0.00864844
2778	0.00915991
2790	0.00953189
2802	0.0111128
2814	0.0128332
2826	0.0165529
2838	0.0204122
2850	0.0323154
2862	0.0554244
2874	0.08588
2886	0.149999
2898	0.0843456
2910	0.0892742
2922	0.12596
2934	0.158229
2946	0.202587
2958	0.199379
2970	0.390017
2982	0.133586
2994	0.0545875
3006	0.0456601
3018	0.0714194
3030	0.145629
3042	0.157113
3054	0.124612
3066	0.262243
3078	0.221047
3090	0.140886
3102	0.0881118
3114	0.0432422
3126	0.0190173
3138	0.0127867
3150	0.0113918
3162	0.0115778
3174	0.00911341
3186	0.00599811
3198	0.00520766
3210	0.00502168
3222	0.00413823
3234	0.00390575
3246	0.00404524
3258	0.00371976
3270	0.00418473
3282	0.00385925
3294	0.00423123
3306	0.00385925
3318	0.00367326
3330	0.00432422
3342	0.00367326
3354	0.0046032
3366	0.00455671
3378	0.00483569
3390	0.00539365
3402	0.00474269
3414	0.00423123
3426	0.00441721
3438	0.00478919
3450	0.00404524
3462	0.00441721
3474	0.00446371
3486	0.00409174
3498	0.0046032
3510	0.00399874
3522	0.00362677
3534	0.00432422
3546	0.00455671
3558	0.00432422
3570	0.00571913
3582	0.00474269
3594	0.00511467
3606	0.00743952
3618	0.0121357
3630	0.0412893
3642	0.0725353
3654	0.0192963
3666	0.00967138
3678	0.00915991
3690	0.00757901
3702	0.00627709
3714	0.007765
3726	0.00562614
3738	0.00748602
3750	0.00534716
3762	0.00548665
3774	0.00548665
3786	0.00553314
3798	0.00432422
3810	0.00437072
3822	0.00650958
3834	0.00557964
3846	0.00437072
3858	0.00637009
3870	0.00632359
3882	0.00576563
3894	0.00706754
3906	0.00702105
3918	0.00720703
3930	0.00548665
3942	0.00474269
3954	0.00576563
3966	0.00539365
