Infrared Spectrum: Quinoline, 6-bromo-
Formula: C 9 H 6 Br N
CAS: 5332-25-2
Origin: Sadtler Research Labs Under US-EPA Contract
1/CM	ABSORBANCE
450	0.0684647
462	0.0974305
474	0.10338
486	0.0270153
498	0.0161896
510	0.0154094
522	0.00926516
534	0.0097528
546	9.7528e-05
558	0.00692449
570	0.0186278
582	0.0897258
594	0.159653
606	0.022529
618	0.0779249
630	0.033062
642	0.00575415
654	0.00214562
666	0.00633932
678	0.00819235
690	0.0079973
702	0.013849
714	0.00887505
726	0.00916763
738	0.00994786
750	0.0464233
762	0.0769496
774	0.113035
786	0.235238
798	0.117521
810	0.0613451
822	0.333741
834	0.702299
846	0.662898
858	0.231824
870	0.269665
882	0.159751
894	0.0186278
906	0.00516898
918	0.0218463
930	0.0527626
942	0.155655
954	0.0236993
966	0.0299411
978	0.0376458
990	0.0144341
1002	0.0187254
1014	0.0495442
1026	0.127957
1038	0.0381334
1050	0.0788026
1062	0.277175
1074	0.0212611
1086	0.0136539
1098	0.0224314
1110	0.0870925
1122	0.118692
1134	0.0413519
1146	0.0187254
1158	0.0219438
1170	0.139368
1182	0.226167
1194	0.0641734
1206	0.0170674
1218	0.0550058
1230	0.0535429
1242	0.0855321
1254	0.0605649
1266	0.0288683
1278	0.0348175
1290	0.036573
1302	0.0481788
1314	0.128054
1326	0.0857271
1338	0.108256
1350	0.0970404
1362	0.114498
1374	0.0833864
1386	0.0194081
1398	0.00819235
1410	0.00965527
1422	0.0172625
1434	0.0403766
1446	0.0860197
1458	0.0821186
1470	0.0849469
1482	0.608965
1494	0.74726
1506	0.0507146
1518	0.0172625
1530	0.0211636
1542	0.0406692
1554	0.0798754
1566	0.150388
1578	0.151949
1590	0.411276
1602	0.237286
1614	0.0887505
1626	0.0586143
1638	0.022724
1650	0.0150193
1662	0.0178476
1674	0.0127762
1686	0.0152144
1698	0.0113132
1710	0.0177501
1722	0.0239919
1734	0.0473011
1746	0.0378409
1758	0.0168723
1770	0.00789977
1782	0.0147267
1794	0.0253573
1806	0.00682696
1818	0.0106306
1830	0.00624179
1842	0.00536404
1854	0.00448629
1866	0.00585168
1878	0.0177501
1890	0.0271128
1902	0.0151168
1914	0.0389137
1926	0.0360854
1938	0.0239919
1950	0.0306238
1962	0.00653438
1974	0.00273078
1986	0.00234067
1998	0.0024382
2010	0.00341348
2022	0.00341348
2034	0.0048764
2046	0.00711954
2058	0.00897258
2070	0.00604674
2082	0.00760718
2094	0.00536404
2106	0.00409618
2118	0.00585168
2130	0.00351101
2142	0.00185303
2154	0.00136539
2166	0.000877752
2178	0.00341348
2190	0.00273078
2202	0.00321842
2214	0.00234067
2226	0.00234067
2238	0.00360854
2250	0.00536404
2262	0.0104355
2274	0.00867999
2286	0.0055591
2298	0.00711954
2310	0.00721707
2322	0.00565662
2334	0.00429123
2346	0.00380359
2358	0.00585168
2370	0.00370606
2382	0.00604674
2394	0.0055591
2406	0.00448629
2418	0.00516898
2430	0.00516898
2442	0.00477887
2454	0.00682696
2466	0.00887505
2478	0.00750966
2490	0.00711954
2502	0.0066319
2514	0.0066319
2526	0.00653438
2538	0.010533
2550	0.0116058
2562	0.00741213
2574	0.00526651
2586	0.00399865
2598	0.0031209
2610	0.00224314
2622	0.00165798
2634	0.00204809
2646	0.00126786
2658	0.00224314
2670	0.0055591
2682	0.00614426
2694	0.00575415
2706	0.00585168
2718	0.00624179
2730	0.00877752
2742	0.00750966
2754	0.00682696
2766	0.00789977
2778	0.0073146
2790	0.00624179
2802	0.00497393
2814	0.00390112
2826	0.00526651
2838	0.00633932
2850	0.00682696
2862	0.00565662
2874	0.00614426
2886	0.00770471
2898	0.0130688
2910	0.0134589
2922	0.0139465
2934	0.0176526
2946	0.017555
2958	0.0188229
2970	0.0289658
2982	0.029551
2994	0.0280881
3006	0.0524701
3018	0.073146
3030	0.115766
3042	0.230849
3054	0.178574
3066	0.196616
3078	0.239821
3090	0.151754
3102	0.0395964
3114	0.0116058
3126	0.0079973
3138	0.00721707
3150	0.00682696
3162	0.00711954
3174	0.00604674
3186	0.00809482
3198	0.0073146
3210	0.00916763
3222	0.00614426
3234	0.00565662
3246	0.00643685
3258	0.00702202
3270	0.00594921
3282	0.00653438
3294	0.00370606
3306	0.00351101
3318	0.00253573
3330	0.00292584
3342	0.00048764
3354	0.000780224
3366	0.00214562
3378	0.00146292
3390	0.00575415
3402	0.00516898
3414	0.0079973
3426	0.00760718
3438	0.00409618
3450	0.00682696
3462	0.00575415
3474	0.00702202
3486	0.00760718
3498	0.00633932
3510	0.00809482
3522	0.00682696
3534	0.0041937
3546	0.00848494
3558	0.0055591
3570	0.00936269
3582	0.00721707
3594	0.00702202
3606	0.00877752
3618	0.00994786
3630	0.0130688
3642	0.0108256
3654	0.0118009
3666	0.0133613
3678	0.0151168
3690	0.0148243
3702	0.0161896
3714	0.0153119
3726	0.0172625
3738	0.0160921
3750	0.0134589
3762	0.0113132
3774	0.0139465
3786	0.0132638
3798	0.0124836
3810	0.0152144
3822	0.0149218
3834	0.0136539
3846	0.0172625
3858	0.0159946
3870	0.0153119
3882	0.0159946
3894	0.0183353
3906	0.0156045
3918	0.0141416
3930	0.0196031
3942	0.0178476
3954	0.0148243
3966	0.015507
