Infrared Spectrum: Butanenitrile, 4-bromo-
Formula: C 4 H 6 Br N
CAS: 5332-06-9
Origin: Sadtler Research Labs Under US-EPA Contract
1/CM	ABSORBANCE
450	0.0719226
462	0.0368679
474	0.0465382
486	0.0467396
498	0.00644685
510	0.0564099
522	0.096602
534	0.106776
546	0.104358
558	0.116547
570	0.263918
582	0.326875
594	0.25596
606	0.057518
618	0.0583238
630	0.0537909
642	0.0457323
654	0.134779
666	0.184843
678	0.0840105
690	0.0584246
702	0.0541938
714	0.0918676
726	0.0566114
738	0.0824995
750	0.124404
762	0.321033
774	0.251427
786	0.0594319
798	0.0611443
810	0.0625546
822	0.0688
834	0.172957
846	0.230273
858	0.139917
870	0.103452
882	0.118159
894	0.0940837
906	0.048855
918	0.0517762
930	0.0582231
942	0.0658787
954	0.0814922
966	0.15412
978	0.166107
990	0.133671
1002	0.0662817
1014	0.0486536
1026	0.050366
1038	0.0766571
1050	0.0673897
1062	0.0697065
1074	0.0589282
1086	0.0469411
1098	0.0481499
1110	0.0581224
1122	0.074038
1134	0.103855
1146	0.120576
1158	0.109496
1170	0.124001
1182	0.150494
1194	0.1514
1206	0.181116
1218	0.176482
1230	0.179101
1242	0.53257
1254	1.00732
1266	0.708247
1278	0.669969
1290	0.444732
1302	0.218387
1314	0.18021
1326	0.183937
1338	0.187664
1350	0.200457
1362	0.18021
1374	0.0926734
1386	0.066886
1398	0.0615473
1410	0.0839098
1422	0.233497
1434	0.64811
1446	0.818347
1458	0.431032
1470	0.158653
1482	0.0648714
1494	0.048855
1506	0.039084
1518	0.0297159
1530	0.0300181
1542	0.0317306
1554	0.0335438
1566	0.0191391
1578	0.0228662
1590	0.0208515
1602	0.0220603
1614	0.0197435
1626	0.0155127
1638	0.0220603
1650	0.016923
1662	0.0133974
1674	0.0171244
1686	0.0182325
1698	0.0232691
1710	0.0175274
1722	0.0226647
1734	0.0261903
1746	0.0280035
1758	0.046236
1770	0.039084
1782	0.0355584
1794	0.043617
1806	0.0659795
1818	0.0887449
1830	0.0674904
1842	0.0342489
1854	0.0189376
1866	0.0189376
1878	0.0204486
1890	0.00967027
1902	0.0185347
1914	0.0172252
1926	0.0116849
1938	0.0102747
1950	0.0075549
1962	0.0181318
1974	0.0126922
1986	0.0121886
1998	0.0151098
2010	0.01652
2022	0.0222618
2034	0.0136996
2046	0.0162179
2058	0.0182325
2070	0.0142032
2082	0.0140017
2094	0.0130952
2106	0.0164193
2118	0.0118864
2130	0.0108791
2142	0.0110805
2154	0.00946881
2166	0.0128937
2178	0.0122893
2190	0.0190383
2202	0.0229669
2214	0.0211537
2226	0.0246793
2238	0.034954
2250	0.0819958
2262	0.0833054
2274	0.0315291
2286	0.0217581
2298	0.013901
2310	0.0142032
2322	0.0168222
2334	0.0146061
2346	0.0028205
2358	0.0025183
2370	0.0241757
2382	0.0164193
2394	0.0131959
2406	0.0166208
2418	0.0254852
2430	0.0262911
2442	0.0141025
2454	0.00967027
2466	0.00664831
2478	0.00916661
2490	0.00846149
2502	0.0104761
2514	0.0140017
2526	0.00695051
2538	0.00836076
2550	0.00805856
2562	0.00826002
2574	0.0125915
2586	0.00946881
2598	0.0176281
2610	0.0166208
2622	0.0163186
2634	0.01652
2646	0.0126922
2658	0.0157142
2670	0.00654758
2682	0.0155127
2694	0.0264925
2706	0.022564
2718	0.0226647
2730	0.0133974
2742	0.0199449
2754	0.0161171
2766	0.0150091
2778	0.0238735
2790	0.0228662
2802	0.0281042
2814	0.0201464
2826	0.026694
2838	0.0588275
2850	0.105769
2862	0.171244
2874	0.174871
2886	0.144248
2898	0.114633
2910	0.146061
2922	0.316701
2934	0.416527
2946	0.412397
2958	0.512927
2970	0.716205
2982	0.644987
2994	0.331912
3006	0.16792
3018	0.163186
3030	0.129038
3042	0.0610436
3054	0.0268954
3066	0.0261903
3078	0.0215566
3090	0.022161
3102	0.0252837
3114	0.0206501
3126	0.0203479
3138	0.0161171
3150	0.0199449
3162	0.0220603
3174	0.0164193
3186	0.019542
3198	0.0273991
3210	0.0346518
3222	0.0204486
3234	0.0207508
3246	0.0306225
3258	0.0290108
3270	0.0187362
3282	0.00916661
3294	0.01652
3306	0.0212545
3318	0.0156135
3330	0.0133974
3342	0.0149083
3354	0.0239742
3366	0.0147069
3378	0.0132966
3390	0.0202471
3402	0.0190383
3414	0.0237728
3426	0.0144047
3438	0.0198442
3450	0.0183332
3462	0.0144047
3474	0.0179303
3486	0.0130952
3498	0.0163186
3510	0.0152105
3522	0.0202471
3534	0.0243771
3546	0.0175274
3558	0.0259889
3570	0.0255859
3582	0.027802
3594	0.0238735
3606	0.0186354
3618	0.0342489
3630	0.0259889
3642	0.0206501
3654	0.0227654
3666	0.0253845
3678	0.039084
3690	0.0190383
3702	0.0285072
3714	0.0333423
3726	0.0343496
3738	0.0369686
3750	0.0238735
3762	0.0409979
3774	0.0382782
3786	0.0345511
3798	0.0399906
3810	0.0327379
3822	0.0467396
3834	0.0347525
3846	0.0329394
3858	0.0422067
3870	0.0341481
3882	0.0524814
3894	0.0369686
3906	0.0418038
3918	0.0463367
3930	0.0458331
3942	0.0563092
3954	0
3966	0.0025183
