Infrared Spectrum: Quinoline, 3-bromo-
Formula: C 9 H 6 Br N
CAS: 5332-24-1
Origin: Sadtler Research Labs Under US-EPA Contract
1/CM	ABSORBANCE
450	0.0638513
462	0.108697
474	0.112147
486	0.0608573
498	0.0316979
510	0.0320884
522	0.0472539
534	0.0387924
546	0.0301357
558	0.0259701
570	0.0589046
582	0.220778
594	0.0461474
606	0.014059
618	0.0710761
630	0.047319
642	0.012562
654	0.0113904
666	0.00878688
678	0.00755021
690	0.00846144
702	0.0161418
714	0.00898214
726	0.0659341
738	0.375428
750	0.572774
762	0.230607
774	0.15927
786	0.160051
798	0.063591
810	0.028834
822	0.0359286
834	0.0755021
846	0.430167
858	0.322316
870	0.132129
882	0.203075
894	0.358765
906	0.153152
918	0.0608573
930	0.111235
942	0.568999
954	0.333316
966	0.0861765
978	0.0566916
990	0.0396386
1002	0.0409404
1014	0.0445853
1026	0.0376209
1038	0.0275973
1050	0.0297452
1062	0.237636
1074	0.485882
1086	0.0848097
1098	0.0689933
1110	0.0782358
1122	0.178797
1134	0.107135
1146	0.0839635
1158	0.035538
1170	0.0193962
1182	0.0448456
1194	0.108892
1206	0.0324789
1218	0.0536976
1230	0.0586443
1242	0.110259
1254	0.185956
1266	0.141241
1278	0.0555852
1290	0.0574727
1302	0.054023
1314	0.175803
1326	0.113188
1338	0.0570822
1350	0.123797
1362	0.140916
1374	0.0492716
1386	0.0233666
1398	0.0447155
1410	0.148336
1422	0.0472539
1434	0.0115206
1446	0.0609224
1458	0.0952237
1470	0.08136
1482	0.113123
1494	0.296281
1506	0.0561709
1518	0.0180945
1530	0.0141892
1542	0.00885197
1554	0.0175087
1566	0.0497923
1578	0.126075
1590	0.197021
1602	0.0697092
1614	0.0379463
1626	0.0218045
1638	0.008136
1650	0.00442598
1662	0.0043609
1674	0.00950285
1686	0.0134081
1698	0.035538
1710	0.0219347
1722	0.0183548
1734	0.0219347
1746	0.0172483
1758	0.0207631
1770	0.0119111
1782	0.0193311
1794	0.0223252
1806	0.0288991
1818	0.0409404
1830	0.0412007
1842	0.0313073
1854	0.0368398
1866	0.0154259
1878	0.00774547
1890	0.0113904
1902	0.0156211
1914	0.0211536
1926	0.0195915
1938	0.0196566
1950	0.0285085
1962	0.0251891
1974	0.0043609
1986	0.00253843
1998	0.00234317
2010	0.00266861
2022	0.00364493
2034	0.00371002
2046	0.00318931
2058	0.00234317
2070	0.00566266
2082	0.00624845
2094	0.00442598
2106	0.00442598
2118	0.00592301
2130	0.00572774
2142	0.0043609
2154	0.00234317
2166	0.0037751
2178	0.00371002
2190	0.0037751
2202	0.0037751
2214	0.0043609
2226	0.00468634
2238	0.00553248
2250	0.00644371
2262	0.00657389
2274	0.00878688
2286	0.0111951
2298	0.00950285
2310	0.0101537
2322	0.0139939
2334	0.0171181
2346	0.0104792
2358	0.0121064
2370	0.0107395
2382	0.0113253
2394	0.0108697
2406	0.0104141
2418	0.0124969
2430	0.0114555
2442	0.0102188
2454	0.00989338
2466	0.0117809
2478	0.01113
2490	0.0092425
2502	0.0086567
2514	0.00911232
2526	0.00696442
2538	0.00676915
2550	0.00943776
2562	0.00982829
2574	0.0086567
2586	0.0054023
2598	0.00689933
2610	0.00768038
2622	0.00943776
2634	0.00833126
2646	0.00533722
2658	0.00637862
2670	0.00781056
2682	0.00904723
2694	0.00481651
2706	0.00442598
2718	0.00494669
2730	0.00553248
2742	0.00449107
2754	0.00533722
2766	0.00468634
2778	0.00663898
2790	0.008136
2802	0.00715968
2814	0.00742003
2826	0.00807091
2838	0.010349
2850	0.0092425
2862	0.00937267
2874	0.00917741
2886	0.0131478
2898	0.0138637
2910	0.0136685
2922	0.0154259
2934	0.0180945
2946	0.0188755
2958	0.0160116
2970	0.0164673
2982	0.0196566
2994	0.0216092
3006	0.0309168
3018	0.0499876
3030	0.0803186
3042	0.111821
3054	0.164868
3066	0.287233
3078	0.320558
3090	0.168057
3102	0.0462776
3114	0.020698
3126	0.0167927
3138	0.0112602
3150	0.0117809
3162	0.0123667
3174	0.0150353
3186	0.0113904
3198	0.00917741
3210	0.0101537
3222	0.00969811
3234	0.00982829
3246	0.00676915
3258	0.00689933
3270	0.0065088
3282	0.00637862
3294	0.00416563
3306	0.00260352
3318	0.00364493
3330	0.00397037
3342	0.0037751
3354	0
3366	0.0027337
3378	0.00468634
3390	0.00527213
3402	0.00449107
3414	0.00253843
3426	0.00462125
3438	0.00728986
3450	0.00833126
3462	0.00527213
3474	0.00423072
3486	0.00468634
3498	0.00553248
3510	0.00429581
3522	0.00240826
3534	0.00221299
3546	0.00676915
3558	0.00663898
3570	0.00709459
3582	0.00904723
3594	0.0108697
3606	0.0136034
3618	0.0123016
3630	0.0108046
3642	0.0137336
3654	0.014775
3666	0.0184199
3678	0.0141241
3690	0.0173785
3702	0.0185501
3714	0.0194613
3726	0.0252541
3738	0.0232364
3750	0.0240175
3762	0.0287689
3774	0.0324789
3786	0.034041
3798	0.0341712
3810	0.0363191
3822	0.0392481
3834	0.0412007
3846	0.0385972
3858	0.0348872
3870	0.0389226
3882	0.0432835
3894	0.0404196
3906	0.037751
3918	0.0367747
3930	0.0416563
3942	0.0449107
3954	0.00956794
3966	0.0126271
