Infrared Spectrum: Propionic acid, 2,2-diphenyl-3-mercapto-, .beta.-thiolactone
Formula: C 15 H 12 O S
CAS: 53392-43-1
Origin: Sadtler Research Labs Under US-EPA Contract
1/CM	ABSORBANCE
450	0
462	0.00526924
474	0.00062729
486	0.015745
498	0.035881
510	0.029859
522	0.0147413
534	0.0110403
546	0.015745
558	0.0111658
570	0.0109776
582	0.016435
594	0.0209515
606	0.0272871
618	0.0257816
630	0.013424
642	0.012734
654	0.0199478
666	0.0343128
678	0.0799167
690	0.133425
702	0.161527
714	0.0699428
726	0.051626
738	0.0940308
750	0.110842
762	0.103628
774	0.0380765
786	0.0297963
798	0.0456667
810	0.144465
822	0.160461
834	0.0417148
846	0.0199478
858	0.0149922
870	0.0158704
882	0.0164977
894	0.0161841
906	0.0201987
918	0.017815
930	0.0126085
942	0.0137377
954	0.0207006
966	0.0142395
978	0.017815
990	0.0334973
1002	0.0676219
1014	0.0822377
1026	0.0838059
1038	0.0794149
1050	0.0355673
1062	0.0212651
1074	0.0235234
1086	0.0249661
1098	0.0178778
1110	0.0158077
1122	0.0121067
1134	0.00966027
1146	0.00897025
1158	0.0102876
1170	0.012044
1182	0.0212651
1194	0.0258443
1206	0.0329955
1218	0.0236488
1230	0.0160586
1242	0.0119812
1254	0.0107267
1266	0.00991118
1278	0.00922116
1290	0.00871933
1302	0.00840569
1314	0.00922116
1326	0.0117303
1338	0.0121067
1350	0.00890752
1362	0.00802931
1374	0.00903298
1386	0.00840569
1398	0.00828023
1410	0.00871933
1422	0.0110403
1434	0.0195087
1446	0.0543233
1458	0.0455413
1470	0.0210769
1482	0.0388293
1494	0.0890125
1506	0.0555779
1518	0.015055
1530	0.012044
1542	0.0116049
1554	0.00972299
1566	0.0122949
1578	0.0205751
1590	0.0348146
1602	0.046294
1614	0.022457
1626	0.017125
1638	0.0143022
1650	0.0124831
1662	0.0121694
1674	0.0114167
1686	0.0115421
1698	0.0132358
1710	0.0174387
1722	0.0255934
1734	0.0374492
1746	0.0517514
1758	0.1232
1770	0.465449
1782	0.494806
1794	0.125709
1806	0.0710092
1818	0.0619135
1830	0.0574598
1842	0.0422793
1854	0.0248407
1866	0.0186932
1878	0.0173759
1890	0.0166232
1902	0.0105385
1914	0.00947208
1926	0.00984845
1938	0.0126713
1950	0.0144904
1962	0.0143022
1974	0.00721384
1986	0.00614744
1998	0.0058338
2010	0.00589653
2022	0.00639836
2034	0.00652382
2046	0.00658655
2058	0.00589653
2070	0.00633563
2082	0.00508105
2094	0.00439103
2106	0.00401466
2118	0.0038892
2130	0.00370101
2142	0.00338737
2154	0.00294826
2166	0.00376374
2178	0.00376374
2190	0.00363828
2202	0.00332464
2214	0.0034501
2226	0.00338737
2238	0.00326191
2250	0.00313645
2262	0.00338737
2274	0.0034501
2286	0.00382647
2298	0.00395193
2310	0.00508105
2322	0.00633563
2334	0.00520651
2346	0.00552015
2358	0.00483013
2370	0.00495559
2382	0.00439103
2394	0.00276008
2406	0.00257189
2418	0.00219551
2430	0.00244643
2442	0.00219551
2454	0.00232097
2466	0.00200733
2478	0.00225824
2490	0.00175641
2502	0.00213279
2514	0.00269735
2526	0.0023837
2538	0.0023837
2550	0.00232097
2562	0.00188187
2574	0.0019446
2586	0.00163095
2598	0.00188187
2610	0.00188187
2622	0.00144277
2634	0.00156823
2646	0.0019446
2658	0.0015055
2670	0.00125458
2682	0.00100366
2694	0.000564561
2706	0.00100366
2718	0.000815477
2730	0.000376374
2742	0.00062729
2754	0.000940935
2766	0.00125458
2778	0.0015055
2790	0.00163095
2802	0.00163095
2814	0.00138004
2826	0.00181914
2838	0.00156823
2850	0.00294826
2862	0.00401466
2874	0.006712
2886	0.00633563
2898	0.00420284
2910	0.00464195
2922	0.00683746
2934	0.00846841
2946	0.00752748
2958	0.00727656
2970	0.0179405
2982	0.0290435
2994	0.00903298
3006	0.0138631
3018	0.0394565
3030	0.0473604
3042	0.0565816
3054	0.040272
3066	0.0994882
3078	0.112348
3090	0.0487404
3102	0.0343755
3114	0.0179405
3126	0.00658655
3138	0.00357555
3150	0.00332464
3162	0.00407739
3174	0.00244643
3186	0.00138004
3198	0.0015055
3210	0.000878206
3222	0.00156823
3234	0.000815477
3246	0.000878206
3258	0.00100366
3270	0.00100366
3282	0.000815477
3294	0.00100366
3306	0.00119185
3318	0.000439103
3330	0.000250916
3342	0.000439103
3354	0.000752748
3366	0.00119185
3378	0.00138004
3390	0.000690019
3402	0.00125458
3414	0.00062729
3426	0.000815477
3438	0.00062729
3450	0.00156823
3462	0.00100366
3474	0.000752748
3486	0.00175641
3498	0.00163095
3510	0.00232097
3522	0.0038892
3534	0.00608471
3546	0.00382647
3558	0.00131731
3570	0.000940935
3582	0.00200733
3594	0.00175641
3606	0.00138004
3618	0.00213279
3630	0.0019446
3642	0.00213279
3654	0.0019446
3666	0.00213279
3678	0.0023837
3690	0.00263462
3702	0.00213279
3714	0.00257189
3726	0.00131731
3738	0.0023837
3750	0.00225824
3762	0.00163095
3774	0.0015055
3786	0.000501832
3798	0.00207006
3810	0.000940935
3822	0.00119185
3834	0.000690019
3846	0.000439103
3858	0.00100366
3870	0.000250916
3882	0.00207006
3894	0.0015055
3906	0.000376374
3918	0.00156823
3930	0.000940935
3942	0.00112912
3954	0.000690019
3966	0.00232097
