Infrared Spectrum: Benzene, 1-(2-bromoethyl)-4-nitro-
Formula: C 8 H 8 Br N O 2
CAS: 5339-26-4
Origin: Sadtler Research Labs Under US-EPA Contract
1/CM	ABSORBANCE
450	0.00929144
462	0.00940338
474	0.0181351
486	0.0268668
498	0.0230607
510	0.0283221
522	0.0394046
534	0.0249637
546	0.0227248
558	0.0340313
570	0.0441063
582	0.0283221
594	0.0249637
606	0.0383971
618	0.0514947
630	0.00861976
642	0.020374
654	0.0363821
666	0.0483602
678	0.0462333
690	0.081384
702	0.108587
714	0.069294
726	0.0441063
738	0.0547411
750	0.0664953
762	0.0579875
774	0.0435466
786	0.0230607
798	0.0250757
810	0.0461213
822	0.0480244
834	0.0669431
846	0.168253
858	0.394382
870	0.0999669
882	0.0415316
894	0.0498155
906	0.0464572
918	0.0681745
930	0.063025
942	0.0333596
954	0.0242921
966	0.0274265
978	0.0332477
990	0.0353746
1002	0.0344791
1014	0.0869813
1026	0.0472408
1038	0.0296654
1050	0.0231726
1062	0.0118662
1074	0.0128737
1086	0.0269787
1098	0.0486961
1110	0.0885485
1122	0.038733
1134	0.0195904
1146	0.0180231
1158	0.0186948
1170	0.030561
1182	0.0745554
1194	0.0560844
1206	0.0136573
1218	0.0519425
1230	0.0298893
1242	0.0308968
1254	0.0572039
1266	0.112841
1278	0.0726523
1290	0.0583233
1302	0.067167
1314	0.0925785
1326	0.125155
1338	0.392703
1350	1.11072
1362	0.506439
1374	0.13814
1386	0.0756748
1398	0.057092
1410	0.0400763
1422	0.0362702
1434	0.0563083
1446	0.0678387
1458	0.057092
1470	0.0514947
1482	0.0735479
1494	0.15482
1506	0.153812
1518	0.240682
1530	0.554799
1542	0.839028
1554	0.455728
1566	0.153924
1578	0.117766
1590	0.176761
1602	0.292065
1614	0.171836
1626	0.059107
1638	0.0334716
1650	0.026419
1662	0.0180231
1674	0.018359
1686	0.0217173
1698	0.0153365
1710	0.0111945
1722	0.0125378
1734	0.0147767
1746	0.00985116
1758	0.00727642
1770	0.00716448
1782	0.0126498
1794	0.0154484
1806	0.00380613
1818	0.0010075
1830	0.00190307
1842	0.00973922
1854	0.00694059
1866	0.0022389
1878	0.00044778
1890	0.00190307
1902	0.00503753
1914	0.0134334
1926	0.0136573
1938	0.0057092
1950	0.00302251
1962	0.00335835
1974	0.00335835
1986	0.00212695
1998	0.00246279
2010	0.00257473
2022	0.00335835
2034	0.00358224
2046	0.00425391
2058	0.00403002
2070	0.00391808
2082	0.00358224
2094	0.0022389
2106	0.0022389
2118	0.0022389
2130	0.00156723
2142	0.0010075
2154	0.00123139
2166	0.00111945
2178	0.00156723
2190	0.00179112
2202	0.00235084
2214	0.0032464
2226	0.00257473
2238	0.00156723
2250	0.00123139
2262	0.00156723
2274	0.00246279
2286	0.00526142
2298	0.00806004
2310	0.0100751
2322	0.00962727
2334	0.00828393
2346	0.0108587
2358	0.010187
2370	0.010187
2382	0.00884366
2394	0.0057092
2406	0.0032464
2418	0.00358224
2430	0.0044778
2442	0.00559725
2454	0.0106348
2466	0.00738837
2478	0.00481364
2490	0.00615698
2502	0.00380613
2514	0.00391808
2526	0.00615698
2538	0.00391808
2550	0.00358224
2562	0.00369419
2574	0.00458975
2586	0.00470169
2598	0.00548531
2610	0.00761226
2622	0.00917949
2634	0.00682865
2646	0.00582114
2658	0.00582114
2670	0.00649281
2682	0.0067167
2694	0.00973922
2706	0.0107467
2718	0.00985116
2730	0.00817198
2742	0.00649281
2754	0.00705254
2766	0.00738837
2778	0.00873171
2790	0.0077242
2802	0.00906754
2814	0.00929144
2826	0.0114184
2838	0.0157842
2850	0.0236204
2862	0.0315685
2874	0.0362702
2886	0.0339193
2898	0.0315685
2910	0.0392927
2922	0.0405241
2934	0.0410838
2946	0.0456736
2958	0.0486961
2970	0.0541814
2982	0.0644803
2994	0.0336954
3006	0.028434
3018	0.0499275
3030	0.0334716
3042	0.0350388
3054	0.0471288
3066	0.0456736
3078	0.0435466
3090	0.0434347
3102	0.0327999
3114	0.0137692
3126	0.00817198
3138	0.00615698
3150	0.0057092
3162	0.00526142
3174	0.00537336
3186	0.00559725
3198	0.00582114
3210	0.00626892
3222	0.00604503
3234	0.00503753
3246	0.00436586
3258	0.00403002
3270	0.00358224
3282	0.00347029
3294	0.00335835
3306	0.00257473
3318	0.00246279
3330	0.0022389
3342	0.00235084
3354	0.00212695
3366	0.00179112
3378	0.00156723
3390	0.00134334
3402	0.00179112
3414	0.00190307
3426	0.00167917
3438	0.00156723
3450	0.00201501
3462	0.00257473
3474	0.00235084
3486	0.00246279
3498	0.00212695
3510	0.00246279
3522	0.0022389
3534	0.00179112
3546	0.0032464
3558	0.00358224
3570	0.00347029
3582	0.00235084
3594	0.00425391
3606	0.00167917
3618	0.00391808
3630	0.00649281
3642	0.00335835
3654	0.00335835
3666	0.00111945
3678	0.00839588
3690	0.00302251
3702	0.0032464
3714	0.00458975
3726	0.00425391
3738	0.00548531
3750	0.00313446
3762	0.0022389
3774	0.00167917
3786	0.00156723
3798	0.00167917
3810	0.000559725
3822	0.00526142
3834	0.00391808
3846	0.00279862
3858	0.00582114
3870	0.00436586
3882	0.00391808
3894	0.00358224
3906	0.00291057
3918	0.00458975
3930	0.00380613
3942	0.00212695
3954	0.00391808
3966	0.00492558
