Infrared Spectrum: Ethane, 1,1-dimethoxy-
Formula: C 4 H 10 O 2
CAS: 534-15-6
Origin: Sadtler Research Labs Under US-EPA Contract
1/CM	ABSORBANCE
450	0.0407731
462	0.0174742
474	0.0223281
486	0.0114877
498	0.0158562
510	0.0266967
522	0.0364046
534	0.0598653
546	0.0469214
558	0.0263731
570	0.0202247
582	0.0181214
594	0.0187686
606	0.0174742
618	0.0148854
630	0.0189304
642	0.0262113
654	0.0229753
666	0.00679552
678	0.0080899
690	0.00404495
702	0.00226517
714	0.000647192
726	0
738	0.00113259
750	0.00177978
762	0.00080899
774	0.00323596
786	0.0105169
798	0.0242697
810	0.0498338
822	0.0770158
834	0.0967552
846	0.107272
858	0.21778
870	0.371812
882	0.37521
894	0.226517
906	0.0755597
918	0.0357574
930	0.0292854
942	0.0286382
954	0.030418
966	0.0461124
978	0.0991822
990	0.161798
1002	0.163578
1014	0.137528
1026	0.168432
1038	0.398347
1050	0.586194
1062	0.643956
1074	0.628909
1086	0.840217
1098	1.02661
1110	1.15588
1122	1.32399
1134	1.61798
1146	1.32302
1158	0.868532
1170	0.45627
1182	0.367443
1194	0.433619
1206	0.456756
1218	0.382329
1230	0.291075
1242	0.204836
1254	0.144971
1266	0.0982114
1278	0.0652046
1290	0.05129
1302	0.0427147
1314	0.0401259
1326	0.0499956
1338	0.081708
1350	0.142059
1362	0.235092
1374	0.310329
1386	0.460801
1398	0.407407
1410	0.193834
1422	0.0755597
1434	0.0940046
1446	0.138499
1458	0.166005
1470	0.136558
1482	0.0949754
1494	0.0569529
1506	0.0343012
1518	0.0237843
1530	0.0177978
1542	0.0173124
1554	0.0173124
1566	0.016827
1578	0.016827
1590	0.0163416
1602	0.017636
1614	0.0182832
1626	0.020063
1638	0.017636
1650	0.0150472
1662	0.013591
1674	0.0126202
1686	0.0116495
1698	0.00938428
1710	0.00986968
1722	0.0166652
1734	0.0268585
1746	0.0490248
1758	0.0851057
1770	0.0967552
1782	0.106625
1794	0.0755597
1806	0.0655282
1818	0.0244315
1830	0.00517754
1842	0.00275057
1854	0.00372135
1866	0.00453034
1878	0.00420675
1890	0.00436855
1902	0.00598653
1914	0.0084135
1926	0.0110023
1938	0.0134292
1950	0.0137528
1962	0.0131056
1974	0.0129438
1986	0.0139146
1998	0.0148854
2010	0.0144
2022	0.0144
2034	0.0124584
2046	0.0100315
2058	0.0084135
2070	0.00857529
2082	0.0108405
2094	0.0116495
2106	0.0119731
2118	0.0106787
2130	0.00986968
2142	0.00938428
2154	0.0084135
2166	0.00760451
2178	0.00695731
2190	0.00631012
2202	0.00485394
2214	0.00436855
2226	0.00307416
2238	0.00226517
2250	0.00177978
2262	0.00129438
2274	0.00129438
2286	0.00129438
2298	0.000485394
2310	0.000161798
2322	0.00080899
2334	0.000970788
2346	0.000970788
2358	0.00129438
2370	0.00145618
2382	0.00080899
2394	0.00113259
2406	0.00080899
2418	0.000485394
2430	0.000485394
2442	0.000161798
2454	0
2466	0
2478	0.000485394
2490	0.00129438
2502	0.00145618
2514	0.00113259
2526	0.00161798
2538	0.00258877
2550	0.00355956
2562	0.00436855
2574	0.00533933
2586	0.0077663
2598	0.0103551
2610	0.0108405
2622	0.0108405
2634	0.0142382
2646	0.0244315
2658	0.0399641
2670	0.0419057
2682	0.0398023
2694	0.0268585
2706	0.0216809
2718	0.0197394
2730	0.0202247
2742	0.0215191
2754	0.0262113
2766	0.0330068
2778	0.0422293
2790	0.0554967
2802	0.0859147
2814	0.170697
2826	0.345115
2838	0.496073
2850	0.400126
2862	0.247389
2874	0.22134
2886	0.319066
2898	0.464684
2910	0.618877
2922	0.617745
2934	0.635381
2946	0.641529
2958	0.57228
2970	0.46436
2982	0.522284
2994	0.619363
3006	0.575839
3018	0.303857
3030	0.131865
3042	0.0907687
3054	0.0752361
3066	0.0635866
3078	0.0527461
3090	0.0433619
3102	0.0346248
3114	0.0265349
3126	0.0195776
3138	0.0144
3150	0.0110023
3162	0.00857529
3174	0.0079281
3186	0.00744271
3198	0.00631012
3210	0.00501574
3222	0.00372135
3234	0.00242697
3246	0.00177978
3258	0.00129438
3270	0.000970788
3282	0.00080899
3294	0.000970788
3306	0.000323596
3318	0.000323596
3330	0.000647192
3342	0.000161798
3354	0.000970788
3366	0.00080899
3378	0.00194158
3390	0.00210337
3402	0.00161798
3414	0.00129438
3426	0.000970788
3438	0.00129438
3450	0.000970788
3462	0.000970788
3474	0.00113259
3486	0.00113259
3498	0.00129438
3510	0.00113259
3522	0.00145618
3534	0.00242697
3546	0.00388315
3558	0.0082517
3570	0.0121348
3582	0.0161798
3594	0.0132674
3606	0.00760451
3618	0.00372135
3630	0.00388315
3642	0.00226517
3654	0.00420675
3666	0.00355956
3678	0.00388315
3690	0.00242697
3702	0.00339776
3714	0.00485394
3726	0.00420675
3738	0.00161798
3750	0.00177978
3762	0
3774	0
3786	0
3798	0
3810	0
3822	0
3834	0
3846	0
3858	0
3870	0
3882	0
3894	0
3906	0
3918	0
3930	0
3942	0
3954	0
3966	0
