Infrared Spectrum: 1,2-Benzenediamine, N-phenyl-
Formula: C 12 H 12 N 2
CAS: 534-85-0
Origin: Sadtler Research Labs Under US-EPA Contract
1/CM	ABSORBANCE
450	0.00836033
462	0.0104094
474	0.0153273
486	0.0210647
498	0.022704
510	0.00786854
522	0.0132782
534	0.0196714
546	0.0179501
558	0.0131142
570	0.0140158
582	0.0207369
594	0.027294
606	0.0240155
618	0.0269662
630	0.0317201
642	0.0396706
654	0.0495882
666	0.0529487
678	0.0668007
690	0.143027
702	0.0924554
714	0.0572928
726	0.103848
738	0.371051
750	0.381051
762	0.108602
774	0.0407361
786	0.0294251
798	0.0206549
810	0.0149174
822	0.0165567
834	0.0105734
846	0.00606534
858	0.0116389
870	0.0209828
882	0.0308185
894	0.0139339
906	0.00557355
918	0.00565552
930	0.00811444
942	0.00213106
954	0.000983568
966	0.00163928
978	0.00213106
990	0.00696694
1002	0.00713087
1014	0.00344249
1026	0.0285235
1038	0.0199992
1050	0.0101635
1062	0.0134421
1074	0.0178682
1086	0.00434409
1098	0.000245892
1110	0.00163928
1122	0.00901604
1134	0.0310644
1146	0.0389329
1158	0.0376215
1170	0.0164748
1182	0.0245072
1194	0.0186878
1206	0.0351626
1218	0.0507357
1230	0.0813083
1242	0.14024
1254	0.139585
1266	0.121799
1278	0.182534
1290	0.332528
1302	0.378346
1314	0.19196
1326	0.0907341
1338	0.0536864
1350	0.0300808
1362	0.0267203
1374	0.0268842
1386	0.0266383
1398	0.0535225
1410	0.113274
1422	0.0627844
1434	0.038605
1446	0.0472113
1458	0.0866359
1470	0.0945865
1482	0.189501
1494	0.642926
1506	0.699973
1518	0.205074
1530	0.0756528
1542	0.0558994
1554	0.0536864
1566	0.0779478
1578	0.164092
1590	0.361133
1602	0.465146
1614	0.328512
1626	0.234745
1638	0.0950782
1650	0.0380313
1662	0.0175403
1674	0.0157371
1686	0.0168026
1698	0.0154092
1710	0.0070489
1722	0.00483588
1734	0.00844229
1746	0.00795051
1758	0.011475
1770	0.0153273
1782	0.0100816
1794	0.0081964
1806	0.00606534
1818	0.00622926
1830	0.00975372
1842	0.0105734
1854	0.00754069
1866	0.0072948
1878	0.00967175
1890	0.00975372
1902	0.00975372
1914	0.0176223
1926	0.0127044
1938	0.0072948
1950	0.0029507
1962	0.00131142
1974	0.00081964
1986	0.000491784
1998	0.000655712
2010	0.000983568
2022	0.00163928
2034	0.00106553
2046	0.000983568
2058	0.000983568
2070	0.00122946
2082	0.00180321
2094	0.00163928
2106	0.00139339
2118	0.000901604
2130	0.000491784
2142	0.000573748
2154	0.000655712
2166	0.000163928
2178	0.000655712
2190	0.00040982
2202	8.1964e-05
2214	0.000491784
2226	0.000573748
2238	0.000163928
2250	0.000491784
2262	0.000573748
2274	0.00106553
2286	0.0029507
2298	0.00532766
2310	0.00745872
2322	0.00491784
2334	0.00262285
2346	0.00344249
2358	0.00311463
2370	0.00172124
2382	0.00344249
2394	0.00155732
2406	0.00188517
2418	0.00221303
2430	0.00221303
2442	0.00237696
2454	0.00286874
2466	0.00352445
2478	0.00450802
2490	0.00491784
2502	0.00581944
2514	0.00590141
2526	0.00622926
2538	0.00590141
2550	0.00516373
2562	0.00377034
2574	0.00303267
2586	0.00270481
2598	0.00360642
2610	0.00442606
2622	0.00385231
2634	0.0029507
2646	0.00163928
2658	0.00147535
2670	0.000573748
2682	0.000163928
2694	0.000245892
2706	0.000901604
2718	0.000901604
2730	0.000901604
2742	0.00147535
2754	0.00147535
2766	0.00106553
2778	0.0011475
2790	0.00172124
2802	0.00131142
2814	0.00188517
2826	0.00172124
2838	0.0020491
2850	0.00254088
2862	0.00262285
2874	0.00393427
2886	0.00483588
2898	0.00540962
2910	0.00475391
2922	0.00434409
2934	0.0049998
2946	0.00475391
2958	0.00377034
2970	0.00475391
2982	0.00663908
2994	0.0109832
3006	0.0263924
3018	0.0693415
3030	0.111635
3042	0.128765
3054	0.138273
3066	0.132536
3078	0.125651
3090	0.0989305
3102	0.0509816
3114	0.022704
3126	0.009098
3138	0.00508177
3150	0.00401624
3162	0.00393427
3174	0.00450802
3186	0.0052457
3198	0.00680301
3210	0.00713087
3222	0.00655712
3234	0.00631123
3246	0.0061473
3258	0.00631123
3270	0.00680301
3282	0.00827836
3294	0.00893408
3306	0.0106553
3318	0.0129503
3330	0.0154912
3342	0.0190976
3354	0.0239335
3366	0.0317201
3378	0.0405722
3390	0.0526209
3402	0.0673744
3414	0.0525389
3426	0.0380313
3438	0.0253269
3450	0.0216385
3462	0.0240974
3474	0.0309824
3486	0.0408181
3498	0.0457359
3510	0.0230319
3522	0.00836033
3534	0.00352445
3546	0.0031966
3558	0.00163928
3570	0.00139339
3582	0.000573748
3594	0.00155732
3606	0.000901604
3618	0.00188517
3630	0.00172124
3642	0.00163928
3654	0.00172124
3666	0.00040982
3678	0.00221303
3690	0.000737676
3702	0.000737676
3714	0.00106553
3726	0.000245892
3738	0.000163928
3750	0.000245892
3762	0
3774	0
3786	0
3798	0
3810	0
3822	0.000163928
3834	0
3846	0
3858	0
3870	0
3882	0
3894	0.000163928
3906	0.00131142
3918	0.00040982
3930	0.000491784
3942	0.000901604
3954	0.00040982
3966	0.000737676
