Infrared Spectrum: Phenol, 2-methyl-4,6-dinitro-
Formula: C 7 H 6 N 2 O 5
CAS: 534-52-1
Origin: Sadtler Research Labs Under US-EPA Contract
1/CM	ABSORBANCE
450	0
462	0.034182
474	0.0420979
486	0.0195497
498	0.0274656
510	0.0272257
522	0.0275855
534	0.0256665
546	0.0338222
558	0.0364608
570	0.0302241
582	0.0245871
594	0.0305839
606	0.0314235
618	0.0467754
630	0.068604
642	0.0545713
654	0.0572099
666	0.0522925
678	0.0680043
690	0.121856
702	0.212888
714	0.278734
726	0.139487
738	0.144284
750	0.0805977
762	0.0572099
774	0.0759201
786	0.0618875
798	0.0955898
810	0.0722021
822	0.0525324
834	0.0259064
846	0.0233877
858	0.0286649
870	0.0263861
882	0.0250668
894	0.03814
906	0.081917
918	0.120657
930	0.105425
942	0.0738812
954	0.0616476
966	0.0279453
978	0.0271058
990	0.0316634
1002	0.0420979
1014	0.0478549
1026	0.0355014
1038	0.0316634
1050	0.0368207
1062	0.0520527
1074	0.093311
1086	0.202933
1098	0.24671
1110	0.0652457
1122	0.0382599
1134	0.0365808
1146	0.0390995
1158	0.0496539
1170	0.0942705
1182	0.0669248
1194	0.0416181
1206	0.0464156
1218	0.055291
1230	0.0779591
1242	0.13325
1254	0.296724
1266	0.565623
1278	0.427815
1290	0.183743
1302	0.13241
1314	0.205572
1326	0.388836
1338	0.682082
1350	1.19937
1362	0.4578
1374	0.244192
1386	0.198136
1398	0.139127
1410	0.121976
1422	0.219125
1434	0.334264
1446	0.287249
1458	0.26722
1470	0.292646
1482	0.182184
1494	0.137328
1506	0.138647
1518	0.128093
1530	0.135049
1542	0.314235
1554	0.492701
1566	0.753084
1578	0.344339
1590	0.183024
1602	0.288808
1614	0.557827
1626	0.368566
1638	0.0943904
1650	0.055171
1662	0.0424577
1674	0.0368207
1686	0.0329827
1698	0.0321431
1710	0.0274656
1722	0.0250668
1734	0.0283051
1746	0.0239874
1758	0.0220684
1770	0.0231478
1782	0.0232678
1794	0.0269858
1806	0.0317833
1818	0.0355014
1830	0.0274656
1842	0.0220684
1854	0.0195497
1866	0.0203893
1878	0.0201494
1890	0.0202694
1902	0.0196697
1914	0.0195497
1926	0.01907
1938	0.0188301
1950	0.0194298
1962	0.0199095
1974	0.0194298
1986	0.0187102
1998	0.0181105
2010	0.0176307
2022	0.0194298
2034	0.0187102
2046	0.0193099
2058	0.0194298
2070	0.0195497
2082	0.0199095
2094	0.0194298
2106	0.0185902
2118	0.0184703
2130	0.0185902
2142	0.0188301
2154	0.0191899
2166	0.01907
2178	0.0199095
2190	0.0203893
2202	0.01895
2214	0.0191899
2226	0.0188301
2238	0.0195497
2250	0.0211089
2262	0.0212288
2274	0.0221883
2286	0.0235077
2298	0.0253067
2310	0.0262662
2322	0.0251868
2334	0.0232678
2346	0.0255466
2358	0.0223083
2370	0.026746
2382	0.0260263
2394	0.0212288
2406	0.0219485
2418	0.0232678
2430	0.0235077
2442	0.0235077
2454	0.0237475
2466	0.0243472
2478	0.0243472
2490	0.0242273
2502	0.022788
2514	0.0237475
2526	0.0241073
2538	0.0237475
2550	0.0254266
2562	0.0269858
2574	0.0272257
2586	0.0278254
2598	0.0274656
2610	0.0262662
2622	0.0271058
2634	0.0277054
2646	0.0279453
2658	0.0280653
2670	0.0283051
2682	0.0292646
2694	0.0305839
2706	0.0298643
2718	0.0291447
2730	0.0290248
2742	0.0291447
2754	0.0298643
2766	0.0302241
2778	0.0320232
2790	0.0338222
2802	0.0344219
2814	0.0349017
2826	0.0356213
2838	0.036101
2850	0.0374203
2862	0.0408985
2874	0.0472552
2886	0.0503735
2898	0.0460558
2910	0.0442568
2922	0.0479748
2934	0.0576897
2946	0.0668049
2958	0.0498938
2970	0.0490542
2982	0.0483346
2994	0.0484545
3006	0.0434172
3018	0.0376602
3030	0.0368207
3042	0.0373004
3054	0.0367007
3066	0.0408985
3078	0.0468954
3090	0.0520527
3102	0.0671647
3114	0.101227
3126	0.072322
3138	0.0622473
3150	0.0731616
3162	0.0899527
3174	0.106864
3186	0.116819
3198	0.123535
3210	0.125094
3222	0.120537
3234	0.112501
3246	0.103026
3258	0.0965493
3270	0.0909122
3282	0.085635
3294	0.0807176
3306	0.0760401
3318	0.0708828
3330	0.0652457
3342	0.0616476
3354	0.0561305
3366	0.0540916
3378	0.0510932
3390	0.0484545
3402	0.0465356
3414	0.0450963
3426	0.0428175
3438	0.0424577
3450	0.0398191
3462	0.0384998
3474	0.0375403
3486	0.0368207
3498	0.0358612
3510	0.0349017
3522	0.0347817
3534	0.0316634
3546	0.0316634
3558	0.0301042
3570	0.0298643
3582	0.0261463
3594	0.0275855
3606	0.0262662
3618	0.0245871
3630	0.0223083
3642	0.024827
3654	0.022788
3666	0.0211089
3678	0.0231478
3690	0.0213488
3702	0.0213488
3714	0.0213488
3726	0.0218285
3738	0.0211089
3750	0.0202694
3762	0.0215887
3774	0.0207491
3786	0.0213488
3798	0.0215887
3810	0.0201494
3822	0.0213488
3834	0.0188301
3846	0.0214687
3858	0.0207491
3870	0.0194298
3882	0.0217086
3894	0.0200295
3906	0.0239874
3918	0.0242273
3930	0.0199095
3942	0.022908
3954	0.0225482
3966	0.022788
