Infrared Spectrum: 3,5-Xylenol, 4-nitro-,
Formula: C 8 H 9 N O 3
CAS: 5344-97-8
Origin: Sadtler Research Labs Under US-EPA Contract
1/CM	ABSORBANCE
450	0
462	0.026163
474	0.0237006
486	0.0263169
498	0.0335502
510	0.0281637
522	0.0176215
534	0.0190066
546	0.013851
558	0.0159286
570	0.0133893
582	0.0151591
594	0.0233158
606	0.111501
618	0.1322
630	0.0222385
642	0.0134663
654	0.0172368
666	0.0203918
678	0.0236236
690	0.023162
702	0.023008
714	0.0212382
726	0.0198531
738	0.0206226
750	0.013774
762	0.0124659
774	0.0133124
786	0.0115425
798	0.0126967
810	0.0159286
822	0.0478629
834	0.190297
846	0.132431
858	0.0939559
870	0.0650228
882	0.0252396
894	0.0166981
906	0.0177755
918	0.0194683
930	0.0225463
942	0.0275481
954	0.0333963
966	0.0433998
978	0.0350892
990	0.0268555
1002	0.0299335
1014	0.0367051
1026	0.0535572
1038	0.064561
1050	0.0366282
1062	0.0256244
1074	0.026086
1086	0.0375516
1098	0.0783351
1110	0.0581742
1122	0.0363204
1134	0.0618678
1146	0.148898
1158	0.378979
1170	0.469087
1182	0.166366
1194	0.183295
1206	0.098573
1218	0.0434768
1230	0.0484785
1242	0.152438
1254	0.232158
1266	0.0858762
1278	0.0858762
1290	0.102497
1302	0.112347
1314	0.192991
1326	0.318958
1338	0.178062
1350	0.181602
1362	0.347891
1374	0.277482
1386	0.121658
1398	0.0697936
1410	0.0487093
1422	0.0653306
1434	0.10773
1446	0.17006
1458	0.19199
1470	0.174138
1482	0.165673
1494	0.15921
1506	0.172907
1518	0.253858
1530	0.562504
1542	0.717943
1554	0.348814
1566	0.182756
1578	0.224309
1590	0.351123
1602	0.368898
1614	0.353893
1626	0.222924
1638	0.0610214
1650	0.0317034
1662	0.0380902
1674	0.0360895
1686	0.0217769
1698	0.020007
1710	0.0207765
1722	0.0208534
1734	0.0171599
1746	0.0146205
1758	0.0127737
1770	0.0163134
1782	0.0163134
1794	0.013774
1806	0.0116964
1818	0.0106191
1830	0.0114655
1842	0.0103882
1854	0.0096957
1866	0.0105422
1878	0.00946485
1890	0.0112347
1902	0.0121581
1914	0.0109269
1926	0.0106191
1938	0.0109269
1950	0.00884925
1962	0.00884925
1974	0.0080028
1986	0.0070794
1998	0.0073872
2010	0.00746415
2022	0.00700245
2034	0.0072333
2046	0.00761805
2058	0.0078489
2070	0.0087723
2082	0.0080028
2094	0.0078489
2106	0.0081567
2118	0.00869535
2130	0.00946485
2142	0.0098496
2154	0.0096957
2166	0.0109269
2178	0.012312
2190	0.0144666
2202	0.0150822
2214	0.0129276
2226	0.0104652
2238	0.0130815
2250	0.0114655
2262	0.0087723
2274	0.0093879
2286	0.0118503
2298	0.0157748
2310	0.0183141
2322	0.0164673
2334	0.0145436
2346	0.0198531
2358	0.0186988
2370	0.0173137
2382	0.0188528
2394	0.0114655
2406	0.0110039
2418	0.0119273
2430	0.0115425
2442	0.010773
2454	0.0111577
2466	0.0112347
2478	0.0119273
2490	0.0129276
2502	0.0106961
2514	0.0084645
2526	0.0078489
2538	0.007695
2550	0.00792585
2562	0.0084645
2574	0.0084645
2586	0.0083106
2598	0.00807975
2610	0.00869535
2622	0.0087723
2634	0.00854145
2646	0.00869535
2658	0.0075411
2670	0.0070794
2682	0.007695
2694	0.0083106
2706	0.0096957
2718	0.0109269
2730	0.010773
2742	0.0109269
2754	0.0129276
2766	0.0124659
2778	0.0109269
2790	0.0105422
2802	0.0106191
2814	0.0114655
2826	0.012312
2838	0.0148513
2850	0.0206226
2862	0.030703
2874	0.0439384
2886	0.0482477
2898	0.0435537
2910	0.0407066
2922	0.0508639
2934	0.0803358
2946	0.0971879
2958	0.0647149
2970	0.0483246
2982	0.0576356
2994	0.0619447
3006	0.0520182
3018	0.0544036
3030	0.0668695
3042	0.0491711
3054	0.0356279
3066	0.0314726
3078	0.0266247
3090	0.0190066
3102	0.0145436
3114	0.0119273
3126	0.0105422
3138	0.0098496
3150	0.00900315
3162	0.00838755
3174	0.00777195
3186	0.00792585
3198	0.0078489
3210	0.00807975
3222	0.0084645
3234	0.0096957
3246	0.00854145
3258	0.00869535
3270	0.00884925
3282	0.00854145
3294	0.0089262
3306	0.0096957
3318	0.0098496
3330	0.0121581
3342	0.0121581
3354	0.0110808
3366	0.0112347
3378	0.0100804
3390	0.0103882
3402	0.0103882
3414	0.0100804
3426	0.0098496
3438	0.0101574
3450	0.00915705
3462	0.0096957
3474	0.0096957
3486	0.0090801
3498	0.00900315
3510	0.00915705
3522	0.0093879
3534	0.009234
3546	0.0095418
3558	0.0109269
3570	0.0106191
3582	0.0115425
3594	0.0103882
3606	0.0118503
3618	0.0135432
3630	0.0264708
3642	0.214075
3654	0.306569
3666	0.0555579
3678	0.0083106
3690	0.00684855
3702	0.0111577
3714	0.0073872
3726	0.0080028
3738	0.0073872
3750	0.00700245
3762	0.0084645
3774	0.010773
3786	0.00761805
3798	0.0090801
3810	0.00915705
3822	0.0089262
3834	0.00946485
3846	0.0102343
3858	0.00854145
3870	0.0106961
3882	0.00854145
3894	0.0130046
3906	0.0096957
3918	0.0113886
3930	0.0129276
3942	0.0121581
3954	0.0130815
3966	0.0128506
