Infrared Spectrum: Phenol, 2-allyl-6-chloro-,
Formula: C 9 H 9 Cl O
CAS: 5348-07-2
Origin: Sadtler Research Labs Under US-EPA Contract
1/CM	ABSORBANCE
450	0.0558907
462	0.0216866
474	0.038988
486	0.0969517
498	0.0120392
510	0.0600367
522	0.0288623
534	0.0743084
546	0.0823611
558	0.0582029
570	0.0351609
582	0.0567678
594	0.0713584
606	0.0837165
618	0.0620299
630	0.0464029
642	0.0475191
654	0.0557313
666	0.080607
678	0.140165
690	0.107635
702	0.0692854
714	0.0759827
726	0.181784
738	0.30696
750	0.171101
762	0.200043
774	0.237037
786	0.0999814
798	0.0545353
810	0.0553326
822	0.104606
834	0.148378
846	0.157786
858	0.182422
870	0.118798
882	0.0845935
894	0.106041
906	0.184655
918	0.290775
930	0.193983
942	0.1357
954	0.0984665
966	0.0735908
978	0.0774178
990	0.133149
1002	0.112658
1014	0.0601961
1026	0.0485556
1038	0.0489542
1050	0.0566083
1062	0.100061
1074	0.109788
1086	0.0904138
1098	0.100619
1110	0.0888989
1122	0.100938
1134	0.282483
1146	0.180987
1158	0.0938422
1170	0.130917
1182	0.144471
1194	0.219497
1206	0.322269
1218	0.287905
1230	0.246445
1242	0.531321
1254	0.384777
1266	0.160018
1278	0.117841
1290	0.125017
1302	0.131156
1314	0.124379
1326	0.284158
1338	0.331836
1350	0.0802881
1362	0.0377123
1374	0.0326893
1386	0.034842
1398	0.0388285
1410	0.0563691
1422	0.0888989
1434	0.18003
1446	0.417785
1458	0.775613
1470	0.424004
1482	0.245808
1494	0.108592
1506	0.0541367
1518	0.0294204
1530	0.0237595
1542	0.0235203
1554	0.023919
1566	0.0287825
1578	0.0589205
1590	0.0857895
1602	0.142398
1614	0.108991
1626	0.0539772
1638	0.111383
1650	0.0898557
1662	0.0354799
1674	0.0311744
1686	0.0242379
1698	0.0149095
1710	0.0135541
1722	0.0137933
1734	0.0123582
1746	0.0144311
1758	0.01475
1770	0.0145109
1782	0.0163446
1794	0.0173014
1806	0.0162649
1818	0.0182582
1830	0.0298987
1842	0.0405826
1854	0.0267893
1866	0.015069
1878	0.0121987
1890	0.0126771
1902	0.0192947
1914	0.0193744
1926	0.00988652
1938	0.0071757
1950	0.0063784
1962	0.00709597
1974	0.00845138
1986	0.00821219
1998	0.00653786
2010	0.00597975
2022	0.00613921
2034	0.00629867
2046	0.00590002
2058	0.00701624
2070	0.00605948
2082	0.0047838
2094	0.0039865
2106	0.00438515
2118	0.00446488
2130	0.00374731
2142	0.00271082
2154	0.00287028
2166	0.00287028
2178	0.00151487
2190	0.00143514
2202	0.00127568
2214	0.00151487
2226	0.00231217
2238	0.00342839
2250	0.00342839
2262	0.0039865
2274	0.00590002
2286	0.00829192
2298	0.0102852
2310	0.0121987
2322	0.00996625
2334	0.00885003
2346	0.00980679
2358	0.00853111
2370	0.00247163
2382	0.00574056
2394	0.0047838
2406	0.00590002
2418	0.00574056
2430	0.00550137
2442	0.00534191
2454	0.00526218
2466	0.00566083
2478	0.00621894
2490	0.00661759
2502	0.00661759
2514	0.00701624
2526	0.00900949
2538	0.00948787
2550	0.00781354
2562	0.00534191
2574	0.00430542
2586	0.00502299
2598	0.00374731
2610	0.00207298
2622	0.00310947
2634	0.00287028
2646	0.0047838
2658	0.00685678
2670	0.00422569
2682	0.00175406
2694	0.00390677
2706	0.0055811
2718	0.00582029
2730	0.00510272
2742	0.00550137
2754	0.00605948
2766	0.00582029
2778	0.00510272
2790	0.00446488
2802	0.00518245
2814	0.00757435
2826	0.0122784
2838	0.0201717
2850	0.0305366
2862	0.031892
2874	0.0244771
2886	0.0258325
2898	0.0361177
2910	0.0632259
2922	0.0950382
2934	0.083557
2946	0.0578043
2958	0.043692
2970	0.0396258
2982	0.0660962
2994	0.0814043
3006	0.0538975
3018	0.0851516
3030	0.0680894
3042	0.0814841
3054	0.066734
3066	0.0774976
3078	0.137773
3090	0.204109
3102	0.0814043
3114	0.0208095
3126	0.0120392
3138	0.00988652
3150	0.00964733
3162	0.00964733
3174	0.00749462
3186	0.00781354
3198	0.00749462
3210	0.00661759
3222	0.00438515
3234	0.00534191
3246	0.0063784
3258	0.00829192
3270	0.00781354
3282	0.00470407
3294	0.0047838
3306	0.00605948
3318	0.00629867
3330	0.00653786
3342	0.00406623
3354	0.00438515
3366	0.00534191
3378	0.00613921
3390	0.00414596
3402	0.00199325
3414	0.00406623
3426	0.00438515
3438	0.00462434
3450	0.00175406
3462	0.00406623
3474	0.00534191
3486	0.00574056
3498	0.00693651
3510	0.00725543
3522	0.00869057
3534	0.0141122
3546	0.0243176
3558	0.10636
3570	0.743881
3582	0.405826
3594	0.0624286
3606	0.0254339
3618	0.00924868
3630	0.00582029
3642	0.0106838
3654	0.0112419
3666	0.0121987
3678	0.00295001
3690	0.00183379
3702	0.00534191
3714	0.00287028
3726	0.00590002
3738	0.00191352
3750	0
3762	0.00685678
3774	0.00621894
3786	0.00908922
3798	0.00701624
3810	0.00590002
3822	0.00406623
3834	0.00900949
3846	0.00845138
3858	0.012119
3870	0.0157068
3882	0.00263109
3894	0.00861084
3906	0.00470407
3918	0.00885003
3930	0.00605948
3942	0.00773381
3954	0.00741489
3966	0.00813246
