Infrared Spectrum: Benzenemethanol, .alpha.-ethyl-4-methoxy-
Formula: C 10 H 14 O 2
CAS: 5349-60-0
Origin: Sadtler Research Labs Under US-EPA Contract
1/CM	ABSORBANCE
450	0.0201113
462	0.00657359
474	0.00507663
486	0.0056624
498	0.00963258
510	0.0117153
522	0.0171174
534	0.0238211
546	0.0337791
558	0.0311106
570	0.0333886
582	0.0314361
594	0.0185492
606	0.00546714
618	0.00859122
630	0.00572748
642	0.00754986
654	0.000976275
666	0.000585765
678	0.000846105
690	0.00553222
702	0.00943732
714	0.00286374
726	0.00462103
738	0.00878648
750	0.0128868
762	0.010739
774	0.0109994
786	0.0184191
798	0.0281167
810	0.0412639
822	0.0747827
834	0.136548
846	0.0806403
858	0.0228448
870	0.0125614
882	0.012236
894	0.0190699
906	0.0181587
918	0.0106739
930	0.0134726
942	0.016076
954	0.027531
966	0.0590972
978	0.0733508
990	0.0549317
1002	0.0743922
1014	0.0999706
1026	0.090338
1038	0.163624
1050	0.184711
1062	0.0700965
1074	0.0507663
1086	0.0634579
1098	0.0715935
1110	0.0500504
1122	0.03443
1134	0.0225194
1146	0.0216733
1158	0.0367079
1170	0.166618
1182	0.155098
1194	0.0534999
1206	0.0488138
1218	0.0777115
1230	0.140974
1242	0.387972
1254	0.622408
1266	0.206254
1278	0.143708
1290	0.147743
1302	0.158352
1314	0.0887109
1326	0.0538904
1338	0.0451039
1350	0.065085
1362	0.0654104
1374	0.0695759
1386	0.0596829
1398	0.0392463
1410	0.0291581
1422	0.0300693
1434	0.0313059
1446	0.0661264
1458	0.0721142
1470	0.111556
1482	0.0649548
1494	0.063588
1506	0.209313
1518	0.395977
1530	0.0804451
1542	0.0342998
1554	0.0171824
1566	0.0182238
1578	0.0350157
1590	0.0575351
1602	0.0833088
1614	0.166422
1626	0.0809007
1638	0.0214781
1650	0.0112597
1662	0.00735461
1674	0.00403527
1686	0.00253832
1698	0.00318917
1710	0.00748478
1722	0.00937224
1734	0.00995801
1746	0.00898173
1758	0.00995801
1770	0.00976275
1782	0.00468612
1794	0.00117153
1806	0.0013017
1818	0.00104136
1830	0.000195255
1842	0.000715935
1854	0.00253832
1866	0.00273357
1878	0.00572748
1890	0.00579257
1902	0.00279866
1914	0.00195255
1926	0.00143187
1938	0.00182238
1950	0.00208272
1962	0.00221289
1974	0.00214781
1986	0.00240814
1998	0.003059
2010	0.00338442
2022	0.00364476
2034	0.00455595
2046	0.00579257
2058	0.00631325
2070	0.0069641
2082	0.00807054
2094	0.00572748
2106	0.00227798
2118	0.000846105
2130	0.000585765
2142	0.000585765
2154	0.00013017
2166	6.5085e-05
2178	0.00013017
2190	0
2202	0.00065085
2214	0.000846105
2226	0.00078102
2238	0.00039051
2250	0.00039051
2262	0.00110645
2274	0.00149696
2286	0.00221289
2298	0.0026034
2310	0.00214781
2322	0.00182238
2334	0.00065085
2346	0.00136679
2358	0.00234306
2370	0.0017573
2382	0.00136679
2394	0.00201764
2406	0.0026034
2418	0.00338442
2430	0.00299391
2442	0.00227798
2454	0.00247323
2466	0.00234306
2478	0.00266849
2490	0.00325425
2502	0.00384002
2514	0.00377493
2526	0.00416544
2538	0.00527189
2550	0.00624816
2562	0.00507663
2574	0.0039051
2586	0.00416544
2598	0.0043607
2610	0.00416544
2622	0.00357968
2634	0.00351459
2646	0.00364476
2658	0.00364476
2670	0.00377493
2682	0.00403527
2694	0.00416544
2706	0.00429561
2718	0.00442578
2730	0.00553222
2742	0.00657359
2754	0.0069641
2766	0.00748478
2778	0.00794037
2790	0.00930716
2802	0.0110644
2814	0.0148394
2826	0.0226496
2838	0.0603338
2850	0.0874742
2862	0.0690552
2874	0.0893617
2886	0.114094
2898	0.0831135
2910	0.0877997
2922	0.113248
2934	0.147873
2946	0.193758
2958	0.154967
2970	0.172866
2982	0.156074
2994	0.0738064
3006	0.11123
3018	0.0672979
3030	0.0439975
3042	0.0477724
3054	0.0301994
3066	0.0284421
3078	0.0354713
3090	0.0233004
3102	0.0195906
3114	0.0158807
3126	0.00982784
3138	0.00761495
3150	0.00540206
3162	0.00423053
3174	0.00344951
3186	0.0026034
3198	0.00188747
3210	0.00149696
3222	0.00091119
3234	0.00052068
3246	0.000715935
3258	0.00117153
3270	0.00065085
3282	0.000455595
3294	0.000585765
3306	0.000585765
3318	0.00078102
3330	0.00136679
3342	0.00123662
3354	0.00123662
3366	0.00214781
3378	0.00156204
3390	0.00201764
3402	0.00266849
3414	0.00253832
3426	0.00253832
3438	0.00234306
3450	0.00286374
3462	0.00273357
3474	0.00299391
3486	0.00292883
3498	0.00292883
3510	0.00318917
3522	0.00279866
3534	0.00344951
3546	0.003059
3558	0.00286374
3570	0.00299391
3582	0.00351459
3594	0.00397019
3606	0.003059
3618	0.00370985
3630	0.00768003
3642	0.0293533
3654	0.0392463
3666	0.0159458
3678	0.00488138
3690	0.00351459
3702	0.00312408
3714	0.00136679
3726	0.00104136
3738	0.00123662
3750	0.000715935
3762	0.00110645
3774	0.00110645
3786	0.00162713
3798	0.00110645
3810	0.00136679
3822	0.00240814
3834	0.0017573
3846	0.00169221
3858	0.00195255
3870	0.0026034
3882	0.00253832
3894	0.00344951
3906	0.00188747
3918	0.00227798
3930	0.00195255
3942	0.0026034
3954	0.00247323
3966	0.000976275
