Infrared Spectrum: Ethanol, 2-[4-(1-methylpropyl)phenoxy]-
Formula: C 12 H 18 O 2
CAS: 5349-63-3
Origin: Sadtler Research Labs Under US-EPA Contract
1/CM	ABSORBANCE
450	0.0152494
462	0.0169106
474	0.00353547
486	0.010862
498	0.0116287
510	0.00903035
522	0.0151216
534	0.0191682
546	0.0322878
558	0.0327137
570	0.0168254
582	0.0150364
594	0.0136307
606	0.0111602
618	0.00558008
630	0.00268355
642	0.0032373
654	0.00711353
666	0.0053671
678	0.00839141
690	0.0162291
702	0.0201479
714	0.0084766
726	0.0100527
738	0.0104786
750	0.0124806
762	0.0115435
774	0.0127362
786	0.0169958
798	0.0249187
810	0.0289227
822	0.0516689
834	0.0801657
846	0.0350565
858	0.0231722
870	0.0249187
882	0.0287097
894	0.0460889
906	0.0572916
918	0.0461315
930	0.0230444
942	0.0169532
954	0.0145252
966	0.0149086
978	0.0146104
990	0.0202757
1002	0.0375271
1014	0.0623179
1026	0.0851494
1038	0.189041
1050	0.196282
1062	0.101932
1074	0.100654
1086	0.101591
1098	0.071902
1110	0.05103
1122	0.029519
1134	0.0266651
1146	0.0254298
1158	0.0246631
1170	0.0756079
1182	0.112965
1194	0.049028
1206	0.0753949
1218	0.126084
1230	0.231765
1242	0.409135
1254	0.311632
1266	0.136435
1278	0.101762
1290	0.0966929
1302	0.0814861
1314	0.0423404
1326	0.0310099
1338	0.0347157
1350	0.0465148
1362	0.0483891
1374	0.0793563
1386	0.0569083
1398	0.0382938
1410	0.031947
1422	0.0254724
1434	0.0210424
1446	0.0366326
1458	0.0939668
1470	0.080762
1482	0.051456
1494	0.0642348
1506	0.218688
1518	0.287779
1530	0.0326711
1542	0.0131622
1554	0.0126936
1566	0.0129066
1578	0.0240667
1590	0.0373567
1602	0.0583991
1614	0.101378
1626	0.0282411
1638	0.00992487
1650	0.00621902
1662	0.00604863
1674	0.00345028
1686	0.00293912
1698	0.00191682
1710	0.00285393
1722	0.00332249
1734	0.00204461
1746	0.00374845
1758	0.00523931
1770	0.00302432
1782	0.00268355
1794	0.00161865
1806	0.00230018
1818	0.00289653
1830	0.0021298
1842	0.00276874
1854	0.00396143
1866	0.00494114
1878	0.00758209
1890	0.00570786
1902	0.00451518
1914	0.00362066
1926	0.00417441
1938	0.0043022
1950	0.00396143
1962	0.00451518
1974	0.00396143
1986	0.00362066
1998	0.00327989
2010	0.0031521
2022	0.00264095
2034	0.00293912
2046	0.00349287
2058	0.00298172
2070	0.00251316
2082	0.00353547
2094	0.00417441
2106	0.00302432
2118	0.00221499
2130	0.00170384
2142	0.00170384
2154	0.00085192
2166	0.0011075
2178	0.0010223
2190	0.000511152
2202	0.000596344
2214	0.000340768
2226	0.000724132
2238	0.000511152
2250	0.0010223
2262	0.000511152
2274	0.000894516
2286	0.0010649
2298	0.0020872
2310	0.00281134
2322	0.00396143
2334	0.00221499
2346	0.000127788
2358	0.00434479
2370	4.2596e-05
2382	4.2596e-05
2394	0.0010223
2406	0.00178903
2418	0.00187422
2430	0.00166124
2442	0.0011075
2454	0.00178903
2466	0.00153346
2478	0.00259836
2490	0.00221499
2502	0.00127788
2514	0.00174644
2526	0.00259836
2538	0.00289653
2550	0.00272614
2562	0.0020872
2574	0.00174644
2586	0.00170384
2598	0.00157605
2610	0.00132048
2622	0.00149086
2634	0.00183163
2646	0.00144826
2658	0.00230018
2670	0.00200201
2682	0.00238538
2694	0.00242797
2706	0.0032373
2718	0.00540969
2730	0.00677276
2742	0.00732651
2754	0.00651719
2766	0.00489854
2778	0.00545229
2790	0.00753949
2802	0.00805064
2814	0.0103934
2826	0.0138011
2838	0.0185293
2850	0.0254724
2862	0.0556304
2874	0.117309
2886	0.171662
2898	0.114029
2910	0.105723
2922	0.163909
2934	0.214087
2946	0.188317
2958	0.19181
2970	0.355208
2982	0.184952
2994	0.0472816
3006	0.0294338
3018	0.0263243
3030	0.0365474
3042	0.0505615
3054	0.0283689
3066	0.0263669
3078	0.0259836
3090	0.0163569
3102	0.0167402
3114	0.0109472
3126	0.00822103
3138	0.00702834
3150	0.00451518
3162	0.00345028
3174	0.00515412
3186	0.00485594
3198	0.00366326
3210	0.00417441
3222	0.00178903
3234	0.00255576
3246	0.00085192
3258	0.0010223
3270	0.00183163
3282	0.00259836
3294	0.00170384
3306	0.00221499
3318	0.00234278
3330	0.00204461
3342	0.00285393
3354	0.00187422
3366	0.00379104
3378	0.00161865
3390	0.00191682
3402	0.00183163
3414	0.00340768
3426	0.00200201
3438	0.0031521
3450	0.00285393
3462	0
3474	0.00132048
3486	0.00183163
3498	0.00272614
3510	0.00234278
3522	0.00357806
3534	0.00178903
3546	0.004217
3558	0.0031947
3570	0.00349287
3582	0.000937112
3594	0.00477075
3606	0.00340768
3618	0.00843401
3630	0.0226185
3642	0.0434905
3654	0.0211702
3666	0.0177199
3678	0.0149512
3690	0.00783766
3702	0.00604863
3714	0.00281134
3726	0.00413181
3738	0.00242797
3750	0.00340768
3762	0.0031521
3774	0.00157605
3786	0.00238538
3798	0.00336508
3810	0.00259836
3822	0.00200201
3834	0.0020872
3846	0.00191682
3858	0.000894516
3870	0.00396143
3882	0.00119269
3894	0.0032373
3906	0.00042596
3918	0.00383364
3930	0.00349287
3942	0.00455777
3954	0.00238538
3966	0.00247057
