Infrared Spectrum: Benzoic acid, 3-chloro-
Formula: C 7 H 5 Cl O 2
CAS: 535-80-8
Origin: Sadtler Research Labs Under US-EPA Contract
1/CM	ABSORBANCE
450	0.0234773
462	0.0111901
474	0.0156515
486	0.0166755
498	0.0204786
510	0.0261834
522	0.0290358
534	0.0427857
546	0.0555117
558	0.0644346
570	0.0942749
582	0.125359
594	0.0717484
606	0.0302791
618	0.0271342
630	0.127772
642	0.0754053
654	0.0101662
666	0.0171874
678	0.0672138
690	0.146349
702	0.038178
714	0.0101662
726	0.0160904
738	0.0827191
750	0.197765
762	0.108829
774	0.0310837
786	0.01748
798	0.0181382
810	0.0265491
822	0.048783
834	0.0473203
846	0.0119946
858	0.00219414
870	0.00343749
882	0.00555849
894	0.014335
906	0.0188696
918	0.00950794
930	0.00329121
942	0.0030718
954	0.00234042
966	0.00124335
978	0.00102393
990	0.00197473
1002	0.00628987
1014	0.0127992
1026	0.0185771
1038	0.0217951
1050	0.0472471
1062	0.121043
1074	0.158563
1086	0.159221
1098	0.155126
1110	0.156881
1122	0.131283
1134	0.0687497
1146	0.0553655
1158	0.0859372
1170	0.170046
1182	0.418422
1194	0.266369
1206	0.0524399
1218	0.0312299
1230	0.0361302
1242	0.0382512
1254	0.0474666
1266	0.0533176
1278	0.0371541
1290	0.0491487
1302	0.0813295
1314	0.117386
1326	0.118118
1338	0.060412
1350	0.0847669
1362	0.126968
1374	0.0585104
1386	0.0322539
1398	0.0241355
1410	0.0334972
1422	0.0849132
1434	0.0845475
1446	0.0229653
1458	0.0170412
1470	0.032839
1482	0.0398602
1494	0.0181382
1506	0.00592418
1518	0.00475397
1530	0.00175531
1542	0.00877656
1554	0.0258909
1566	0.0508309
1578	0.0571939
1590	0.0449799
1602	0.0234042
1614	0.0155784
1626	0.00724066
1638	0.00402259
1650	0.00431514
1662	0.00380318
1674	0.0051928
1686	0.00446142
1698	0.00899597
1710	0.0287432
1722	0.0438097
1734	0.0376661
1746	0.100638
1758	0.568648
1770	0.727284
1782	0.118045
1794	0.0287432
1806	0.0364227
1818	0.0414692
1830	0.0160904
1842	0.00446142
1854	0.00248669
1866	0.00329121
1878	0.00533907
1890	0.00511966
1902	0.00475397
1914	0.00460769
1926	0.00431514
1938	0.00351062
1950	0.00373004
1962	0.00219414
1974	0.00146276
1986	0.00124335
1998	0.00109707
2010	0.00204786
2022	0.00131648
2034	0.00036569
2046	0.000950794
2058	0.00036569
2070	0.000658242
2082	0.000585104
2094	0.000146276
2106	0.000292552
2118	0.000950794
2130	0.000950794
2142	0.00138962
2154	0.000658242
2166	0.000438828
2178	0.00160904
2190	0.00168217
2202	0.00102393
2214	0.000950794
2226	0.00073138
2238	0.000804518
2250	0.00117021
2262	0.00073138
2274	0.00102393
2286	0.00124335
2298	0.0015359
2310	0.00219414
2322	0.00321807
2334	0.002121
2346	0.00241355
2358	0.00277924
2370	0.000146276
2382	0.00182845
2394	0.00175531
2406	0.00138962
2418	0.0015359
2430	0.00138962
2442	0.00124335
2454	0.0015359
2466	0.00131648
2478	0.00109707
2490	0.000804518
2502	0.000950794
2514	0.00102393
2526	0.00138962
2538	0.00146276
2550	0.00138962
2562	0.00146276
2574	0.00131648
2586	0.0015359
2598	0.00175531
2610	0.000950794
2622	0.00073138
2634	0.000292552
2646	7.3138e-05
2658	0.000585104
2670	0.00117021
2682	0.000658242
2694	0.00073138
2706	0.000585104
2718	0.000438828
2730	0.000950794
2742	0.00117021
2754	0.00138962
2766	0.00182845
2778	0.002121
2790	0.00182845
2802	0.00138962
2814	0.00102393
2826	0.00160904
2838	0.00204786
2850	0.00241355
2862	0.00460769
2874	0.00460769
2886	0.004242
2898	0.00380318
2910	0.00446142
2922	0.00585104
2934	0.00892284
2946	0.00716752
2958	0.00621673
2970	0.00892284
2982	0.00592418
2994	0.00351062
3006	0.00321807
3018	0.00358376
3030	0.00460769
3042	0.00490025
3054	0.00468083
3066	0.00899597
3078	0.0206249
3090	0.0185039
3102	0.00724066
3114	0.00292552
3126	0.00204786
3138	0.00168217
3150	0.00138962
3162	0.00131648
3174	0.00182845
3186	0.0015359
3198	0.00146276
3210	0.000804518
3222	0.000658242
3234	0.00073138
3246	0.00124335
3258	0.00102393
3270	0.00109707
3282	0.00146276
3294	0.00102393
3306	0.00138962
3318	0.00109707
3330	0.00102393
3342	0.00197473
3354	0.00204786
3366	0.00299866
3378	0.00146276
3390	0.00197473
3402	0.00204786
3414	0.00175531
3426	0.00182845
3438	0.002121
3450	0.00219414
3462	0.000950794
3474	0.00146276
3486	0.00138962
3498	0.00160904
3510	0.00482711
3522	0.00387631
3534	0.000804518
3546	0.00160904
3558	0.00665556
3570	0.0584373
3582	0.259347
3594	0.143936
3606	0.00716752
3618	0.00292552
3630	0.0036569
3642	0.002121
3654	0.00226728
3666	0.00102393
3678	0.00285238
3690	0.00248669
3702	0.00204786
3714	0.00329121
3726	0.00255983
3738	0.00373004
3750	0.00329121
3762	0.00109707
3774	0.00117021
3786	0.00036569
3798	0.000950794
3810	0.00036569
3822	0.00285238
3834	0.00160904
3846	0.00109707
3858	0.00138962
3870	0.00263297
3882	0.00138962
3894	0.00168217
3906	0.00160904
3918	0.000804518
3930	0.002121
3942	0.00138962
3954	0.00219414
3966	0.000438828
