Infrared Spectrum: Propanoic acid, 2-bromo-, ethyl ester
Formula: C 5 H 9 Br O 2
CAS: 535-11-5
Origin: Sadtler Research Labs Under US-EPA Contract
1/CM	ABSORBANCE
450	0
462	0.0259392
474	0.0225073
486	0.0216293
498	0.018357
510	0.0225871
522	0.0231458
534	0.0209908
546	0.0232256
558	0.0220284
570	0.0233852
582	0.0211504
594	0.0264181
606	0.0193946
618	0.015803
630	0.0214697
642	0.0280144
654	0.0402258
666	0.0445357
678	0.0479676
690	0.0242632
702	0.0138076
714	0.0103757
726	0.00941793
738	0.00375121
750	0.0200331
762	0.0220284
774	0.0223476
786	0.0212303
798	0.0179579
810	0.0160424
822	0.0164415
834	0.0187561
846	0.0236246
858	0.0484465
870	0.0423009
882	0.0250613
894	0.0268172
906	0.0225871
918	0.0152443
930	0.0122114
942	0.0129297
954	0.0165213
966	0.0250613
978	0.0454136
990	0.052916
1002	0.0458925
1014	0.0831651
1026	0.138156
1038	0.0951371
1050	0.097292
1062	0.236087
1074	0.317895
1086	0.195622
1098	0.177025
1110	0.141908
1122	0.11094
1134	0.157471
1146	0.362351
1158	0.649917
1170	0.427718
1182	0.195302
1194	0.152523
1206	0.222279
1218	0.400422
1230	0.434103
1242	0.280623
1254	0.309674
1266	0.379351
1278	0.229861
1290	0.128659
1302	0.118921
1314	0.126903
1326	0.198016
1338	0.240876
1350	0.112696
1362	0.0695969
1374	0.144781
1386	0.118043
1398	0.0621743
1410	0.0433385
1422	0.032883
1434	0.0467704
1446	0.104156
1458	0.125147
1470	0.0831651
1482	0.0570663
1494	0.0273759
1506	0.0185964
1518	0.0169204
1530	0.0208312
1542	0.013249
1554	0.0107748
1566	0.0133288
1578	0.0106949
1590	0.00925831
1602	0.0106151
1614	0.0109344
1626	0.0121316
1638	0.0114133
1650	0.0115729
1662	0.0122114
1674	0.0161222
1686	0.0185166
1698	0.0253805
1710	0.0411835
1722	0.0685594
1734	0.143105
1746	0.466986
1758	0.79813
1770	0.458685
1782	0.154119
1794	0.0757425
1806	0.0396671
1818	0.0205918
1830	0.0160424
1842	0.0131691
1854	0.0107748
1866	0.0111738
1878	0.0111738
1890	0.0122114
1902	0.011094
1914	0.0109344
1926	0.0100564
1938	0.00973719
1950	0.0106151
1962	0.0103757
1974	0.00957756
1986	0.00766205
1998	0.0091785
2010	0.0106949
2022	0.00933812
2034	0.00925831
2046	0.00893906
2058	0.00933812
2070	0.00853999
2082	0.0108546
2094	0.0100564
2106	0.00909868
2118	0.00901887
2130	0.00742261
2142	0.00726298
2154	0.00806111
2166	0.00726298
2178	0.00710336
2190	0.00678411
2202	0.00718317
2214	0.00678411
2226	0.00718317
2238	0.00758224
2250	0.00718317
2262	0.00678411
2274	0.00686392
2286	0.00670429
2298	0.00678411
2310	0.0061456
2322	0.0055071
2334	0.00486859
2346	0.00462915
2358	0.00718317
2370	0.00582635
2382	0.00646485
2394	0.0079813
2406	0.00822074
2418	0.00758224
2430	0.00702354
2442	0.00718317
2454	0.00670429
2466	0.00662448
2478	0.00686392
2490	0.00678411
2502	0.00630523
2514	0.00622541
2526	0.00654467
2538	0.00662448
2550	0.00654467
2562	0.00598598
2574	0.00542728
2586	0.00566672
2598	0.00598598
2610	0.0061456
2622	0.00574654
2634	0.00518784
2646	0.00582635
2658	0.00598598
2670	0.00534747
2682	0.00510803
2694	0.00462915
2706	0.00518784
2718	0.00590616
2730	0.00646485
2742	0.0073428
2754	0.00806111
2766	0.00758224
2778	0.00814093
2790	0.00838037
2802	0.00806111
2814	0.00941793
2826	0.0114931
2838	0.0122912
2850	0.0129297
2862	0.01708
2874	0.0301693
2886	0.0454136
2898	0.0437375
2910	0.0494841
2922	0.0588222
2934	0.0919446
2946	0.120438
2958	0.0862779
2970	0.093062
2982	0.184687
2994	0.247819
3006	0.144142
3018	0.0828459
3030	0.0351177
3042	0.0180377
3054	0.0130095
3066	0.0110142
3078	0.00997663
3090	0.00925831
3102	0.00925831
3114	0.0086198
3126	0.00750242
3138	0.00806111
3150	0.00806111
3162	0.00806111
3174	0.00782167
3186	0.00758224
3198	0.00710336
3210	0.00782167
3222	0.0079813
3234	0.0079813
3246	0.00702354
3258	0.00638504
3270	0.00590616
3282	0.00726298
3294	0.00598598
3306	0.00646485
3318	0.00678411
3330	0.00566672
3342	0.00702354
3354	0.00646485
3366	0.00526766
3378	0.00710336
3390	0.0073428
3402	0.00838037
3414	0.00646485
3426	0.00742261
3438	0.00750242
3450	0.00766205
3462	0.00893906
3474	0.0091785
3486	0.0121316
3498	0.0138875
3510	0.0102959
3522	0.00814093
3534	0.00846018
3546	0.00742261
3558	0.00758224
3570	0.00758224
3582	0.00901887
3594	0.00885924
3606	0.00925831
3618	0.00830055
3630	0.0073428
3642	0.00909868
3654	0.00806111
3666	0.00941793
3678	0.00766205
3690	0.00989681
3702	0.00838037
3714	0.00846018
3726	0.0086198
3738	0.00758224
3750	0.00869962
3762	0.00662448
3774	0.00718317
3786	0.0091785
3798	0.0107748
3810	0.0073428
3822	0.00838037
3834	0.00790149
3846	0.00846018
3858	0.0105353
3870	0.00766205
3882	0.00957756
3894	0.00822074
3906	0.0086198
3918	0.00758224
3930	0.0107748
3942	0.00869962
3954	0.0086198
3966	0.00718317
