Infrared Spectrum: p-Anisidine, 2,6-dinitro-,
Formula: C 7 H 7 N 3 O 5
CAS: 5350-56-1
Origin: Sadtler Research Labs Under US-EPA Contract
1/CM	ABSORBANCE
450	0.00258641
462	0.008576
474	0.0136127
486	0.00980114
498	0.0050367
510	0.00694248
522	0.00449219
534	0.00190578
546	0
558	0.00585346
570	0.00912051
582	0.00993727
594	0.00517283
606	0.00571733
618	0.00571733
630	0.00735086
642	0.00830375
654	0.00830375
666	0.00231416
678	0.00571733
690	0.0103457
702	0.0157907
714	0.0210997
726	0.0506392
738	0.0974669
750	0.0465554
762	0.0548592
774	0.105771
786	0.129593
798	0.0814039
810	0.014974
822	0.00639797
834	0.00408381
846	0.00667022
858	0.0156546
870	0.0432884
882	0.0725557
894	0.128912
906	0.207458
918	0.048189
930	0.0178326
942	0.0196023
954	0.0129321
966	0.0100734
978	0.0106179
990	0.0136127
1002	0.0225971
1014	0.0221887
1026	0.0348485
1038	0.0890271
1050	0.202149
1062	0.149059
1074	0.0367543
1086	0.0288589
1098	0.04288
1110	0.0280422
1122	0.0121153
1134	0.0103457
1146	0.00694248
1158	0.00939276
1170	0.020419
1182	0.0423355
1194	0.0520005
1206	0.0743253
1218	0.185405
1230	0.456025
1242	0.382517
1254	0.367407
1266	0.448947
1278	0.535796
1290	0.394224
1302	0.323982
1314	0.255102
1326	0.170159
1338	0.163897
1350	0.183363
1362	0.133404
1374	0.0513199
1386	0.0359375
1398	0.049278
1410	0.140755
1422	0.191939
1434	0.123195
1446	0.106179
1458	0.0935192
1470	0.0966502
1482	0.0848071
1494	0.11843
1506	0.1933
1518	0.373532
1530	0.878019
1542	1.36127
1554	0.591063
1566	0.267626
1578	0.162808
1590	0.0826291
1602	0.053634
1614	0.0421994
1626	0.0427439
1638	0.0665661
1650	0.0883464
1662	0.0368904
1674	0.00367543
1686	0.00394768
1698	0.00748698
1710	0.00517283
1722	0.00626184
1734	0.00408381
1746	0.00476444
1758	0.00408381
1770	0.00408381
1782	0.00517283
1794	0.00571733
1806	0.00667022
1818	0.00544508
1830	0.00258641
1842	0.00122514
1854	0.00217803
1866	0.000952889
1878	0.00217803
1890	0.0014974
1902	0.00176965
1914	0.000680635
1926	0.000816762
1938	0.00136127
1950	0.00176965
1962	0.00272254
1974	0.00367543
1986	0.00462832
1998	0.00517283
2010	0.00476444
2022	0.00449219
2034	0.00558121
2046	0.00476444
2058	0.0035393
2070	0.00313092
2082	0.00340317
2094	0.00340317
2106	0.00394768
2118	0.0035393
2130	0.00258641
2142	0.00176965
2154	0.00176965
2166	0.00217803
2178	0.00285867
2190	0.00326705
2202	0.00285867
2214	0.00190578
2226	0.000680635
2238	0.000272254
2250	0.000816762
2262	0.000408381
2274	0.0014974
2286	0.00285867
2298	0.00462832
2310	0.00585346
2322	0.0050367
2334	0.00449219
2346	0.00585346
2358	0.00490057
2370	0.00421994
2382	0.00408381
2394	0.00163352
2406	0.00176965
2418	0.00204191
2430	0.00313092
2442	0.00326705
2454	0.00299479
2466	0.00272254
2478	0.00285867
2490	0.00258641
2502	0.00231416
2514	0.00217803
2526	0.00258641
2538	0.00313092
2550	0.00299479
2562	0.00326705
2574	0.00313092
2586	0.00326705
2598	0.00326705
2610	0.00258641
2622	0.00204191
2634	0.00299479
2646	0.00367543
2658	0.00449219
2670	0.00462832
2682	0.00517283
2694	0.00544508
2706	0.00558121
2718	0.00544508
2730	0.00530895
2742	0.00626184
2754	0.0065341
2766	0.00680635
2778	0.00735086
2790	0.00843987
2802	0.0100734
2814	0.0115708
2826	0.0134766
2838	0.0240945
2850	0.0378433
2862	0.0266809
2874	0.0250474
2886	0.0261364
2898	0.0281783
2910	0.0311731
2922	0.034304
2934	0.0367543
2946	0.0541785
2958	0.0469638
2970	0.0397491
2982	0.024639
2994	0.0198745
3006	0.0242306
3018	0.041791
3030	0.0210997
3042	0.0103457
3054	0.00966502
3066	0.0119792
3078	0.0155185
3090	0.0210997
3102	0.0292673
3114	0.0221887
3126	0.0100734
3138	0.00530895
3150	0.00476444
3162	0.00435606
3174	0.00476444
3186	0.00449219
3198	0.00313092
3210	0.00217803
3222	0.00122514
3234	0.00108902
3246	0.00122514
3258	0
3270	0.000952889
3282	0.000408381
3294	0.00176965
3306	0.00408381
3318	0.00735086
3330	0.0117069
3342	0.0189217
3354	0.0326705
3366	0.057854
3378	0.0843987
3390	0.115436
3402	0.0702415
3414	0.0225971
3426	0.0153824
3438	0.0168797
3450	0.0223248
3462	0.0381156
3474	0.0748699
3486	0.135719
3498	0.213583
3510	0.152598
3522	0.0480528
3534	0.0148378
3546	0.008576
3558	0.00571733
3570	0.0050367
3582	0.00285867
3594	0.00313092
3606	0.00136127
3618	0.00204191
3630	0.00272254
3642	0.0014974
3654	0.00176965
3666	0.0014974
3678	0.00245029
3690	0.00245029
3702	0.00231416
3714	0.00190578
3726	0.00326705
3738	0.00340317
3750	0.00231416
3762	0.00231416
3774	0.00272254
3786	0.00245029
3798	0.00326705
3810	0.00299479
3822	0.00462832
3834	0.00272254
3846	0.0050367
3858	0.00313092
3870	0.00462832
3882	0.00449219
3894	0.00517283
3906	0.00449219
3918	0.00544508
3930	0.00394768
3942	0.00462832
3954	0.00449219
3966	0.00421994
