Infrared Spectrum: Propionic acid, 2-(2,4,6-trichlorophenoxy)-,
Formula: C 9 H 7 Cl 3 O 3
CAS: 53548-21-3
Origin: Sadtler Research Labs Under US-EPA Contract
1/CM	ABSORBANCE
450	0
462	0.0188197
474	0.0109513
486	0.0133441
498	0.0115955
510	0.0147705
522	0.0206603
534	0.0317036
546	0.0449557
558	0.0490509
570	0.059312
582	0.068883
594	0.0620729
606	0.0511676
618	0.0521339
630	0.0414586
642	0.0289428
654	0.0185897
666	0.0209824
678	0.0864143
690	0.0333601
702	0.0150926
714	0.016427
726	0.0307374
738	0.0568273
750	0.0772115
762	0.0675025
774	0.0341884
786	0.0202922
798	0.016335
810	0.0174853
822	0.0185897
834	0.0221787
846	0.0170712
858	0.0173473
870	0.0500632
882	0.0630392
894	0.042609
906	0.0178994
918	0.00777637
930	0.00892672
942	0.0141723
954	0.0341884
966	0.0433452
978	0.0181755
990	0.0169332
1002	0.0225929
1014	0.0379615
1026	0.075509
1038	0.103485
1050	0.0866444
1062	0.107397
1074	0.253813
1086	0.409295
1098	0.343863
1110	0.211986
1122	0.208858
1134	0.221005
1146	0.122995
1158	0.100357
1170	0.100863
1182	0.0876107
1194	0.0730702
1206	0.0651558
1218	0.0783158
1230	0.142551
1242	0.22234
1254	0.141953
1266	0.113747
1278	0.111124
1290	0.0810767
1302	0.0719659
1314	0.0881168
1326	0.121293
1338	0.130634
1350	0.204394
1362	0.134269
1374	0.0898193
1386	0.0882549
1398	0.0574255
1410	0.0454158
1422	0.0463821
1434	0.0671804
1446	0.176878
1458	0.432071
1470	0.362406
1482	0.228552
1494	0.0829632
1506	0.0490969
1518	0.0341424
1530	0.0306453
1542	0.0334522
1554	0.0366732
1566	0.0436673
1578	0.068883
1590	0.0652479
1602	0.0299551
1614	0.0222248
1626	0.0213045
1638	0.022915
1650	0.0239273
1662	0.0240193
1674	0.0250776
1686	0.0284367
1698	0.0342804
1710	0.0456459
1722	0.0607845
1734	0.0803404
1746	0.100495
1758	0.123778
1770	0.171034
1782	0.240469
1794	0.223352
1806	0.219717
1818	0.0945128
1830	0.0446336
1842	0.0300471
1854	0.0231911
1866	0.0181755
1878	0.0156448
1890	0.0139883
1902	0.0134361
1914	0.0133901
1926	0.013022
1938	0.0128379
1950	0.0125158
1962	0.0125158
1974	0.0123778
1986	0.0123778
1998	0.0121937
2010	0.0113194
2022	0.0103992
2034	0.00989301
2046	0.00929483
2058	0.00865063
2070	0.00819049
2082	0.00782238
2094	0.00777637
2106	0.00786839
2118	0.00768434
2130	0.00805245
2142	0.00782238
2154	0.00773035
2166	0.00768434
2178	0.00782238
2190	0.00782238
2202	0.00837455
2214	0.00800644
2226	0.00800644
2238	0.00800644
2250	0.00791441
2262	0.00773035
2274	0.00791441
2286	0.00869665
2298	0.00970895
2310	0.0108593
2322	0.0107213
2334	0.0103992
2346	0.0111354
2358	0.0107213
2370	0.0103992
2382	0.0112734
2394	0.0104912
2406	0.0106752
2418	0.0111354
2430	0.0111814
2442	0.0113194
2454	0.0114575
2466	0.0124698
2478	0.013068
2490	0.0137582
2502	0.0140803
2514	0.0141263
2526	0.0139883
2538	0.0134821
2550	0.0135281
2562	0.0134361
2574	0.0138502
2586	0.0145404
2598	0.0145864
2610	0.0145404
2622	0.0144484
2634	0.0144944
2646	0.0145404
2658	0.0145864
2670	0.0155987
2682	0.0161969
2694	0.0169332
2706	0.0174393
2718	0.0176234
2730	0.0175773
2742	0.0177614
2754	0.0183136
2766	0.0193259
2778	0.0207063
2790	0.0219487
2802	0.0221787
2814	0.0222708
2826	0.022869
2838	0.0232831
2850	0.0237432
2862	0.0248015
2874	0.0271022
2886	0.029495
2898	0.029725
2910	0.0310594
2922	0.0339583
2934	0.0409525
2946	0.0471643
2958	0.0416887
2970	0.0341884
2982	0.0367652
2994	0.049143
3006	0.0608305
3018	0.0343264
3030	0.029587
3042	0.0284827
3054	0.0276084
3066	0.029495
3078	0.0312435
3090	0.0329
3102	0.0322558
3114	0.029633
3126	0.0283906
3138	0.0283446
3150	0.0280225
3162	0.0276544
3174	0.0279305
3186	0.0278385
3198	0.0273783
3210	0.0277464
3222	0.0270102
3234	0.0266421
3246	0.026228
3258	0.0257678
3270	0.0252157
3282	0.0249396
3294	0.0247555
3306	0.0235592
3318	0.023145
3330	0.0225008
3342	0.0221787
3354	0.0213965
3366	0.0211204
3378	0.0205683
3390	0.0191878
3402	0.0192799
3414	0.0194179
3426	0.0193259
3438	0.0199241
3450	0.0200621
3462	0.0202001
3474	0.0205683
3486	0.0221787
3498	0.0256298
3510	0.0373634
3522	0.0445876
3534	0.0357989
3546	0.0290808
3558	0.0358449
3570	0.138548
3582	0.0819049
3594	0.0228229
3606	0.0138962
3618	0.0127459
3630	0.0113655
3642	0.0101231
3654	0.00966294
3666	0.00846658
3678	0.00975497
3690	0.00970895
3702	0.00851259
3714	0.00837455
3726	0.00901874
3738	0.00828252
3750	0.00800644
3762	0.00750028
3774	0.00750028
3786	0.00750028
3798	0.00750028
3810	0.00750028
3822	0.00750028
3834	0.00750028
3846	0.00750028
3858	0.00750028
3870	0.00750028
3882	0.00750028
3894	0.00750028
3906	0.00786839
3918	0.00750028
3930	0.00750028
3942	0.00750028
3954	0.00750028
3966	0.00750028
