Infrared Spectrum: Pyridine, 3-ethyl-
Formula: C 7 H 9 N
CAS: 536-78-7
Origin: Sadtler Research Labs Under US-EPA Contract
1/CM	ABSORBANCE
450	0.0113922
462	0.00313548
474	0.00825676
486	0.00517354
498	0.00491225
510	0.00318774
522	0.0026129
534	0.00276967
546	0.00365806
558	0.00830902
570	0.00841354
582	0.00438967
594	0.00240387
606	0.00569612
618	0.0267038
630	0.0352741
642	0.0214258
654	0.0068458
666	0.00303096
678	0.011549
690	0.0595741
702	0.16132
714	0.26986
726	0.141724
738	0.0570657
750	0.0351696
762	0.032818
774	0.0452554
786	0.081418
798	0.12244
810	0.100022
822	0.0537735
834	0.0224709
846	0.00966773
858	0.00465096
870	0.0026129
882	0.00245613
894	0.00193355
906	0.00371032
918	0.00700257
930	0.0088316
942	0.012751
954	0.0223142
966	0.0319296
978	0.0222619
990	0.0110787
1002	0.0211122
1014	0.0785438
1026	0.0957367
1038	0.060567
1050	0.0261813
1062	0.0416496
1074	0.0366329
1086	0.0181858
1098	0.0283761
1110	0.0375212
1122	0.042329
1134	0.0359535
1146	0.0162
1158	0.00851805
1170	0.0181858
1182	0.0551322
1194	0.0577973
1206	0.0195445
1218	0.0182903
1230	0.0181335
1242	0.0131168
1254	0.00815225
1266	0.00851805
1278	0.00867483
1290	0.0102426
1302	0.01458
1314	0.023098
1326	0.0357445
1338	0.0304142
1350	0.0161477
1362	0.0153639
1374	0.0214258
1386	0.0302574
1398	0.0387754
1410	0.0963115
1422	0.220895
1434	0.209398
1446	0.0845012
1458	0.0914515
1470	0.172399
1482	0.172922
1494	0.0640683
1506	0.0167748
1518	0.01134
1530	0.0108697
1542	0.0103471
1554	0.0299961
1566	0.0823064
1578	0.106084
1590	0.076558
1602	0.0332883
1614	0.0156251
1626	0.00726386
1638	0.00449419
1650	0.0058529
1662	0.00485999
1674	0.00386709
1686	0.00256064
1698	0.00391935
1710	0.00710709
1722	0.00857031
1734	0.00778644
1746	0.00867483
1758	0.00506903
1770	0.00224709
1782	0.00182903
1794	0.000365806
1806	0.00151548
1818	0.00177677
1830	0.00350129
1842	0.00627096
1854	0.0104516
1866	0.0103471
1878	0.00924967
1890	0.0167748
1902	0.0211645
1914	0.0171406
1926	0.0124897
1938	0.00548709
1950	0.00710709
1962	0.0068458
1974	0.00250838
1986	0.00125419
1998	0.00130645
2010	0.00120193
2022	0.000992902
2034	0.00109742
2046	0.00125419
2058	0.00135871
2070	0.000888386
2082	0.00078387
2094	0.000627096
2106	0.000574838
2118	0.000313548
2130	0.00026129
2142	0.000418064
2154	0.000574838
2166	0.00114968
2178	0.00125419
2190	0.00125419
2202	0.00135871
2214	0.00193355
2226	0.00282193
2238	0.00355354
2250	0.00355354
2262	0.00303096
2274	0.00245613
2286	0.00188129
2298	0.00182903
2310	0.00224709
2322	0.00193355
2334	0.00193355
2346	0.00318774
2358	0.00203806
2370	0.00266516
2382	0.00266516
2394	0.00172451
2406	0.00156774
2418	0.00172451
2430	0.00182903
2442	0.00313548
2454	0.00329225
2466	0.00245613
2478	0.00193355
2490	0.00182903
2502	0.00162
2514	0.00214258
2526	0.0019858
2538	0.00162
2550	0.00172451
2562	0.00141097
2574	0.000940644
2586	0.00146322
2598	0.00235161
2610	0.00355354
2622	0.00402387
2634	0.00480774
2646	0.00412838
2658	0.00329225
2670	0.00266516
2682	0.00235161
2694	0.00203806
2706	0.00182903
2718	0.00271742
2730	0.00397161
2742	0.00543483
2754	0.00653225
2766	0.00726386
2778	0.00862257
2790	0.0100858
2802	0.0117581
2814	0.0135871
2826	0.0171929
2838	0.0246658
2850	0.0364238
2862	0.0646431
2874	0.119984
2886	0.169891
2898	0.164404
2910	0.147681
2922	0.148151
2934	0.217916
2946	0.290502
2958	0.258886
2970	0.457676
2982	0.514375
2994	0.260611
3006	0.200357
3018	0.188756
3030	0.23814
3042	0.238558
3054	0.223142
3066	0.185307
3078	0.104516
3090	0.102791
3102	0.0663677
3114	0.02106
3126	0.0128555
3138	0.013378
3150	0.0135871
3162	0.0118626
3174	0.011131
3186	0.0108174
3198	0.00742064
3210	0.00407612
3222	0.00303096
3234	0.00245613
3246	0.00245613
3258	0.00245613
3270	0.0026129
3282	0.00219484
3294	0.00167226
3306	0.00146322
3318	0.00156774
3330	0.00188129
3342	0.00177677
3354	0.00193355
3366	0.00240387
3378	0.0019858
3390	0.00193355
3402	0.00214258
3414	0.00156774
3426	0.00235161
3438	0.00188129
3450	0.00256064
3462	0.00219484
3474	0.00156774
3486	0.00271742
3498	0.00256064
3510	0.00224709
3522	0.00177677
3534	0.00282193
3546	0.00276967
3558	0.00339677
3570	0.00240387
3582	0.00250838
3594	0.0019858
3606	0.00250838
3618	0.0026129
3630	0.00109742
3642	0.00266516
3654	0.00376258
3666	0.00350129
3678	0.00188129
3690	0.00240387
3702	0.00276967
3714	0.0026129
3726	0.00324
3738	0.00282193
3750	0.00256064
3762	0.00324
3774	0.0026129
3786	0.00177677
3798	0.00156774
3810	0.00287419
3822	0.000365806
3834	0.00167226
3846	0.00266516
3858	0.00276967
3870	0.0026129
3882	0.00240387
3894	0.00151548
3906	0.00141097
3918	0.00125419
3930	0.00334451
3942	0.00454645
3954	0.00303096
3966	0.00256064
