Infrared Spectrum: Pyridine, 4-ethyl-
Formula: C 7 H 9 N
CAS: 536-75-4
Origin: Sadtler Research Labs Under US-EPA Contract
1/CM	ABSORBANCE
450	0.0282344
462	0.0141759
474	0.0272554
486	0.066572
498	0.049694
510	0.0284302
522	0.0213814
534	0.0240051
546	0.0328944
558	0.0531793
570	0.0608938
582	0.0382593
594	0.0126487
606	0.00552156
618	0.00505164
630	0.00184052
642	0.00086152
654	0.00152724
666	0.00348524
678	0.0045034
690	0.00368104
702	0.00532576
714	0.00751872
726	0.0109256
738	0.0111606
750	0.0171521
762	0.0561554
774	0.102521
786	0.0908512
798	0.0833325
810	0.137569
822	0.147359
834	0.0835283
846	0.031328
858	0.00979
870	0.0062656
882	0.00501248
894	0.003916
906	0.00419012
918	0.00364188
930	0.00325028
942	0.00383768
954	0.0050908
966	0.008811
978	0.015429
990	0.0402565
1002	0.0375544
1014	0.00677468
1026	0.00579568
1038	0.00838024
1050	0.0158598
1062	0.0314846
1074	0.0272162
1086	0.0105732
1098	0.00943756
1110	0.010769
1122	0.0108473
1134	0.00888932
1146	0.00787116
1158	0.0072446
1170	0.0062656
1182	0.00720544
1194	0.00740124
1206	0.0179353
1218	0.0455039
1230	0.035479
1242	0.00728376
1254	0.00779284
1266	0.00994664
1278	0.00650056
1290	0.00904596
1302	0.0147242
1314	0.0191884
1326	0.0255715
1338	0.026198
1350	0.0161731
1362	0.0164864
1374	0.0184444
1386	0.02937
1398	0.0618336
1410	0.113486
1422	0.117441
1434	0.0699006
1446	0.0505556
1458	0.0598365
1470	0.0551764
1482	0.0410005
1494	0.0405306
1506	0.0294875
1518	0.013471
1530	0.0158206
1542	0.0308972
1554	0.068765
1566	0.0908512
1578	0.093984
1590	0.236135
1602	0.387371
1614	0.228577
1626	0.036458
1638	0.0151158
1650	0.0122571
1662	0.0121004
1674	0.0119438
1686	0.00955504
1698	0.0074404
1710	0.010534
1722	0.0100641
1734	0.00712712
1746	0.00516912
1758	0.00681384
1770	0.00622644
1782	0.0050908
1794	0.00466004
1806	0.00422928
1818	0.00426844
1830	0.00732292
1842	0.00806696
1854	0.00477752
1866	0.00289784
1878	0.00309364
1890	0.00356356
1902	0.0056782
1914	0.0116697
1926	0.018366
1938	0.0181702
1950	0.00849772
1962	0.00466004
1974	0.00356356
1986	0.00395516
1998	0.00387684
2010	0.00368104
2022	0.00426844
2034	0.0031328
2046	0.00321112
2058	0.00281952
2070	0.00172304
2082	0.00086152
2094	0.00148808
2106	0.00191884
2118	0.00223212
2130	0.001958
2142	0.00250624
2154	0.00242792
2166	0.00250624
2178	0.00262372
2190	0.00242792
2202	0.00238876
2214	0.00187968
2226	0.00184052
2238	0.001958
2250	0.0021538
2262	0.00258456
2274	0.00278036
2286	0.00250624
2298	0.00317196
2310	0.00419012
2322	0.00415096
2334	0.00317196
2346	0.00278036
2358	0.00140976
2370	0.0011748
2382	0.00105732
2394	0.00180136
2406	0.00301532
2418	0.00360272
2430	0.00426844
2442	0.00434676
2454	0.00364188
2466	0.00360272
2478	0.00309364
2490	0.00203632
2502	0.00191884
2514	0.00187968
2526	0.00125312
2538	0.0021538
2550	0.00211464
2562	0.0015664
2574	0.00160556
2586	0.0017622
2598	0.00231044
2610	0.0035244
2622	0.0037202
2634	0.00356356
2646	0.00328944
2658	0.00203632
2670	0.0001958
2682	0.0011748
2694	0.00199716
2706	0.0015664
2718	0.00278036
2730	0.00305448
2742	0.00556072
2754	0.00614812
2766	0.00677468
2778	0.00720544
2790	0.00700964
2802	0.0082236
2814	0.00982916
2826	0.013471
2838	0.0186402
2850	0.0257673
2862	0.0407656
2874	0.0696265
2886	0.108199
2898	0.110235
2910	0.0973126
2922	0.0938274
2934	0.130403
2946	0.188281
2958	0.186793
2970	0.284889
2982	0.367399
2994	0.219844
3006	0.128288
3018	0.129502
3030	0.15198
3042	0.13005
3054	0.127113
3066	0.177708
3078	0.169994
3090	0.0900288
3102	0.0333252
3114	0.0169171
3126	0.0106515
3138	0.00728376
3150	0.00747956
3162	0.00650056
3174	0.0060698
3186	0.00669636
3198	0.00512996
3210	0.00285868
3222	0.00364188
3234	0.0031328
3246	0.002937
3258	0.00344608
3270	0.00219296
3282	0.00270204
3294	0.0045034
3306	0.00164472
3318	0.00242792
3330	0.00379852
3342	0.00140976
3354	0.0033286
3366	0.00317196
3378	0.00325028
3390	0.00289784
3402	0.0033286
3414	0.00395516
3426	0.00422928
3438	0.00301532
3450	0.00285868
3462	0.0027412
3474	0.00207548
3486	0.00121396
3498	0.0023496
3510	0.002937
3522	0.00305448
3534	0.00364188
3546	0.00575652
3558	0.00321112
3570	0.0037202
3582	0.00297616
3594	0.00387684
3606	0.002937
3618	0.00446424
3630	0.0031328
3642	0.00375936
3654	0.0037202
3666	0.0027412
3678	0.00152724
3690	0.002937
3702	0.00246708
3714	0.00285868
3726	0.00434676
3738	0.00368104
3750	0.00223212
3762	0.0017622
3774	0
3786	0.00125312
3798	0.00160556
3810	0.00262372
3822	0.00305448
3834	7.832e-05
3846	0.0033286
3858	0.00144892
3870	0.00262372
3882	0.0025454
3894	0.002937
3906	0.00524744
3918	0.00187968
3930	0.00231044
3942	0.00481668
3954	0.00681384
3966	0.00093984
