Infrared Spectrum: Phenylethyne
Formula: C 8 H 6
CAS: 536-74-3
Origin: Sadtler Research Labs Under US-EPA Contract
1/CM	ABSORBANCE
450	0.0345793
462	0.0177736
474	0.0231408
486	0.0151339
498	0.0493613
510	0.0628234
522	0.0460177
534	0.0591279
546	0.0496252
558	0.0154859
570	0.0095027
582	0.0238447
594	0.0861403
606	0.255605
618	0.558108
630	0.386795
642	0.685954
654	0.354856
666	0.265108
678	0.255605
690	0.478743
702	0.285609
714	0.107961
726	0.0717982
738	0.279362
750	0.478303
762	0.474607
774	0.262468
786	0.0400345
798	0.00923874
810	0.00941472
822	0.00316757
834	0.000703904
846	0.00325556
858	0.0087988
870	0.0256925
882	0.04373
894	0.0377469
906	0.0411784
918	0.0603598
930	0.0276282
942	0.0117904
954	0.00475135
966	0.00123183
978	0.00307958
990	0.00237568
1002	0.00299159
1014	0.0382748
1026	0.0610637
1038	0.0413544
1050	0.0293
1062	0.051121
1074	0.0533207
1086	0.0307078
1098	0.014606
1110	0.0124063
1122	0.0065991
1134	0.00325556
1146	0.00651111
1158	0.0112625
1170	0.0153099
1182	0.0161898
1194	0.0164538
1206	0.0838526
1218	0.369638
1230	0.372013
1242	0.10453
1254	0.0800691
1266	0.0863162
1278	0.0461057
1290	0.0495372
1302	0.0558724
1314	0.0387147
1326	0.0190054
1338	0.0141661
1350	0.00695105
1362	0.0123183
1374	0.0135502
1386	0.0117904
1398	0.00985466
1410	0.00721502
1422	0.0150459
1434	0.0490093
1446	0.0527048
1458	0.0507691
1470	0.0276282
1482	0.204748
1494	0.24927
1506	0.0885159
1518	0.0318517
1530	0.0153099
1542	0.0140781
1554	0.0106465
1566	0.0169817
1578	0.0297399
1590	0.066079
1602	0.0739979
1614	0.0323796
1626	0.007303
1638	0.00668709
1650	0.0111745
1662	0.0214691
1674	0.0241087
1686	0.0120544
1698	0.0102946
1710	0.00677508
1722	0.0104706
1734	0.0199733
1746	0.0229649
1758	0.022085
1770	0.0161898
1782	0.0150459
1794	0.0307958
1806	0.0278922
1818	0.0127583
1830	0.0124943
1842	0.00686306
1854	0.00695105
1866	0.0175976
1878	0.0227889
1890	0.0348432
1902	0.0210291
1914	0.00712703
1926	0.0135502
1938	0.0276282
1950	0.0320276
1962	0.0302679
1974	0.0153099
1986	0.00167177
1998	0.00193574
2010	0.00211171
2022	0.0021997
2034	0.0021997
2046	0.00228769
2058	0.00237568
2070	0.00281562
2082	0.00457538
2094	0.0154859
2106	0.0429381
2118	0.051297
2130	0.0210291
2142	0.000967868
2154	0.000615916
2166	0.000967868
2178	0.00105586
2190	0
2202	0.000175976
2214	0.00123183
2226	0.0014958
2238	0.00272763
2250	0.00387147
2262	0.00316757
2274	0.00281562
2286	0.00193574
2298	0.000351952
2310	0.00395946
2322	0.00519129
2334	0.00255165
2346	0.00431141
2358	0
2370	0.000703904
2382	0.00211171
2394	0.00123183
2406	0.00202372
2418	0.00184775
2430	0.00237568
2442	0.00167177
2454	0.00211171
2466	0.00184775
2478	0.00255165
2490	0.00316757
2502	0.00272763
2514	0.00316757
2526	0.00325556
2538	0.00202372
2550	0.00378348
2562	0.0036955
2574	0.00483934
2586	0.0051033
2598	0.00519129
2610	0.00422342
2622	0.00378348
2634	0.00325556
2646	0.00255165
2658	0.00360751
2670	0.00360751
2682	0.00501532
2694	0.00668709
2706	0.00527928
2718	0.0065991
2730	0.0058952
2742	0.00413544
2754	0.00527928
2766	0.00624715
2778	0.00668709
2790	0.00756697
2802	0.0065991
2814	0.00395946
2826	0.00431141
2838	0.00475135
2850	0.00633514
2862	0.00827087
2874	0.00915075
2886	0.00941472
2898	0.0110865
2910	0.0115264
2922	0.0130222
2934	0.0129342
2946	0.0102946
2958	0.00800691
2970	0.0104706
2982	0.00897478
2994	0.0101186
3006	0.0227889
3018	0.058424
3030	0.112273
3042	0.157323
3054	0.174392
3066	0.270651
3078	0.325732
3090	0.236248
3102	0.206508
3114	0.0858763
3126	0.0232288
3138	0.0115264
3150	0.0136381
3162	0.0121423
3174	0.007303
3186	0.00835886
3198	0.00651111
3210	0.00431141
3222	0.00413544
3234	0.00492733
3246	0.0058952
3258	0.00932673
3270	0.0224369
3282	0.0496252
3294	0.134974
3306	0.268803
3318	0.474695
3330	0.783357
3342	0.572098
3354	0.0633514
3366	0.0203252
3378	0.00800691
3390	0.00765496
3402	0.00624715
3414	0.00747898
3426	0.00571922
3438	0.00563123
3450	0.00721502
3462	0.00695105
3474	0.0109985
3486	0.00571922
3498	0.00325556
3510	0.00668709
3522	0.00334354
3534	0.00175976
3546	0.00642312
3558	0.00281562
3570	0.0065991
3582	0.00615916
3594	0.00360751
3606	0.00413544
3618	0.00272763
3630	0.00316757
3642	0.00211171
3654	0.00536727
3666	0.00395946
3678	0.0065991
3690	0.00448739
3702	0.00466336
3714	0.0065991
3726	0.00404745
3738	0.00378348
3750	0.00677508
3762	0.00668709
3774	0.00281562
3786	0.00677508
3798	0.00255165
3810	0.00677508
3822	0.0087988
3834	0.00686306
3846	0.00791892
3858	0.00686306
3870	0.0065991
3882	0.00651111
3894	0.00703904
3906	0.0103826
3918	0.0105586
3930	0.0177736
3942	0.0126703
3954	0.0136381
3966	0.0124943
