Infrared Spectrum: 2-Propanone, 1-[(4-methylphenyl)sulfonyl]-
Formula: C 10 H 12 O 3 S
CAS: 5366-49-4
Origin: Sadtler Research Labs Under US-EPA Contract
1/CM	ABSORBANCE
450	0.0159207
462	0.0294166
474	0.0257567
486	0.0306976
498	0.0478992
510	0.128875
522	0.124849
534	0.132901
546	0.0718717
558	0.0311551
570	0.0196721
582	0.0447425
594	0.079649
606	0.0374684
618	0.020953
630	0.068349
642	0.0412656
654	0.0316126
666	0.103118
678	0.0285931
690	0.00626761
702	0.0255737
714	0.0339458
726	0.0634996
738	0.157743
750	0.103713
762	0.034266
774	0.0330308
786	0.057781
798	0.0921842
810	0.130888
822	0.0732441
834	0.0266259
846	0.0272664
858	0.024247
870	0.023149
882	0.00768583
894	0.00718259
906	0.00800607
918	0.00654211
930	0.00960729
942	0.0163324
954	0.0188943
966	0.022783
978	0.0388409
990	0.0636369
1002	0.0424551
1014	0.0449255
1026	0.0352725
1038	0.0339
1050	0.0323903
1062	0.0333053
1074	0.0571405
1086	0.140175
1098	0.0819365
1110	0.0558138
1122	0.0663818
1134	0.0796948
1146	0.144247
1158	0.349705
1170	0.348653
1182	0.107144
1194	0.0973539
1206	0.152939
1218	0.186015
1230	0.138711
1242	0.104902
1254	0.0507814
1266	0.0425923
1278	0.0429583
1290	0.0503696
1302	0.057049
1314	0.0590162
1326	0.090583
1338	0.210308
1350	0.45749
1362	0.221471
1374	0.0900798
1386	0.0586045
1398	0.0611207
1410	0.0498664
1422	0.0435073
1434	0.0316126
1446	0.0232862
1458	0.022417
1470	0.0173389
1482	0.0173846
1494	0.0360502
1506	0.0273122
1518	0.0177506
1530	0.0107053
1542	0.0194891
1554	0.0121235
1566	0.0115745
1578	0.0171559
1590	0.0369652
1602	0.0563628
1614	0.0262142
1626	0.0188486
1638	0.0194433
1650	0.0209988
1662	0.013496
1674	0.0159664
1686	0.0297826
1698	0.0418603
1710	0.0716429
1722	0.153168
1734	0.202531
1746	0.118124
1758	0.0606174
1770	0.0322988
1782	0.0153259
1794	0.0139077
1806	0.011666
1818	0.00553563
1830	0.0043919
1842	0.00329393
1854	0.00388866
1866	0.00379717
1878	0.00333968
1890	0.00388866
1902	0.00558138
1914	0.00965304
1926	0.00544413
1938	0.00283644
1950	0.00256194
1962	0.00260769
1974	0.00178421
1986	0.00210445
1998	0.00205871
2010	0.00146397
2022	0.00155547
2034	0.00146397
2046	0.00114372
2058	0.00114372
2070	0.00169271
2082	0.0021502
2094	0.00169271
2106	0.00228745
2118	0.0024247
2130	0.00160122
2142	0.00141822
2154	0.00192146
2166	0.0023332
2178	0.0021502
2190	0.00164696
2202	0.00114372
2214	0.00137247
2226	0.0023332
2238	0.00237895
2250	0.00301943
2262	0.00187571
2274	0.0021502
2286	0.00292794
2298	0.00480364
2310	0.00530688
2322	0.00315668
2334	0.00173846
2346	0.00311093
2358	0.00201296
2370	0.00269919
2382	0.00361417
2394	0.00118947
2406	0.00155547
2418	0.00192146
2430	0.00187571
2442	0.00160122
2454	0.00132672
2466	0.00109798
2478	0.00187571
2490	0.00105223
2502	0.00187571
2514	0.00160122
2526	0.00100648
2538	0.000823482
2550	0.00150972
2562	0.00109798
2574	0.00205871
2586	0.00260769
2598	0.00091498
2610	0.00160122
2622	0.00100648
2634	0.000594737
2646	0.000594737
2658	0.000594737
2670	0.00045749
2682	0.00196721
2694	0.00118947
2706	0.00118947
2718	0.00105223
2730	0.00105223
2742	0.00201296
2754	0.00205871
2766	0.00169271
2778	0.00137247
2790	0.00150972
2802	0.00178421
2814	0.00114372
2826	0.00205871
2838	0.00141822
2850	0.00118947
2862	0.00736559
2874	0.0149599
2886	0.0159664
2898	0.012947
2910	0.0123065
2922	0.0177506
2934	0.0411284
2946	0.0353182
2958	0.0201753
2970	0.0178879
2982	0.0178421
2994	0.0188486
3006	0.0233777
3018	0.0268089
3030	0.0306518
3042	0.0365077
3054	0.034632
3066	0.0289591
3078	0.0207243
3090	0.0151887
3102	0.0101563
3114	0.00695385
3126	0.00599312
3138	0.00539838
3150	0.0047579
3162	0.0045749
3174	0.00425466
3186	0.00388866
3198	0.00352267
3210	0.00388866
3222	0.00393441
3234	0.00379717
3246	0.00347692
3258	0.00388866
3270	0.00388866
3282	0.00484939
3294	0.00430041
3306	0.00375142
3318	0.00402591
3330	0.00512389
3342	0.00434615
3354	0.00498664
3366	0.00430041
3378	0.0043919
3390	0.0047579
3402	0.00452915
3414	0.00498664
3426	0.00603887
3438	0.00764008
3450	0.0069081
3462	0.0069081
3474	0.00462065
3486	0.00411741
3498	0.00388866
3510	0.00484939
3522	0.00388866
3534	0.0047579
3546	0.00256194
3558	0.0046664
3570	0.00329393
3582	0.00320243
3594	0.00315668
3606	0.00333968
3618	0.00292794
3630	0.00416316
3642	0.00279069
3654	0.00297368
3666	0.00301943
3678	0.00777733
3690	0.00297368
3702	0.00260769
3714	0.00585587
3726	0.00045749
3738	0.00594737
3750	0.00297368
3762	0.00521539
3774	0.00361417
3786	0.00105223
3798	0.00160122
3810	0.00521539
3822	0.00585587
3834	0.00333968
3846	0.00150972
3858	0.012215
3870	0.00805182
3882	0.0022417
3894	0.00759433
3906	0.00667935
3918	0.00347692
3930	0.00553563
3942	0.00718259
3954	0.0045749
3966	0.00626761
