Infrared Spectrum: Benzene, 4-methoxy-2-methyl-1-nitro-
Formula: C 8 H 9 N O 3
CAS: 5367-32-8
Origin: Sadtler Research Labs Under US-EPA Contract
1/CM	ABSORBANCE
450	0.00645331
462	0.00816747
474	0.00554581
486	0.00332749
498	0.00544498
510	0.00655414
522	0.00554581
534	0.00121
546	0.00453748
558	0.00483998
570	0.00766331
582	0.0137133
594	0.0323674
606	0.0837922
618	0.149939
630	0.056769
642	0.0239983
654	0.0176458
666	0.0122008
678	0.0149233
690	0.0364007
702	0.0284349
714	0.0152258
726	0.0178474
738	0.0184524
750	0.0511223
762	0.0415432
774	0.0137133
786	0.0094783
798	0.0212758
810	0.0577773
822	0.089943
834	0.240285
846	0.160425
858	0.0867164
870	0.0928672
882	0.0420474
894	0.0109908
906	0.0103858
918	0.0251074
930	0.0632223
942	0.0455765
954	0.0143183
966	0.0122008
978	0.0160324
990	0.0258132
1002	0.0412407
1014	0.0454757
1026	0.0661464
1038	0.163652
1050	0.220723
1062	0.119084
1074	0.174844
1086	0.313086
1098	0.114849
1110	0.0271241
1122	0.0186541
1134	0.0256116
1146	0.0666506
1158	0.173836
1170	0.189364
1182	0.057979
1194	0.0431565
1206	0.0442657
1218	0.062214
1230	0.129974
1242	0.416037
1254	1.00833
1266	0.509106
1278	0.328514
1290	0.570715
1302	0.355134
1314	0.28082
1326	0.319136
1338	0.503963
1350	0.886826
1362	0.47089
1374	0.13673
1386	0.129974
1398	0.126949
1410	0.112933
1422	0.112832
1434	0.109303
1446	0.160425
1458	0.187852
1470	0.227076
1482	0.33527
1494	0.535625
1506	0.352512
1518	0.464437
1530	0.781456
1542	0.678505
1554	0.40313
1566	0.348378
1578	0.509207
1590	0.676085
1602	0.545708
1614	0.478352
1626	0.225765
1638	0.095388
1650	0.0563656
1662	0.0336782
1674	0.0278299
1686	0.0208724
1698	0.0165366
1710	0.00846997
1722	0.00846997
1734	0.0134108
1746	0.0115958
1758	0.0109908
1770	0.0146208
1782	0.0113941
1794	0.0101841
1806	0.00756247
1818	0.00473915
1830	0.00473915
1842	0.00393249
1854	0.00282332
1866	0.00695748
1878	0.00907497
1890	0.011495
1902	0.00937747
1914	0.00715914
1926	0.00352915
1938	0.00262166
1950	0.00221833
1962	0.00362999
1974	0.00695748
1986	0.00483998
1998	0.00423499
2010	0.00796581
2022	0.00766331
2034	0.00453748
2046	0.00514248
2058	0.00423499
2070	0.00373082
2082	0.00584831
2094	0.00615081
2106	0.00443665
2118	0.00312582
2130	0.00262166
2142	0.00151249
2154	0.00121
2166	0.00221833
2178	0.00393249
2190	0.00433582
2202	0.00443665
2214	0.00463832
2226	0.00302499
2238	0.00141166
2250	0.000806664
2262	0.000504165
2274	0.000302499
2286	0.00131083
2298	0.00342832
2310	0.00514248
2322	0.00524332
2334	0.00483998
2346	0.00524332
2358	0.00423499
2370	0.00423499
2382	0.00403332
2394	0.00342832
2406	0.00524332
2418	0.00725998
2430	0.00806664
2442	0.00675581
2454	0.00443665
2466	0.00262166
2478	0.00282332
2490	0.00423499
2502	0.00604998
2514	0.00564665
2526	0.00514248
2538	0.00574748
2550	0.00604998
2562	0.00645331
2574	0.00857081
2586	0.00998247
2598	0.0094783
2610	0.00806664
2622	0.00584831
2634	0.00473915
2646	0.00494082
2658	0.00524332
2670	0.00554581
2682	0.00564665
2694	0.00494082
2706	0.00463832
2718	0.00453748
2730	0.00504165
2742	0.00594915
2754	0.00746164
2766	0.00705831
2778	0.00645331
2790	0.00816747
2802	0.0112933
2814	0.0149233
2826	0.0240991
2838	0.0524332
2850	0.102043
2862	0.0852039
2874	0.059794
2886	0.0503157
2898	0.0533407
2910	0.0721964
2922	0.0940772
2934	0.111622
2946	0.190675
2958	0.191784
2970	0.139452
2982	0.102446
2994	0.0908505
3006	0.0945814
3018	0.130377
3030	0.0504165
3042	0.0284349
3054	0.0251074
3066	0.0250066
3078	0.0323674
3090	0.0364007
3102	0.0198641
3114	0.0104866
3126	0.00756247
3138	0.00685664
3150	0.00514248
3162	0.00413415
3174	0.00413415
3186	0.00443665
3198	0.00473915
3210	0.00403332
3222	0.00241999
3234	0.00201666
3246	0.00141166
3258	0.00141166
3270	0.00121
3282	0.00110916
3294	0.00110916
3306	0.000907497
3318	0.000907497
3330	0.00110916
3342	0.000705831
3354	0.000705831
3366	0.00100833
3378	0.00100833
3390	0.000705831
3402	0.000705831
3414	0.000604998
3426	0.000705831
3438	0.000806664
3450	0.000604998
3462	0.000705831
3474	0.000302499
3486	0.000604998
3498	0.000403332
3510	0.000705831
3522	0.000705831
3534	0.000604998
3546	0.000806664
3558	0.000806664
3570	0.000604998
3582	0.00131083
3594	0.000705831
3606	0.000806664
3618	0.000907497
3630	0.00171416
3642	0.000705831
3654	0.000504165
3666	0.000806664
3678	0.00131083
3690	0.000806664
3702	0.000907497
3714	0.000403332
3726	0.000604998
3738	0.000100833
3750	0.000604998
3762	0
3774	0.000806664
3786	0.000302499
3798	0.000504165
3810	0
3822	0
3834	0.000806664
3846	0
3858	0.000806664
3870	0.000604998
3882	0
3894	0
3906	0.00121
3918	0.000201666
3930	0
3942	0.000403332
3954	0.00151249
3966	0.00141166
