Infrared Spectrum: 5-Chloro-2-nitrotoluene
Formula: C 7 H 6 Cl N O 2
CAS: 5367-28-2
Origin: Sadtler Research Labs Under US-EPA Contract
1/CM	ABSORBANCE
450	0.0155
462	0.00844551
474	0.0136122
486	0.0576282
498	0.031
510	0.0137115
522	0.0156987
534	0.014109
546	0.0350737
558	0.0734263
570	0.0178846
582	0.0227532
594	0.0109295
606	0.00725321
618	0.00397436
630	0.000198718
642	9.9359e-05
654	0.00129167
666	0.00427244
678	0.0181827
690	0.0302051
702	0.0135128
714	0.00238462
726	0.00198718
738	0.0254359
750	0.086641
762	0.0464007
774	0.0201699
786	0.00904167
798	0.00576282
810	0.0244423
822	0.196333
834	0.214814
846	0.0313974
858	0.0239455
870	0.0982661
882	0.213821
894	0.643548
906	0.0529583
918	0.00645833
930	0.00278205
942	0.00596154
954	0.00894231
966	0.00506731
978	0.00516667
990	0.0106314
1002	0.0225545
1014	0.0222564
1026	0.0170897
1038	0.0209647
1050	0.020468
1062	0.0248397
1074	0.0293109
1086	0.0308013
1098	0.0588205
1110	0.237766
1122	0.0571314
1134	0.033484
1146	0.0476923
1158	0.0436186
1170	0.0196731
1182	0.033484
1194	0.113965
1206	0.21243
1218	0.070843
1230	0.00914103
1242	0.00914103
1254	0.0180833
1266	0.0266282
1278	0.0351731
1290	0.0861443
1302	0.0897212
1314	0.0634904
1326	0.0731282
1338	0.260023
1350	0.877837
1362	0.636096
1374	0.178846
1386	0.167321
1398	0.13016
1410	0.0522628
1422	0.0430224
1434	0.0677628
1446	0.117045
1458	0.130558
1470	0.192856
1482	0.311192
1494	0.1085
1506	0.148442
1518	0.304933
1530	0.718465
1542	0.99359
1554	0.66809
1566	0.512891
1578	0.488747
1590	0.229519
1602	0.314769
1614	0.372199
1626	0.0748173
1638	0.0262308
1650	0.0242436
1662	0.0196731
1674	0.00645833
1686	0.0060609
1698	0.0136122
1710	0.0196731
1722	0.021859
1734	0.0342789
1746	0.0414327
1758	0.0248397
1770	0.0213622
1782	0.0213622
1794	0.0186795
1806	0.0277212
1818	0.0274231
1830	0.00844551
1842	0.00129167
1854	0
1866	0.000596154
1878	0.00278205
1890	0.00794872
1902	0.0135128
1914	0.00904167
1926	0.00258333
1938	0.00178846
1950	0.00158974
1962	0.00188782
1974	0.00278205
1986	0.00228526
1998	0.00238462
2010	0.00228526
2022	0.00198718
2034	0.00188782
2046	0.00158974
2058	0.0016891
2070	0.00149038
2082	0.00198718
2094	0.00208654
2106	0.00139103
2118	0.000894231
2130	0.000596154
2142	0.000695513
2154	0.00099359
2166	0.00099359
2178	0.000695513
2190	0.000496795
2202	0
2214	9.9359e-05
2226	0.000794872
2238	0.000794872
2250	0.000198718
2262	0.00099359
2274	0.0016891
2286	0.00178846
2298	0.0021859
2310	0.00139103
2322	0.000496795
2334	0
2346	0.00129167
2358	0.00149038
2370	0.0021859
2382	0.0021859
2394	0.00238462
2406	0.00268269
2418	0.00288141
2430	0.00476923
2442	0.003875
2454	0.00268269
2466	0.00278205
2478	0.00238462
2490	0.00158974
2502	0.00149038
2514	0.00099359
2526	0.00198718
2538	0.00178846
2550	0.00188782
2562	0.00238462
2574	0.00228526
2586	0.00407372
2598	0.00268269
2610	0.00149038
2622	0.00129167
2634	0.00129167
2646	0.00139103
2658	0.00258333
2670	0.00317949
2682	0.00457051
2694	0.00476923
2706	0.00407372
2718	0.00347756
2730	0.00367628
2742	0.00347756
2754	0.00397436
2766	0.00317949
2778	0.0016891
2790	0.00109295
2802	0.00188782
2814	0.00308013
2826	0.0055641
2838	0.00844551
2850	0.0125192
2862	0.0220577
2874	0.0344776
2886	0.0353718
2898	0.0284167
2910	0.0251378
2922	0.0262308
2934	0.0404391
2946	0.0706442
2958	0.0574295
2970	0.0338814
2982	0.0463013
2994	0.074718
3006	0.045109
3018	0.0195737
3030	0.0126186
3042	0.0094391
3054	0.00904167
3066	0.0143077
3078	0.0167917
3090	0.0123205
3102	0.00496795
3114	0.00357692
3126	0.00208654
3138	0.00238462
3150	0.00208654
3162	0.00188782
3174	0.00178846
3186	0.00208654
3198	0.00129167
3210	0.00099359
3222	0.00099359
3234	0.000794872
3246	0.00158974
3258	0.00119231
3270	0.0016891
3282	0.00129167
3294	0.00149038
3306	0.00119231
3318	0.00129167
3330	0.00109295
3342	0.00149038
3354	0.00149038
3366	0.0016891
3378	0.00149038
3390	0.000794872
3402	0.00178846
3414	0.00119231
3426	0.00109295
3438	0.00109295
3450	0.000695513
3462	0.000794872
3474	0.000695513
3486	0.000496795
3498	0.000397436
3510	0.000596154
3522	0.000596154
3534	0.000794872
3546	0.000695513
3558	0.000397436
3570	0.00228526
3582	0.00158974
3594	0.000298077
3606	0.000298077
3618	0.000794872
3630	0.000298077
3642	0.00129167
3654	0.00158974
3666	0.000298077
3678	0.000596154
3690	0.00158974
3702	0.00139103
3714	0.000794872
3726	0.000894231
3738	0.000894231
3750	0.000794872
3762	0.00139103
3774	0.000894231
3786	0.0016891
3798	0.000496795
3810	0.00129167
3822	0.0016891
3834	0.00139103
3846	0.00139103
3858	0.000596154
3870	0.000596154
3882	0
3894	0.00139103
3906	0.00178846
3918	0.000298077
3930	0.000496795
3942	0.00198718
3954	0.00258333
3966	0.0016891
