Infrared Spectrum: Benzene, 1-chloro-3-methyl-2-nitro-
Formula: C 7 H 6 Cl N O 2
CAS: 5367-26-0
Origin: Sadtler Research Labs Under US-EPA Contract
1/CM	ABSORBANCE
450	0.0511567
462	0.0355088
474	0.00631936
486	0.0054166
498	0.0027083
510	0.00135415
522	0.00255784
534	0.00782397
546	0.0528118
558	0.0433328
570	0.00977996
582	0.0135415
594	0.00842582
606	0.00376153
618	0.00300922
630	0.00210645
642	0.00451383
654	0.00737259
666	0.00752305
678	0.0139929
690	0.017303
702	0.0258793
714	0.134512
726	0.137973
738	0.0947904
750	0.0410759
762	0.155125
774	0.498778
786	0.125785
798	0.0201618
810	0.0144443
822	0.0177544
834	0.0264811
846	0.203273
858	0.190333
870	0.108181
882	0.194697
894	0.0520595
906	0.0287381
918	0.0239233
930	0.0186572
942	0.0215159
954	0.0263307
966	0.0281362
978	0.034606
990	0.0422795
1002	0.0600339
1014	0.0586798
1026	0.0416777
1038	0.0362611
1050	0.0347565
1062	0.0487494
1074	0.0722213
1086	0.0501035
1098	0.0353583
1110	0.0364116
1122	0.0567238
1134	0.0376153
1146	0.0227196
1158	0.0272334
1170	0.0317473
1182	0.0475457
1194	0.153019
1206	0.0929849
1218	0.0201618
1230	0.013692
1242	0.0185067
1254	0.0171526
1266	0.0264811
1278	0.0299417
1290	0.0246756
1302	0.0297913
1314	0.0245251
1326	0.0236224
1338	0.0379162
1350	0.172579
1362	0.478316
1374	0.480572
1386	0.140982
1398	0.0672561
1410	0.0487494
1422	0.0475457
1434	0.0686102
1446	0.111793
1458	0.209442
1470	0.21531
1482	0.132857
1494	0.104871
1506	0.125484
1518	0.145044
1530	0.23833
1542	0.657515
1554	1.31217
1566	1.07655
1578	0.284672
1590	0.12744
1602	0.249314
1614	0.17935
1626	0.0347565
1638	0.0201618
1650	0.0127892
1662	0.023171
1674	0.00646982
1686	0.00120369
1698	0.00556706
1710	0.0273839
1722	0.0296408
1734	0.0305436
1746	0.0451383
1758	0.0334023
1770	0.0255784
1782	0.0321987
1794	0.0303931
1806	0.050254
1818	0.0514577
1830	0.017303
1842	0.00947904
1854	0.0189581
1866	0.0170021
1878	0.0105323
1890	0.00586798
1902	0.00782397
1914	0.00797443
1926	0.0120369
1938	0.0233215
1950	0.0151966
1962	0.00797443
1974	0.00646982
1986	0.00646982
1998	0.0061689
2010	0.00677075
2022	0.0054166
2034	0.00571752
2046	0.00511567
2058	0.00511567
2070	0.00511567
2082	0.00466429
2094	0.00391199
2106	0.00391199
2118	0.00391199
2130	0.00361106
2142	0.00315968
2154	0.00255784
2166	0.00195599
2178	0.00195599
2190	0.00195599
2202	0.00120369
2214	0.000902766
2226	0.000300922
2238	0
2250	0.000451383
2262	0.00165507
2274	0.00210645
2286	0.00165507
2298	0.00150461
2310	0.00180553
2322	0.00406245
2334	0.00466429
2346	0.00331014
2358	0.0027083
2370	0.00255784
2382	0.00391199
2394	0.00586798
2406	0.00631936
2418	0.0034606
2430	0.00225691
2442	0.00180553
2454	0.00180553
2466	0.00165507
2478	0.00255784
2490	0.0027083
2502	0.00225691
2514	0.00210645
2526	0.00255784
2538	0.00225691
2550	0.00195599
2562	0.00210645
2574	0.00180553
2586	0.00195599
2598	0.00180553
2610	0.00135415
2622	0.00195599
2634	0.0027083
2646	0.0027083
2658	0.00180553
2670	0.00315968
2682	0.00436337
2694	0.00361106
2706	0.00496521
2718	0.00797443
2730	0.00947904
2742	0.00571752
2754	0.00556706
2766	0.00466429
2778	0.00300922
2790	0.00165507
2802	0.00300922
2814	0.00361106
2826	0.00436337
2838	0.00586798
2850	0.00947904
2862	0.015347
2874	0.0257288
2886	0.0323491
2898	0.0359602
2910	0.0422795
2922	0.0458906
2934	0.0525109
2946	0.0702653
2958	0.0487494
2970	0.0355088
2982	0.0430318
2994	0.054166
3006	0.0434832
3018	0.0293399
3030	0.0323491
3042	0.0257288
3054	0.0240738
3066	0.0525109
3078	0.07508
3090	0.0501035
3102	0.0150461
3114	0.00511567
3126	0.00210645
3138	0.00180553
3150	0.00180553
3162	0.00210645
3174	0.0027083
3186	0.00195599
3198	0.00135415
3210	0.00120369
3222	0.000752305
3234	0.00105323
3246	0.00150461
3258	0.000902766
3270	0.00120369
3282	0.00135415
3294	0.00180553
3306	0.00135415
3318	0.00120369
3330	0.00105323
3342	0.00120369
3354	0.00150461
3366	0.00195599
3378	0.00255784
3390	0.00135415
3402	0.00195599
3414	0.00150461
3426	0.00120369
3438	0.00105323
3450	0.00165507
3462	0.00105323
3474	0.000902766
3486	0.00105323
3498	0.00120369
3510	0.00135415
3522	0.000902766
3534	0.00225691
3546	0.000902766
3558	0.00120369
3570	0.00165507
3582	0.00165507
3594	0.000601844
3606	0
3618	0.000902766
3630	0.00105323
3642	0.000902766
3654	0.00120369
3666	0.00105323
3678	0.000601844
3690	0.00105323
3702	0.00105323
3714	0.000300922
3726	0.000601844
3738	0.00150461
3750	0.00285876
3762	0.00195599
3774	0.000902766
3786	0.00255784
3798	0.00165507
3810	0.00135415
3822	0.000752305
3834	0.00135415
3846	0.00120369
3858	0
3870	0
3882	0.000300922
3894	0.000752305
3906	0.00120369
3918	0.000601844
3930	0.00195599
3942	0.00180553
3954	0.00165507
3966	0.00165507
