Infrared Spectrum: Di-3,5-xylylamine
Formula: C 16 H 19 N
CAS: 5369-25-5
Origin: Sadtler Research Labs Under US-EPA Contract
1/CM	ABSORBANCE
450	0
462	0.0171595
474	0.0171595
486	0.0173781
498	0.0149736
510	0.0158479
522	0.0215313
534	0.0378164
546	0.0122412
558	0.0149736
570	0.0252474
582	0.0170502
594	0.0121319
606	0.00929016
618	0.00721354
630	0.00743213
642	0.0113668
654	0.0104924
666	0.0185803
678	0.0697308
690	0.0580362
702	0.0162851
714	0.0162851
726	0.0231708
738	0.0301657
750	0.0322423
762	0.0267775
774	0.0203291
786	0.0169409
798	0.0191268
810	0.0393466
822	0.138697
834	0.228538
846	0.0708238
858	0.0337725
870	0.0219685
882	0.0143178
894	0.00972734
906	0.00677635
918	0.00655776
930	0.00852509
942	0.0217499
954	0.0345375
966	0.0201105
978	0.011804
990	0.0194547
1002	0.0207662
1014	0.0194547
1026	0.0351933
1038	0.0686379
1050	0.0625173
1062	0.0416418
1074	0.021422
1086	0.00754142
1098	0.00502762
1110	0.00633917
1122	0.00502762
1134	0.00633917
1146	0.0124597
1158	0.0278705
1170	0.0686379
1182	0.297504
1194	0.120553
1206	0.0190175
1218	0.0104924
1230	0.0104924
1242	0.011804
1254	0.011804
1266	0.0196733
1278	0.022515
1290	0.0355212
1302	0.073119
1314	0.126128
1326	0.344501
1338	0.316631
1350	0.116619
1362	0.0938853
1374	0.129625
1386	0.2081
1398	0.162195
1410	0.0953061
1422	0.107766
1434	0.150501
1446	0.259578
1458	0.363846
1470	0.264168
1482	0.2422
1494	0.242637
1506	0.260015
1518	0.267447
1530	0.247665
1542	0.216734
1554	0.204602
1566	0.234112
1578	0.449316
1590	1.00367
1602	0.938743
1614	0.446365
1626	0.121865
1638	0.0544294
1650	0.0320237
1662	0.0238265
1674	0.0241544
1686	0.0233893
1698	0.0261217
1710	0.025466
1722	0.0242637
1734	0.0222964
1746	0.0189082
1758	0.016613
1770	0.0131155
1782	0.0110389
1794	0.010711
1806	0.0103831
1818	0.00994594
1830	0.00907157
1842	0.00776002
1854	0.00644846
1866	0.00732283
1878	0.00841579
1890	0.00929016
1902	0.00863438
1914	0.0080879
1926	0.00721354
1938	0.00644846
1950	0.00622987
1962	0.00524621
1974	0.00513691
1986	0.00502762
1998	0.00502762
2010	0.00568339
2022	0.0055741
2034	0.00524621
2046	0.00502762
2058	0.00469973
2070	0.00469973
2082	0.00513691
2094	0.00568339
2106	0.00677635
2118	0.00699494
2130	0.00590198
2142	0.00655776
2154	0.00579269
2166	0.00502762
2178	0.00524621
2190	0.0054648
2202	0.0053555
2214	0.00524621
2226	0.00590198
2238	0.00699494
2250	0.00754142
2262	0.00633917
2274	0.00502762
2286	0.00513691
2298	0.00710424
2310	0.00885298
2322	0.0113668
2334	0.0122412
2346	0.0113668
2358	0.0080879
2370	0.0080879
2382	0.00874368
2394	0.00710424
2406	0.00743213
2418	0.00786931
2430	0.00885298
2442	0.00994594
2454	0.0110389
2466	0.0110389
2478	0.0121319
2490	0.0132248
2502	0.010711
2514	0.00961805
2526	0.00874368
2538	0.0103831
2550	0.0110389
2562	0.0102738
2574	0.00885298
2586	0.00721354
2598	0.00721354
2610	0.00786931
2622	0.0080879
2634	0.0081972
2646	0.00786931
2658	0.00754142
2670	0.00786931
2682	0.00939946
2694	0.00961805
2706	0.0101645
2718	0.0116947
2730	0.0173781
2742	0.0240451
2754	0.0160665
2766	0.0135527
2778	0.0128969
2790	0.0146457
2802	0.0165037
2814	0.0207662
2826	0.0274333
2838	0.0396744
2850	0.0655776
2862	0.110389
2874	0.150828
2886	0.126018
2898	0.12263
2910	0.166567
2922	0.263731
2934	0.320347
2946	0.185366
2958	0.121756
2970	0.0938853
2982	0.095634
2994	0.118368
3006	0.133341
3018	0.193673
3030	0.293241
3042	0.154326
3054	0.0959619
3066	0.0637196
3078	0.0437184
3090	0.0320237
3102	0.0220778
3114	0.0167223
3126	0.0124597
3138	0.00972734
3150	0.00786931
3162	0.00688565
3174	0.00633917
3186	0.00655776
3198	0.00590198
3210	0.00666706
3222	0.00710424
3234	0.00743213
3246	0.00765072
3258	0.00666706
3270	0.00786931
3282	0.00732283
3294	0.00743213
3306	0.0081972
3318	0.00841579
3330	0.00918086
3342	0.0103831
3354	0.0119133
3366	0.0159572
3378	0.0230615
3390	0.0314772
3402	0.0347561
3414	0.0336632
3426	0.0345375
3438	0.0355212
3450	0.0276519
3462	0.0178152
3474	0.0116947
3486	0.00896227
3498	0.00765072
3510	0.00688565
3522	0.00699494
3534	0.00666706
3546	0.00699494
3558	0.00644846
3570	0.00732283
3582	0.00721354
3594	0.0053555
3606	0.00601128
3618	0.00601128
3630	0.0055741
3642	0.00524621
3654	0.00502762
3666	0.00710424
3678	0.0055741
3690	0.00612058
3702	0.00622987
3714	0.00601128
3726	0.00622987
3738	0.00524621
3750	0.0055741
3762	0.0054648
3774	0.00633917
3786	0.0054648
3798	0.00568339
3810	0.00710424
3822	0.00655776
3834	0.00666706
3846	0.00568339
3858	0.00612058
3870	0.00612058
3882	0.00655776
3894	0.00644846
3906	0.00699494
3918	0.00765072
3930	0.00776002
3942	0.00776002
3954	0.00655776
3966	0.00797861
