Infrared Spectrum: 2-Acetyl-5-bromothiophene
Formula: C 6 H 5 Br O S
CAS: 5370-25-2
Origin: Sadtler Research Labs Under US-EPA Contract
1/CM	ABSORBANCE
450	0.0175161
462	0.0235654
474	0.0324138
486	0.0185092
498	0.00713283
510	0.004063
522	0.00424358
534	0.00704254
546	0.00920948
558	0.00604936
570	0.00568821
582	0.0288022
594	0.110423
606	0.0569724
618	0.0195927
630	0.00361156
642	0.00144462
654	0.00523676
666	0.014988
678	0.0788223
690	0.00758428
702	0.00306983
714	0.000361156
726	0.00144462
738	0.0098415
750	0.00632023
762	0.00397272
774	0.0239266
786	0.0799058
798	0.115209
810	0.0843299
822	0.0262741
834	0.00388243
846	0.00487561
858	0.0049659
870	0.00487561
882	0.00442416
894	0.00668139
906	0.0213082
918	0.0492075
930	0.0235654
942	0.0227528
954	0.059049
966	0.102659
978	0.172362
990	0.115389
1002	0.0342195
1014	0.0376505
1026	0.034671
1038	0.0309691
1050	0.0254615
1062	0.03124
1074	0.0339487
1086	0.0120987
1098	0.0100221
1110	0.00641052
1122	0.00514647
1134	0.00559792
1146	0.00839688
1158	0.0107444
1170	0.00957063
1182	0.0166132
1194	0.0256421
1206	0.038102
1218	0.108527
1230	0.229153
1242	0.166673
1254	0.307795
1266	0.391493
1278	0.105277
1290	0.0309691
1302	0.0320526
1314	0.139316
1326	0.116383
1338	0.0522773
1350	0.0673556
1362	0.13742
1374	0.094352
1386	0.0627509
1398	0.173716
1410	0.733508
1422	0.627418
1434	0.0877609
1446	0.0446028
1458	0.0207665
1470	0.0175161
1482	0.0197733
1494	0.0177869
1506	0.0214888
1518	0.0811698
1530	0.0779194
1542	0.0199539
1554	0.0111958
1566	0.0145365
1578	0.0179675
1590	0.0171549
1602	0.0129113
1614	0.0120987
1626	0.0125502
1638	0.0178772
1650	0.0235654
1662	0.0455057
1674	0.128391
1686	0.499569
1698	0.67184
1710	0.232043
1722	0.0254615
1734	0.00803572
1746	0.0138142
1758	0.0173355
1770	0.00966092
1782	0.00622994
1794	0.00361156
1806	0.00595907
1818	0.00677168
1830	0.00252809
1842	0.00234751
1854	0.00541734
1866	0.00297954
1878	0.00198636
1890	0.000361156
1902	0.00180578
1914	0.00171549
1926	0.00297954
1938	0.00370185
1950	0.00306983
1962	0.00234751
1974	0.00108347
1986	0.00135434
1998	0.0016252
2010	0.00126405
2022	0.000361156
2034	0.00108347
2046	0.00090289
2058	0.000993179
2070	0.000993179
2082	0.00090289
2094	0.00144462
2106	0.00135434
2118	0.000812601
2130	0.00135434
2142	0.00090289
2154	0.000361156
2166	0.000722312
2178	0.000812601
2190	0.000993179
2202	0.00126405
2214	0.000632023
2226	0.000541734
2238	0.00090289
2250	0.000812601
2262	0.00126405
2274	0.00198636
2286	0.00270867
2298	0.00297954
2310	0.00306983
2322	0.00270867
2334	0.00306983
2346	0.00361156
2358	0.00288925
2370	0.00234751
2382	0.00361156
2394	0.00189607
2406	0.00207665
2418	0.00270867
2430	0.00352127
2442	0.0032504
2454	0.00316012
2466	0.00216694
2478	0.00189607
2490	0.00144462
2502	0.00135434
2514	0.00144462
2526	0.00153491
2538	0.00189607
2550	0.00198636
2562	0.00207665
2574	0.0024378
2586	0.00216694
2598	0.00252809
2610	0.00252809
2622	0.00270867
2634	0.0032504
2646	0.00316012
2658	0.00334069
2670	0.00415329
2682	0.00433387
2694	0.00297954
2706	0.0024378
2718	0.00252809
2730	0.00288925
2742	0.00216694
2754	0.00216694
2766	0.00216694
2778	0.00261838
2790	0.00279896
2802	0.00252809
2814	0.00297954
2826	0.00343098
2838	0.00361156
2850	0.00433387
2862	0.00442416
2874	0.00451445
2886	0.00433387
2898	0.00523676
2910	0.00686196
2922	0.0100221
2934	0.0139948
2946	0.0127307
2958	0.010925
2970	0.0125502
2982	0.0111055
2994	0.00975121
3006	0.0135434
3018	0.0213985
3030	0.0129113
3042	0.00875803
3054	0.00812601
3066	0.00893861
3078	0.0105638
3090	0.014988
3102	0.00966092
3114	0.00749399
3126	0.00415329
3138	0.00252809
3150	0.00225722
3162	0.0024378
3174	0.0016252
3186	0.00171549
3198	0.00126405
3210	0.00180578
3222	0.00153491
3234	0.00180578
3246	0.00126405
3258	0.00171549
3270	0.00144462
3282	0.00135434
3294	0.00126405
3306	0.00180578
3318	0.0016252
3330	0.00261838
3342	0.00370185
3354	0.0065911
3366	0.0098415
3378	0.00884832
3390	0.0057785
3402	0.00198636
3414	0.00180578
3426	0.00297954
3438	0.00252809
3450	0.00171549
3462	0.00216694
3474	0.00207665
3486	0.0024378
3498	0.00234751
3510	0.00216694
3522	0.00234751
3534	0.00198636
3546	0.00207665
3558	0.00189607
3570	0.00297954
3582	0.0024378
3594	0.00207665
3606	0.00126405
3618	0.00108347
3630	0.00135434
3642	0.00153491
3654	0.00171549
3666	0.00126405
3678	0.00144462
3690	0.00108347
3702	0.00135434
3714	0.000993179
3726	0.00126405
3738	0.00126405
3750	0.00108347
3762	0.00144462
3774	0.00234751
3786	0.00090289
3798	0.00171549
3810	0.000993179
3822	0.00234751
3834	0.00316012
3846	0.00270867
3858	0.00352127
3870	0.00135434
3882	0.00189607
3894	0.00288925
3906	0.00252809
3918	0.00270867
3930	0.000812601
3942	0.000812601
3954	0.0032504
3966	0.00261838
