Infrared Spectrum: Oxadiazole, 1,3,4-, 2-(m-fluorophenyl)-,
Formula: C 8 H 5 F N 2 O
CAS: 5378-32-5
Origin: Sadtler Research Labs Under US-EPA Contract
1/CM	ABSORBANCE
450	0
462	0.00891988
474	0.013859
486	0.0113894
498	0.00777725
510	0.011242
522	0.0329519
534	0.0331731
546	0.0147436
558	0.0174343
570	0.0230369
582	0.019351
594	0.0159231
606	0.0120898
618	0.0163285
630	0.0375962
642	0.0527452
654	0.019093
666	0.0394023
678	0.0960914
690	0.0673045
702	0.0207516
714	0.033984
726	0.114042
738	0.0942853
750	0.0269808
762	0.0154439
774	0.0406923
786	0.111498
798	0.085992
810	0.0338734
822	0.0492068
834	0.0685209
846	0.0357164
858	0.11876
870	0.332984
882	0.136673
894	0.0812372
906	0.0335785
918	0.0169551
930	0.0234055
942	0.0845177
954	0.122224
966	0.062476
978	0.0412821
990	0.024843
1002	0.0243269
1014	0.0300769
1026	0.0348686
1038	0.035016
1050	0.0720962
1062	0.100514
1074	0.0892356
1086	0.0960546
1098	0.263984
1110	0.112309
1122	0.0171763
1134	0.0171026
1146	0.0206042
1158	0.0281971
1170	0.0261699
1182	0.0651299
1194	0.18072
1206	0.166455
1218	0.0571315
1230	0.0876507
1242	0.152117
1254	0.0916683
1266	0.102505
1278	0.111019
1290	0.0444151
1302	0.0528558
1314	0.0774408
1326	0.0995193
1338	0.0862132
1350	0.0517869
1362	0.0221891
1374	0.0202356
1386	0.0197564
1398	0.0204936
1410	0.0322885
1422	0.0430882
1434	0.0600065
1446	0.135162
1458	0.241426
1470	0.168409
1482	0.230074
1494	0.191188
1506	0.0934007
1518	0.14176
1530	0.0918895
1542	0.107223
1554	0.299111
1566	0.320452
1578	0.138
1590	0.146957
1602	0.163064
1614	0.0858815
1626	0.0686683
1638	0.0395128
1650	0.0420561
1662	0.0402869
1674	0.0191667
1686	0.019351
1698	0.0127532
1710	0.0100625
1722	0.0100994
1734	0.00906731
1746	0.0120529
1758	0.0145224
1770	0.0136378
1782	0.0147436
1794	0.0133061
1806	0.0120529
1818	0.00825642
1830	0.00670834
1842	0.00729808
1854	0.0102468
1866	0.0152965
1878	0.0135641
1890	0.00869872
1902	0.00715065
1914	0.00788783
1926	0.0120529
1938	0.0149648
1950	0.0111314
1962	0.00729808
1974	0.00648718
1986	0.0065609
1998	0.00678206
2010	0.00696635
2022	0.00715065
2034	0.00796154
2046	0.00796154
2058	0.0094359
2070	0.0115
2082	0.00980449
2094	0.00692949
2106	0.0075561
2118	0.00707693
2130	0.00678206
2142	0.00711379
2154	0.00718751
2166	0.00740866
2178	0.00762981
2190	0.00740866
2202	0.00692949
2214	0.00762981
2226	0.00718751
2238	0.00715065
2250	0.00759295
2262	0.00748238
2274	0.00840385
2286	0.00939904
2298	0.00947276
2310	0.0102099
2322	0.0109103
2334	0.0100256
2346	0.00998879
2358	0.00921475
2370	0.00759295
2382	0.00888302
2394	0.00770353
2406	0.00796154
2418	0.00785097
2430	0.00777725
2442	0.0079984
2454	0.00888302
2466	0.0110946
2478	0.0106154
2490	0.00939904
2502	0.00873558
2514	0.00869872
2526	0.0089936
2538	0.00958334
2550	0.00847757
2562	0.00847757
2574	0.00903045
2586	0.00947276
2598	0.00958334
2610	0.0114631
2622	0.0110208
2634	0.00873558
2646	0.00903045
2658	0.00891988
2670	0.00873558
2682	0.00814584
2694	0.00821956
2706	0.00766667
2718	0.0073718
2730	0.00770353
2742	0.00718751
2754	0.00803526
2766	0.00774039
2778	0.0081827
2790	0.00855129
2802	0.00833013
2814	0.00833013
2826	0.00840385
2838	0.00844071
2850	0.0088093
2862	0.0113157
2874	0.0140801
2886	0.0145593
2898	0.0124952
2910	0.0132692
2922	0.0142276
2934	0.0185769
2946	0.0215257
2958	0.0218205
2970	0.0247324
2982	0.01725
2994	0.0121635
3006	0.012274
3018	0.0134535
3030	0.014375
3042	0.0144856
3054	0.0162548
3066	0.0213045
3078	0.0373013
3090	0.0398077
3102	0.0187244
3114	0.0136378
3126	0.0108734
3138	0.0100994
3150	0.00973078
3162	0.0134904
3174	0.0118317
3186	0.00833013
3198	0.00877244
3210	0.00829328
3222	0.00866186
3234	0.00829328
3246	0.0079984
3258	0.00774039
3270	0.00814584
3282	0.00810898
3294	0.00858815
3306	0.00785097
3318	0.00844071
3330	0.00807212
3342	0.00855129
3354	0.00869872
3366	0.00847757
3378	0.00855129
3390	0.00836699
3402	0.00858815
3414	0.00762981
3426	0.00821956
3438	0.00873558
3450	0.00762981
3462	0.00851443
3474	0.00869872
3486	0.00781411
3498	0.00836699
3510	0.00803526
3522	0.00774039
3534	0.00807212
3546	0.00903045
3558	0.00833013
3570	0.00969392
3582	0.00796154
3594	0.00939904
3606	0.00888302
3618	0.00873558
3630	0.00888302
3642	0.00836699
3654	0.0079984
3666	0.0081827
3678	0.00844071
3690	0.00788783
3702	0.00925161
3714	0.00877244
3726	0.00939904
3738	0.00914103
3750	0.00726122
3762	0.00762981
3774	0.00733494
3786	0.00692949
3798	0.0081827
3810	0.00810898
3822	0.00659776
3834	0.00748238
3846	0.00685577
3858	0.00715065
3870	0.00925161
3882	0.0079984
3894	0.00917789
3906	0.0075561
3918	0.0089936
3930	0.00844071
3942	0.00785097
3954	0.00980449
3966	0.00921475
