Infrared Spectrum: Oxadiazole, 1,3,4-, 2-(m-butoxyphenyl)-,
Formula: C 12 H 14 N 2 O 2
CAS: 5378-31-4
Origin: Sadtler Research Labs Under US-EPA Contract
1/CM	ABSORBANCE
450	0.0204264
462	0.00503851
474	0.00653645
486	0.0039491
498	0.00549243
510	0.00535626
522	0.010077
534	0.00866987
546	0.00839752
558	0.00898762
570	0.015751
582	0.0169312
594	0.0190192
606	0.018066
618	0.014707
630	0.0298679
642	0.0519738
654	0.00925997
666	0.0206988
678	0.0608253
690	0.105627
702	0.025238
714	0.0201994
726	0.0931898
738	0.0878335
750	0.0227414
762	0.018066
774	0.0333177
786	0.0861086
798	0.061143
810	0.0255557
822	0.0601444
834	0.07122
846	0.048978
858	0.0705392
870	0.079663
882	0.0935983
894	0.0902847
906	0.0460729
918	0.0261912
930	0.0261458
942	0.0668624
954	0.140851
966	0.0921912
978	0.0980013
990	0.0710385
1002	0.0820233
1014	0.148477
1026	0.210483
1038	0.180615
1050	0.133861
1062	0.172535
1074	0.1778
1086	0.133362
1098	0.185971
1110	0.160461
1122	0.0402627
1134	0.0270082
1146	0.0275076
1158	0.0411252
1170	0.0391733
1182	0.0461183
1194	0.137402
1206	0.386876
1218	0.236538
1230	0.124147
1242	0.380294
1254	0.342664
1266	0.141124
1278	0.154333
1290	0.164455
1302	0.0997262
1314	0.177437
1326	0.280659
1338	0.157283
1350	0.0675433
1362	0.0360866
1374	0.044121
1386	0.0849284
1398	0.0618239
1410	0.0416699
1422	0.0539711
1434	0.0837936
1446	0.224373
1458	0.254377
1470	0.270128
1482	0.29986
1494	0.197818
1506	0.079663
1518	0.174169
1530	0.0622324
1542	0.128959
1554	0.433176
1566	0.216474
1578	0.118927
1590	0.243664
1602	0.206806
1614	0.148659
1626	0.0647744
1638	0.0256465
1650	0.0383562
1662	0.0197001
1674	0.00544704
1686	0.00344979
1698	0.00163411
1710	0.00413067
1722	0.00381293
1734	0
1746	0.0028143
1758	0.00571939
1770	0.00481155
1782	0.00522008
1794	0.00249656
1806	0.00276891
1818	0.00190646
1830	0.00108941
1842	0.00326822
1854	0.0062187
1866	0.00544704
1878	0.0045392
1890	0.00349518
1902	0.00290509
1914	0.00354058
1926	0.00771664
1938	0.0073989
1950	0.0028143
1962	0.0017249
1974	0.00177029
1986	0.00231499
1998	0.00290509
2010	0.00344979
2022	0.00381293
2034	0.00499312
2046	0.00553782
2058	0.005674
2070	0.00562861
2082	0.00571939
2094	0.00435763
2106	0.00372214
2118	0.00258734
2130	0.00186107
2142	0.00195186
2154	0.00231499
2166	0.00299587
2178	0.0034044
2190	0.00317744
2202	0.00204264
2214	0.00195186
2226	0.00149794
2238	0.00158872
2250	0.00195186
2262	0.00222421
2274	0.00335901
2286	0.0045392
2298	0.00476616
2310	0.00535626
2322	0.0050839
2334	0.00304126
2346	0.00390371
2358	0.00204264
2370	0.00145254
2382	0.00372214
2394	0.00181568
2406	0.00249656
2418	0.00304126
2430	0.00326822
2442	0.0039945
2454	0.00467538
2466	0.00553782
2478	0.00544704
2490	0.00576478
2502	0.00531086
2514	0.00485694
2526	0.0062187
2538	0.00599174
2550	0.00481155
2562	0.00503851
2574	0.00558322
2586	0.00608253
2598	0.00617331
2610	0.00667262
2622	0.00689958
2634	0.00485694
2646	0.0050839
2658	0.00522008
2670	0.00531086
2682	0.00549243
2694	0.00603714
2706	0.00544704
2718	0.00612792
2730	0.00708115
2742	0.00894222
2754	0.0106671
2766	0.010077
2778	0.0096231
2790	0.0105763
2802	0.0117565
2814	0.0146616
2826	0.0186561
2838	0.0251018
2850	0.0402627
2862	0.0614154
2874	0.110802
2886	0.157646
2898	0.122377
2910	0.131137
2922	0.166816
2934	0.200905
2946	0.270082
2958	0.246297
2970	0.320967
2982	0.179117
2994	0.0685873
3006	0.040762
3018	0.0324099
3030	0.0288239
3042	0.0278707
3054	0.0251926
3066	0.0311389
3078	0.0466176
3090	0.0393095
3102	0.0194732
3114	0.0145708
3126	0.00953232
3138	0.00862448
3150	0.00785282
3162	0.00758046
3174	0.00531086
3186	0.00490234
3198	0.00462998
3210	0.00385832
3222	0.00304126
3234	0.00290509
3246	0.00181568
3258	0.00263274
3270	0.0022696
3282	0.00217882
3294	0.00236038
3306	0.00177029
3318	0.00240578
3330	0.00263274
3342	0.00249656
3354	0.0022696
3366	0.00308666
3378	0.00240578
3390	0.00231499
3402	0.00335901
3414	0.00240578
3426	0.0028597
3438	0.00304126
3450	0.0028597
3462	0.00313205
3474	0.0028143
3486	0.00249656
3498	0.00295048
3510	0.00258734
3522	0.00263274
3534	0.00335901
3546	0.00503851
3558	0.00354058
3570	0.00385832
3582	0.00313205
3594	0.00272352
3606	0.00313205
3618	0.00313205
3630	0.0022696
3642	0.00417606
3654	0.00363136
3666	0.00417606
3678	0.00217882
3690	0.00186107
3702	0.00417606
3714	0.00413067
3726	0.00458459
3738	0.00426685
3750	0.00145254
3762	0.00290509
3774	0.00349518
3786	0.00231499
3798	0.00263274
3810	0.00326822
3822	0.000272352
3834	0.00295048
3846	0.0022696
3858	0.00136176
3870	0.00390371
3882	0.00331362
3894	0.00344979
3906	0.00408528
3918	0.00335901
3930	0.00213342
3942	0.00263274
3954	0.00385832
3966	0.00349518
