Infrared Spectrum: Benzene, (2-methylpropyl)-
Formula: C 10 H 14
CAS: 538-93-2
Origin: Sadtler Research Labs Under US-EPA Contract
1/CM	ABSORBANCE
450	0.0144343
462	0.00331824
474	0.0109502
486	0.0353393
498	0.0393211
510	0.0142684
522	0.00459023
534	0.00315233
546	0.00254398
558	0.00337354
570	0.0041478
582	0.00613874
594	0.0173655
606	0.0114479
618	0.00801908
630	0.00541979
642	0.0055857
654	0.00879334
666	0.00929107
678	0.0297536
690	0.134223
702	0.191905
714	0.091694
726	0.126038
738	0.184494
750	0.0675815
762	0.0144343
774	0.00879334
786	0.0110055
798	0.006913
810	0.00945698
822	0.0101206
834	0.00586222
846	0.00359476
858	0.00353946
870	0.00348415
882	0.00630466
894	0.00801908
906	0.0153192
918	0.0142131
930	0.0110055
942	0.00602814
954	0.00569631
966	0.00298642
978	0.00342885
990	0.00348415
1002	0.0027652
1014	0.0041478
1026	0.0252186
1038	0.0216792
1050	0.0115032
1062	0.01637
1074	0.0100653
1086	0.0126646
1098	0.0209049
1110	0.0219557
1122	0.0139919
1134	0.00680239
1146	0.00901455
1158	0.0224534
1170	0.0350074
1182	0.0158722
1194	0.00862742
1206	0.00879334
1218	0.0101759
1230	0.0096229
1242	0.00624935
1254	0.00486675
1266	0.0055304
1278	0.01001
1290	0.013107
1302	0.00801908
1314	0.00812969
1326	0.0127752
1338	0.0168124
1350	0.021292
1362	0.027652
1374	0.0487228
1386	0.0624382
1398	0.0368878
1410	0.0118904
1422	0.0117244
1434	0.0190799
1446	0.0497183
1458	0.0866614
1470	0.0876568
1482	0.0562995
1494	0.0796931
1506	0.0562442
1518	0.0108396
1530	0.00730013
1542	0.00796378
1554	0.00459023
1566	0.00647057
1578	0.0105078
1590	0.0246656
1602	0.04275
1614	0.0324634
1626	0.00918046
1638	0.00586222
1650	0.00630466
1662	0.00376067
1674	0.0041478
1686	0.00320763
1698	0.00365006
1710	0.00475614
1722	0.00470084
1734	0.00586222
1746	0.00669178
1758	0.00459023
1770	0.00398189
1782	0.00486675
1794	0.0123881
1806	0.0104525
1818	0.00459023
1830	0.00237807
1842	0.00182503
1854	0.00453493
1866	0.00741074
1878	0.00912516
1890	0.00647057
1902	0.00210155
1914	0.00188034
1926	0.00608344
1938	0.0113926
1950	0.0121669
1962	0.00652587
1974	0.00127199
1986	0.0013826
1998	0.000608344
2010	0.000608344
2022	0.000442432
2034	0.000663648
2046	0.000221216
2058	0.000221216
2070	0
2082	0.000331824
2094	0.00055304
2106	0.000331824
2118	5.5304e-05
2130	0.000110608
2142	0.000221216
2154	0.000718952
2166	0.00082956
2178	0.000774256
2190	0.000884864
2202	0.0013826
2214	0.00154851
2226	0.00105078
2238	0.000663648
2250	0.00082956
2262	0.00110608
2274	0.00121669
2286	0.00121669
2298	0.00176973
2310	0.00248868
2322	0.00215686
2334	0.00199094
2346	0.00237807
2358	0.00210155
2370	0.00254398
2382	0.00226746
2394	0.00154851
2406	0.0013273
2418	0.00110608
2430	0.0013826
2442	0.0013273
2454	0.0014379
2466	0.00165912
2478	0.00110608
2490	0.00165912
2502	0.00204625
2514	0.00165912
2526	0.00160382
2538	0.00188034
2550	0.00248868
2562	0.00293111
2574	0.00293111
2586	0.00376067
2598	0.00470084
2610	0.0054751
2622	0.00514327
2634	0.00508797
2646	0.00453493
2658	0.00486675
2670	0.00436902
2682	0.0042031
2694	0.00353946
2706	0.00359476
2718	0.00492206
2730	0.00895925
2742	0.00906986
2754	0.00630466
2766	0.00724482
2778	0.00890394
2790	0.0105631
2802	0.0122222
2814	0.0146003
2826	0.0188034
2838	0.0309149
2850	0.0635443
2862	0.0906433
2874	0.157727
2886	0.184218
2898	0.158888
2910	0.217898
2922	0.29477
2934	0.286585
2946	0.260758
2958	0.398355
2970	0.55304
2982	0.240572
2994	0.0420863
3006	0.0392658
3018	0.0616087
3030	0.163091
3042	0.169839
3054	0.0688535
3066	0.120507
3078	0.147828
3090	0.0850022
3102	0.0543085
3114	0.0293664
3126	0.0152639
3138	0.00895925
3150	0.00763195
3162	0.00868273
3174	0.00906986
3186	0.00851682
3198	0.00735543
3210	0.00641526
3222	0.00464554
3234	0.00326294
3246	0.00254398
3258	0.00265459
3270	0.00342885
3282	0.00320763
3294	0.00259929
3306	0.00232277
3318	0.00226746
3330	0.0027652
3342	0.00331824
3354	0.00254398
3366	0.00287581
3378	0.00381598
3390	0.00331824
3402	0.0027652
3414	0.00193564
3426	0.00154851
3438	0.00176973
3450	0.00226746
3462	0.00204625
3474	0.00165912
3486	0.00199094
3498	0.00160382
3510	0.00127199
3522	0.00149321
3534	0.00149321
3546	0.00243338
3558	0.00226746
3570	0.00210155
3582	0.00121669
3594	0.00254398
3606	0.00127199
3618	0.00237807
3630	0.00243338
3642	0.00298642
3654	0.00442432
3666	0.00176973
3678	0.00447962
3690	0.00265459
3702	0.00265459
3714	0.00337354
3726	0.00176973
3738	0.00431371
3750	0.00182503
3762	0.00221216
3774	0.00210155
3786	0.0027652
3798	0.00287581
3810	0.00160382
3822	0.0027652
3834	0.00298642
3846	0.0027652
3858	0.00376067
3870	0.00353946
3882	0.00381598
3894	0.00348415
3906	0.00381598
3918	0.00210155
3930	0.00287581
3942	0.00331824
3954	0.00215686
3966	0.0027652
