Infrared Spectrum: Benzene, (methoxymethyl)-
Formula: C 8 H 10 O
CAS: 538-86-3
Origin: Sadtler Research Labs Under US-EPA Contract
1/CM	ABSORBANCE
450	0.0084056
462	0.0123791
474	0.0184923
486	0.0128886
498	0.00759051
510	0.00534902
522	0.00463581
534	0.00336224
546	0.00504336
558	0.00275092
570	0.0111056
582	0.00916974
594	0.0316356
606	0.0432506
618	0.0176263
630	0.00952634
642	0.00524713
654	0.00448298
666	0.010698
678	0.0489053
690	0.114724
702	0.140093
714	0.102039
726	0.139023
738	0.21987
750	0.129141
762	0.0414167
774	0.012481
786	0.0087622
798	0.014315
810	0.0240451
822	0.0180848
834	0.0112075
846	0.00631693
858	0.00606222
870	0.00753956
882	0.0127358
894	0.0253696
906	0.0354054
918	0.0423336
930	0.0502298
942	0.0347941
954	0.0295979
966	0.0359148
978	0.0359148
990	0.0385129
1002	0.032145
1014	0.0245036
1026	0.0472242
1038	0.0413148
1050	0.0293941
1062	0.0454412
1074	0.0631184
1086	0.112533
1098	0.274022
1110	0.473464
1122	0.448095
1134	0.185636
1146	0.0734598
1158	0.0580241
1170	0.0608259
1182	0.0905767
1194	0.16047
1206	0.174633
1218	0.0845654
1230	0.0368318
1242	0.0253187
1254	0.0209376
1266	0.0234847
1278	0.0293432
1290	0.0222621
1302	0.0192055
1314	0.0222111
1326	0.0215489
1338	0.0195112
1350	0.0260319
1362	0.0706579
1374	0.0980143
1386	0.0933276
1398	0.0317375
1410	0.0128376
1422	0.0143659
1434	0.0291394
1446	0.0604184
1458	0.0846673
1470	0.067958
1482	0.0418751
1494	0.0596033
1506	0.0491091
1518	0.0125829
1530	0.00967917
1542	0.00820182
1554	0.00779428
1566	0.00967917
1578	0.0121244
1590	0.0166074
1602	0.0184414
1614	0.0129905
1626	0.00743768
1638	0.0065207
1650	0.00565467
1662	0.00433016
1674	0.00412638
1686	0.00198678
1698	0.00285281
1710	0.00952634
1722	0.0217527
1734	0.0228225
1746	0.0108509
1758	0.00539996
1770	0.00310752
1782	0.00346412
1794	0.00784522
1806	0.0117169
1818	0.0065207
1830	0.00305658
1842	0.00341318
1854	0.00453393
1866	0.00692825
1878	0.00789617
1890	0.00499241
1902	0.00219055
1914	0.00188489
1926	0.00336224
1938	0.00845654
1950	0.0116659
1962	0.00906785
1974	0.00356601
1986	0.00320941
1998	0.00407544
2010	0.00458487
2022	0.00560373
2034	0.00590939
2046	0.00499241
2058	0.00560373
2070	0.00601127
2082	0.00601127
2094	0.00499241
2106	0.00387167
2118	0.00392261
2130	0.00341318
2142	0.00346412
2154	0.0036679
2166	0.00351507
2178	0.00254715
2190	0.00188489
2202	0.00198678
2214	0.00290375
2226	0.00193583
2238	0.00183395
2250	0.00188489
2262	0.00203772
2274	0.00168112
2286	0.00198678
2298	0.00285281
2310	0.0036679
2322	0.00310752
2334	0.00173206
2346	0.00239432
2358	0.00168112
2370	0.000866031
2382	0.00224149
2394	0.00168112
2406	0.00163018
2418	0.00117169
2430	0.00147735
2442	0.00101886
2454	0.00101886
2466	0.00101886
2478	0.000916974
2490	0.000764145
2502	0.000764145
2514	0.000916974
2526	0.000254715
2538	0.000458487
2550	0.00152829
2562	0.00050943
2574	0.00168112
2586	0.00376978
2598	0.00631693
2610	0.00575656
2622	0.00529807
2634	0.00560373
2646	0.00443204
2658	0.0050943
2670	0.00453393
2682	0.00641882
2694	0.00835465
2706	0.0122263
2718	0.0161489
2730	0.0184414
2742	0.0175244
2754	0.0164036
2766	0.0167093
2778	0.0199187
2790	0.0311771
2802	0.0584826
2814	0.12048
2826	0.190068
2838	0.17937
2850	0.156904
2862	0.175499
2874	0.162814
2886	0.161184
2898	0.172289
2910	0.163069
2922	0.165616
2934	0.189814
2946	0.165106
2958	0.105044
2970	0.07509
2982	0.0902201
2994	0.127459
3006	0.0913408
3018	0.073256
3030	0.120684
3042	0.141214
3054	0.100561
3066	0.117678
3078	0.134999
3090	0.085839
3102	0.0584826
3114	0.0325016
3126	0.0157923
3138	0.00697919
3150	0.00499241
3162	0.00397355
3174	0.0040245
3186	0.00254715
3198	0.0014264
3210	0.00152829
3222	0.00269998
3234	0.000866031
3246	0.00183395
3258	0.00183395
3270	0.00173206
3282	0.00168112
3294	0.0014264
3306	0.00152829
3318	0.00163018
3330	0.00132452
3342	0.000967917
3354	0.00157923
3366	0.00112075
3378	0.00137546
3390	0.000560373
3402	0.00239432
3414	0.00188489
3426	0.00341318
3438	0.00300564
3450	0.00234338
3462	0.00219055
3474	0.00269998
3486	0.00213961
3498	0.00229244
3510	0.00275092
3522	0.00173206
3534	0.00326035
3546	0.00387167
3558	0.00208866
3570	0.0036679
3582	0.00234338
3594	0.00412638
3606	0.00504336
3618	0.00397355
3630	0.00611316
3642	0.00534902
3654	0.0058075
3666	0.00560373
3678	0.00809994
3690	0.00774334
3702	0.00718296
3714	0.00657165
3726	0.00784522
3738	0.00733579
3750	0.00703013
3762	0.00769239
3774	0.00825277
3786	0.00753956
3798	0.00866031
3810	0.00809994
3822	0.00794711
3834	0.00789617
3846	0.00784522
3858	0.00906785
3870	0.00927163
3882	0.00835465
3894	0.00973011
3906	0.00769239
3918	0.00779428
3930	0.00748862
3942	0.00626599
3954	0.00590939
3966	0.00682636
