Infrared Spectrum: Benzene, pentyl-
Formula: C 11 H 16
CAS: 538-68-1
Origin: Sadtler Research Labs Under US-EPA Contract
1/CM	ABSORBANCE
450	0
462	0.0166872
474	0.0283975
486	0.0398151
498	0.0502568
510	0.0415716
522	0.0276168
534	0.0220544
546	0.0228351
558	0.0316179
570	0.043133
582	0.0324961
594	0.0275193
606	0.019322
618	0.0165896
630	0.0158089
642	0.0173703
654	0.0223472
666	0.0291782
678	0.0559168
690	0.206199
702	0.276949
714	0.14189
726	0.154283
738	0.221423
750	0.159358
762	0.0619671
774	0.035131
786	0.0301541
798	0.0225424
810	0.0223472
822	0.0203955
834	0.0187365
846	0.0182486
858	0.0180534
870	0.0175655
882	0.0195172
894	0.0234206
906	0.0313251
918	0.0282999
930	0.0215665
942	0.0224448
954	0.0202979
966	0.0231279
978	0.0256651
990	0.0199075
1002	0.0188341
1014	0.0211762
1026	0.0484027
1038	0.0439137
1050	0.0251772
1062	0.0336672
1074	0.0307396
1086	0.0273241
1098	0.0301541
1110	0.0352285
1122	0.024982
1134	0.01698
1146	0.016492
1158	0.0161017
1170	0.0174679
1182	0.0210786
1194	0.0219568
1206	0.0214689
1218	0.019322
1230	0.0201027
1242	0.0212737
1254	0.019322
1266	0.0203955
1278	0.022152
1290	0.0257627
1302	0.0287879
1314	0.029471
1326	0.0319106
1338	0.0422547
1350	0.0470365
1362	0.0411813
1374	0.0439137
1386	0.052794
1398	0.0338623
1410	0.0280072
1422	0.0312275
1434	0.0456702
1446	0.0953415
1458	0.14716
1470	0.123349
1482	0.0746533
1494	0.133986
1506	0.111541
1518	0.0281048
1530	0.0258603
1542	0.0253724
1554	0.0210786
1566	0.0216641
1578	0.0290806
1590	0.0442065
1602	0.0815819
1614	0.0654802
1626	0.0242013
1638	0.019322
1650	0.0216641
1662	0.0168824
1674	0.01698
1686	0.0168824
1698	0.0168824
1710	0.0167848
1722	0.0179558
1734	0.0206882
1746	0.0202003
1758	0.0166872
1770	0.0176631
1782	0.01981
1794	0.0323986
1806	0.0247868
1818	0.0185413
1830	0.0165896
1842	0.01698
1854	0.0202979
1866	0.0236158
1878	0.0245917
1890	0.0182486
1902	0.0147355
1914	0.0154186
1926	0.0208834
1938	0.0280072
1950	0.0290806
1962	0.0201027
1974	0.0137596
1986	0.013662
1998	0.0133693
2010	0.0137596
2022	0.0139548
2034	0.01415
2046	0.0137596
2058	0.0133693
2070	0.0133693
2082	0.0132717
2094	0.0131741
2106	0.0130765
2118	0.0130765
2130	0.0130765
2142	0.0131741
2154	0.0134669
2166	0.013662
2178	0.0139548
2190	0.0137596
2202	0.0134669
2214	0.0135645
2226	0.0134669
2238	0.0133693
2250	0.0134669
2262	0.0132717
2274	0.0132717
2286	0.0132717
2298	0.0127838
2310	0.0131741
2322	0.0131741
2334	0.0127838
2346	0.0127838
2358	0.0127838
2370	0.0127838
2382	0.0129789
2394	0.0143451
2406	0.0145403
2418	0.0144427
2430	0.0143451
2442	0.0143451
2454	0.013662
2466	0.0140524
2478	0.013662
2490	0.0135645
2502	0.0137596
2514	0.0146379
2526	0.0148331
2538	0.0149307
2550	0.0158089
2562	0.0163944
2574	0.01698
2586	0.0176631
2598	0.0175655
2610	0.0182486
2622	0.0182486
2634	0.0196148
2646	0.0201027
2658	0.0201027
2670	0.0212737
2682	0.0217617
2694	0.0205906
2706	0.019322
2718	0.0194196
2730	0.0210786
2742	0.0240062
2754	0.0240062
2766	0.0233231
2778	0.0258603
2790	0.0313251
2802	0.0352285
2814	0.0404006
2826	0.0491833
2838	0.0696764
2850	0.138084
2862	0.327596
2874	0.385367
2886	0.318716
2898	0.238793
2910	0.3032
2922	0.544627
2934	0.919065
2946	0.826749
2958	0.492419
2970	0.614206
2982	0.279096
2994	0.108808
3006	0.094756
3018	0.118372
3030	0.258115
3042	0.258603
3054	0.115737
3066	0.186584
3078	0.225424
3090	0.132717
3102	0.0896815
3114	0.0598202
3126	0.0333744
3138	0.0228351
3150	0.0213713
3162	0.0211762
3174	0.0206882
3186	0.0190293
3198	0.0180534
3210	0.0161993
3222	0.0159065
3234	0.0149307
3246	0.0149307
3258	0.0146379
3270	0.0147355
3282	0.0152234
3294	0.0137596
3306	0.0142476
3318	0.0147355
3330	0.0140524
3342	0.0139548
3354	0.0142476
3366	0.0137596
3378	0.0152234
3390	0.0143451
3402	0.0142476
3414	0.0142476
3426	0.0134669
3438	0.01415
3450	0.013662
3462	0.0135645
3474	0.013662
3486	0.013662
3498	0.01415
3510	0.0135645
3522	0.0138572
3534	0.0137596
3546	0.0127838
3558	0.0133693
3570	0.0128814
3582	0.0144427
3594	0.0139548
3606	0.0146379
3618	0.0149307
3630	0.0159065
3642	0.0151258
3654	0.0159065
3666	0.0171751
3678	0.0145403
3690	0.0154186
3702	0.0150282
3714	0.0156138
3726	0.0162969
3738	0.0147355
3750	0.0174679
3762	0.0160041
3774	0.0146379
3786	0.0154186
3798	0.0139548
3810	0.0167848
3822	0.0138572
3834	0.0150282
3846	0.0151258
3858	0.0167848
3870	0.0139548
3882	0.0150282
3894	0.0133693
3906	0.0151258
3918	0.0148331
3930	0.0145403
3942	0.0143451
3954	0.0140524
3966	0.0150282
