Infrared Spectrum: Cyclohexanamine, N,N'-methanetetraylbis-
Formula: C 13 H 22 N 2
CAS: 538-75-0
Origin: Sadtler Research Labs Under US-EPA Contract
1/CM	ABSORBANCE
450	0.00195267
462	0.0466688
474	0.0587754
486	0.0517458
498	0.043154
510	0.0404203
522	0.0538937
534	0.0535032
546	0.0449114
558	0.0554558
570	0.0531126
582	0.054089
594	0.0525268
606	0.0675624
618	0.0615091
630	0.0794737
642	0.0634618
654	0.0425682
666	0.0330001
678	0.0283137
690	0.0294853
702	0.019722
714	0.0193314
726	0.0171835
738	0.00761541
750	0.0275326
762	0.0242131
774	0.0261658
786	0.026361
798	0.0189409
810	0.0232368
822	0.0126924
834	0.0230415
846	0.0187456
858	0.0251894
870	0.0191362
882	0.0316333
894	0.0482309
906	0.0349528
918	0.0247989
930	0.0269468
942	0.0456925
954	0.051941
966	0.023432
978	0.0156214
990	0.016793
1002	0.0322191
1014	0.0517458
1026	0.0630712
1038	0.0849411
1050	0.106811
1062	0.0333907
1074	0.0292901
1086	0.0283137
1098	0.0214794
1110	0.0181598
1122	0.037296
1134	0.0353433
1146	0.0371007
1158	0.0331954
1170	0.0277279
1182	0.0320238
1194	0.0441303
1206	0.037296
1218	0.0271421
1230	0.0322191
1242	0.0525268
1254	0.0488167
1266	0.0642428
1278	0.0447161
1290	0.0585801
1302	0.115012
1314	0.126533
1326	0.0806453
1338	0.063657
1350	0.113645
1362	0.114426
1374	0.0404203
1386	0.0253847
1398	0.0265563
1410	0.0246036
1422	0.0290948
1434	0.0408108
1446	0.0781068
1458	0.107983
1470	0.0679529
1482	0.0521363
1494	0.0761541
1506	0.0771305
1518	0.0454972
1530	0.0279232
1542	0.0232368
1554	0.0189409
1566	0.0134734
1578	0.0123018
1590	0.010935
1602	0.0128876
1614	0.0119113
1626	0.0123018
1638	0.0134734
1650	0.0158166
1662	0.0142545
1674	0.0183551
1686	0.0199172
1698	0.026361
1710	0.0583848
1722	0.0417871
1734	0.0162072
1746	0.0107397
1758	0.00859175
1770	0.00761541
1782	0.00702961
1794	0.00605328
1806	0.00644381
1818	0.00663908
1830	0.00722488
1842	0.00566274
1854	0.00742015
1866	0.00683435
1878	0.00566274
1890	0.00702961
1902	0.00663908
1914	0.00722488
1926	0.00820121
1938	0.00878702
1950	0.00995862
1962	0.0101539
1974	0.0123018
1986	0.0140592
1998	0.017574
2010	0.0249942
2022	0.0369055
2034	0.0529174
2046	0.0712725
2058	0.0915802
2070	0.119308
2082	0.15348
2094	0.205616
2106	0.31106
2118	0.80411
2130	1.95267
2142	0.843358
2154	0.275326
2166	0.170078
2178	0.12087
2190	0.0790831
2202	0.0617044
2214	0.0544795
2226	0.0558464
2238	0.0609233
2250	0.0843553
2262	0.115989
2274	0.105054
2286	0.0613138
2298	0.0316333
2310	0.0210888
2322	0.0164024
2334	0.0136687
2346	0.0181598
2358	0.0195267
2370	0.0107397
2382	0.0121066
2394	0.00937282
2406	0.00722488
2418	0.00566274
2430	0.00488168
2442	0.00371007
2454	0.0023432
2466	0.00156214
2478	0.00195267
2490	0.00195267
2502	0.00156214
2514	0.000781068
2526	0.000585801
2538	0
2550	0.000585801
2562	0.000585801
2574	0.00136687
2586	0.00253847
2598	0.00331954
2610	0.00351481
2622	0.00312427
2634	0.00371007
2646	0.00566274
2658	0.00839648
2670	0.00956808
2682	0.00702961
2694	0.00566274
2706	0.00527221
2718	0.00449114
2730	0.00331954
2742	0.00429587
2754	0.00605328
2766	0.00898228
2778	0.0119113
2790	0.0144498
2802	0.0154261
2814	0.0160119
2826	0.0195267
2838	0.0341717
2850	0.105835
2862	0.277474
2874	0.222214
2886	0.129853
2898	0.134344
2910	0.206592
2922	0.355972
2934	0.767009
2946	0.881826
2958	0.302859
2970	0.0644381
2982	0.0191362
2994	0.010935
3006	0.00995862
3018	0.0105444
3030	0.00956808
3042	0.00546748
3054	0.00331954
3066	0.00195267
3078	0.0017574
3090	0.00195267
3102	0.00331954
3114	0.00214794
3126	0.00156214
3138	0.0023432
3150	0.00371007
3162	0.00429587
3174	0.0017574
3186	0.000976335
3198	0.000390534
3210	0.00136687
3222	0.00156214
3234	0.000781068
3246	0.000781068
3258	0.00136687
3270	0.00253847
3282	0.000976335
3294	0.000976335
3306	0.0017574
3318	0.00136687
3330	0.00214794
3342	0.00136687
3354	0.0017574
3366	0.00253847
3378	0.00351481
3390	0.00371007
3402	0.00351481
3414	0.00371007
3426	0.00644381
3438	0.00800595
3450	0.00624854
3462	0.00605328
3474	0.00761541
3486	0.00742015
3498	0.00781068
3510	0.00761541
3522	0.00956808
3534	0.00917755
3546	0.00644381
3558	0.00605328
3570	0.00585801
3582	0.00331954
3594	0.00292901
3606	0.00292901
3618	0.00214794
3630	0.00312427
3642	0.00292901
3654	0.00585801
3666	0.00410061
3678	0.0017574
3690	0.00429587
3702	0.00605328
3714	0.00488168
3726	0.00136687
3738	0.00351481
3750	0.00663908
3762	0.00449114
3774	0.00585801
3786	0.00507694
3798	0.00585801
3810	0.00585801
3822	0.00702961
3834	0.00624854
3846	0.00644381
3858	0.00507694
3870	0.00468641
3882	0.00488168
3894	0.0023432
3906	0.00371007
3918	0.00702961
3930	0.00527221
3942	0.00702961
3954	0.00702961
3966	0.00429587
