Infrared Spectrum: Propionic acid, 3-(4-chloro-3,5-xylyloxy)-, ethyl ester
Formula: C 13 H 17 Cl O 3
CAS: 53830-54-9
Origin: Sadtler Research Labs Under US-EPA Contract
1/CM	ABSORBANCE
450	0.0042254
462	0.01142
474	0.0076514
486	0.0103922
498	0.0086792
510	0.005139
522	0.0094786
534	0.0021698
546	0.0066236
558	0.0075372
570	0.0081082
582	0.008565
594	0.016559
606	0.0226116
618	0.0309482
630	0.0435102
642	0.0425966
654	0.0429392
666	0.0550444
678	0.0484208
690	0.0360872
702	0.0389422
714	0.0235252
726	0.0139324
738	0.0087934
750	0.0065094
762	0.0075372
774	0.0084508
786	0.0126762
798	0.0140466
810	0.0151886
822	0.0220406
834	0.042825
846	0.0510474
858	0.107576
870	0.06281
882	0.0309482
894	0.0253524
906	0.0229542
918	0.0282074
930	0.0352878
942	0.0270654
954	0.0288926
966	0.024553
978	0.0307198
990	0.0448806
1002	0.0794832
1014	0.130645
1026	0.232169
1038	0.47256
1050	0.457028
1062	0.245416
1074	0.276136
1086	0.237879
1098	0.149259
1110	0.107234
1122	0.0880482
1134	0.116827
1146	0.31542
1158	0.984061
1170	0.95928
1182	0.649113
1194	0.516527
1206	0.292695
1218	0.216866
1230	0.245644
1242	0.2662
1254	0.284244
1266	0.221548
1278	0.166504
1290	0.187859
1302	0.291324
1314	0.590757
1326	0.537996
1338	0.205446
1350	0.148803
1362	0.106777
1374	0.152685
1386	0.166389
1398	0.150516
1410	0.153599
1422	0.223375
1434	0.174155
1446	0.169244
1458	0.218236
1470	0.374348
1482	0.207501
1494	0.075943
1506	0.047964
1518	0.0413404
1530	0.0417972
1542	0.0476214
1554	0.0600692
1566	0.0888476
1578	0.178152
1590	0.310967
1602	0.249299
1614	0.091931
1626	0.0307198
1638	0.0167874
1650	0.0135898
1662	0.0135898
1674	0.0151886
1686	0.019985
1698	0.0295778
1710	0.0540166
1722	0.0875914
1734	0.173584
1746	0.402898
1758	0.643745
1770	0.350708
1782	0.122879
1794	0.05139
1806	0.025124
1818	0.0135898
1830	0.0086792
1842	0.0063952
1854	0.003997
1866	0.003997
1878	0.0042254
1890	0.0043396
1902	0.0036544
1914	0.0030834
1926	0.0030834
1938	0.0038828
1950	0.0038828
1962	0.0033118
1974	0.002284
1986	0.0014846
1998	0.001713
2010	0.0025124
2022	0.002855
2034	0.0038828
2046	0.0043396
2058	0.0033118
2070	0.0027408
2082	0.0033118
2094	0.0035402
2106	0.0038828
2118	0.0036544
2130	0.0027408
2142	0.0012562
2154	0.0012562
2166	0.0012562
2178	0.0013704
2190	0.0006852
2202	0.0001142
2214	0.0003426
2226	0.000571
2238	0.0007994
2250	0.0010278
2262	0.0014846
2274	0.0020556
2286	0.0023982
2298	0.0038828
2310	0.0052532
2322	0.0053674
2334	0.005139
2346	0.0046822
2358	0.0027408
2370	0.0026266
2382	0.003426
2394	0.0012562
2406	0.0015988
2418	0.0014846
2430	0.0014846
2442	0.0018272
2454	0.0025124
2466	0.003997
2478	0.0044538
2490	0.003426
2502	0.0018272
2514	0.000571
2526	0.0003426
2538	0.0007994
2550	0.0009136
2562	0.001142
2574	0.0006852
2586	0.0010278
2598	0.0010278
2610	0.0012562
2622	0.001713
2634	0.002284
2646	0.0021698
2658	0.002284
2670	0.0019414
2682	0.0027408
2694	0.003426
2706	0.0027408
2718	0.0029692
2730	0.0050248
2742	0.0093644
2754	0.01142
2766	0.0078798
2778	0.007423
2790	0.0075372
2802	0.009136
2814	0.01142
2826	0.0145034
2838	0.0186146
2850	0.0284358
2862	0.0471646
2874	0.0664644
2886	0.0883908
2898	0.0962706
2910	0.103123
2922	0.130074
2934	0.199051
2946	0.218465
2958	0.160908
2970	0.177924
2982	0.233425
2994	0.228971
3006	0.122422
3018	0.0664644
3030	0.0417972
3042	0.0370008
3054	0.0423682
3066	0.0417972
3078	0.031405
3090	0.0172442
3102	0.0117626
3114	0.0095928
3126	0.0078798
3138	0.006852
3150	0.0052532
3162	0.0043396
3174	0.0037686
3186	0.0037686
3198	0.0029692
3210	0.002284
3222	0.0020556
3234	0.0018272
3246	0.0012562
3258	0.0013704
3270	0.0010278
3282	0.001142
3294	0.0012562
3306	0.0014846
3318	0.0013704
3330	0.001142
3342	0.002284
3354	0.0009136
3366	0.0018272
3378	0.001713
3390	0.0018272
3402	0.0019414
3414	0.0020556
3426	0.0020556
3438	0.002855
3450	0.0014846
3462	0.0027408
3474	0.0036544
3486	0.0055958
3498	0.0052532
3510	0.0037686
3522	0.0015988
3534	0.0019414
3546	0.0007994
3558	0.0010278
3570	0.0018272
3582	0.0015988
3594	0.0007994
3606	0.0010278
3618	0.0010278
3630	0.002284
3642	0.0013704
3654	0.0018272
3666	0.0009136
3678	0.001142
3690	0.0021698
3702	0.002284
3714	0.0020556
3726	0.0009136
3738	0.001142
3750	0.0012562
3762	0.0015988
3774	0.0019414
3786	0.0019414
3798	0.0012562
3810	0.0021698
3822	0.0007994
3834	0.001713
3846	0.0010278
3858	0.0023982
3870	0.0004568
3882	0.0007994
3894	0.0018272
3906	0.0033118
3918	0.0037686
3930	0.0038828
3942	0.0029692
3954	0.0019414
3966	0.003997
