Infrared Spectrum: Propiophenone, 5-bromo-3,4-dimethyl-2-hydroxy-,
Formula: C 11 H 13 Br O 2
CAS: 5384-03-2
Origin: Sadtler Research Labs Under US-EPA Contract
1/CM	ABSORBANCE
450	0.0040128
462	0.00390434
474	0.00737487
486	0.00992354
498	0.036061
510	0.0252698
522	0.00645301
534	0.00797137
546	0.00948973
558	0.0187083
570	0.0167019
582	0.0111708
594	0.0139906
606	0.0195217
618	0.0241852
630	0.018166
642	0.0170815
654	0.0216366
666	0.0176238
678	0.0180034
690	0.0266255
702	0.054227
714	0.0556911
726	0.052546
738	0.046581
750	0.0590532
762	0.0503769
774	0.0571553
786	0.0686514
798	0.0736945
810	0.0764601
822	0.067133
834	0.03297
846	0.0228838
858	0.0481536
870	0.0733691
882	0.0226127
894	0.0158343
906	0.0215281
918	0.0479367
930	0.0295537
942	0.0139906
954	0.0163766
966	0.0245648
978	0.037742
990	0.0375793
1002	0.0273304
1014	0.0309094
1026	0.0534678
1038	0.0824793
1050	0.0821539
1062	0.0610596
1074	0.0485874
1086	0.0857329
1098	0.127596
1110	0.0916436
1122	0.114365
1134	0.0735318
1146	0.0509734
1158	0.0246191
1170	0.0198471
1182	0.0276558
1194	0.0402364
1206	0.0780869
1218	0.194512
1230	0.346402
1242	0.214685
1254	0.164525
1266	0.227536
1278	0.226072
1290	0.20487
1302	0.131826
1314	0.112358
1326	0.191096
1338	0.255897
1350	0.285451
1362	0.26376
1374	0.192343
1386	0.193319
1398	0.215281
1410	0.197441
1422	0.138658
1434	0.110027
1446	0.143702
1458	0.154276
1470	0.142454
1482	0.0947888
1494	0.0723388
1506	0.0595955
1518	0.0556911
1530	0.0546608
1542	0.0535763
1554	0.0563419
1566	0.058294
1578	0.0605173
1590	0.0858956
1602	0.151998
1614	0.170978
1626	0.123909
1638	0.235996
1650	0.54227
1662	0.293097
1674	0.0793341
1686	0.0398026
1698	0.0291199
1710	0.0248902
1722	0.0202809
1734	0.0196302
1746	0.01719
1758	0.0107912
1770	0.00840519
1782	0.00715796
1794	0.00607342
1806	0.00596497
1818	0.00330785
1830	0.00103031
1842	0.000433816
1854	0.00135567
1866	0.000921859
1878	0.00113877
1890	0.000759178
1902	0.00135567
1914	0.00113877
1926	0.00168104
1938	0.00189795
1950	0.00162681
1962	0.00254867
1974	0.00211485
1986	0.00184372
1998	0.00119299
2010	0.000976086
2022	0.000921859
2034	0.00151836
2046	0.00135567
2058	0.00168104
2070	0.00157258
2082	0.00124722
2094	0.00162681
2106	0.00151836
2118	0.00119299
2130	0.00124722
2142	0.000650724
2154	0.000976086
2166	0.000704951
2178	0.000921859
2190	0.00108454
2202	0.00146413
2214	0.00119299
2226	0.00124722
2238	0.00151836
2250	0.00162681
2262	0.00227753
2274	0.00276558
2286	0.00357898
2298	0.00504311
2310	0.00591074
2322	0.00526002
2334	0.00390434
2346	0.00504311
2358	0.00412125
2370	0.00336207
2382	0.00526002
2394	0.00385012
2406	0.00368744
2418	0.00352476
2430	0.00433816
2442	0.00488043
2454	0.00536847
2466	0.00672415
2478	0.00753755
2490	0.00732064
2502	0.00791714
2514	0.00851364
2526	0.00867632
2538	0.00856787
2550	0.00862209
2562	0.008839
2574	0.00916436
2586	0.00959818
2598	0.0106827
2610	0.0113877
2622	0.0123095
2634	0.0135568
2646	0.0150751
2658	0.016485
2670	0.0160512
2682	0.0154005
2694	0.0157801
2706	0.0161054
2718	0.0168104
2730	0.0172984
2742	0.0190337
2754	0.0190879
2766	0.0188168
2778	0.0199013
2790	0.0213654
2802	0.0240226
2814	0.0262459
2826	0.0292826
2838	0.0314517
2850	0.0351933
2862	0.0429478
2874	0.0570468
2886	0.0737487
2898	0.0810151
2910	0.0775988
2922	0.102381
2934	0.12559
2946	0.151727
2958	0.1424
2970	0.0907218
2982	0.112901
2994	0.153408
3006	0.0850822
3018	0.072393
3030	0.0743452
3042	0.0740741
3054	0.0699528
3066	0.0667534
3078	0.0621984
3090	0.0584567
3102	0.0566672
3114	0.0541728
3126	0.0527086
3138	0.0520579
3150	0.0509734
3162	0.0493466
3174	0.0471775
3186	0.0447915
3198	0.0428393
3210	0.0405076
3222	0.0392061
3234	0.0383385
3246	0.036549
3258	0.0348137
3270	0.0336207
3282	0.0327531
3294	0.0317228
3306	0.0304756
3318	0.0268424
3330	0.0249986
3342	0.0234803
3354	0.0213112
3366	0.0195217
3378	0.018383
3390	0.0168646
3402	0.0150209
3414	0.0140448
3426	0.0128518
3438	0.0115504
3450	0.01052
3462	0.00938127
3474	0.00807982
3486	0.00748333
3498	0.00639879
3510	0.00661569
3522	0.00721219
3534	0.00921859
3546	0.00721219
3558	0.00488043
3570	0.0046093
3582	0.00477198
3594	0.00292826
3606	0.00314517
3618	0.00195217
3630	0.00309094
3642	0.00287403
3654	0.00254867
3666	0.00206063
3678	0.00184372
3690	0.0020064
3702	0.00227753
3714	0.00249444
3726	0.00124722
3738	0.00276558
3750	0.00168104
3762	0.00244021
3774	0.000976086
3786	0.00151836
3798	0.00244021
3810	0.00168104
3822	0.00244021
3834	0.00184372
3846	0.00184372
3858	0.00249444
3870	0.00265712
3882	0.00265712
3894	0.00325362
3906	0.0026029
3918	0.00157258
3930	0.0034163
3942	0.00265712
3954	0.00352476
3966	0.00265712
