Infrared Spectrum: Phenalen-1-one, 2,3-dihydro-2,5,8-trimethyl-,
Formula: C 16 H 16 O
CAS: 53863-86-8
Origin: Sadtler Research Labs Under US-EPA Contract
1/CM	ABSORBANCE
450	0.0492491
462	0.0205505
474	0.00800388
486	0.00793177
498	0.00735491
510	0.0135561
522	0.013484
534	0.0278333
546	0.0199736
558	0.0194689
570	0.0124024
582	0.0082202
594	0.00800388
606	0.00749913
618	0.0129793
630	0.0121861
642	0.0129793
654	0.00432642
666	0.0129793
678	0.0157193
690	0.00951812
702	0.0125466
714	0.00576856
726	0.00966234
738	0.011465
750	0.00966234
762	0.0082202
774	0.0138445
786	0.0266796
798	0.0349719
810	0.0527823
822	0.0117534
834	0.017522
846	0.0281938
858	0.0426873
870	0.0376399
882	0.0445621
894	0.0821299
906	0.0307897
918	0.0305013
930	0.027617
942	0.0454274
954	0.0540081
966	0.0198294
978	0.015503
990	0.0170894
1002	0.0187478
1014	0.0145656
1026	0.0152867
1038	0.0203342
1050	0.0253096
1062	0.0241558
1074	0.0204063
1086	0.0214158
1098	0.0162241
1110	0.0175941
1122	0.0302128
1134	0.0607141
1146	0.0235069
1158	0.0312944
1170	0.0294918
1182	0.0426152
1194	0.0157914
1206	0.0206947
1218	0.046509
1230	0.0365582
1242	0.0897011
1254	0.105348
1266	0.0688622
1278	0.0372793
1290	0.0281217
1302	0.0271122
1314	0.0329529
1326	0.02156
1338	0.0309339
1350	0.0248769
1362	0.0383609
1374	0.0576856
1386	0.071458
1398	0.0542245
1410	0.0358372
1422	0.0615794
1434	0.130658
1446	0.0992913
1458	0.108449
1470	0.0478069
1482	0.0191805
1494	0.025598
1506	0.0465811
1518	0.029636
1530	0.0238674
1542	0.024228
1554	0.0214158
1566	0.0291312
1578	0.0454274
1590	0.0312944
1602	0.0416057
1614	0.0551619
1626	0.110324
1638	0.128711
1650	0.0516286
1662	0.0356209
1674	0.0392983
1686	0.0601372
1698	0.151713
1710	0.308834
1722	0.72107
1734	0.153948
1746	0.0359093
1758	0.0261748
1770	0.0208389
1782	0.0225695
1794	0.0151425
1806	0.0104555
1818	0.00735491
1830	0.00865284
1842	0.00785966
1854	0.00447063
1866	0.00403799
1878	0.0031006
1890	0.00454274
1902	0.00569645
1914	0.00367746
1926	0.00237953
1938	0.00158635
1950	0.00137003
1962	0.0010095
1974	0.00108161
1986	0.00151425
1998	0.00180268
2010	0.00137003
2022	0.00165846
2034	0.00187478
2046	0.00108161
2058	0.0010095
2070	0.00180268
2082	0.00129793
2094	0.000865284
2106	0.000793177
2118	0.00072107
2130	0.000865284
2142	0.000937391
2154	0.00072107
2166	0.000360535
2178	0.000648963
2190	0.000937391
2202	0.000576856
2214	0.000432642
2226	0.000432642
2238	0.000576856
2250	0.000144214
2262	0.000288428
2274	0.00072107
2286	0.00115371
2298	0.00216321
2310	0.00338903
2322	0.00331692
2334	0.00288428
2346	0.0031006
2358	0.00418221
2370	0.002019
2382	0.00274007
2394	0.00237953
2406	0.00230742
2418	0.00230742
2430	0.00194689
2442	0.00137003
2454	0.002019
2466	0.00187478
2478	0.00180268
2490	0.00173057
2502	0.00165846
2514	0.00187478
2526	0.00187478
2538	0.00180268
2550	0.00288428
2562	0.00237953
2574	0.00223532
2586	0.00230742
2598	0.00230742
2610	0.00252375
2622	0.00180268
2634	0.00187478
2646	0.00216321
2658	0.00108161
2670	0.00180268
2682	0.00173057
2694	0.00194689
2706	0.00281217
2718	0.00324482
2730	0.00497538
2742	0.00742702
2754	0.0072107
2766	0.00548013
2778	0.00504749
2790	0.00497538
2802	0.00598488
2814	0.00829231
2826	0.0119698
2838	0.0204063
2850	0.0352603
2862	0.0502586
2874	0.0715301
2886	0.0754239
2898	0.0692948
2910	0.0749913
2922	0.112703
2934	0.211778
2946	0.123303
2958	0.072107
2970	0.132172
2982	0.103041
2994	0.0688622
3006	0.0480233
3018	0.0675643
3030	0.0743423
3042	0.0577577
3054	0.0470138
3066	0.0418942
3078	0.0210552
3090	0.0111766
3102	0.00800388
3114	0.0061291
3126	0.00562435
3138	0.00396589
3150	0.00447063
3162	0.00374956
3174	0.00274007
3186	0.00317271
3198	0.00259585
3210	0.00230742
3222	0.00158635
3234	0.00129793
3246	0.000937391
3258	0.000144214
3270	0.00108161
3282	0.00194689
3294	0.00072107
3306	0.00144214
3318	0.00173057
3330	0.00151425
3342	0.00173057
3354	0.00165846
3366	0.0020911
3378	0.00230742
3390	0.00396589
3402	0.00418221
3414	0.00475906
3426	0.00728281
3438	0.00302849
3450	0.00144214
3462	0.00194689
3474	0.00165846
3486	0.00158635
3498	0.00180268
3510	0.00144214
3522	0.00115371
3534	0.00173057
3546	0.00122582
3558	0.00173057
3570	0.00173057
3582	0.00137003
3594	0.00158635
3606	0.00194689
3618	0.00115371
3630	0.00230742
3642	0.00129793
3654	0.00137003
3666	0.00122582
3678	0.00180268
3690	0.00122582
3702	0.00129793
3714	0.00144214
3726	0.00252375
3738	0.0020911
3750	0.00180268
3762	0.00230742
3774	0.000937391
3786	0.00158635
3798	0.00165846
3810	0.00173057
3822	0.00338903
3834	0.00281217
3846	0.00137003
3858	0.00173057
3870	0.00266796
3882	0.00288428
3894	0.00180268
3906	0.00367746
3918	0.0031006
3930	0.00302849
3942	0.00338903
3954	0.0020911
3966	0.00173057
