Infrared Spectrum: Pyrrole, 1-(.alpha.,.alpha.,.alpha.-trifluoro-m-tolyl)-,
Formula: C 11 H 8 F 3 N
CAS: 53871-26-4
Origin: Sadtler Research Labs Under US-EPA Contract
1/CM	ABSORBANCE
450	0.00490959
462	0.00736439
474	0.00607854
486	0.00210411
498	0.00268858
510	0.00444201
522	0.0094685
534	0.0105206
546	0.00385754
558	0.00385754
570	0.00327306
582	0.00794886
594	0.00865023
606	0.0237297
618	0.0169498
630	0.00888402
642	0.0197553
654	0.046758
666	0.0231452
678	0.0236128
690	0.129052
702	0.326137
714	0.256935
726	0.279847
738	0.0743452
750	0.0354192
762	0.0169498
774	0.0170667
786	0.0727087
798	0.191474
810	0.0329644
822	0.00818265
834	0.00876713
846	0.00537717
858	0.00561096
870	0.011105
882	0.0377571
894	0.0748128
906	0.0254831
918	0.0109881
930	0.019989
942	0.0331982
954	0.0102868
966	0.00865023
978	0.00841644
990	0.0107543
1002	0.0149626
1014	0.026769
1026	0.243609
1038	0.026769
1050	0.0370557
1062	0.275054
1074	0.485465
1086	0.163887
1098	0.162484
1110	0.0630064
1122	0.077969
1134	0.220581
1146	0.770104
1158	0.674367
1170	0.358517
1182	0.686992
1194	0.248285
1206	0.0544731
1218	0.0364712
1230	0.0402119
1242	0.0582137
1254	0.067916
1266	0.0764493
1278	0.199189
1290	0.180837
1302	0.391131
1314	0.248402
1326	0.252143
1338	0.363543
1350	1.16895
1362	0.185395
1374	0.0496804
1386	0.0364712
1398	0.0515507
1410	0.0479269
1422	0.0437187
1434	0.0562265
1446	0.093516
1458	0.144833
1470	0.147989
1482	0.31246
1494	0.329644
1506	0.622817
1518	0.1107
1530	0.0390429
1542	0.108946
1554	0.10392
1566	0.0298082
1578	0.0355361
1590	0.0902429
1602	0.134312
1614	0.137702
1626	0.109764
1638	0.0306265
1650	0.0244311
1662	0.0150795
1674	0.0165991
1686	0.0215087
1698	0.0279379
1710	0.0132091
1722	0.0139105
1734	0.0286393
1746	0.0148457
1758	0.0116895
1770	0.0150795
1782	0.0125078
1794	0.0104037
1806	0.00759817
1818	0.00596164
1830	0.00631233
1842	0.0046758
1854	0.00303927
1866	0.00724749
1878	0.0109881
1890	0.00549407
1902	0.00268858
1914	0.00268858
1926	0.00350685
1938	0.00713059
1950	0.00771507
1962	0.00338996
1974	0.00292238
1986	0.00187032
1998	0.00175342
2010	0.00163653
2022	0.00105206
2034	0.00070137
2046	0.00280548
2058	0.002221
2070	0.00163653
2082	0.00163653
2094	0.00198722
2106	0.00292238
2118	0.00163653
2130	0.00140274
2142	0.0024548
2154	0.0024548
2166	0.00128584
2178	0.00140274
2190	0.00210411
2202	0.002221
2214	0.00268858
2226	0.002221
2238	0.0023379
2250	0.00315616
2262	0.00268858
2274	0.00350685
2286	0.00374064
2298	0.00432512
2310	0.00385754
2322	0.00374064
2334	0.00338996
2346	0.00479269
2358	0.00292238
2370	0.00280548
2382	0.00268858
2394	0.00163653
2406	0.00187032
2418	0.00210411
2430	0.00175342
2442	0.002221
2454	0.002221
2466	0.00303927
2478	0.00315616
2490	0.00257169
2502	0.0024548
2514	0.000818265
2526	0.00023379
2538	0.000584475
2550	0.00140274
2562	0.00198722
2574	0.00315616
2586	0.00303927
2598	0.00338996
2610	0.00315616
2622	0.00420822
2634	0.00444201
2646	0.00374064
2658	0.00280548
2670	0.00175342
2682	0.00128584
2694	0.00210411
2706	0.00116895
2718	0.000350685
2730	0.000350685
2742	0.000116895
2754	0.00023379
2766	0.000584475
2778	0.00128584
2790	0.00210411
2802	0.00268858
2814	0.00257169
2826	0.00315616
2838	0.00385754
2850	0.00362374
2862	0.00280548
2874	0.00210411
2886	0.00175342
2898	0.00187032
2910	0.00280548
2922	0.00338996
2934	0.00315616
2946	0.00303927
2958	0.002221
2970	0.00303927
2982	0.00315616
2994	0.00175342
3006	0.00175342
3018	0.00128584
3030	0.00315616
3042	0.0070137
3054	0.0119233
3066	0.0135598
3078	0.0203397
3090	0.0225607
3102	0.0127416
3114	0.0158977
3126	0.0187032
3138	0.00794886
3150	0.00783196
3162	0.00151964
3174	0.000584475
3186	0.000116895
3198	0.000350685
3210	0.00046758
3222	0.00046758
3234	0.00023379
3246	0.00023379
3258	0.00046758
3270	0.00023379
3282	0.00046758
3294	0.00070137
3306	0.00093516
3318	0.00105206
3330	0.000584475
3342	0.00151964
3354	0.00140274
3366	0.00187032
3378	0.00105206
3390	0.00128584
3402	0.00140274
3414	0.00140274
3426	0.00140274
3438	0.00105206
3450	0.00116895
3462	0.00116895
3474	0.00116895
3486	0.00105206
3498	0.00128584
3510	0.00093516
3522	0.00140274
3534	0.00070137
3546	0.00128584
3558	0.00140274
3570	0.000350685
3582	0.00070137
3594	0.000116895
3606	0.00140274
3618	0.00093516
3630	0.00046758
3642	0.00046758
3654	0.00070137
3666	0.000818265
3678	0.000584475
3690	0.00105206
3702	0.000818265
3714	0.00140274
3726	0.00105206
3738	0.00093516
3750	0.000350685
3762	0.00070137
3774	0.00116895
3786	0.00140274
3798	0.00116895
3810	0.00105206
3822	0.00105206
3834	0.000818265
3846	0.00093516
3858	0.000350685
3870	0.00070137
3882	0.00093516
3894	0.000584475
3906	0.00140274
3918	0.000116895
3930	0.000818265
3942	0.00105206
3954	0.00163653
3966	0.00070137
