Infrared Spectrum: Butanoic acid, 2-methylpropyl ester
Formula: C 8 H 16 O 2
CAS: 539-90-2
Origin: Sadtler Research Labs Under US-EPA Contract
1/CM	ABSORBANCE
450	0.0107316
462	0.00850024
474	0.00435637
486	0.0036126
498	0.00382511
510	0.00488764
522	0.00595017
534	0.0018063
546	0
558	0.00446263
570	0.00669394
582	0.00945652
594	0.0121128
606	0.0117941
618	0.010519
630	0.0116878
642	0.00924401
654	0.00637518
666	0.0015938
678	0.00138129
690	0.00382511
702	0.00478138
714	0.00669394
726	0.00595017
738	0.00637518
750	0.00966902
762	0.00956277
774	0.0122191
786	0.0221006
798	0.0208256
810	0.0124316
822	0.0179568
834	0.0191255
846	0.0179568
858	0.0192318
870	0.0224194
882	0.0221006
894	0.0236944
906	0.027732
918	0.0341072
930	0.036551
942	0.04452
954	0.0484514
966	0.0397386
978	0.0358073
990	0.0992403
1002	0.286564
1014	0.238325
1026	0.0771397
1038	0.0960527
1050	0.144398
1062	0.119322
1074	0.141104
1086	0.234925
1098	0.29974
1110	0.238007
1122	0.153323
1134	0.134516
1146	0.189555
1158	0.378261
1170	0.837061
1182	1.00707
1194	0.707857
1206	0.451894
1218	0.284227
1230	0.268076
1242	0.31589
1254	0.38283
1266	0.30824
1278	0.217075
1290	0.231632
1302	0.219837
1314	0.147373
1326	0.0913776
1338	0.115603
1350	0.175742
1362	0.182861
1374	0.205706
1386	0.243319
1398	0.118685
1410	0.0673644
1422	0.0605642
1434	0.0823461
1446	0.0905276
1458	0.145142
1470	0.184455
1482	0.120385
1494	0.0480264
1506	0.0229506
1518	0.0146629
1530	0.0102003
1542	0.00924401
1554	0.00680019
1566	0.00584391
1578	0.00658769
1590	0.00616267
1602	0.0054189
1614	0.00595017
1626	0.00743771
1638	0.00828773
1650	0.0103065
1662	0.0106253
1674	0.0134941
1686	0.0201881
1698	0.0310259
1710	0.0553578
1722	0.0977528
1734	0.223769
1746	0.694682
1758	1.06253
1770	0.519152
1782	0.163417
1794	0.0794772
1806	0.0382511
1818	0.0182755
1830	0.0117941
1842	0.00871275
1854	0.00616267
1866	0.00584391
1878	0.00435637
1890	0.0036126
1902	0.00308134
1914	0.00308134
1926	0.00318759
1938	0.00371886
1950	0.00371886
1962	0.00393136
1974	0.00318759
1986	0.00265633
1998	0.0036126
2010	0.00403761
2022	0.00414387
2034	0.00425012
2046	0.00435637
2058	0.00382511
2070	0.00382511
2082	0.00329384
2094	0.00403761
2106	0.00393136
2118	0.00318759
2130	0.00255007
2142	0.00212506
2154	0.00127504
2166	0.0015938
2178	0.00127504
2190	0.000743771
2202	0.000850024
2214	0.000531265
2226	0.000850024
2238	0.000531265
2250	0.000956277
2262	0.00106253
2274	0.00127504
2286	0.0015938
2298	0.00276258
2310	0.00201881
2322	0.000318759
2334	0.00138129
2346	0.00308134
2358	0.00244382
2370	0.00403761
2382	0.00414387
2394	0.00265633
2406	0.00212506
2418	0.00223131
2430	0.00127504
2442	0.000743771
2454	0.000850024
2466	0.00127504
2478	0.00127504
2490	0.00106253
2502	0.00106253
2514	0.00106253
2526	0.00138129
2538	0.00116878
2550	0.00116878
2562	0.0015938
2574	0.00223131
2586	0.00233757
2598	0.00265633
2610	0.00265633
2622	0.00276258
2634	0.00414387
2646	0.00403761
2658	0.00456888
2670	0.0054189
2682	0.00584391
2694	0.00499389
2706	0.0052064
2718	0.00658769
2730	0.010519
2742	0.0140254
2754	0.0145567
2766	0.0126441
2778	0.0124316
2790	0.0142379
2802	0.0164692
2814	0.0201881
2826	0.0269883
2838	0.0342135
2850	0.044095
2862	0.0661956
2874	0.151836
2886	0.32524
2898	0.292196
2910	0.249057
2922	0.273283
2934	0.356585
2946	0.52744
2958	0.612761
2970	0.907613
2982	0.838974
2994	0.274558
3006	0.0971152
3018	0.0477076
3030	0.0318759
3042	0.0230569
3054	0.018063
3066	0.0147692
3078	0.0140254
3090	0.0128566
3102	0.0113691
3114	0.0102003
3126	0.00977528
3138	0.00998778
3150	0.010519
3162	0.00977528
3174	0.010094
3186	0.00998778
3198	0.00807523
3210	0.00680019
3222	0.00488764
3234	0.00329384
3246	0.00212506
3258	0.00201881
3270	0.00223131
3282	0.0018063
3294	0.0018063
3306	0.00127504
3318	0.00148754
3330	0.0018063
3342	0.00244382
3354	0.00318759
3366	0.00286883
3378	0.00308134
3390	0.00223131
3402	0.00318759
3414	0.00201881
3426	0.0018063
3438	0.00116878
3450	0.00255007
3462	0.00318759
3474	0.00531265
3486	0.00988153
3498	0.00860649
3510	0.00467513
3522	0.000956277
3534	0.00148754
3546	0.000850024
3558	0.00297508
3570	0.0072252
3582	0.00807523
3594	0.00403761
3606	0.00170005
3618	0.0015938
3630	0.000850024
3642	0.00170005
3654	0.00276258
3666	0.00297508
3678	0.00329384
3690	0.00223131
3702	0.0018063
3714	0.0034001
3726	0.00255007
3738	0.00276258
3750	0.00170005
3762	0.00201881
3774	0.00308134
3786	0.00393136
3798	0.00531265
3810	0.00255007
3822	0.00456888
3834	0.00329384
3846	0.00297508
3858	0.00308134
3870	0.00276258
3882	0.00212506
3894	0.00329384
3906	0.00446263
3918	0.00244382
3930	0.0034001
3942	0.00393136
3954	0.00329384
3966	0.00286883
