Infrared Spectrum: Benzene, (ethoxymethyl)-
Formula: C 9 H 12 O
CAS: 539-30-0
Origin: Sadtler Research Labs Under US-EPA Contract
1/CM	ABSORBANCE
450	0.0126297
462	0.013589
474	0.00815337
486	0.00503591
498	0.00815337
510	0.00743395
522	0.00575532
534	0.00095922
546	0.00855305
558	0.00831324
570	0.0109511
582	0.0207831
594	0.039408
606	0.0501992
618	0.0247798
630	0.00903266
642	0.00631487
654	0.00935239
666	0.0232611
678	0.0696234
690	0.165945
702	0.192483
714	0.143323
726	0.181532
738	0.255872
750	0.121581
762	0.0363704
774	0.0122301
786	0.00687441
798	0.0163067
810	0.0217423
822	0.0195041
834	0.0203035
846	0.0250197
858	0.0224617
870	0.0166265
882	0.0248598
894	0.034452
906	0.0371698
918	0.0253394
930	0.0203035
942	0.0142284
954	0.0155074
966	0.0223818
978	0.0324536
990	0.0469218
1002	0.0604309
1014	0.07378
1026	0.109031
1038	0.0781764
1050	0.0598713
1062	0.116146
1074	0.183291
1086	0.228055
1098	0.413744
1110	0.72509
1122	0.743395
1134	0.403672
1146	0.142204
1158	0.0969612
1170	0.107912
1182	0.105194
1194	0.111829
1206	0.136929
1218	0.068824
1230	0.0420458
1242	0.0499594
1254	0.0720214
1266	0.134611
1278	0.162188
1290	0.0630687
1302	0.054116
1314	0.0548354
1326	0.0470817
1338	0.0532367
1350	0.125738
1362	0.167464
1374	0.144363
1386	0.125658
1398	0.0690638
1410	0.0517179
1422	0.0378892
1434	0.0480409
1446	0.0804146
1458	0.0948828
1470	0.065147
1482	0.0373296
1494	0.0633085
1506	0.0428452
1518	0.0114307
1530	0.0106314
1542	0.00559545
1554	0.00735402
1566	0.00751389
1578	0.00991194
1590	0.0177456
1602	0.0231012
1614	0.0185449
1626	0.00927246
1638	0.00623493
1650	0.00735402
1662	0.0031974
1674	0.00511584
1686	0.00263786
1698	0.00735402
1710	0.0205433
1722	0.0486804
1734	0.078656
1746	0.0768975
1758	0.0338125
1770	0.0130294
1782	0.00951227
1794	0.0132692
1806	0.0181452
1818	0.00871291
1830	0.00503591
1842	0.00503591
1854	0.00615499
1866	0.0106314
1878	0.0115106
1890	0.00807344
1902	0.0045563
1914	0.00583526
1926	0.00831324
1938	0.0145482
1950	0.0197439
1962	0.0161469
1974	0.00695434
1986	0.00527571
1998	0.00591519
2010	0.00599512
2022	0.00527571
2034	0.00399675
2046	0.00351714
2058	0.00255792
2070	0.00263786
2082	0.00327734
2094	0.00375694
2106	0.00447636
2118	0.00471616
2130	0.00431649
2142	0.00375694
2154	0.00279773
2166	0.00287766
2178	0.00287766
2190	0.00279773
2202	0.00287766
2214	0.00327734
2226	0.00375694
2238	0.00391681
2250	0.00375694
2262	0.00335727
2274	0.00223818
2286	0.00263786
2298	0.00135889
2310	0.0015987
2322	0.00151877
2334	0.00151877
2346	0.00311746
2358	0.00199838
2370	0.00183851
2382	0.00303753
2394	0.00335727
2406	0.00279773
2418	0.00279773
2430	0.00311746
2442	0.00351714
2454	0.00255792
2466	0.00255792
2478	0.00343721
2490	0.00311746
2502	0.00247798
2514	0.00271779
2526	0.00231811
2538	0.00247798
2550	0.00287766
2562	0.00335727
2574	0.00495597
2586	0.00559545
2598	0.00727408
2610	0.00839317
2622	0.00903266
2634	0.0079935
2646	0.00783363
2658	0.00727408
2670	0.00855305
2682	0.0106314
2694	0.0143883
2706	0.0189446
2718	0.0249397
2730	0.0261387
2742	0.0271779
2754	0.0277374
2766	0.0294161
2778	0.0374895
2790	0.0486804
2802	0.0650671
2814	0.0840916
2826	0.107033
2838	0.143963
2850	0.226536
2862	0.314304
2874	0.318221
2886	0.27114
2898	0.220461
2910	0.176017
2922	0.155314
2934	0.188487
2946	0.219821
2958	0.157552
2970	0.165705
2982	0.261707
2994	0.204793
3006	0.100718
3018	0.084811
3030	0.143483
3042	0.180094
3054	0.12294
3066	0.142844
3078	0.176097
3090	0.105594
3102	0.0733004
3114	0.040607
3126	0.0203834
3138	0.0100718
3150	0.00711422
3162	0.00695434
3174	0.00791356
3186	0.00671454
3198	0.00527571
3210	0.00519577
3222	0.00503591
3234	0.00383688
3246	0.0031974
3258	0.00383688
3270	0.00367701
3282	0.00263786
3294	0.00279773
3306	0.00359707
3318	0.00263786
3330	0.00223818
3342	0.00303753
3354	0.00367701
3366	0.00255792
3378	0.00239805
3390	0.00359707
3402	0.00335727
3414	0.00175857
3426	0.00303753
3438	0.00199838
3450	0.00167863
3462	0.00415662
3474	0.00191844
3486	0.00271779
3498	0.0031974
3510	0.00207831
3522	0.00311746
3534	0.00383688
3546	0.00375694
3558	0.00431649
3570	0.00327734
3582	0.00591519
3594	0.00407669
3606	0.00447636
3618	0.00439642
3630	0.00359707
3642	0.00687441
3654	0.00647473
3666	0.00759383
3678	0.00599512
3690	0.00623493
3702	0.00615499
3714	0.0045563
3726	0.00495597
3738	0.00511584
3750	0.00375694
3762	0.0045563
3774	0.0063948
3786	0.00503591
3798	0.00367701
3810	0.0047961
3822	0.00423656
3834	0.00391681
3846	0.00407669
3858	0.00503591
3870	0.00599512
3882	0.00423656
3894	0.00543558
3906	0.00447636
3918	0.00447636
3930	0.00487603
3942	0.00519577
3954	0.00495597
3966	0.00511584
