Infrared Spectrum: Benzenemethanol, 4-bromo-.alpha.-methyl-
Formula: C 8 H 9 Br O
CAS: 5391-88-8
Origin: Sadtler Research Labs Under US-EPA Contract
1/CM	ABSORBANCE
450	0.0052414
462	0.0195197
474	0.0138265
486	0.00777173
498	0.018616
510	0.076904
522	0.125974
534	0.160405
546	0.0818743
558	0.0232248
570	0.00542214
582	0.00469919
594	0.00849469
606	0.0104828
618	0.0149109
630	0.0173508
642	0.0140976
654	0.00939838
666	0.000632583
678	0.000180738
690	0.00090369
702	0.00975985
714	0.0291892
726	0.036238
738	0.0256648
750	0.0275625
762	0.105732
774	0.133385
786	0.0726567
798	0.0614509
810	0.185528
822	0.407474
834	0.33066
846	0.107629
858	0.0318099
870	0.0357861
882	0.075187
894	0.209927
906	0.208301
918	0.093803
930	0.0446423
942	0.0255744
954	0.0200619
966	0.0292796
978	0.0575651
990	0.125342
1002	0.349728
1014	0.763166
1026	0.113594
1038	0.0951586
1050	0.180919
1062	0.321623
1074	0.801212
1086	0.743647
1098	0.400967
1110	0.196191
1122	0.0953393
1134	0.0458171
1146	0.043106
1158	0.0587399
1170	0.0873868
1182	0.0885616
1194	0.0824165
1206	0.0754581
1218	0.0812417
1230	0.103924
1242	0.141879
1254	0.207126
1266	0.194293
1278	0.121366
1290	0.130222
1302	0.127149
1314	0.0949778
1326	0.121094
1338	0.162393
1350	0.189233
1362	0.184082
1374	0.197185
1386	0.217699
1398	0.204505
1410	0.179654
1422	0.108172
1434	0.0785307
1446	0.0900979
1458	0.116395
1470	0.140705
1482	0.365362
1494	0.665025
1506	0.0758196
1518	0.0242189
1530	0.0178931
1542	0.0208752
1554	0.0241285
1566	0.0331654
1578	0.0481667
1590	0.127872
1602	0.12236
1614	0.0328943
1626	0.043106
1638	0.056571
1650	0.0384068
1662	0.0238574
1674	0.0106635
1686	0.0125613
1698	0.0168086
1710	0.0224115
1722	0.0194293
1734	0.0211463
1746	0.0221404
1758	0.0241285
1770	0.0250322
1782	0.0261166
1794	0.0106635
1806	0.00659694
1818	0.0104828
1830	0.013465
1842	0.00939838
1854	0.00668731
1866	0.00939838
1878	0.0206945
1890	0.0357861
1902	0.0360572
1914	0.0183449
1926	0.00867542
1938	0.00569325
1950	0.00542214
1962	0.00578362
1974	0.00533177
1986	0.00424734
1998	0.00316292
2010	0.0026207
2022	0.00253033
2034	0.00207849
2046	0.00180738
2058	0.00171701
2070	0.00171701
2082	0.00234959
2094	0.00216886
2106	0.00171701
2118	0.00108443
2130	0.00108443
2142	0.00153627
2154	0.00180738
2166	0.0011748
2178	0.00135553
2190	0.00135553
2202	0.0014459
2214	0.00135553
2226	0.00090369
2238	0.00171701
2250	0.00280144
2262	0.00433771
2274	0.00587398
2286	0.00677768
2298	0.00831395
2310	0.00695841
2322	0.00189775
2334	0.000722952
2346	0.00442808
2358	0.00225923
2370	0.00533177
2382	0.00569325
2394	0.0014459
2406	0.00090369
2418	0
2430	0.000451845
2442	0.0014459
2454	0.00198812
2466	0.00135553
2478	0.00108443
2490	0.00162664
2502	0.0014459
2514	0.00180738
2526	0.00207849
2538	0.00280144
2550	0.00316292
2562	0.00388587
2574	0.00542214
2586	0.00731989
2598	0.00840432
2610	0.00722952
2622	0.00469919
2634	0.00406661
2646	0.00388587
2658	0.00406661
2670	0.00460882
2682	0.00388587
2694	0.00361476
2706	0.00352439
2718	0.00388587
2730	0.00560288
2742	0.0064162
2754	0.00704878
2766	0.00813321
2778	0.00939838
2790	0.0112058
2802	0.013465
2814	0.0175316
2826	0.0234959
2838	0.0308158
2850	0.0483474
2862	0.0802477
2874	0.138807
2886	0.192305
2898	0.178569
2910	0.14685
2922	0.137451
2934	0.166731
2946	0.131035
2958	0.105641
2970	0.214175
2982	0.428439
2994	0.317286
3006	0.0900979
3018	0.0835913
3030	0.101033
3042	0.084495
3054	0.0676864
3066	0.0581976
3078	0.0702167
3090	0.0988637
3102	0.0872965
3114	0.0204234
3126	0.00831395
3138	0.00614509
3150	0.00451845
3162	0.00307255
3174	0.00325328
3186	0.0026207
3198	0.00352439
3210	0.00361476
3222	0.00397624
3234	0.00207849
3246	0.000632583
3258	0.000451845
3270	0.000271107
3282	0.000180738
3294	0
3306	9.0369e-05
3318	0.000994059
3330	0.00180738
3342	0.00370513
3354	0.00433771
3366	0.00487993
3378	0.00433771
3390	0.00343402
3402	0.00334365
3414	0.00460882
3426	0.0037955
3438	0.00424734
3450	0.00460882
3462	0.0049703
3474	0.00433771
3486	0.00334365
3498	0.00343402
3510	0.00325328
3522	0.00298218
3534	0.0026207
3546	0.00370513
3558	0.0026207
3570	0.00506066
3582	0.00578362
3594	0.00605472
3606	0.00876579
3618	0.0181642
3630	0.0450941
3642	0.103924
3654	0.153989
3666	0.0788921
3678	0.0255744
3690	0.0137361
3702	0.0078621
3714	0.0064162
3726	0.0052414
3738	0.00560288
3750	0.000451845
3762	0.00126517
3774	0.0014459
3786	0.00162664
3798	0.00162664
3810	0.00171701
3822	0.00298218
3834	0.00334365
3846	0.00460882
3858	0.00569325
3870	0.00659694
3882	0.00451845
3894	0.00659694
3906	0.00415697
3918	0.00487993
3930	0.00280144
3942	0.00451845
3954	0.0037955
3966	0.00307255
