Infrared Spectrum: Benzene, 1,4-dichloro-2-isocyanato-
Formula: C 7 H 3 Cl 2 N O
CAS: 5392-82-5
Origin: Sadtler Research Labs Under US-EPA Contract
1/CM	ABSORBANCE
450	0.00654466
462	0.00169258
474	0.0049273
486	0.00278336
498	0.00473924
510	0.0043255
522	0.00383653
534	0.00353562
546	0.00545389
558	0.00571718
570	0.011472
582	0.0224173
594	0.0110582
606	0.0103812
618	0.0105316
630	0.00740976
642	0.0101931
654	0.0109078
666	0.0109454
678	0.0086886
690	0.010494
702	0.00853815
714	0.00488969
726	0.00488969
738	0.00458879
750	0.00477685
762	0.0034604
774	0.00443833
786	0.00872622
798	0.0140296
810	0.0165497
822	0.00733454
834	0.00643182
846	0.0154966
858	0.0217403
870	0.0124875
882	0.00556672
894	0.00338517
906	0.00962893
918	0.00500253
930	0.000677034
942	0.00112839
954	0.000564195
966	0.000150452
978	0.00127884
990	0.000977938
1002	0.00214394
1014	0.00312188
1026	0.00383653
1038	0.00786112
1050	0.0202734
1062	0.00887667
1074	0.00759783
1086	0.0348673
1098	0.0476557
1110	0.00801157
1122	0.0066575
1134	0.00951609
1146	0.00526582
1158	0.00391175
1170	0.00409982
1182	0.00361085
1194	0.00282097
1206	0.00233201
1218	0.00150452
1230	0.00191826
1242	0.00353562
1254	0.00601808
1266	0.00575479
1278	0.0028962
1290	0.00255768
1302	0.00225678
1314	0.000451356
1326	0.000827486
1338	0.000564195
1350	0.00139168
1362	0.00477685
1374	0.00485208
1386	0.00300904
1398	0.00364846
1410	0.00725931
1422	0.0104188
1434	0.0130893
1446	0.0134278
1458	0.0132022
1470	0.0139544
1482	0.0293005
1494	0.0221164
1506	0.0207624
1518	0.0262163
1530	0.00880144
1542	0.00297143
1554	0.0057924
1566	0.0144434
1578	0.0271566
1590	0.0478813
1602	0.0274199
1614	0.0237338
1626	0.0221164
1638	0.0103812
1650	0.00417504
1662	0.00229439
1674	0.00154213
1686	0.00139168
1698	0.00127884
1710	0.00120362
1722	0.00150452
1734	0.00157975
1746	0.00206872
1758	0.000902712
1770	0.000639421
1782	0.000488969
1794	0.000940325
1806	0.00075226
1818	0.000488969
1830	0.000789873
1842	0.000714647
1854	0.000977938
1866	0.00112839
1878	0.00135407
1890	0.000564195
1902	0.000225678
1914	0.000413743
1926	0.000451356
1938	0.000188065
1950	0.00037613
1962	0.000488969
1974	0.00037613
1986	0.000300904
1998	0.000451356
2010	0.000564195
2022	0.00075226
2034	0.000488969
2046	0.000488969
2058	0.000677034
2070	0.00112839
2082	0.00105316
2094	0.00146691
2106	0.0017302
2118	0.00225678
2130	0.00282097
2142	0.0043255
2154	0.00748499
2166	0.0108325
2178	0.0101179
2190	0.0117353
2202	0.0194459
2214	0.0297895
2226	0.0305041
2238	0.0348296
2250	0.0616101
2262	0.174788
2274	0.37613
2286	0.209354
2298	0.0947471
2310	0.0675529
2322	0.0538242
2334	0.0468282
2346	0.04743
2358	0.0579616
2370	0.0488969
2382	0.0303537
2394	0.00744737
2406	0.00417504
2418	0.00270814
2430	0.00214394
2442	0.00221917
2454	0.00184304
2466	0.00127884
2478	0.00105316
2490	0.00139168
2502	0.000789873
2514	0.000902712
2526	0.000940325
2538	0.000902712
2550	0.00109078
2562	0.00109078
2574	0.000564195
2586	0.00037613
2598	0.000677034
2610	0.000827486
2622	0.000827486
2634	0.000827486
2646	0.00127884
2658	0.00135407
2670	0.00120362
2682	0.00135407
2694	0.0017302
2706	0.000865099
2718	0.00101555
2730	0.000677034
2742	0.000977938
2754	0.00112839
2766	0.00127884
2778	0.00124123
2790	0.00124123
2802	0.00105316
2814	0.00131646
2826	0.00120362
2838	0.00120362
2850	0.00109078
2862	0.00131646
2874	0.00142929
2886	0.00109078
2898	0.00150452
2910	0.0017302
2922	0.00191826
2934	0.00191826
2946	0.00199349
2958	0.00150452
2970	0.0020311
2982	0.00169258
2994	0.00131646
3006	0.00109078
3018	0.001166
3030	0.00101555
3042	0.001166
3054	0.0017302
3066	0.00169258
3078	0.0020311
3090	0.00191826
3102	0.00146691
3114	0.00165497
3126	0.00233201
3138	0.00225678
3150	0.00165497
3162	0.00157975
3174	0.000977938
3186	0.00131646
3198	0.001166
3210	0.00142929
3222	0.00161736
3234	0.000865099
3246	0.00105316
3258	0.000601808
3270	0.00101555
3282	0.00161736
3294	0.00105316
3306	0.000865099
3318	0.00150452
3330	0.000827486
3342	0.000977938
3354	0.000902712
3366	0.000789873
3378	0.00135407
3390	0.00165497
3402	0.00425027
3414	0.00628137
3426	0.00605569
3438	0.00417504
3450	0.00248246
3462	0.00236962
3474	0.00169258
3486	0.00206872
3498	0.00338517
3510	0.00398698
3522	0.00379891
3534	0.00285859
3546	0.0017302
3558	0.00112839
3570	0.00214394
3582	0.00124123
3594	0.0017302
3606	0.00154213
3618	0.00120362
3630	0.00124123
3642	0.00135407
3654	0.00131646
3666	0.00120362
3678	0.00161736
3690	0.00154213
3702	0.000940325
3714	0.00195588
3726	0.00146691
3738	0.00161736
3750	0.000526582
3762	0.000639421
3774	0.000789873
3786	0.00112839
3798	0.000564195
3810	0.00270814
3822	0.000789873
3834	0.000112839
3846	0.001166
3858	0.00127884
3870	0.00157975
3882	0.00139168
3894	0.000714647
3906	0.00195588
3918	0.000601808
3930	0.00131646
3942	0.00150452
3954	0.000300904
3966	0.00154213
