Infrared Spectrum: 1-Naphthalenecarboxaldehyde, 2-methoxy-
Formula: C 12 H 10 O 2
CAS: 5392-12-1
Origin: Sadtler Research Labs Under US-EPA Contract
1/CM	ABSORBANCE
450	0.00474061
462	0.00725906
474	0.013333
486	0.0219253
498	0.030888
510	0.034962
522	0.0208883
534	0.00192587
546	0.00392582
558	0.00992565
570	0.0321472
582	0.0115552
594	0.0141478
606	0.0145922
618	0.0222216
630	0.040073
642	0.0321472
654	0.0173328
666	0.0140737
678	0.00718498
690	0.01237
702	0.0568873
714	0.0692573
726	0.0342213
738	0.0970343
750	0.164662
762	0.0378508
774	0.0294807
786	0.0241475
798	0.0779237
810	0.188884
822	0.0997009
834	0.0259993
846	0.0114071
858	0.0548874
870	0.0194809
882	0.0037036
894	0.0031851
906	0.00451839
918	0.00488875
930	0.00577762
942	0.0116293
954	0.00970343
966	0.0100738
978	0.0114071
990	0.0148144
1002	0.0311102
1014	0.0765164
1026	0.155477
1038	0.0849606
1050	0.149033
1062	0.20118
1074	0.203624
1086	0.167995
1098	0.099775
1110	0.047332
1122	0.034962
1134	0.0777756
1146	0.264956
1158	0.21829
1170	0.0957751
1182	0.0593317
1194	0.0456284
1206	0.0707388
1218	0.0982935
1230	0.184513
1242	0.46332
1254	0.369323
1266	0.246141
1278	0.165699
1290	0.0526652
1302	0.0299992
1314	0.0335546
1326	0.0631834
1338	0.178588
1350	0.140218
1362	0.105627
1374	0.086442
1386	0.0382952
1398	0.0604428
1410	0.0951825
1422	0.0850347
1434	0.16007
1446	0.0942937
1458	0.120367
1470	0.170588
1482	0.0602205
1494	0.0738498
1506	0.301251
1518	0.289992
1530	0.0486653
1542	0.0534059
1554	0.0441469
1566	0.0869605
1578	0.135478
1590	0.195698
1602	0.162736
1614	0.121404
1626	0.145551
1638	0.0703684
1650	0.052517
1662	0.0551096
1674	0.101923
1686	0.231031
1698	0.688425
1710	0.299251
1722	0.0780719
1734	0.0461469
1746	0.0222216
1758	0.0306658
1770	0.0209624
1782	0.00948122
1794	0.0131107
1806	0.00488875
1818	0.00585169
1830	0.00437025
1842	0.00822199
1854	0.00229623
1866	0.00333324
1878	0.00414803
1890	0.0079257
1902	0.00807385
1914	0.00807385
1926	0.00844421
1938	0.00622205
1950	0.0117034
1962	0.00866642
1974	0.00540726
1986	0.00437025
1998	0.00399989
2010	0.00459246
2022	0.00162958
2034	0.00311102
2046	0.00140737
2058	0.00511097
2070	0.00525911
2082	0.00622205
2094	0.00659241
2106	0.00466654
2118	0.00762942
2130	0.00488875
2142	0.0074072
2154	0.0050369
2166	0.00651834
2178	0.0079257
2190	0.00733313
2202	0.0074072
2214	0.00496282
2226	0.00592576
2238	0.00251845
2250	0.00444432
2262	0.00399989
2274	0.00429618
2286	0.00637019
2298	0.00674055
2310	0.0136292
2322	0.00955529
2334	0.0139255
2346	0.0132589
2358	0.0135552
2370	0.0101479
2382	0.00888864
2394	0.00896271
2406	0.0055554
2418	0.0103701
2430	0.00325917
2442	0.0055554
2454	0.00399989
2466	0.00614798
2478	0.00822199
2490	0.00703684
2502	0.00970343
2514	0.00585169
2526	0.00799978
2538	0.00511097
2550	0.00562947
2562	0.00651834
2574	0.00585169
2586	0.00866642
2598	0.0074072
2610	0.00837014
2622	0.00777756
2634	0.00777756
2646	0.00696277
2658	0.00799978
2670	0.009259
2682	0.00985158
2694	0.014444
2706	0.0121478
2718	0.0151107
2730	0.0162218
2742	0.0228142
2754	0.0315547
2766	0.0425914
2778	0.0490357
2790	0.0509615
2802	0.0402211
2814	0.0324435
2826	0.041184
2838	0.0572577
2850	0.108738
2862	0.120737
2874	0.123182
2886	0.078146
2898	0.0476283
2910	0.0502208
2922	0.0553318
2934	0.0623686
2946	0.109404
2958	0.111627
2970	0.076146
2982	0.0566651
2994	0.0499245
3006	0.0738498
3018	0.0817755
3030	0.0471098
3042	0.0539244
3054	0.0888864
3066	0.120367
3078	0.0860717
3090	0.0682944
3102	0.0408137
3114	0.0211846
3126	0.0149625
3138	0.0087405
3150	0.00711091
3162	0.00859235
3174	0.00622205
3186	0.00518504
3198	0.0068887
3210	0.00592576
3222	0.00362953
3234	0.00577762
3246	0.00348138
3258	0.00459246
3270	0.00681462
3282	0.00466654
3294	0.00355546
3306	0.00325917
3318	0.0050369
3330	0.00570354
3342	0.00481468
3354	0.00377767
3366	0.00674055
3378	0.0117774
3390	0.00696277
3402	0.00481468
3414	0.00244438
3426	0.00392582
3438	0.00259252
3450	0.00274066
3462	0.00407396
3474	0.00481468
3486	0.00296288
3498	0.000888864
3510	0.00311102
3522	0.00362953
3534	0.00481468
3546	0.00540726
3558	0.00377767
3570	0.00785163
3582	0.00481468
3594	0.00496282
3606	0.00459246
3618	0.0060739
3630	0.0128145
3642	0.00340731
3654	0.00659241
3666	0.00355546
3678	0.0131107
3690	0.00785163
3702	0.00362953
3714	0.00533318
3726	0.00414803
3738	0.0128885
3750	0.0087405
3762	0.00303695
3774	0.000148144
3786	0.000148144
3798	0.00148144
3810	0.000148144
3822	0.00103701
3834	0.000148144
3846	0.000148144
3858	0.000444432
3870	0.000148144
3882	0.000148144
3894	0.000148144
3906	0.000148144
3918	0.000148144
3930	0.000148144
3942	0.000148144
3954	0.000148144
3966	0.000148144
