Infrared Spectrum: Ethane, 1,2-bis(ethylthio)-
Formula: C 6 H 14 S 2
CAS: 5395-75-5
Origin: Sadtler Research Labs Under US-EPA Contract
1/CM	ABSORBANCE
450	0.00742477
462	0.00736441
474	0.00615713
486	0.00639858
498	0.00482912
510	0.00573458
522	0.00488948
534	0.00851132
546	0.0103826
558	0.00682113
570	0.00833023
582	0.0053724
594	0.00253529
606	0.00706259
618	0.00627786
630	0.00941678
642	0.0109862
654	0.0135215
666	0.0107448
678	0.00845096
690	0.0130386
702	0.0260169
714	0.0773866
726	0.0562592
738	0.0154532
750	0.0227572
762	0.0273449
774	0.0231194
786	0.0187128
798	0.0149703
810	0.00899424
822	0.0090546
834	0.0103826
846	0.0134612
858	0.0127972
870	0.0101412
882	0.0112277
894	0.0138837
906	0.014427
918	0.0119521
930	0.011771
942	0.0134612
954	0.0239041
966	0.0477479
978	0.0568629
990	0.0312686
1002	0.0187732
1014	0.0147288
1026	0.0155135
1038	0.0194372
1050	0.0275863
1062	0.0234816
1074	0.0112277
1086	0.00893387
1098	0.00833023
1110	0.0178074
1122	0.0262583
1134	0.0239645
1146	0.0152721
1158	0.011771
1170	0.0139441
1182	0.0252925
1194	0.0964013
1206	0.125255
1218	0.0410475
1230	0.0420133
1242	0.0828798
1254	0.209342
1266	0.276105
1278	0.139803
1290	0.0561989
1302	0.0338038
1314	0.0236627
1326	0.0194976
1338	0.0154532
1350	0.0161776
1362	0.0243871
1374	0.0501625
1386	0.0668229
1398	0.0427377
1410	0.0479894
1422	0.0794994
1434	0.105214
1446	0.114028
1458	0.116804
1470	0.0780507
1482	0.0421944
1494	0.0254736
1506	0.0165397
1518	0.0133404
1530	0.0103222
1542	0.00881314
1554	0.00845096
1566	0.00760586
1578	0.00730404
1590	0.00826987
1602	0.00833023
1614	0.0083906
1626	0.00766623
1638	0.00742477
1650	0.00778696
1662	0.00796805
1674	0.00651931
1686	0.00682113
1698	0.00543276
1710	0.0051913
1722	0.00464803
1734	0.00458766
1746	0.0053724
1758	0.00440657
1770	0.00398402
1782	0.00416512
1794	0.00398402
1806	0.0038633
1818	0.00283711
1830	0.00332002
1842	0.00289747
1854	0.0038633
1866	0.0038633
1878	0.00325966
1890	0.00332002
1902	0.00380293
1914	0.00440657
1926	0.0038633
1938	0.00440657
1950	0.00458766
1962	0.00392366
1974	0.00392366
1986	0.00464803
1998	0.00591567
2010	0.00639858
2022	0.00633822
2034	0.00579494
2046	0.00507058
2058	0.0068815
2070	0.00446694
2082	0.00289747
2094	0.00283711
2106	0.00338038
2118	0.00392366
2130	0.00440657
2142	0.00428584
2154	0.00434621
2166	0.0045273
2178	0.00531203
2190	0.00531203
2202	0.0045273
2214	0.00501021
2226	0.00633822
2238	0.00531203
2250	0.00561385
2262	0.00440657
2274	0.00476876
2286	0.0038633
2298	0.00199201
2310	0.000784732
2322	0.000422548
2334	6.0364e-05
2346	0.00253529
2358	0.00332002
2370	0.00102619
2382	0.00283711
2394	0.00513094
2406	0.00555349
2418	0.0068815
2430	0.0075455
2442	0.00591567
2454	0.0045273
2466	0.00543276
2478	0.00488948
2490	0.00549312
2502	0.00482912
2514	0.00434621
2526	0.0038633
2538	0.00464803
2550	0.00428584
2562	0.00380293
2574	0.0051913
2586	0.00579494
2598	0.00585531
2610	0.00657968
2622	0.00657968
2634	0.00621749
2646	0.00549312
2658	0.0053724
2670	0.00416512
2682	0.00760586
2694	0.0134008
2706	0.0143063
2718	0.0134612
2730	0.0123143
2742	0.015091
2754	0.0118917
2766	0.00917533
2778	0.0101412
2790	0.0132197
2802	0.0160568
2814	0.0266809
2826	0.0441864
2838	0.0680302
2850	0.087226
2862	0.114752
2874	0.164311
2886	0.231617
2898	0.209463
2910	0.256788
2922	0.393392
2934	0.563015
2946	0.536334
2958	0.390917
2970	0.563196
2982	0.511826
2994	0.251114
3006	0.0984537
3018	0.0567422
3030	0.0398402
3042	0.0295784
3054	0.0214292
3066	0.0173848
3078	0.0152117
3090	0.0133404
3102	0.0127368
3114	0.0114088
3126	0.0103826
3138	0.0105637
3150	0.0103222
3162	0.00941678
3174	0.0111673
3186	0.0105637
3198	0.0100808
3210	0.00941678
3222	0.00700222
3234	0.00458766
3246	0.00325966
3258	0.00501021
3270	0.00344075
3282	0.00253529
3294	0.00549312
3306	0.00446694
3318	0.00597604
3330	0.00543276
3342	0.00344075
3354	0.0036822
3366	0.00525167
3378	0.0023542
3390	0.00440657
3402	0.00319929
3414	0.00374257
3426	0.00120728
3438	0.0021731
3450	0.00223347
3462	0.00102619
3474	0.00271638
3486	0.00187128
3498	0.00350111
3510	0.00162983
3522	0.00114692
3534	0.00223347
3546	0.00108655
3558	0.00313893
3570	0.000362184
3582	0.00205238
3594	0.00283711
3606	0.00090546
3618	0.00259565
3630	0.00374257
3642	0.00325966
3654	0.00259565
3666	0.00410475
3678	0.0021731
3690	0.00313893
3702	0.00271638
3714	0.00380293
3726	0.00476876
3738	0.00319929
3750	0.00374257
3762	0.00265602
3774	0.00205238
3786	0.000362184
3798	0.000664004
3810	0.00199201
3822	0.00271638
3834	0.000543276
3846	0.00126764
3858	0.000664004
3870	0.00211274
3882	0.00271638
3894	0.00344075
3906	0.00380293
3918	0.00325966
3930	0.00283711
3942	0.00440657
3954	0.00253529
3966	0.00265602
