Infrared Spectrum: t-Pentylferrocene
Formula: C 15 H 20 Fe
CAS: 53954-86-2
Origin: Sadtler Research Labs Under US-EPA Contract
1/CM	ABSORBANCE
450	0.0596295
462	0.0881092
474	0.202584
486	0.211151
498	0.223277
510	0.14429
522	0.0670831
534	0.0182448
546	0.00923367
558	0.0114586
570	0.0171323
582	0.00289247
594	0.00122374
606	0.00311497
618	0.00422746
630	0.00177998
642	0.00111249
654	0.00556245
666	0.025476
678	0.0442771
690	0.00867742
702	0.0058962
714	0.00578495
726	0.00622994
738	0.00956741
750	0.0105687
762	0.025476
774	0.0541783
786	0.050507
798	0.0920029
810	0.54245
822	0.424304
834	0.148406
846	0.0470583
858	0.0313722
870	0.0129049
882	0.027256
894	0.0706431
906	0.0311497
918	0.0466133
930	0.0280347
942	0.0137949
954	0.00578495
966	0.0144624
978	0.0324847
990	0.0605195
1002	0.118146
1014	0.106577
1026	0.113808
1038	0.115588
1050	0.0669719
1062	0.0334859
1074	0.00812118
1086	0.00678619
1098	0.0565145
1110	0.124488
1122	0.0166874
1134	0.0444996
1146	0.0377134
1158	0.027701
1170	0.0206923
1182	0.0234735
1194	0.0224723
1206	0.0110137
1218	0.0135724
1230	0.0229173
1242	0.0453896
1254	0.0604082
1266	0.0297035
1278	0.0139061
1290	0.0219161
1302	0.0760943
1314	0.0417184
1326	0.0436096
1338	0.0402721
1350	0.032151
1362	0.10602
1374	0.123931
1386	0.170545
1398	0.0763168
1410	0.0287022
1422	0.027701
1434	0.0324847
1446	0.0637457
1458	0.123709
1470	0.181336
1482	0.122708
1494	0.0288135
1506	0.0135724
1518	0.00789868
1530	0.00533995
1542	0.00511745
1554	0.00467246
1566	0.00478371
1578	0.0056737
1590	0.00723119
1602	0.0167986
1614	0.0410509
1626	0.0599632
1638	0.0572932
1650	0.0424971
1662	0.0315947
1674	0.0369347
1686	0.0412734
1698	0.0354884
1710	0.0379359
1722	0.0278123
1734	0.0262548
1746	0.0212486
1758	0.0469471
1770	0.0163536
1782	0.00367122
1794	0.00100124
1806	0.000667494
1818	0.000444996
1830	0.000444996
1842	0
1854	0.000333747
1866	0.000333747
1878	0.00189123
1890	0.00200248
1902	0.00166874
1914	0.00233623
1926	0.00200248
1938	0.00177998
1950	0.000778743
1962	0.000222498
1974	0.000333747
1986	0
1998	0.000222498
2010	0.000333747
2022	0.000222498
2034	0.000667494
2046	0.00311497
2058	0.00533995
2070	0.00177998
2082	0.00255873
2094	0.00233623
2106	0.00177998
2118	0.00155749
2130	0.000333747
2142	0
2154	0.000222498
2166	0.000556245
2178	0.000556245
2190	0.00111249
2202	0.00155749
2214	0.00266998
2226	0.00500621
2238	0.00711994
2250	0.00645244
2262	0.0061187
2274	0.00389372
2286	0.00200248
2298	0.000889992
2310	0.000222498
2322	0.000333747
2334	0.000778743
2346	0.000778743
2358	0.00211373
2370	0.00111249
2382	0.00244748
2394	0.00300372
2406	0.00322622
2418	0.00211373
2430	0.00144624
2442	0.00233623
2454	0.00289247
2466	0.00344872
2478	0.00122374
2490	0.000333747
2502	0.000556245
2514	0.00111249
2526	0.000889992
2538	0.000556245
2550	0.000222498
2562	0.000333747
2574	0.000778743
2586	0.000889992
2598	0.00144624
2610	0.00266998
2622	0.00344872
2634	0.00433871
2646	0.00433871
2658	0.00478371
2670	0.00478371
2682	0.00511745
2694	0.00667494
2706	0.00967866
2718	0.0112361
2730	0.0113474
2742	0.0133499
2754	0.0141286
2766	0.0137949
2778	0.0127936
2790	0.0141286
2802	0.0174661
2814	0.0222498
2826	0.0275898
2838	0.0384922
2850	0.0843267
2862	0.16476
2874	0.22361
2886	0.319618
2898	0.309717
2910	0.338086
2922	0.459013
2934	0.476813
2946	0.490163
2958	0.540003
2970	1.07355
2982	0.773514
2994	0.187788
3006	0.0705319
3018	0.0420521
3030	0.0292585
3042	0.025476
3054	0.026811
3066	0.0311497
3078	0.0510633
3090	0.172658
3102	0.389483
3114	0.24141
3126	0.0575157
3138	0.0188011
3150	0.0114586
3162	0.00956741
3174	0.00889992
3186	0.00845492
3198	0.00867742
3210	0.00778743
3222	0.00667494
3234	0.00533995
3246	0.00389372
3258	0.00333747
3270	0.00322622
3282	0.00255873
3294	0.00211373
3306	0.00155749
3318	0.00211373
3330	0.00189123
3342	0.00155749
3354	0.000889992
3366	0.00133499
3378	0.00111249
3390	0.000556245
3402	0.000667494
3414	0.00133499
3426	0.00133499
3438	0.00111249
3450	0.00111249
3462	0.00111249
3474	0.00166874
3486	0.000333747
3498	0.000222498
3510	0.000222498
3522	0.000556245
3534	0.000667494
3546	0.00111249
3558	0.00122374
3570	0.000333747
3582	0.00111249
3594	0.00189123
3606	0.00122374
3618	0.000889992
3630	0.000778743
3642	0.00200248
3654	0.00144624
3666	0.000556245
3678	0.00100124
3690	0.00155749
3702	0.00155749
3714	0.00111249
3726	0.000889992
3738	0.00133499
3750	0.000778743
3762	0.00100124
3774	0.00222498
3786	0.00100124
3798	0.00122374
3810	0.000667494
3822	0.000778743
3834	0.000556245
3846	0.00122374
3858	0.00211373
3870	0.00111249
3882	0.00233623
3894	0.00322622
3906	0.00622994
3918	0.0111249
3930	0.0194686
3942	0.0174661
3954	0.00645244
3966	0.0056737
