Infrared Spectrum: Pyridine, 3-(1-methyl-2-pyrrolidinyl)-, (S)-
Formula: C 10 H 14 N 2
CAS: 54-11-5
Origin: Sadtler Research Labs Under US-EPA Contract
1/CM	ABSORBANCE
450	0.00789815
462	0.00535247
474	0.00450391
486	0.00966055
498	0.00430808
510	0.00489555
522	0.00861617
534	0.00306788
546	0.00522192
558	0.0062663
570	0.00548302
582	0.0122062
594	0.0221279
606	0.0233028
618	0.0274151
630	0.018342
642	0.0211488
654	0.0208224
666	0.0117493
678	0.015013
690	0.0275456
702	0.109138
714	0.199608
726	0.0940598
738	0.0248041
750	0.0214751
762	0.0260443
774	0.0279373
786	0.0554829
798	0.122193
810	0.0889685
822	0.0295038
834	0.0212793
846	0.0165143
858	0.0158616
870	0.0210182
882	0.0382506
894	0.0737596
906	0.0765011
918	0.0444516
930	0.0314621
942	0.0189947
954	0.0189947
966	0.0266318
978	0.021671
990	0.0160574
1002	0.0291122
1014	0.0980415
1026	0.157767
1038	0.119256
1050	0.142428
1062	0.0463445
1074	0.034073
1086	0.0621408
1098	0.0699085
1110	0.0695168
1122	0.07624
1134	0.0604437
1146	0.0749998
1158	0.103786
1170	0.122323
1182	0.145953
1194	0.145953
1206	0.127023
1218	0.15
1230	0.132637
1242	0.0953
1254	0.0682766
1266	0.0542427
1278	0.0444516
1290	0.0475847
1302	0.0772191
1314	0.169778
1326	0.103394
1338	0.0724541
1350	0.0980415
1362	0.103655
1374	0.0448432
1386	0.0272845
1398	0.0280025
1410	0.0629894
1422	0.188054
1434	0.164621
1446	0.0776108
1458	0.121149
1470	0.141253
1482	0.11919
1494	0.0317232
1506	0.0171671
1518	0.0140339
1530	0.0109008
1542	0.00946473
1554	0.0172323
1566	0.0524803
1578	0.0966055
1590	0.0522845
1602	0.015731
1614	0.00972583
1626	0.00783288
1638	0.00646213
1650	0.00424281
1662	0.00574411
1674	0.00359007
1686	0.00646213
1698	0.0119451
1710	0.0167101
1722	0.0131201
1734	0.0176893
1746	0.012141
1758	0.00587466
1770	0.00332897
1782	0.0030026
1794	0.00169712
1806	0.00163185
1818	0.0017624
1830	0.00169712
1842	0.00293733
1854	0.00385117
1866	0.00541774
1878	0.00731069
1890	0.00894254
1902	0.0161227
1914	0.0115535
1926	0.00959528
1938	0.00607048
1950	0.00528719
1962	0.00443863
1974	0.00182767
1986	0.000783288
1998	0.00065274
2010	0.00032637
2022	0.000391644
2034	0.000522192
2046	0.000391644
2058	0.000522192
2070	0.000913836
2082	0.00137075
2094	0.00156658
2106	0.00143603
2118	0.00189295
2130	0.00182767
2142	0.000456918
2154	0.000848562
2166	0.00065274
2178	0.000456918
2190	0.000848562
2202	0.00137075
2214	0.00189295
2226	0.00313315
2238	0.00313315
2250	0.0032637
2262	0.00319843
2274	0.00359007
2286	0.00372062
2298	0.00593993
2310	0.00855089
2322	0.00848562
2334	0.00985637
2346	0.0120104
2358	0.00868144
2370	0.00855089
2382	0.00874672
2394	0.00509137
2406	0.00417754
2418	0.00424281
2430	0.004765
2442	0.00489555
2454	0.00541774
2466	0.00593993
2478	0.00613576
2490	0.00698432
2502	0.00711487
2514	0.00770233
2526	0.00868144
2538	0.00992165
2550	0.0126632
2562	0.0136423
2574	0.0146214
2586	0.0148825
2598	0.0159921
2610	0.0167101
2622	0.0193211
2634	0.0194517
2646	0.0235639
2658	0.0339425
2670	0.0526761
2682	0.0518928
2694	0.0403393
2706	0.0477806
2718	0.0507832
2730	0.0533941
2742	0.0718014
2754	0.119386
2766	0.235966
2778	0.44667
2790	0.647126
2802	0.475978
2814	0.246736
2826	0.164295
2838	0.188968
2850	0.198694
2862	0.138903
2874	0.138055
2886	0.198237
2898	0.184595
2910	0.205874
2922	0.255809
2934	0.251631
2946	0.367884
2958	0.493015
2970	0.562858
2982	0.571604
2994	0.19184
3006	0.130222
3018	0.112532
3030	0.141188
3042	0.152806
3054	0.16449
3066	0.127806
3078	0.0840729
3090	0.0918405
3102	0.0330286
3114	0.0135117
3126	0.0142297
3138	0.0131853
3150	0.0149477
3162	0.0110313
3174	0.00887726
3186	0.00913836
3198	0.00789815
3210	0.00665795
3222	0.0062663
3234	0.00483028
3246	0.00443863
3258	0.00391644
3270	0.00280678
3282	0.0032637
3294	0.00241514
3306	0.00359007
3318	0.00319843
3330	0.00267623
3342	0.00496082
3354	0.00280678
3366	0.004765
3378	0.00313315
3390	0.00411226
3402	0.00267623
3414	0.00280678
3426	0.00359007
3438	0.00248041
3450	0.00241514
3462	0.00339425
3474	0.00385117
3486	0.00228459
3498	0.00332897
3510	0.00280678
3522	0.00228459
3534	0.00411226
3546	0.00332897
3558	0.0035248
3570	0.00417754
3582	0.00469973
3594	0.00430808
3606	0.00469973
3618	0.004765
3630	0.00483028
3642	0.00437336
3654	0.00437336
3666	0.00437336
3678	0.00528719
3690	0.004765
3702	0.00483028
3714	0.00587466
3726	0.00515665
3738	0.00580939
3750	0.0050261
3762	0.00424281
3774	0.00345952
3786	0.00280678
3798	0.00411226
3810	0.00359007
3822	0.004765
3834	0.00515665
3846	0.00561356
3858	0.00554829
3870	0.00391644
3882	0.00496082
3894	0.00580939
3906	0.00509137
3918	0.00496082
3930	0.00450391
3942	0.00522192
3954	0.00600521
3966	0.00633158
