Infrared Spectrum: Propanoic acid, 2-methylpropyl ester
Formula: C 7 H 14 O 2
CAS: 540-42-1
Origin: Sadtler Research Labs Under US-EPA Contract
1/CM	ABSORBANCE
450	0.00666183
462	0.00513913
474	0.00685217
486	0.00485362
498	0.00532946
510	0.00694734
522	0.00590048
534	0.00609082
546	0.00218889
558	0.00818453
570	0.0055198
582	0.0125623
594	0.00913622
606	0.0136092
618	0.012943
630	0.012372
642	0.00761352
654	0.00494879
666	0.00218889
678	0.00513913
690	0.00618598
702	0.00523429
714	0.00504396
726	0.00599565
738	0.00494879
750	0.00485362
762	0.00647149
774	0.00732801
786	0.0120865
798	0.0197952
810	0.0282652
822	0.0305492
834	0.0321671
846	0.0277893
858	0.0203662
870	0.0183676
882	0.0212227
894	0.0252198
906	0.0274087
918	0.033214
930	0.0368304
942	0.0382579
954	0.0394
966	0.0486314
978	0.059671
990	0.0520574
1002	0.0631922
1014	0.178442
1026	0.26752
1038	0.131714
1050	0.117343
1062	0.191385
1074	0.251532
1086	0.252388
1098	0.171685
1110	0.125718
1122	0.122958
1134	0.122673
1146	0.159123
1158	0.303113
1170	0.615268
1182	0.902202
1194	0.858234
1206	0.595472
1218	0.404373
1230	0.278369
1242	0.220316
1254	0.19405
1266	0.182915
1278	0.189196
1290	0.153317
1302	0.0866038
1314	0.0746125
1326	0.13238
1338	0.192432
1350	0.220602
1362	0.159598
1374	0.167117
1386	0.189291
1398	0.0893637
1410	0.0591951
1422	0.0506299
1434	0.0683313
1446	0.0814647
1458	0.126765
1470	0.194811
1482	0.124767
1494	0.049012
1506	0.0274087
1518	0.0190338
1530	0.0154174
1542	0.0110396
1554	0.0095169
1566	0.00723284
1578	0.00590048
1590	0.00656666
1602	0.00618598
1614	0.00666183
1626	0.00875555
1638	0.00866038
1650	0.0128478
1662	0.012372
1674	0.0154174
1686	0.0201758
1698	0.0317864
1710	0.0508202
1722	0.0847956
1734	0.187007
1746	0.549791
1758	0.95169
1770	0.59138
1782	0.1773
1794	0.0728043
1806	0.0348319
1818	0.0190338
1830	0.0125623
1842	0.00980241
1854	0.00761352
1866	0.0079942
1878	0.00580531
1890	0.00523429
1902	0.00437777
1914	0.00361642
1926	0.00352125
1938	0.0039971
1950	0.00314058
1962	0.00409227
1974	0.00418744
1986	0.00485362
1998	0.00494879
2010	0.0055198
2022	0.00532946
2034	0.00456811
2046	0.00456811
2058	0.00314058
2070	0.0039971
2082	0.00371159
2094	0.00314058
2106	0.00314058
2118	0.00314058
2130	0.00256956
2142	0.00171304
2154	0.00199855
2166	0.00228406
2178	0.00199855
2190	0.00161787
2202	0.00104686
2214	0.000666183
2226	0.000475845
2238	0.00104686
2250	0.000761352
2262	0.00095169
2274	0.0015227
2286	0.00266473
2298	0.00333091
2310	0.00333091
2322	0.00180821
2334	0.00209372
2346	0.00380676
2358	0.00247439
2370	0.0015227
2382	0.00247439
2394	0.00199855
2406	0.0015227
2418	0.00104686
2430	0.000475845
2442	0.000666183
2454	0.00114203
2466	0.00104686
2478	0.000856521
2490	0.000666183
2502	0.000666183
2514	0.000190338
2526	0.000856521
2538	0.000285507
2550	0.000380676
2562	0.000856521
2574	0.00142753
2586	0.00218889
2598	0.00161787
2610	0.00199855
2622	0.00199855
2634	0.00209372
2646	0.00314058
2658	0.00228406
2670	0.00266473
2682	0.00380676
2694	0.00333091
2706	0.00333091
2718	0.00475845
2730	0.00837487
2742	0.0113251
2754	0.0122768
2766	0.0120865
2778	0.0109444
2790	0.0124671
2802	0.0119913
2814	0.0151319
2826	0.0196048
2838	0.0247439
2850	0.0316913
2862	0.0453956
2874	0.102497
2886	0.201949
2898	0.222505
2910	0.197952
2922	0.196334
2934	0.246202
2946	0.358311
2958	0.471467
2970	0.634587
2982	0.592427
2994	0.280558
3006	0.118295
3018	0.0630019
3030	0.0359739
3042	0.0216034
3054	0.0163691
3066	0.0133237
3078	0.0118961
3090	0.00980241
3102	0.00913622
3114	0.00818453
3126	0.00837487
3138	0.0082797
3150	0.00742318
3162	0.00847004
3174	0.0079942
3186	0.00789903
3198	0.00742318
3210	0.00561497
3222	0.00409227
3234	0.00295024
3246	0.000856521
3258	0.000761352
3270	0.00104686
3282	0.00161787
3294	0.00237923
3306	0.0012372
3318	0.000761352
3330	0.00228406
3342	0.00237923
3354	0.00180821
3366	0.00285507
3378	0.00333091
3390	0.00314058
3402	0.00190338
3414	0.0015227
3426	0.00266473
3438	0.00180821
3450	0.00266473
3462	0.00428261
3474	0.0055198
3486	0.00847004
3498	0.0114203
3510	0.00751835
3522	0.00418744
3534	0.00161787
3546	0.00371159
3558	0.00295024
3570	0.00304541
3582	0.00599565
3594	0.00409227
3606	0.00361642
3618	0.00304541
3630	0.00133237
3642	0.00209372
3654	0.00285507
3666	0.00409227
3678	0.00494879
3690	0.00466328
3702	0.00237923
3714	0.00352125
3726	0.00304541
3738	0.00228406
3750	0.00371159
3762	0.00247439
3774	0.0027599
3786	0.00199855
3798	0.00409227
3810	0.00390193
3822	0.00323575
3834	0.00323575
3846	0.00333091
3858	0.00371159
3870	0.00656666
3882	0.00409227
3894	0.00361642
3906	0.00494879
3918	0.00447294
3930	0.00418744
3942	0.00418744
3954	0.00456811
3966	0.00428261
