Infrared Spectrum: Benzene, 1,4-difluoro-
Formula: C 6 H 4 F 2
CAS: 540-36-3
Origin: Sadtler Research Labs Under US-EPA Contract
1/CM	ABSORBANCE
450	0.00385037
462	0.00288778
474	0.00872349
486	0.0175071
498	0.0376614
510	0.0279152
522	0.0152811
534	0.00403085
546	0.00222599
558	0.0042715
570	0.00403085
582	0.0025268
594	0.00246664
606	0.00366988
618	0.00535442
630	0.00469264
642	0.00463247
654	0.00409102
666	0.0055349
678	0.0047528
690	0.00517393
702	0.00469264
714	0.00932511
726	0.073157
738	0.156481
750	0.0901227
762	0.00643733
774	0.00992673
786	0.00956576
798	0.00836252
810	0.0318859
822	0.0870544
834	0.186562
846	0.0977031
858	0.0400679
870	0.0172063
882	0.0121527
894	0.00661782
906	0.0060162
918	0.00613652
930	0.00595604
942	0.00613652
954	0.00643733
966	0.00667798
978	0.00625685
990	0.00691863
1002	0.00962592
1014	0.00968608
1026	0.0072796
1038	0.00667798
1050	0.0077609
1062	0.0121527
1074	0.0282761
1086	0.0253884
1098	0.0187104
1110	0.0095056
1122	0.00812187
1134	0.00782106
1146	0.00733976
1158	0.00998689
1170	0.034172
1182	0.0878967
1194	0.10769
1206	0.130672
1218	0.330169
1230	0.311579
1242	0.0546873
1254	0.0108292
1266	0.00926495
1278	0.00956576
1290	0.00938527
1302	0.0102275
1314	0.008543
1326	0.00920479
1338	0.00487312
1350	0.00848284
1362	0.0055349
1374	0.00535442
1386	0.00697879
1398	0.00541458
1410	0.0105885
1422	0.0184697
1434	0.0141982
1446	0.0101674
1458	0.00144389
1470	0.00944543
1482	0.0137169
1494	0.090604
1506	0.60162
1518	0.54236
1530	0.0628693
1542	0.016725
1554	0.00613652
1566	0.00866333
1578	0.00926495
1590	0.0101072
1602	0.012634
1614	0.0139576
1626	0.0131755
1638	0.0121527
1650	0.00385037
1662	0.00872349
1674	0.00403085
1686	0.00138373
1698	0
1710	0.00715928
1722	0.00884381
1734	0.00385037
1746	0.00637717
1758	0.00661782
1770	0.00439183
1782	0.0055349
1794	0.00439183
1806	0.00703895
1818	0.00739993
1830	0.00559507
1842	0.00896414
1854	0.0175673
1866	0.0157624
1878	0.0129348
1890	0.00770074
1902	0.00697879
1914	0.00619669
1926	0.00643733
1938	0.0064975
1950	0.00667798
1962	0.00667798
1974	0.00860317
1986	0.0119722
1998	0.0101072
2010	0.00583571
2022	0.00577555
2034	0.00577555
2046	0.00571539
2058	0.00685847
2070	0.00667798
2082	0.00607636
2094	0.00535442
2106	0.00535442
2118	0.00523409
2130	0.00469264
2142	0.00499345
2154	0.00499345
2166	0.0042715
2178	0.0042715
2190	0.00445199
2202	0.00379021
2214	0.00421134
2226	0.00403085
2238	0.00403085
2250	0.00342923
2262	0.00318859
2274	0.00330891
2286	0.00324875
2298	0.00270729
2310	0.00186502
2322	0.00186502
2334	0.00198535
2346	0.00318859
2358	0.00421134
2370	0.00318859
2382	0.00336907
2394	0.00360972
2406	0.00312842
2418	0.00360972
2430	0.00403085
2442	0.00469264
2454	0.00481296
2466	0.00685847
2478	0.00577555
2490	0.00366988
2502	0.00354956
2514	0.00360972
2526	0.00403085
2538	0.00397069
2550	0.00403085
2562	0.00366988
2574	0.00379021
2586	0.00379021
2598	0.00385037
2610	0.00391053
2622	0.00391053
2634	0.00397069
2646	0.00445199
2658	0.00451215
2670	0.00403085
2682	0.00409102
2694	0.00415118
2706	0.00421134
2718	0.00415118
2730	0.00379021
2742	0.00379021
2754	0.00439183
2766	0.00439183
2778	0.00445199
2790	0.00403085
2802	0.00403085
2814	0.00445199
2826	0.00457231
2838	0.00421134
2850	0.00487312
2862	0.00481296
2874	0.00481296
2886	0.00529426
2898	0.00535442
2910	0.00481296
2922	0.00439183
2934	0.00457231
2946	0.00409102
2958	0.00457231
2970	0.0042715
2982	0.0047528
2994	0.00469264
3006	0.00523409
3018	0.00541458
3030	0.00535442
3042	0.0055349
3054	0.00685847
3066	0.0134763
3078	0.0108893
3090	0.00619669
3102	0.00643733
3114	0.00619669
3126	0.00577555
3138	0.00571539
3150	0.0060162
3162	0.00541458
3174	0.00589588
3186	0.00409102
3198	0.00541458
3210	0.00469264
3222	0.00517393
3234	0.00505361
3246	0.00493328
3258	0.00511377
3270	0.00451215
3282	0.00445199
3294	0.00439183
3306	0.00366988
3318	0.00318859
3330	0.0034894
3342	0.00306826
3354	0.00312842
3366	0.00318859
3378	0.00379021
3390	0.00270729
3402	0.00276745
3414	0.00288778
3426	0.0030081
3438	0.00324875
3450	0.00373004
3462	0.00312842
3474	0.00409102
3486	0.0030081
3498	0.00144389
3510	0.00409102
3522	0.00306826
3534	0.00481296
3546	0.00493328
3558	0.00366988
3570	0.00451215
3582	0.00397069
3594	0.00457231
3606	0.00469264
3618	0.00415118
3630	0.0047528
3642	0.0042715
3654	0.00505361
3666	0.00487312
3678	0.00577555
3690	0.00463247
3702	0.00547474
3714	0.00631701
3726	0.00571539
3738	0.00469264
3750	0.00577555
3762	0.0055349
3774	0.00583571
3786	0.00625685
3798	0.00613652
3810	0.00691863
3822	0.00619669
3834	0.00655766
3846	0.00559507
3858	0.00595604
3870	0.00595604
3882	0.00625685
3894	0.0055349
3906	0.00679831
3918	0.00619669
3930	0.00619669
3942	0.00577555
3954	0.00571539
3966	0.00571539
