Infrared Spectrum: Pentane, 2,2,4-trimethyl-
Formula: C 8 H 18
CAS: 540-84-1
Origin: Sadtler Research Labs Under US-EPA Contract
1/CM	ABSORBANCE
450	0.0835432
462	0.00228886
474	0.0190738
486	0.0432975
498	0.0211719
510	0.0257496
522	0.0341421
534	0.0169757
546	0.0211719
558	0.016022
570	0.0362402
582	0.0539789
594	0.0297551
606	0.0255589
618	0.0265126
630	0.0263218
642	0.0265126
654	0.0255589
666	0.0278477
678	0.0238422
690	0.0270848
702	0.0253682
714	0.0234608
726	0.0238422
738	0.0253682
750	0.0265126
762	0.0247959
774	0.0217441
786	0.0238422
798	0.0236515
810	0.0247959
822	0.031281
834	0.0213627
846	0.0268941
858	0.0261311
870	0.0230793
882	0.024033
894	0.0259404
906	0.0259404
918	0.0305181
930	0.0322347
942	0.0261311
954	0.0253682
966	0.0289922
978	0.0452049
990	0.0358587
1002	0.0234608
1014	0.0217441
1026	0.0209812
1038	0.0207904
1050	0.0211719
1062	0.020409
1074	0.020409
1086	0.0223163
1098	0.0234608
1110	0.024033
1122	0.0228886
1134	0.02327
1146	0.0259404
1158	0.0398642
1170	0.0568399
1182	0.048066
1194	0.0574121
1206	0.0789655
1218	0.0520715
1230	0.0396735
1242	0.0665676
1254	0.0604639
1266	0.0329977
1278	0.0350958
1290	0.0368124
1302	0.0316625
1314	0.027657
1326	0.0265126
1338	0.035668
1350	0.0867858
1362	0.197986
1374	0.242619
1386	0.161555
1398	0.129893
1410	0.0661861
1422	0.0331884
1434	0.0421531
1446	0.0717175
1458	0.140955
1470	0.237278
1482	0.231174
1494	0.114634
1506	0.0373846
1518	0.0198368
1530	0.0148776
1542	0.0144961
1554	0.0133517
1566	0.0133517
1578	0.0133517
1590	0.0129702
1602	0.0127794
1614	0.0127794
1626	0.011635
1638	0.0122072
1650	0.011635
1662	0.0118258
1674	0.0118258
1686	0.0112535
1698	0.0110628
1710	0.0114443
1722	0.0104906
1734	0.0101091
1746	0.00896469
1758	0.00820173
1770	0.008011
1782	0.00782026
1794	0.00724804
1806	0.00762952
1818	0.00724804
1830	0.00743878
1842	0.00705731
1854	0.00629435
1866	0.00686657
1878	0.00629435
1890	0.00591288
1902	0.00610362
1914	0.00572214
1926	0.00610362
1938	0.00629435
1950	0.00534066
1962	0.00495919
1974	0.00457771
1986	0.00343328
1998	0.00324255
2010	0.00343328
2022	0.00419624
2034	0.00438697
2046	0.00362402
2058	0.00286107
2070	0.00267033
2082	0.00190738
2094	0.00190738
2106	0.00247959
2118	0.00209812
2130	0.00190738
2142	0.00209812
2154	0.00133517
2166	0.00171664
2178	0.0015259
2190	0.00209812
2202	0.00209812
2214	0.00114443
2226	0.000381476
2238	0.000190738
2250	0.000572214
2262	0.00114443
2274	0.0015259
2286	0.00267033
2298	0.00305181
2310	0.00267033
2322	0.00133517
2334	0.000762952
2346	0.00095369
2358	0.00095369
2370	0.00228886
2382	0.00305181
2394	0.00324255
2406	0.00343328
2418	0.00267033
2430	0.00209812
2442	0.00171664
2454	0.00190738
2466	0.00247959
2478	0.00286107
2490	0.00286107
2502	0.00228886
2514	0.00209812
2526	0.00209812
2538	0.00286107
2550	0.00362402
2562	0.00610362
2574	0.00705731
2586	0.008011
2598	0.0095369
2610	0.00877395
2622	0.00934616
2634	0.00972764
2646	0.00934616
2658	0.00934616
2670	0.0101091
2682	0.0129702
2694	0.0162127
2706	0.0177386
2718	0.0230793
2730	0.02842
2742	0.0251774
2754	0.0221256
2766	0.0213627
2778	0.0217441
2790	0.0261311
2802	0.0331884
2814	0.0467308
2826	0.0675213
2838	0.105478
2850	0.17052
2862	0.273328
2874	0.513276
2886	0.615702
2898	0.656902
2910	0.766004
2922	0.682842
2934	0.697529
2946	1.07252
2958	1.77844
2970	1.67354
2982	0.691616
2994	0.217251
3006	0.0984208
3018	0.0497826
3030	0.0299459
3042	0.0226978
3054	0.0202182
3066	0.0185016
3078	0.0179294
3090	0.0169757
3102	0.0164035
3114	0.0150683
3126	0.0162127
3138	0.0167849
3150	0.0183108
3162	0.0194553
3174	0.0198368
3186	0.0188831
3198	0.0185016
3210	0.0188831
3222	0.0164035
3234	0.0133517
3246	0.0110628
3258	0.00934616
3270	0.00686657
3282	0.00648509
3294	0.00495919
3306	0.00591288
3318	0.00705731
3330	0.00648509
3342	0.00705731
3354	0.00610362
3366	0.00686657
3378	0.00591288
3390	0.00724804
3402	0.00629435
3414	0.00457771
3426	0.00438697
3438	0.0040055
3450	0.00534066
3462	0.00457771
3474	0.00362402
3486	0.00324255
3498	0.00305181
3510	0.00343328
3522	0.00114443
3534	0.00209812
3546	0.00324255
3558	0.00209812
3570	0.00343328
3582	0.00190738
3594	0
3606	0.00190738
3618	0.00343328
3630	0.00209812
3642	0.00209812
3654	0.00286107
3666	0.00286107
3678	0.0055314
3690	0.00324255
3702	0.00476845
3714	0.00495919
3726	0.00591288
3738	0.00495919
3750	0.00324255
3762	0.00267033
3774	0.00495919
3786	0.00228886
3798	0.00743878
3810	0.00495919
3822	0.00228886
3834	0.00438697
3846	0.00514993
3858	0.00839247
3870	0.0055314
3882	0.0040055
3894	0.00667583
3906	0.00877395
3918	0.00305181
3930	0.00476845
3942	0.00228886
3954	0.000381476
3966	0.00858321
