Infrared Spectrum: Hexanoic acid, pentyl ester
Formula: C 11 H 22 O 2
CAS: 540-07-8
Origin: Sadtler Research Labs Under US-EPA Contract
1/CM	ABSORBANCE
450	0
462	0.0209997
474	0.0288641
486	0.0338003
498	0.0259358
510	0.0281111
522	0.0287804
534	0.0286968
546	0.0252665
558	0.0272745
570	0.0246809
582	0.0289477
594	0.0281111
606	0.0312903
618	0.0307047
630	0.0287804
642	0.0282784
654	0.0286968
666	0.0278601
678	0.0272745
690	0.0287804
702	0.031625
714	0.0354735
726	0.041832
738	0.0482741
750	0.0407444
762	0.0359755
774	0.0372305
786	0.0353062
798	0.0337166
810	0.031876
822	0.0329636
834	0.0349716
846	0.0382344
858	0.0396567
870	0.0417483
882	0.0455132
894	0.0475212
906	0.0446766
918	0.0414973
930	0.0393221
942	0.04133
954	0.0458479
966	0.0592341
978	0.0922814
990	0.11144
1002	0.111106
1014	0.0911938
1026	0.0908591
1038	0.10709
1050	0.115707
1062	0.094122
1074	0.110855
1086	0.13495
1098	0.204224
1110	0.217861
1122	0.160217
1134	0.138966
1146	0.190168
1158	0.387281
1170	0.672408
1182	0.469773
1194	0.272912
1206	0.253669
1218	0.29023
1230	0.324282
1242	0.35097
1254	0.288306
1266	0.197531
1278	0.167412
1290	0.163563
1302	0.153607
1314	0.142982
1326	0.122149
1338	0.128341
1350	0.154527
1362	0.136289
1374	0.101735
1386	0.119221
1398	0.0908591
1410	0.0599871
1422	0.0655926
1434	0.0869269
1446	0.100815
1458	0.137376
1470	0.152687
1482	0.0884328
1494	0.0492781
1506	0.0379835
1518	0.0333819
1530	0.0317087
1542	0.0296171
1554	0.0290314
1566	0.0282784
1578	0.0286131
1590	0.0280274
1602	0.0286968
1614	0.0281948
1626	0.0275255
1638	0.0281948
1650	0.0281948
1662	0.0297844
1674	0.0317923
1686	0.0356409
1698	0.043338
1710	0.0641703
1722	0.0920304
1734	0.171093
1746	0.526247
1758	0.768956
1770	0.240367
1782	0.10207
1794	0.0609074
1806	0.0455132
1818	0.0374815
1830	0.031625
1842	0.0291987
1854	0.0286131
1866	0.0276928
1878	0.0272745
1890	0.0268561
1902	0.0270235
1914	0.0264378
1926	0.0267725
1938	0.0267725
1950	0.0270235
1962	0.0269398
1974	0.0266888
1986	0.0270235
1998	0.0264378
2010	0.0261868
2022	0.0262705
2034	0.0261868
2046	0.0269398
2058	0.0276091
2070	0.0274418
2082	0.0276928
2094	0.0270235
2106	0.0262705
2118	0.0256848
2130	0.0254339
2142	0.0252665
2154	0.0250992
2166	0.0249319
2178	0.0250155
2190	0.0244299
2202	0.0244299
2214	0.0242626
2226	0.0241789
2238	0.0246809
2250	0.0242626
2262	0.0240952
2274	0.0241789
2286	0.0244299
2298	0.0251829
2310	0.0266052
2322	0.0289477
2334	0.0273581
2346	0.0238442
2358	0.0297007
2370	0.0210833
2382	0.0210833
2394	0.0238442
2406	0.0241789
2418	0.0240116
2430	0.0230913
2442	0.0230076
2454	0.0227566
2466	0.0223383
2478	0.022171
2490	0.02192
2502	0.0217526
2514	0.0222546
2526	0.0220036
2538	0.0213343
2550	0.0213343
2562	0.021418
2574	0.0225056
2586	0.0234259
2598	0.0231749
2610	0.0229239
2622	0.0230076
2634	0.0237606
2646	0.0245136
2658	0.0268561
2670	0.0285294
2682	0.0295334
2694	0.0294497
2706	0.0283621
2718	0.0281948
2730	0.0291987
2742	0.0332983
2754	0.03288
2766	0.031625
2778	0.0331309
2790	0.0360592
2802	0.0384854
2814	0.0444256
2826	0.053043
2838	0.0690228
2850	0.109182
2862	0.220371
2874	0.325369
2886	0.31784
2898	0.24112
2910	0.288306
2922	0.427607
2934	0.645049
2946	0.710977
2958	0.603719
2970	0.77933
2982	0.390293
2994	0.16281
3006	0.0886838
3018	0.0610747
3030	0.0492781
3042	0.0416647
3054	0.0355572
3066	0.0338839
3078	0.0317087
3090	0.0307884
3102	0.0288641
3114	0.0281111
3126	0.0272745
3138	0.0262705
3150	0.0264378
3162	0.0272745
3174	0.0282784
3186	0.0277764
3198	0.0275255
3210	0.0267725
3222	0.0258522
3234	0.0263542
3246	0.0261032
3258	0.0256012
3270	0.0252665
3282	0.0260195
3294	0.0256012
3306	0.0240952
3318	0.0225056
3330	0.0210833
3342	0.0228403
3354	0.0235096
3366	0.0240952
3378	0.0241789
3390	0.0225893
3402	0.0236769
3414	0.0234259
3426	0.0227566
3438	0.0237606
3450	0.0233423
3462	0.0245136
3474	0.0265215
3486	0.0307047
3498	0.0296171
3510	0.0232586
3522	0.0235096
3534	0.0234259
3546	0.0238442
3558	0.0244299
3570	0.0242626
3582	0.0254339
3594	0.0244299
3606	0.0253502
3618	0.0256012
3630	0.0250155
3642	0.0266052
3654	0.0229239
3666	0.0252665
3678	0.0263542
3690	0.0258522
3702	0.0252665
3714	0.0254339
3726	0.0263542
3738	0.0246809
3750	0.0253502
3762	0.0260195
3774	0.0264378
3786	0.0247645
3798	0.0268561
3810	0.0247645
3822	0.0270235
3834	0.0230076
3846	0.0271908
3858	0.0238442
3870	0.0266052
3882	0.022171
3894	0.0252665
3906	0.021418
3918	0.0234259
3930	0.0235096
3942	0.0220036
3954	0.0253502
3966	0.0246809
