Infrared Spectrum: 2-Thiopheneethanol
Formula: C 6 H 8 O S
CAS: 5402-55-1
Origin: Sadtler Research Labs Under US-EPA Contract
1/CM	ABSORBANCE
450	0.00248314
462	0.00726547
474	0.00933475
486	0.0220263
498	0.0313611
510	0.020049
522	0.00179338
534	0.00266707
546	0.00239117
558	0.00174739
570	0.00266707
582	0.00298896
594	0.00450643
606	0.0091968
618	0.00657571
630	0.00234518
642	0.00220723
654	0.00993254
666	0.0274524
678	0.145723
690	0.42972
702	0.290987
714	0.0797363
726	0.0140711
738	0.0109902
750	0.0110362
762	0.017244
774	0.0235438
786	0.0131514
798	0.017106
810	0.0504444
822	0.0842427
834	0.0652973
846	0.0774371
858	0.0584916
870	0.0196812
882	0.00409258
894	0.00183936
906	0.00519619
918	0.0108982
930	0.0151747
942	0.0148068
954	0.0170601
966	0.023038
978	0.0324647
990	0.0479613
1002	0.0679184
1014	0.0793684
1026	0.124433
1038	0.292642
1050	0.429123
1062	0.31053
1074	0.155104
1086	0.083277
1098	0.043087
1110	0.0380748
1122	0.0482832
1134	0.0548589
1146	0.0511342
1158	0.0417075
1170	0.0443286
1182	0.0524218
1194	0.0527896
1206	0.051686
1218	0.0493868
1230	0.051778
1242	0.0572961
1254	0.0623543
1266	0.0543531
1278	0.0380288
1290	0.0356836
1302	0.0348099
1314	0.0351778
1326	0.0418454
1338	0.0457541
1350	0.0467197
1362	0.0476394
1374	0.0811618
1386	0.113259
1398	0.0749539
1410	0.0421213
1422	0.0435468
1434	0.0687461
1446	0.060331
1458	0.0285101
1470	0.0246014
1482	0.0203709
1494	0.0131514
1506	0.0150828
1518	0.0119099
1530	0.00984058
1542	0.00827712
1554	0.0043225
1566	0.005748
1578	0.0100705
1590	0.00997853
1602	0.0034488
1614	0.00174739
1626	0.00423053
1638	0.00597792
1650	0.00400061
1662	0.00156346
1674	0.00174739
1686	0.000827712
1698	0.00446045
1710	0.0054721
1722	0.00308093
1734	0.00183936
1746	0.00128755
1758	0.00363274
1770	0.00772531
1782	0.0125076
1794	0.00708154
1806	0.00216125
1818	0.00151747
1830	0.00068976
1842	0.00124157
1854	0.00156346
1866	0.00160944
1878	0.00239117
1890	0.00335683
1902	0.00413856
1914	0.00358675
1926	0.00335683
1938	0.00266707
1950	0.00252912
1962	0.00252912
1974	0.00312691
1986	0.00285101
1998	0.00266707
2010	0.00298896
2022	0.00298896
2034	0.00367872
2046	0.00427651
2058	0.00528816
2070	0.00611587
2082	0.005748
2094	0.00556406
2106	0.00556406
2118	0.00441446
2130	0.00349478
2142	0.00303494
2154	0.00381667
2166	0.00423053
2178	0.00275904
2190	0.0022992
2202	0.0022992
2214	0.00225322
2226	0.00248314
2238	0.0022992
2250	0.00262109
2262	0.00262109
2274	0.00266707
2286	0.00308093
2298	0.00206928
2310	0.00068976
2322	0.000413856
2334	0.00165542
2346	0.00326486
2358	0.0031729
2370	0.00395462
2382	0.00473635
2394	0.00469037
2406	0.00400061
2418	0.00354077
2430	0.00294298
2442	0.00234518
2454	0.00211526
2466	0.00197731
2478	0.0020233
2490	0.00216125
2502	0.00211526
2514	0.00225322
2526	0.00211526
2538	0.00197731
2550	0.0020233
2562	0.0020233
2574	0.00183936
2586	0.00179338
2598	0.00188534
2610	0.00225322
2622	0.00294298
2634	0.00275904
2646	0.00271306
2658	0.00331085
2670	0.00331085
2682	0.00427651
2694	0.00413856
2706	0.00496627
2718	0.00616186
2730	0.0071735
2742	0.0083231
2754	0.00915082
2766	0.00988656
2778	0.0101165
2790	0.0108062
2802	0.0116799
2814	0.0134733
2826	0.0181637
2838	0.0285101
2850	0.0443286
2862	0.0671366
2874	0.112201
2886	0.143056
2898	0.116018
2910	0.11634
2922	0.162967
2934	0.18927
2946	0.193547
2958	0.180855
2970	0.141125
2982	0.0674125
2994	0.0219804
3006	0.0104384
3018	0.0068976
3030	0.00680563
3042	0.0111281
3054	0.0160024
3066	0.0206468
3078	0.0445585
3090	0.0476394
3102	0.0270846
3114	0.0154046
3126	0.0113121
3138	0.00377069
3150	0.00206928
3162	0.00147149
3174	0.00156346
3186	0.00174739
3198	0.00197731
3210	0.00188534
3222	0.0020233
3234	0.00188534
3246	0.00234518
3258	0.00188534
3270	0.0020233
3282	0.00206928
3294	0.0020233
3306	0.00239117
3318	0.00239117
3330	0.00239117
3342	0.00239117
3354	0.00220723
3366	0.00216125
3378	0.00206928
3390	0.00197731
3402	0.0025751
3414	0.00174739
3426	0.000781728
3438	0.000965664
3450	0.0014255
3462	0.00101165
3474	0.00133354
3486	0.00119558
3498	0.000413856
3510	0.00022992
3522	0.00165542
3534	0.0014255
3546	0.000413856
3558	0.00110362
3570	0.00220723
3582	0.000965664
3594	0.000781728
3606	0.0071735
3618	0.0354996
3630	0.0495248
3642	0.0296597
3654	0.0335683
3666	0.0510422
3678	0.0412017
3690	0.0162783
3702	0.00561005
3714	0.00280502
3726	0.00174739
3738	0.000275904
3750	9.1968e-05
3762	9.1968e-05
3774	9.1968e-05
3786	9.1968e-05
3798	9.1968e-05
3810	0.000735744
3822	9.1968e-05
3834	0.00179338
3846	0.00183936
3858	0.00022992
3870	0.0014255
3882	0.00045984
3894	9.1968e-05
3906	0.000413856
3918	0.00022992
3930	0.00165542
3942	0.0037247
3954	0.0022992
3966	0.0025751
