Infrared Spectrum: Benzenemethanamine, N-(2-methylphenyl)-
Formula: C 14 H 15 N
CAS: 5405-13-0
Origin: Sadtler Research Labs Under US-EPA Contract
1/CM	ABSORBANCE
450	0.0219085
462	0.0266207
474	0.0149321
486	0.00954673
498	0.000183591
510	0.0210518
522	0.0318836
534	0.0209906
546	0.0165844
558	0.0147485
570	0.0203786
582	0.0218473
594	0.0261311
606	0.0290686
618	0.0260087
630	0.0156664
642	0.0166456
654	0.0208682
666	0.028885
678	0.0645016
690	0.161009
702	0.201032
714	0.199074
726	0.2096
738	0.355861
750	0.385847
762	0.139162
774	0.0385541
786	0.0152381
798	0.0133409
810	0.0167068
822	0.0215413
834	0.0160948
846	0.0138305
858	0.011505
870	0.0110155
882	0.0153604
894	0.0104647
906	0.0170128
918	0.0176859
930	0.0081392
942	0.00293746
954	0.00434499
966	0.0129126
978	0.0296805
990	0.0310881
1002	0.0170128
1014	0.0196442
1026	0.0749663
1038	0.0432663
1050	0.101159
1062	0.074232
1074	0.0409408
1086	0.0212966
1098	0.0134021
1110	0.0258863
1122	0.0731916
1134	0.094733
1146	0.0337195
1158	0.0320672
1170	0.0428991
1182	0.0535474
1194	0.0436947
1206	0.0507323
1218	0.0612582
1230	0.0963241
1242	0.16976
1254	0.31645
1266	0.223553
1278	0.123006
1290	0.157399
1302	0.246624
1314	0.262352
1326	0.126617
1338	0.0514667
1350	0.0493248
1362	0.0671943
1374	0.0460813
1386	0.0533026
1398	0.0296805
1410	0.0308433
1422	0.0598507
1434	0.136775
1446	0.316939
1458	0.244543
1470	0.215046
1482	0.231447
1494	0.335421
1506	0.552976
1518	0.450104
1530	0.129248
1542	0.0675615
1554	0.0501815
1566	0.0570968
1578	0.151463
1590	0.266635
1602	0.36351
1614	0.255803
1626	0.0664599
1638	0.0763127
1650	0.0349435
1662	0.0220309
1674	0.0171352
1686	0.0116886
1698	0.00966913
1710	0.00844519
1722	0.00948553
1734	0.0126678
1746	0.0137081
1758	0.0137081
1770	0.0115662
1782	0.0116886
1794	0.0209906
1806	0.016768
1818	0.00899596
1830	0.00899596
1842	0.00893476
1854	0.00991391
1866	0.0165844
1878	0.0224593
1890	0.0132186
1902	0.00966913
1914	0.0151157
1926	0.0116886
1938	0.0141977
1950	0.0145037
1962	0.0110767
1974	0.00348823
1986	0.00275387
1998	0.00238668
2010	0.00165232
2022	0.00146873
2034	0.000979152
2046	0.00104035
2058	0.00146873
2070	0.00189711
2082	0.000979152
2094	0.000550773
2106	0.000734364
2118	0.00116274
2130	0.0019583
2142	0.00183591
2154	0.00134633
2166	0.00122394
2178	0.00116274
2190	0.000979152
2202	0.000856758
2214	0.000856758
2226	0.000489576
2238	0.000183591
2250	0.00061197
2262	0.000734364
2274	0.00122394
2286	0.00250908
2298	0.00458977
2310	0.00722125
2322	0.00789441
2334	0.00477337
2346	0.00354943
2358	0.00220309
2370	0.000183591
2382	0.00226429
2394	0.00061197
2406	0.00104035
2418	0.00232549
2430	0.00257027
2442	0.00177471
2454	0.00171352
2466	0.00183591
2478	0.00183591
2490	0.00152993
2502	0.00128514
2514	0.00171352
2526	0.00244788
2538	0.00385541
2550	0.0061197
2562	0.00752723
2574	0.00728244
2586	0.00575252
2598	0.00544653
2610	0.00544653
2622	0.00440618
2634	0.00397781
2646	0.00373302
2658	0.00336584
2670	0.00391661
2682	0.00446738
2694	0.00495696
2706	0.00624209
2718	0.00654808
2730	0.00917955
2742	0.0126678
2754	0.0100363
2766	0.00966913
2778	0.0116274
2790	0.0145037
2802	0.0197054
2814	0.0255803
2826	0.0351271
2838	0.0528742
2850	0.0861654
2862	0.133042
2874	0.149565
2886	0.133777
2898	0.117192
2910	0.115418
2922	0.136469
2934	0.146689
2946	0.106666
2958	0.0801069
2970	0.0805353
2982	0.0980376
2994	0.0574028
3006	0.0675003
3018	0.151034
3030	0.231019
3042	0.22392
3054	0.180409
3066	0.257578
3078	0.280833
3090	0.157276
3102	0.0872057
3114	0.0504263
3126	0.0247236
3138	0.0117498
3150	0.00783322
3162	0.00691526
3174	0.00556893
3186	0.00318224
3198	0.00293746
3210	0.00189711
3222	0.00140753
3234	0.00152993
3246	0.00189711
3258	0.00159112
3270	0.000979152
3282	0.00104035
3294	0.000734364
3306	0.000795561
3318	0.000428379
3330	0.000734364
3342	0.000917955
3354	0.000979152
3366	0.00177471
3378	0.00165232
3390	0.00232549
3402	0.0041614
3414	0.00709885
3426	0.0157888
3438	0.0267431
3450	0.0258251
3462	0.0258251
3474	0.0213578
3486	0.0111379
3498	0.00550773
3510	0.00379421
3522	0.00281506
3534	0.00152993
3546	0.0019583
3558	0.00116274
3570	0.00281506
3582	0.00134633
3594	0.00165232
3606	0.00061197
3618	0.0019583
3630	0.00452858
3642	0.00140753
3654	0.00226429
3666	0.00189711
3678	0.00305985
3690	0.00183591
3702	0.00165232
3714	0.00250908
3726	0.00250908
3738	0.00189711
3750	0.00110155
3762	0.00183591
3774	0.00159112
3786	0.00140753
3798	0.00171352
3810	0.00171352
3822	0.00361062
3834	0.00446738
3846	0.00440618
3858	0.0041614
3870	0.00660928
3882	0.00569132
3894	0.00526294
3906	0.00636449
3918	0.00575252
3930	0.00471217
3942	0.00446738
3954	0.00458977
3966	0.00342703
