Infrared Spectrum: 1(2H)-Naphthalenone, 3,4-dihydro-3,3,6,8-tetramethyl-
Formula: C 14 H 18 O
CAS: 5409-55-2
Origin: Sadtler Research Labs Under US-EPA Contract
1/CM	ABSORBANCE
450	0.0217457
462	0.00980498
474	0.0166005
486	0.0103875
498	0.00961082
510	0.00485395
522	0.00475687
534	0.00708677
546	0.0286383
558	0.0127173
570	0.0116495
582	0.0182509
594	0.0204837
606	0.012329
618	0.0209691
630	0.00912543
642	0.00427148
654	0.00815464
666	0.0180567
678	0.0432002
690	0.0631984
702	0.0104845
714	0.00495103
726	0.00990206
738	0.0166005
750	0.00359192
762	0.00106787
774	0
786	0.00194158
798	0.00378608
810	0.00621306
822	0.00436855
834	0.0201924
846	0.109214
858	0.0361134
870	0.00766924
882	0.00621306
894	0.00611598
906	0.00796048
918	0.00893127
930	0.0115524
942	0.0325215
954	0.0350455
966	0.0165034
978	0.022134
990	0.038055
1002	0.0216486
1014	0.0201924
1026	0.0301916
1038	0.0539759
1050	0.0501898
1062	0.0249493
1074	0.0139794
1086	0.00999914
1098	0.00825171
1110	0.0120378
1122	0.0265026
1134	0.0285412
1146	0.047957
1158	0.0401907
1170	0.0693144
1182	0.0301916
1194	0.0275704
1206	0.0419381
1218	0.0967878
1230	0.135814
1242	0.158627
1254	0.276481
1266	0.219981
1278	0.101739
1290	0.111058
1302	0.18746
1314	0.0701881
1326	0.0248522
1338	0.025823
1350	0.0210661
1362	0.0369871
1374	0.0947491
1386	0.112417
1398	0.0788281
1410	0.0564029
1422	0.0971761
1434	0.106787
1446	0.17183
1458	0.130862
1470	0.0964965
1482	0.0555292
1494	0.0354338
1506	0.0331039
1518	0.0334923
1530	0.0341718
1542	0.0382491
1554	0.0583445
1566	0.0984381
1578	0.0868857
1590	0.0953316
1602	0.285898
1614	0.317837
1626	0.0739742
1638	0.0345601
1650	0.046695
1662	0.0543642
1674	0.0963024
1686	0.59092
1698	0.869828
1710	0.182023
1722	0.0641692
1734	0.0462096
1746	0.0288325
1758	0.0162122
1770	0.0120378
1782	0.0102904
1794	0.011067
1806	0.00805756
1818	0.00436855
1830	0.00320361
1842	0.00291237
1854	0.00203866
1866	0.00155326
1878	0.0023299
1890	0.00262113
1902	0.00252405
1914	0.003689
1926	0.00330069
1938	0.00281529
1950	0.00165034
1962	0.00116495
1974	0.00135911
1986	0.00203866
1998	0.000776632
2010	9.7079e-05
2022	0.000194158
2034	0.000291237
2046	0.000582474
2058	0
2070	0.000485395
2082	0.000194158
2094	0.000291237
2106	0.000582474
2118	0.000388316
2130	9.7079e-05
2142	0.000291237
2154	0.000873711
2166	9.7079e-05
2178	0.000194158
2190	9.7079e-05
2202	0.000291237
2214	0.000194158
2226	9.7079e-05
2238	0.000388316
2250	0.000194158
2262	0.000194158
2274	0.000582474
2286	0.00145619
2298	0.00223282
2310	0.00281529
2322	0.00174742
2334	0.000679553
2346	0.0018445
2358	0.0018445
2370	0.00097079
2382	0.00281529
2394	0.00165034
2406	0.00145619
2418	0.0018445
2430	0.00145619
2442	0.00145619
2454	0.00106787
2466	0.00126203
2478	0.00126203
2490	0.00145619
2502	0.00116495
2514	0.00126203
2526	0.00135911
2538	0.00126203
2550	0.00165034
2562	0.00165034
2574	0.000873711
2586	0.00116495
2598	0.00194158
2610	0.0018445
2622	0.00194158
2634	0.00203866
2646	0.00174742
2658	0.00223282
2670	0.00262113
2682	0.00349484
2694	0.0041744
2706	0.00543642
2718	0.00689261
2730	0.00980498
2742	0.0144648
2754	0.0137852
2766	0.00893127
2778	0.00990206
2790	0.0104845
2802	0.0146589
2814	0.0235902
2826	0.035628
2838	0.0602861
2850	0.0680524
2862	0.100865
2874	0.179693
2886	0.197459
2898	0.208623
2910	0.195226
2922	0.270947
2934	0.34997
2946	0.331622
2958	0.405111
2970	0.469668
2982	0.168529
2994	0.0986323
3006	0.0998943
3018	0.115815
3030	0.097079
3042	0.0738771
3054	0.0490249
3066	0.0286383
3078	0.0203866
3090	0.0143677
3102	0.0097079
3114	0.0078634
3126	0.00679553
3138	0.00650429
3150	0.00679553
3162	0.00708677
3174	0.00611598
3186	0.00475687
3198	0.00339777
3210	0.00339777
3222	0.00262113
3234	0.00262113
3246	0.00271821
3258	0.0018445
3270	0.00213574
3282	0.00155326
3294	0.00242698
3306	0.00165034
3318	0.00203866
3330	0.00281529
3342	0.00300945
3354	0.00563058
3366	0.0127173
3378	0.00776632
3390	0.00271821
3402	0.00203866
3414	0.00203866
3426	0.00194158
3438	0.00135911
3450	0.00135911
3462	0.00106787
3474	0.00126203
3486	0.000873711
3498	0.000873711
3510	0.00097079
3522	0.00135911
3534	0.000679553
3546	0.00135911
3558	0.000873711
3570	0.00135911
3582	0.00135911
3594	0.000582474
3606	0.000679553
3618	0.00106787
3630	0.00194158
3642	0.000873711
3654	0.00145619
3666	0.00097079
3678	0.00106787
3690	0.00116495
3702	0.00155326
3714	0.00174742
3726	0.000582474
3738	0.00106787
3750	0.00126203
3762	0.00155326
3774	0.00106787
3786	0.000388316
3798	0.000582474
3810	0.000582474
3822	0.00271821
3834	0.00203866
3846	0.00116495
3858	0.00106787
3870	0.00165034
3882	0.00097079
3894	0.00194158
3906	0.00174742
3918	0.0018445
3930	0.00135911
3942	0.00116495
3954	0.00116495
3966	0.00165034
