Infrared Spectrum: di-tert-Butyl malonate
Formula: C 11 H 20 O 4
CAS: 541-16-2
Origin: Sadtler Research Labs Under US-EPA Contract
1/CM	ABSORBANCE
450	0.0901824
462	0.0558397
474	0.0452223
486	0.0204483
498	0.0212348
510	0.0175646
522	0.0180889
534	0.0238564
546	0.0196619
558	0.0200551
570	0.0336873
582	0.0360467
594	0.0443047
606	0.0439115
618	0.0416831
630	0.0339495
642	0.0357846
654	0.0169092
666	0.0031459
678	0.00367021
690	0.00340805
702	0.0031459
714	0.00393237
726	0.0104863
738	0.0193997
750	0.0270023
762	0.0777298
774	0.0355224
786	0.00668503
798	0.0120593
810	0.0218902
822	0.0416831
834	0.0988336
846	0.147333
858	0.0939836
870	0.0309346
882	0.0142876
894	0.0103552
906	0.016647
918	0.0349981
930	0.0377508
942	0.0654084
954	0.135405
966	0.201468
978	0.153887
990	0.0618693
1002	0.028182
1014	0.023201
1026	0.0344738
1038	0.0554464
1050	0.044829
1062	0.0332941
1074	0.0444358
1086	0.0743218
1098	0.138682
1110	0.292568
1122	0.633374
1134	1.16831
1146	1.18954
1158	1.01953
1170	0.895138
1182	0.73614
1194	0.44462
1206	0.271202
1218	0.255211
1230	0.317604
1242	0.461005
1254	0.540832
1266	0.462053
1278	0.447766
1290	0.429284
1302	0.404903
1314	0.468214
1326	0.542012
1338	0.480929
1350	0.207891
1362	0.220344
1374	0.524971
1386	0.203959
1398	0.241972
1410	0.115218
1422	0.0924107
1434	0.0553153
1446	0.0576748
1458	0.0987025
1470	0.0955566
1482	0.104732
1494	0.0643598
1506	0.0262158
1518	0.00969985
1530	0.00681611
1542	0.00288374
1554	0.0056364
1566	0.00825798
1578	0.0107485
1590	0.0120593
1602	0.014943
1614	0.0106174
1626	0.00865121
1638	0.0114039
1650	0.0125836
1662	0.0192686
1674	0.0237253
1686	0.0389305
1698	0.0758947
1710	0.107092
1722	0.164373
1734	0.451305
1746	1.22703
1758	1.22008
1770	0.698913
1782	0.277887
1794	0.181151
1806	0.119151
1818	0.0574126
1830	0.0287063
1842	0.0180889
1854	0.0136322
1866	0.0106174
1878	0.00969985
1890	0.00760258
1902	0.00760258
1914	0.00694719
1926	0.00550532
1938	0.00511208
1950	0.00458777
1962	0.00353913
1974	0.00340805
1986	0.00380129
1998	0.0031459
2010	0.00222834
2022	0.00157295
2034	0.00196619
2046	0.000131079
2058	0.00170403
2070	0.00131079
2082	0.00222834
2094	0.00196619
2106	0.00131079
2118	0.00183511
2130	0.00170403
2142	0.00117971
2154	0.000786474
2166	0.000786474
2178	0.000917553
2190	0.000655395
2202	0.00104863
2214	0.00170403
2226	0.00144187
2238	0.00131079
2250	0.00196619
2262	0.00235942
2274	0.00262158
2286	0.00353913
2298	0.00655395
2310	0.00707827
2322	0.00511208
2334	0.00288374
2346	0.00681611
2358	0.00262158
2370	0.00891337
2382	0.0102242
2394	0.00209726
2406	0.00183511
2418	0.00157295
2430	0.000524316
2442	0.000655395
2454	0.000655395
2466	0.000655395
2478	0.000786474
2490	0.000917553
2502	0.00104863
2514	0.000131079
2526	0.000524316
2538	0.000786474
2550	0.00131079
2562	0.000524316
2574	0.000655395
2586	0.00131079
2598	0.000917553
2610	0.00131079
2622	0.00144187
2634	0.0024905
2646	0.00104863
2658	0.00222834
2670	0.00144187
2682	0.00209726
2694	0.00209726
2706	0.00380129
2718	0.00445669
2730	0.00799582
2742	0.00681611
2754	0.004981
2766	0.00550532
2778	0.00484992
2790	0.00694719
2802	0.00825798
2814	0.0102242
2826	0.014943
2838	0.0152052
2850	0.0179578
2862	0.0321144
2874	0.0574126
2886	0.0837595
2898	0.0989646
2910	0.119151
2922	0.13973
2934	0.201206
2946	0.249705
2958	0.186001
2970	0.263338
2982	0.571504
2994	0.506489
3006	0.1531
3018	0.130293
3030	0.0399791
3042	0.0176957
3054	0.0125836
3066	0.0106174
3078	0.0114039
3090	0.0129768
3102	0.0108796
3114	0.00930661
3126	0.00786474
3138	0.00707827
3150	0.00707827
3162	0.00642287
3174	0.00878229
3186	0.00943769
3198	0.00891337
3210	0.00956877
3222	0.00904445
3234	0.00786474
3246	0.00917553
3258	0.00642287
3270	0.00616071
3282	0.00799582
3294	0.00799582
3306	0.00865121
3318	0.00720935
3330	0.00471884
3342	0.004981
3354	0.00458777
3366	0.00419453
3378	0.00327698
3390	0.00340805
3402	0.00262158
3414	0.00288374
3426	0.00196619
3438	0.00432561
3450	0.00275266
3462	0.00655395
3474	0.00655395
3486	0.013239
3498	0.00969985
3510	0.00353913
3522	0.00196619
3534	0.00104863
3546	0.00393237
3558	0.00655395
3570	0.0205794
3582	0.0352603
3594	0.0144187
3606	0.00760258
3618	0.00380129
3630	0.00458777
3642	0.00589856
3654	0.00353913
3666	0.00393237
3678	0.00537424
3690	0.00589856
3702	0.00353913
3714	0.00799582
3726	0.00904445
3738	0.00825798
3750	0.00655395
3762	0.00616071
3774	0.00891337
3786	0.00799582
3798	0.00852013
3810	0.0100931
3822	0.00852013
3834	0.004981
3846	0.00878229
3858	0.00878229
3870	0.00681611
3882	0.00694719
3894	0.00983093
3906	0.00799582
3918	0.00838906
3930	0.00917553
3942	0.011666
3954	0.00917553
3966	0.00917553
