Infrared Spectrum: Carbonochloridic acid, ethyl ester
Formula: C 3 H 5 Cl O 2
CAS: 541-41-3
Origin: Sadtler Research Labs Under US-EPA Contract
1/CM	ABSORBANCE
450	0.00284922
462	0.00254395
474	0.00407032
486	0.00437559
498	0.0019334
510	0.00101758
522	0.000661427
534	0.000407032
546	0.000101758
558	0.00050879
570	0.000814064
582	0.000407032
594	0.00106846
606	0.00101758
618	0.000915822
630	0.000966701
642	0.00147549
654	0.00152637
666	0.00239131
678	0.00442647
690	0.00717394
702	0.00635988
714	0.00356153
726	0.00239131
738	0.00147549
750	0.00183164
762	0.00442647
774	0.00976877
786	0.011753
798	0.0100232
810	0.00910734
822	0.0120583
834	0.0223359
846	0.0369382
858	0.0331731
870	0.0106846
882	0.00437559
894	0.00234043
906	0.00264571
918	0.0019334
930	0.00183164
942	0.00127198
954	0.00137373
966	0.00178076
978	0.00213692
990	0.00325626
1002	0.00681779
1014	0.0123127
1026	0.0124654
1038	0.00585108
1050	0.00427384
1062	0.00483351
1074	0.00590196
1086	0.0102267
1098	0.0193849
1110	0.0357679
1122	0.0694498
1134	0.159862
1146	0.271643
1158	0.305325
1170	0.198988
1182	0.0810502
1194	0.0414664
1206	0.0165866
1218	0.0104302
1230	0.00737745
1242	0.00564757
1254	0.00610548
1266	0.00864943
1278	0.00900558
1290	0.00783537
1302	0.0082424
1314	0.00661427
1326	0.00457911
1338	0.0041212
1350	0.0041212
1362	0.00544405
1374	0.00859855
1386	0.00956525
1398	0.00834416
1410	0.00569845
1422	0.00417208
1434	0.0041212
1446	0.00518966
1458	0.00768273
1470	0.00753009
1482	0.00646163
1494	0.00442647
1506	0.00340889
1518	0.00198428
1530	0.00157725
1542	0.0019334
1554	0.00101758
1566	0.00106846
1578	0.00162813
1590	0.00106846
1602	0.00101758
1614	0.00101758
1626	0.0012211
1638	0.00157725
1650	0.00142461
1662	0.00117022
1674	0.00152637
1686	0.00259483
1698	0.00295098
1710	0.00351065
1722	0.00422296
1734	0.00529142
1746	0.0072757
1758	0.0165357
1770	0.0491491
1782	0.12852
1794	0.136814
1806	0.123178
1818	0.0392277
1830	0.0106337
1842	0.00437559
1854	0.00295098
1866	0.00239131
1878	0.00183164
1890	0.00137373
1902	0.000915822
1914	0.000915822
1926	0.000864943
1938	0.000864943
1950	0.000864943
1962	0.000864943
1974	0.00132285
1986	0.00132285
1998	0.00183164
2010	0.00178076
2022	0.00132285
2034	0.00137373
2046	0.000814064
2058	0.000305274
2070	0.000305274
2082	0.000356153
2094	0.000356153
2106	0.000356153
2118	0.000356153
2130	0.000356153
2142	0.000305274
2154	0.000305274
2166	0.000305274
2178	0.000305274
2190	0.000254395
2202	0.000254395
2214	0.000254395
2226	0.000254395
2238	0.000763185
2250	0.000763185
2262	0.0012211
2274	0.0012211
2286	0.0012211
2298	0.00172989
2310	0.00228955
2322	0.00274747
2334	0.00178076
2346	0.0012211
2358	0.000661427
2370	0.00111934
2382	0.000661427
2394	0.000203516
2406	0.000152637
2418	0.000152637
2430	0.000152637
2442	0.000152637
2454	0.000152637
2466	0.000203516
2478	0.000203516
2490	0.000101758
2502	0.000101758
2514	0.000152637
2526	0.000152637
2538	0.000152637
2550	0.000152637
2562	0.000101758
2574	0.000152637
2586	0.000152637
2598	0.000152637
2610	5.0879e-05
2622	0.000101758
2634	0.000101758
2646	0.000101758
2658	0.000101758
2670	0.000101758
2682	5.0879e-05
2694	5.0879e-05
2706	5.0879e-05
2718	5.0879e-05
2730	5.0879e-05
2742	5.0879e-05
2754	5.0879e-05
2766	5.0879e-05
2778	5.0879e-05
2790	5.0879e-05
2802	0.00050879
2814	0.00050879
2826	0.00050879
2838	0.000457911
2850	0.00050879
2862	0.000610548
2874	0.00147549
2886	0.00254395
2898	0.00351065
2910	0.00396856
2922	0.00447735
2934	0.00585108
2946	0.00839504
2958	0.00844591
2970	0.00763185
2982	0.0142461
2994	0.0192831
3006	0.0176041
3018	0.00956525
3030	0.00524054
3042	0.00203516
3054	0.000966701
3066	0.000457911
3078	0.00050879
3090	0.00050879
3102	5.0879e-05
3114	5.0879e-05
3126	0.000152637
3138	5.0879e-05
3150	5.0879e-05
3162	5.0879e-05
3174	5.0879e-05
3186	5.0879e-05
3198	5.0879e-05
3210	5.0879e-05
3222	5.0879e-05
3234	5.0879e-05
3246	5.0879e-05
3258	5.0879e-05
3270	5.0879e-05
3282	5.0879e-05
3294	5.0879e-05
3306	5.0879e-05
3318	5.0879e-05
3330	5.0879e-05
3342	5.0879e-05
3354	5.0879e-05
3366	5.0879e-05
3378	5.0879e-05
3390	5.0879e-05
3402	5.0879e-05
3414	5.0879e-05
3426	5.0879e-05
3438	5.0879e-05
3450	5.0879e-05
3462	5.0879e-05
3474	5.0879e-05
3486	5.0879e-05
3498	5.0879e-05
3510	5.0879e-05
3522	5.0879e-05
3534	5.0879e-05
3546	0.000457911
3558	0.00142461
3570	0.00147549
3582	0.000610548
3594	5.0879e-05
3606	5.0879e-05
3618	5.0879e-05
3630	0.000559669
3642	5.0879e-05
3654	5.0879e-05
3666	5.0879e-05
3678	0.00050879
3690	0.000559669
3702	5.0879e-05
3714	0.000407032
3726	5.0879e-05
3738	0.000457911
3750	0.000915822
3762	5.0879e-05
3774	5.0879e-05
3786	5.0879e-05
3798	0.000152637
3810	5.0879e-05
3822	0.000457911
3834	0.000457911
3846	0.000254395
3858	0.000101758
3870	0.000457911
3882	0.00050879
3894	5.0879e-05
3906	0.000152637
3918	5.0879e-05
3930	5.0879e-05
3942	5.0879e-05
3954	5.0879e-05
3966	5.0879e-05
