Infrared Spectrum: Benzene, 1,3-dichloro-
Formula: C 6 H 4 Cl 2
CAS: 541-73-1
Origin: Sadtler Research Labs Under US-EPA Contract
1/CM	ABSORBANCE
450	0.0158145
462	0.00864283
474	0.0121367
486	0.00422947
498	0.00882672
510	0.00790727
522	0.00459725
534	0.00698782
546	0.0110334
558	0.0102978
570	0.010114
582	0.0114012
594	0.0119529
606	0.0119529
618	0.0130562
630	0.0143434
642	0.0266641
654	0.070246
666	0.158697
678	0.241815
690	0.0891867
702	0.0226185
714	0.00625226
726	0.00937839
738	0.0161823
750	0.0353069
762	0.260756
774	1.03015
786	1.67138
798	0.312797
810	0.0413753
822	0.0904739
834	0.0676715
846	0.0402719
858	0.0923128
870	0.253584
882	0.12008
894	0.0145273
906	0.00165501
918	0.00312613
930	0.00239057
942	0.0055167
954	0.0123206
966	0.0191246
978	0.010114
990	0.023354
1002	0.0285029
1014	0.0158145
1026	0.00606837
1038	0.0102978
1050	0.0459725
1062	0.146193
1074	0.419821
1086	0.455863
1098	0.106105
1110	0.14748
1122	0.288891
1134	0.250274
1146	0.0424786
1158	0.0207796
1170	0.0143434
1182	0.0114012
1194	0.0165501
1206	0.0275835
1218	0.021699
1230	0.00753949
1242	0.0165501
1254	0.0411914
1266	0.00772338
1278	0.0257446
1290	0.0454208
1302	0.011769
1314	0.0112173
1326	0.0373297
1338	0.0139756
1350	0.00588448
1362	0.0055167
1374	0.0136079
1386	0.058477
1398	0.187384
1410	0.270502
1422	0.181132
1434	0.0606837
1446	0.0941517
1458	0.751007
1470	0.902164
1482	0.178925
1494	0.10684
1506	0.0834861
1518	0.0189407
1530	0.0137918
1542	0.0364102
1554	0.123574
1566	0.38764
1578	1.45806
1590	0.729492
1602	0.0454208
1614	0.0299741
1626	0.0171018
1638	0.0163662
1650	0.011769
1662	0.0362263
1674	0.0180212
1686	0.00202279
1698	0
1710	0.00698782
1722	0.0165501
1734	0.0336519
1746	0.0342035
1758	0.0137918
1770	0.0182051
1782	0.0283191
1794	0.0156306
1806	0.00809116
1818	0.00717171
1830	0.00625226
1842	0.0147112
1854	0.0342035
1866	0.0207796
1878	0.00845894
1890	0.00588448
1902	0.0119529
1914	0.0204118
1926	0.0259285
1938	0.0244574
1950	0.0112173
1962	0.00662004
1974	0.00625226
1986	0.00588448
1998	0.00441336
2010	0.00422947
2022	0.00331002
2034	0.00349391
2046	0.00312613
2058	0.00331002
2070	0.00257446
2082	0.00312613
2094	0.00239057
2106	0.00239057
2118	0.00275835
2130	0.00331002
2142	0.00275835
2154	0.0036778
2166	0.00275835
2178	0.00312613
2190	0.00349391
2202	0.00331002
2214	0.00239057
2226	0.00312613
2238	0.00404558
2250	0.00349391
2262	0.00147112
2274	0.00110334
2286	0.00165501
2298	0.00018389
2310	0.00018389
2322	0.00275835
2334	0.00349391
2346	0.00331002
2358	0.00331002
2370	0.00459725
2382	0.00331002
2394	0.00349391
2406	0.00514892
2418	0.00459725
2430	0.00202279
2442	0.0018389
2454	0.00257446
2466	0.00202279
2478	0.00202279
2490	0.00331002
2502	0.00441336
2514	0.00275835
2526	0.00202279
2538	0.00239057
2550	0.0018389
2562	0.00257446
2574	0.00404558
2586	0.00331002
2598	0.00257446
2610	0.00147112
2622	0.00239057
2634	0.00312613
2646	0.00459725
2658	0.00625226
2670	0.00533281
2682	0.00514892
2694	0.00809116
2706	0.00772338
2718	0.00349391
2730	0.00275835
2742	0.00257446
2754	0.00165501
2766	0.00165501
2778	0.00147112
2790	0.0018389
2802	0.00239057
2814	0.00459725
2826	0.00533281
2838	0.0036778
2850	0.00349391
2862	0.00404558
2874	0.0036778
2886	0.00239057
2898	0.00165501
2910	0.00202279
2922	0.00165501
2934	0.00239057
2946	0.0018389
2958	0.00147112
2970	0.00202279
2982	0.00202279
2994	0.00239057
3006	0.00606837
3018	0.0128723
3030	0.0126884
3042	0.00717171
3054	0.0128723
3066	0.0474436
3078	0.0967261
3090	0.0851411
3102	0.023354
3114	0.00514892
3126	0.00165501
3138	0.00275835
3150	0.00496503
3162	0.0055167
3174	0.00441336
3186	0.00275835
3198	0.00275835
3210	0.00239057
3222	0.00202279
3234	0.00275835
3246	0.00239057
3258	0.00239057
3270	0.00239057
3282	0.00239057
3294	0.00257446
3306	0.00312613
3318	0.00312613
3330	0.00257446
3342	0.00312613
3354	0.00275835
3366	0.00257446
3378	0.00275835
3390	0.00202279
3402	0.00257446
3414	0.00275835
3426	0.00239057
3438	0.00165501
3450	0.00202279
3462	0.0018389
3474	0.00239057
3486	0.0018389
3498	0.00202279
3510	0.00275835
3522	0.00257446
3534	0.00165501
3546	0.00110334
3558	0.00091945
3570	0.00073556
3582	0.00202279
3594	0.00073556
3606	0.0018389
3618	0.00091945
3630	0.00110334
3642	0.00165501
3654	0.00202279
3666	0.00165501
3678	0.00239057
3690	0.00275835
3702	0.00110334
3714	0.00110334
3726	0.00202279
3738	0.00331002
3750	0.00588448
3762	0.00496503
3774	0.00422947
3786	0.00202279
3798	0.0018389
3810	0.00165501
3822	0.00202279
3834	0.0018389
3846	0.0018389
3858	0.00422947
3870	0.0055167
3882	0.00331002
3894	0.00239057
3906	0.0018389
3918	0.00202279
3930	0.00073556
3942	0.00275835
3954	0.00239057
3966	0.00147112
