Infrared Spectrum: Acetic acid, chloro-, pentyl ester
Formula: C 7 H 13 Cl O 2
CAS: 5411-55-2
Origin: Sadtler Research Labs Under US-EPA Contract
1/CM	ABSORBANCE
450	0
462	0.0201676
474	0.0159218
486	0.0111861
498	0.0144521
510	0.0200043
522	0.0125741
534	0.0083283
546	0.0150236
558	0.0160851
570	0.0271895
582	0.0360893
594	0.0344563
606	0.0272711
618	0.0173098
630	0.0151053
642	0.0131457
654	0.0184529
666	0.019841
678	0.0362526
690	0.060666
702	0.0694025
714	0.0544606
726	0.050868
738	0.0436828
750	0.0516028
762	0.0510313
774	0.0613192
786	0.0768327
798	0.0956938
810	0.0637687
822	0.0335582
834	0.024495
846	0.0268629
858	0.0239235
870	0.0271895
882	0.0281693
894	0.032905
906	0.0364159
918	0.0392737
930	0.0436011
942	0.0454791
954	0.0467855
966	0.0623806
978	0.152359
990	0.254911
1002	0.21923
1014	0.127864
1026	0.122965
1038	0.140275
1050	0.128191
1062	0.0695658
1074	0.070464
1086	0.053889
1098	0.0578082
1110	0.0934893
1122	0.185672
1134	0.326355
1146	0.374202
1158	0.452749
1170	0.620213
1182	0.400983
1194	0.216046
1206	0.178977
1218	0.190489
1230	0.23752
1242	0.365139
1254	0.533338
1266	0.428254
1278	0.521335
1290	0.745954
1302	0.575469
1314	0.329376
1326	0.163055
1338	0.0925911
1350	0.0671163
1362	0.0542156
1374	0.0556037
1386	0.0762611
1398	0.0596045
1410	0.0447442
1422	0.0856509
1434	0.119372
1446	0.0776492
1458	0.10394
1470	0.120107
1482	0.0738116
1494	0.0338848
1506	0.0210657
1518	0.0148603
1530	0.0139622
1542	0.0121659
1554	0.0115943
1566	0.0104512
1578	0.0075118
1590	0.0115127
1602	0.00906315
1614	0.00628705
1626	0.0112677
1638	0.00808335
1650	0.00906315
1662	0.0124108
1674	0.0120842
1686	0.0169016
1698	0.0244134
1710	0.0444176
1722	0.0794455
1734	0.167056
1746	0.430132
1758	0.806294
1770	0.646831
1782	0.440338
1794	0.235397
1806	0.0910398
1818	0.045969
1830	0.0272711
1842	0.0197593
1854	0.0164933
1866	0.0119209
1878	0.0106962
1890	0.0106962
1902	0.0094714
1914	0.00938975
1926	0.0078384
1938	0.0075118
1950	0.0088182
1962	0.0073485
1974	0.0078384
1986	0.0076751
1998	0.0083283
2010	0.00808335
2022	0.0086549
2034	0.0078384
2046	0.00808335
2058	0.00759345
2070	0.00759345
2082	0.00677695
2094	0.00661365
2106	0.006532
2118	0.006532
2130	0.006532
2142	0.0066953
2154	0.00677695
2166	0.00661365
2178	0.0062054
2190	0.0058788
2202	0.00514395
2214	0.0052256
2226	0.00514395
2238	0.0047357
2250	0.00432745
2262	0.00367425
2274	0.00432745
2286	0.0045724
2298	0.0035926
2310	0.00318435
2322	0.00351095
2334	0.0047357
2346	0.0034293
2358	0.00285775
2370	0.00302105
2382	0.00481735
2394	0.00465405
2406	0.00481735
2418	0.0050623
2430	0.004899
2442	0.0050623
2454	0.0047357
2466	0.00481735
2478	0.0047357
2490	0.00465405
2502	0.0050623
2514	0.00514395
2526	0.0057155
2538	0.00596045
2550	0.0060421
2562	0.0062054
2574	0.0063687
2586	0.0063687
2598	0.0063687
2610	0.0060421
2622	0.0063687
2634	0.0068586
2646	0.0071852
2658	0.0075118
2670	0.00906315
2682	0.0104512
2694	0.0107778
2706	0.0105329
2718	0.0106145
2730	0.0105329
2742	0.0135539
2754	0.0148603
2766	0.0141255
2778	0.0142071
2790	0.0152686
2802	0.0173915
2814	0.021474
2826	0.0276794
2838	0.0385388
2850	0.0662998
2862	0.133579
2874	0.211065
2886	0.221108
2898	0.175058
2910	0.200206
2922	0.281121
2934	0.423437
2946	0.513334
2958	0.452178
2970	0.622173
2982	0.384082
2994	0.16232
3006	0.0825482
3018	0.0467855
3030	0.0338848
3042	0.0253932
3054	0.019841
3066	0.0159218
3078	0.0150236
3090	0.0133906
3102	0.0122475
3114	0.0122475
3126	0.011676
3138	0.0107778
3150	0.0104512
3162	0.0105329
3174	0.0103695
3186	0.0101246
3198	0.00922645
3210	0.0089815
3222	0.00840995
3234	0.0084916
3246	0.0075118
3258	0.0073485
3270	0.00759345
3282	0.0068586
3294	0.00824665
3306	0.00743015
3318	0.0080017
3330	0.00775675
3342	0.00840995
3354	0.0075118
3366	0.00873655
3378	0.00759345
3390	0.0076751
3402	0.0080017
3414	0.00906315
3426	0.00873655
3438	0.0088182
3450	0.00889985
3462	0.0102063
3474	0.0106962
3486	0.0131457
3498	0.0144521
3510	0.0119209
3522	0.0111861
3534	0.0102879
3546	0.0106962
3558	0.0084916
3570	0.0093081
3582	0.0066953
3594	0.00922645
3606	0.00645035
3618	0.00563385
3630	0.0102063
3642	0.0073485
3654	0.0131457
3666	0.00824665
3678	0.00579715
3690	0.00873655
3702	0.00971635
3714	0.00955305
3726	0.00579715
3738	0.00677695
3750	0.0136356
3762	0.008165
3774	0.0068586
3786	0.0083283
3798	0.00906315
3810	0.00726685
3822	0.011431
3834	0.0071852
3846	0.0117576
3858	0.00743015
3870	0.00645035
3882	0.0141255
3894	0.0042458
3906	0.0108595
3918	0.00971635
3930	0.0050623
3942	0.00792005
3954	0.0111044
3966	0.0121659
