Infrared Spectrum: Benzene, 1,2,3-trichloro-4-methoxy-
Formula: C 7 H 5 Cl 3 O
CAS: 54135-80-7
Origin: Sadtler Research Labs Under US-EPA Contract
1/CM	ABSORBANCE
450	0
462	0.081415
474	0.0313934
486	0.0468303
498	0.0606345
510	0.0587049
522	0.0544745
534	0.0378502
546	0.0531387
558	0.0418578
570	0.0445296
582	0.056701
594	0.048092
606	0.0532129
618	0.045346
630	0.0455686
642	0.0492052
654	0.0569979
666	0.147022
678	0.12216
690	0.0537324
702	0.0447522
714	0.0403735
726	0.0431937
738	0.0441585
750	0.0489826
762	0.0637515
774	0.205356
786	0.271927
798	0.182571
810	0.13485
822	0.0822313
834	0.0580369
846	0.047424
858	0.0513575
870	0.0739191
882	0.12728
894	0.0921021
906	0.0505411
918	0.0479435
930	0.044307
942	0.0434906
954	0.0438617
966	0.0409672
978	0.047424
990	0.0543261
1002	0.0809697
1014	0.129878
1026	0.197711
1038	0.25894
1050	0.311781
1062	0.291892
1074	0.0954418
1086	0.129136
1098	0.203129
1110	0.104348
1122	0.0564784
1134	0.0554394
1146	0.0595212
1158	0.0593728
1170	0.0823055
1182	0.123124
1194	0.0734738
1206	0.0565526
1218	0.0690951
1230	0.0844578
1242	0.127726
1254	0.199938
1266	0.317496
1278	0.500067
1290	0.429265
1302	0.150362
1314	0.0751808
1326	0.0549198
1338	0.0526191
1350	0.0656812
1362	0.105164
1374	0.167209
1386	0.134628
1398	0.0805986
1410	0.0894303
1422	0.285435
1434	0.74216
1446	0.376943
1458	0.537695
1470	0.411973
1482	0.108801
1494	0.0715442
1506	0.058408
1518	0.0506895
1530	0.051209
1542	0.0586306
1554	0.0880944
1566	0.174408
1578	0.194372
1590	0.108504
1602	0.067017
1614	0.0489083
1626	0.0429711
1638	0.0411899
1650	0.0423773
1662	0.0374049
1674	0.0400766
1686	0.0407446
1698	0.0412641
1710	0.0423773
1722	0.038815
1734	0.0376275
1746	0.0362174
1758	0.0347331
1770	0.0358463
1782	0.0339909
1794	0.0358463
1806	0.0351784
1818	0.0359205
1830	0.0404477
1842	0.040893
1854	0.0405962
1866	0.0384439
1878	0.0372564
1890	0.0359948
1902	0.0356237
1914	0.0379244
1926	0.0391118
1938	0.041561
1950	0.0417836
1962	0.0393345
1974	0.0373306
1986	0.0349557
1998	0.0349557
2010	0.0348073
2022	0.03503
2034	0.0368111
2046	0.036069
2058	0.0362916
2070	0.0348073
2082	0.0351042
2094	0.0361432
2106	0.0374049
2118	0.0373306
2130	0.0370338
2142	0.0385181
2154	0.0404477
2166	0.0402993
2178	0.0359205
2190	0.0330261
2202	0.033323
2214	0.0330261
2226	0.0334714
2238	0.0338425
2250	0.0334714
2262	0.0335456
2274	0.0324324
2286	0.032284
2298	0.0301317
2310	0.0294638
2322	0.0313934
2334	0.0328777
2346	0.0373306
2358	0.0315418
2370	0.0394087
2382	0.0351042
2394	0.0307254
2406	0.0314676
2418	0.0313192
2430	0.0328035
2442	0.0337683
2454	0.0330261
2466	0.0341394
2478	0.0320613
2490	0.0331003
2502	0.033323
2514	0.0337683
2526	0.0372564
2538	0.0374049
2550	0.0374791
2562	0.0356979
2574	0.0342878
2586	0.0337683
2598	0.0321355
2610	0.0337683
2622	0.0328777
2634	0.032655
2646	0.0337683
2658	0.0317644
2670	0.0327293
2682	0.0319129
2694	0.0319871
2706	0.0331003
2718	0.0325066
2730	0.0345104
2742	0.0339909
2754	0.0345847
2766	0.0345104
2778	0.0336198
2790	0.0368111
2802	0.0375533
2814	0.0404477
2826	0.0467561
2838	0.0680561
2850	0.091731
2862	0.0701341
2874	0.0607829
2886	0.05774
2898	0.0631578
2910	0.0709505
2922	0.0716184
2934	0.0788916
2946	0.147393
2958	0.1278
2970	0.105164
2982	0.0753292
2994	0.0645679
3006	0.0761456
3018	0.105832
3030	0.0631578
3042	0.0459397
3054	0.0423773
3066	0.0448265
3078	0.0509864
3090	0.0451233
3102	0.0396313
3114	0.0377017
3126	0.0363658
3138	0.0363658
3150	0.0342136
3162	0.0352526
3174	0.0337683
3186	0.0339167
3198	0.0344362
3210	0.0323582
3222	0.0358463
3234	0.0328777
3246	0.0344362
3258	0.0342136
3270	0.0325066
3282	0.0352526
3294	0.0319871
3306	0.0336941
3318	0.0341394
3330	0.032284
3342	0.0347331
3354	0.0322097
3366	0.0339167
3378	0.0338425
3390	0.0319871
3402	0.0347331
3414	0.0325808
3426	0.0345847
3438	0.0334714
3450	0.0323582
3462	0.0351042
3474	0.031616
3486	0.0338425
3498	0.0336198
3510	0.0324324
3522	0.0334714
3534	0.0311707
3546	0.0331746
3558	0.0331003
3570	0.033323
3582	0.034362
3594	0.0311707
3606	0.0336941
3618	0.0312449
3630	0.0352526
3642	0.0331746
3654	0.0342878
3666	0.0333972
3678	0.0320613
3690	0.0330261
3702	0.0331746
3714	0.0325808
3726	0.0317644
3738	0.029538
3750	0.0365143
3762	0.0311707
3774	0.0296122
3786	0.0307254
3798	0.0297606
3810	0.0313934
3822	0.0339167
3834	0.0302059
3846	0.0347331
3858	0.0324324
3870	0.0313934
3882	0.029909
3894	0.0302801
3906	0.0330261
3918	0.0317644
3930	0.0330261
3942	0.0293895
3954	0.0310223
3966	0.0338425
