Infrared Spectrum: Methane, oxybis[chloro-
Formula: C 2 H 4 Cl 2 O
CAS: 542-88-1
Origin: Sadtler Research Labs Under US-EPA Contract
1/CM	ABSORBANCE
450	0.000444726
462	0.0148242
474	0.0217916
486	0.0250529
498	0.0185303
510	0.0171961
522	0.0213468
534	0.0207539
546	0.0171961
558	0.0201609
570	0.0195679
582	0.0211986
594	0.0213468
606	0.0320203
618	0.036171
630	0.047141
642	0.0499576
654	0.0656712
666	0.120076
678	0.353705
690	0.835344
702	0.841422
714	0.451249
726	0.199385
738	0.0970985
750	0.0634476
762	0.0432867
774	0.0329097
786	0.0271283
798	0.0305379
810	0.0256459
822	0.0198644
834	0.0148242
846	0.0133418
858	0.0151207
870	0.0148242
882	0.0166031
894	0.0219398
906	0.0360228
918	0.0791612
930	0.154172
942	0.179966
954	0.158471
966	0.103769
978	0.0892417
990	0.0506988
1002	0.0323168
1014	0.0425455
1026	0.0683396
1038	0.0864251
1050	0.167069
1062	0.146167
1074	0.101546
1086	0.242524
1098	0.963277
1110	1.48242
1122	0.707114
1134	0.101842
1146	0.055146
1158	0.0581109
1170	0.0799024
1182	0.0493646
1194	0.0376535
1206	0.0235705
1218	0.0295002
1230	0.19731
1242	0.2277
1254	0.0828673
1266	0.0360228
1278	0.0400253
1290	0.0383947
1302	0.0475857
1314	0.0996186
1326	0.166772
1338	0.142164
1350	0.064337
1362	0.0297966
1374	0.0201609
1386	0.0174926
1398	0.0163066
1410	0.0157137
1422	0.0124523
1434	0.0127488
1446	0.0213468
1458	0.0407666
1470	0.0403218
1482	0.0244599
1494	0.01349
1506	0.0100805
1518	0.00711562
1530	0.00874628
1542	0.00518847
1554	0.00548495
1566	0.00785683
1578	0.009191
1590	0.00726386
1602	0.0056332
1614	0.00726386
1626	0.00756034
1638	0.00726386
1650	0.00444726
1662	0.00785683
1674	0.0056332
1686	0.00607792
1698	0.00696737
1710	0.0109699
1722	0.00963573
1734	0.00681913
1746	0.0124523
1758	0.00756034
1770	0.00948749
1782	0.00874628
1794	0.00859804
1806	0.00800507
1818	0.00681913
1830	0.00607792
1842	0.00533671
1854	0.00622616
1866	0.00548495
1878	0.00667089
1890	0.00533671
1902	0.00533671
1914	0.00533671
1926	0.00548495
1938	0.0045955
1950	0.00489199
1962	0.00444726
1974	0.00667089
1986	0.00592968
1998	0.00681913
2010	0.0111182
2022	0.0194197
2034	0.0333545
2046	0.0309826
2058	0.0123041
2070	0.00770858
2082	0.00578144
2094	0.00444726
2106	0.00504023
2118	0.00785683
2130	0.0115629
2142	0.0105252
2154	0.00637441
2166	0.00830155
2178	0.00770858
2190	0.00681913
2202	0.00518847
2214	0.00548495
2226	0.00429902
2238	0.00340957
2250	0.00548495
2262	0.00518847
2274	0.00444726
2286	0.00548495
2298	0.00770858
2310	0.00800507
2322	0.00859804
2334	0.0111182
2346	0.0136383
2358	0.00696737
2370	0.0139347
2382	0.0114146
2394	0.00622616
2406	0.00518847
2418	0.00444726
2430	0.0045955
2442	0.0045955
2454	0.00385429
2466	0.00207539
2478	0.00222363
2490	0.00207539
2502	0.00192715
2514	0.00207539
2526	0.000889452
2538	0.00192715
2550	0.00074121
2562	0.000889452
2574	0.00163066
2586	0.00266836
2598	0.00311308
2610	0.00252011
2622	0.00163066
2634	0.00207539
2646	0.00444726
2658	0.00385429
2670	0.00266836
2682	0.00311308
2694	0.00518847
2706	0.00518847
2718	0.0056332
2730	0.00711562
2742	0.00622616
2754	0.00948749
2766	0.00756034
2778	0.00889452
2790	0.0100805
2802	0.014676
2814	0.0102287
2826	0.00978397
2838	0.00667089
2850	0.0074121
2862	0.00785683
2874	0.00993221
2886	0.0182338
2898	0.0290554
2910	0.0335027
2922	0.0247564
2934	0.0197162
2946	0.0249047
2958	0.0423972
2970	0.0729351
2982	0.079013
2994	0.0532189
3006	0.0220881
3018	0.0158619
3030	0.0216433
3042	0.0286107
3054	0.0217916
3066	0.0121558
3078	0.00400253
3090	0.00385429
3102	0.00385429
3114	0.00296484
3126	0.0017789
3138	0.00222363
3150	0.00237187
3162	0.00163066
3174	0.00237187
3186	0.000296484
3198	0.00133418
3210	0.00207539
3222	0.00311308
3234	0.00192715
3246	0.000889452
3258	0.00192715
3270	0.00118594
3282	0.0028166
3294	0.000889452
3306	0.00237187
3318	0.00222363
3330	0.00400253
3342	0.00222363
3354	0.00103769
3366	0.00103769
3378	0.00163066
3390	0.00252011
3402	0.00326132
3414	0.00504023
3426	0.00489199
3438	0.0017789
3450	0.00118594
3462	0.00222363
3474	0.00504023
3486	0.00400253
3498	0.00222363
3510	0.00400253
3522	0.00400253
3534	0.00326132
3546	0.00266836
3558	0.00326132
3570	0.00444726
3582	0.000889452
3594	0.000296484
3606	0.0028166
3618	0.0028166
3630	0.000592968
3642	0.00296484
3654	0.00504023
3666	0.000444726
3678	0.00266836
3690	0.00311308
3702	0.00578144
3714	0.00444726
3726	0.00133418
3738	0.00222363
3750	0.000889452
3762	0.00222363
3774	0.00133418
3786	0.00311308
3798	0
3810	0.00266836
3822	0.00340957
3834	0.0028166
3846	0.00074121
3858	0.00252011
3870	0.00118594
3882	0.000444726
3894	0.000148242
3906	0.00429902
3918	0.00340957
3930	0.00074121
3942	0.00311308
3954	0.00296484
3966	0.00474374
