Infrared Spectrum: Cyclohexane, chloro-
Formula: C 6 H 11 Cl
CAS: 542-18-7
Origin: Sadtler Research Labs Under US-EPA Contract
1/CM	ABSORBANCE
450	0.00449163
462	0.0054776
474	0.00405342
486	0.00213626
498	0.00290313
510	0.00816162
522	0.00597058
534	0.00186238
546	0.00542282
558	0.0112291
570	0.00975013
582	0.00339611
594	0.00230059
606	0.00241014
618	0.00142418
630	0.00197194
642	0.00191716
654	0.00230059
666	0.00482029
678	0.0140774
690	0.0213626
702	0.0115577
714	0.00564193
726	0.0289765
738	0.0586651
750	0.0324274
762	0.00235537
774	0.00224582
786	0.00306746
798	0.0082164
810	0.0334681
822	0.0348923
834	0.00788774
846	0.0131462
858	0.0226773
870	0.0224582
882	0.0288122
894	0.0274428
906	0.00460118
918	0.00383432
930	0.00361522
942	0.00301268
954	0.00290313
966	0.00383432
978	0.0114482
990	0.027881
1002	0.0251422
1014	0.0144061
1026	0.013201
1038	0.00580626
1050	0.00290313
1062	0.00328656
1074	0.00443686
1086	0.00657312
1098	0.00723043
1110	0.0056967
1122	0.00460118
1134	0.00580626
1146	0.00482029
1158	0.00279358
1170	0.00235537
1182	0.0025197
1194	0.00328656
1206	0.0160494
1218	0.0290313
1230	0.0139131
1242	0.00514894
1254	0.0223486
1266	0.0512156
1278	0.0372477
1290	0.00805207
1302	0.00334134
1314	0.00531327
1326	0.00766864
1338	0.0158303
1350	0.0206506
1362	0.0105718
1374	0.00443686
1386	0.00235537
1398	0.0025197
1410	0.00290313
1422	0.00575148
1434	0.0205958
1446	0.0529684
1458	0.0655669
1470	0.0347828
1482	0.00892849
1494	0.00235537
1506	0.00175283
1518	0.00147895
1530	0.00131462
1542	5.4776e-05
1554	0.00147895
1566	0.00131462
1578	0.000985968
1590	0.0011503
1602	0.000985968
1614	0.000931192
1626	0.00147895
1638	0.000876416
1650	0.00147895
1662	0.00054776
1674	0.000985968
1686	0.000657312
1698	0.000985968
1710	0.00104074
1722	0.00120507
1734	0.00109552
1746	0.00142418
1758	0.00125985
1770	0.000931192
1782	0.000876416
1794	0.000657312
1806	0.000931192
1818	0.000876416
1830	0.00054776
1842	0.000712088
1854	0.000712088
1866	0.000876416
1878	0.000712088
1890	0.000876416
1902	0.000712088
1914	0.000766864
1926	0.000712088
1938	0.000712088
1950	0.000657312
1962	0.000602536
1974	0.000657312
1986	0.000602536
1998	0.000657312
2010	0.00054776
2022	0.000657312
2034	0.00054776
2046	0.00054776
2058	0.000602536
2070	0.00054776
2082	0.000602536
2094	0.00054776
2106	0.00054776
2118	0.000602536
2130	0.000492984
2142	0.000492984
2154	0.00104074
2166	0.000712088
2178	0.000985968
2190	0.00104074
2202	0.000985968
2214	0.000931192
2226	0.000985968
2238	0.000931192
2250	0.000985968
2262	0.000438208
2274	0.000438208
2286	0.000438208
2298	0.000164328
2310	5.4776e-05
2322	5.4776e-05
2334	5.4776e-05
2346	0.000383432
2358	0.000109552
2370	0.0011503
2382	0.00120507
2394	0.00054776
2406	0.000492984
2418	0.000931192
2430	0.00104074
2442	0.00054776
2454	0.00054776
2466	0.00054776
2478	0.0013694
2490	0.00153373
2502	0.000985968
2514	0.00109552
2526	0.000985968
2538	0.0011503
2550	0.0011503
2562	0.00109552
2574	0.00104074
2586	0.00142418
2598	0.00208149
2610	0.00208149
2622	0.00219104
2634	0.00213626
2646	0.00312223
2658	0.00509417
2670	0.00558715
2682	0.00465596
2694	0.00361522
2706	0.00268402
2718	0.00241014
2730	0.00175283
2742	0.000876416
2754	0.00082164
2766	0.00104074
2778	0.00284835
2790	0.00575148
2802	0.00640879
2814	0.00618969
2826	0.00668267
2838	0.0141322
2850	0.0492436
2862	0.12834
2874	0.144335
2886	0.0765221
2898	0.0518181
2910	0.0653478
2922	0.115961
2934	0.295078
2946	0.51714
2958	0.411806
2970	0.158686
2982	0.0365904
2994	0.00575148
3006	0.00306746
3018	0.00235537
3030	0.00235537
3042	0.00257447
3054	0.00169806
3066	0.00268402
3078	0.00290313
3090	0.00290313
3102	0.00224582
3114	0.00142418
3126	0.00197194
3138	0.00208149
3150	0.00279358
3162	0.00241014
3174	0.00142418
3186	0.0013694
3198	0.00164328
3210	0.0015885
3222	0.0015885
3234	0.00164328
3246	0.00164328
3258	0.00175283
3270	0.00164328
3282	0.00169806
3294	0.00142418
3306	0.000657312
3318	0.000876416
3330	0.00180761
3342	0.00142418
3354	0.0015885
3366	0.00131462
3378	0.00147895
3390	0.00186238
3402	0.00175283
3414	0.00153373
3426	0.00208149
3438	0.00202671
3450	0.00257447
3462	0.00213626
3474	0.00202671
3486	0.000712088
3498	0.00109552
3510	0.00224582
3522	0.00197194
3534	0.00224582
3546	0.00104074
3558	0.00191716
3570	0.00241014
3582	0.00125985
3594	0.00202671
3606	0.00104074
3618	0.00120507
3630	0.0013694
3642	0.00164328
3654	0.00241014
3666	0.00164328
3678	0.0013694
3690	0.0013694
3702	0.00147895
3714	0.00142418
3726	0.00208149
3738	0.00131462
3750	0.00109552
3762	0.00191716
3774	0.00191716
3786	0.00125985
3798	0.0015885
3810	0.00284835
3822	0.0015885
3834	0.00153373
3846	0.00175283
3858	0.00208149
3870	0.00219104
3882	0.00224582
3894	0.00169806
3906	0.00262925
3918	0.00202671
3930	0.00246492
3942	0.0029579
3954	0.00213626
3966	0.00197194
