Infrared Spectrum: Ethanol, 2-chloro-, acetate
Formula: C 4 H 7 Cl O 2
CAS: 542-58-5
Origin: Sadtler Research Labs Under US-EPA Contract
1/CM	ABSORBANCE
450	0
462	0.0432803
474	0.070202
486	0.0602933
498	0.0566477
510	0.0557129
522	0.061789
534	0.0636585
546	0.0616955
558	0.0505716
570	0.0541238
582	0.0659955
594	0.0573955
606	0.059639
618	0.0530955
630	0.070015
642	0.078428
654	0.0644998
666	0.0541238
678	0.0709498
690	0.0908606
702	0.0463651
714	0.0388868
726	0.0336521
738	0.0386999
750	0.0579564
762	0.0651542
774	0.0622563
786	0.0577694
798	0.0501977
810	0.0565542
822	0.0516933
834	0.0505716
846	0.0571151
858	0.0562738
870	0.0578629
882	0.0578629
894	0.0642194
906	0.0694542
918	0.0746889
930	0.0780541
942	0.078428
954	0.0712302
966	0.0755302
978	0.0821672
990	0.0854389
1002	0.0867476
1014	0.097591
1026	0.140871
1038	0.208362
1050	0.212569
1062	0.171906
1074	0.175926
1086	0.172093
1098	0.109089
1110	0.0719781
1122	0.0597324
1134	0.0651542
1146	0.0741281
1158	0.0855324
1170	0.104321
1182	0.123578
1194	0.156108
1206	0.274825
1218	0.630416
1230	0.93478
1242	0.549557
1254	0.206306
1266	0.152556
1278	0.128439
1290	0.100021
1302	0.100582
1314	0.0884302
1326	0.0631911
1338	0.053189
1350	0.0611346
1362	0.118063
1374	0.170504
1386	0.169569
1398	0.130121
1410	0.0754367
1422	0.0643129
1434	0.0845976
1446	0.0874019
1458	0.0800172
1470	0.0623498
1482	0.0529085
1494	0.0486086
1506	0.046552
1518	0.0452434
1530	0.0451499
1542	0.0440281
1554	0.0432803
1566	0.0437477
1578	0.0422521
1590	0.0431868
1602	0.0423455
1614	0.0416912
1626	0.0437477
1638	0.0427194
1650	0.0415042
1662	0.044776
1674	0.0446825
1686	0.0479542
1698	0.051039
1710	0.0541238
1722	0.0624433
1734	0.0840367
1746	0.163119
1758	0.385877
1770	0.574142
1782	0.442618
1794	0.231358
1806	0.157043
1818	0.0843172
1830	0.0534694
1842	0.0472999
1854	0.0459912
1866	0.0419716
1878	0.0418781
1890	0.0415977
1902	0.0407564
1914	0.0401955
1926	0.0389803
1938	0.0391673
1950	0.0384195
1962	0.038326
1974	0.0384195
1986	0.0384195
1998	0.0390738
2010	0.0394477
2022	0.0401955
2034	0.040476
2046	0.0400086
2058	0.0393542
2070	0.0398216
2082	0.0386999
2094	0.0379521
2106	0.0372042
2118	0.0375782
2130	0.0373912
2142	0.0372977
2154	0.0370173
2166	0.0362695
2178	0.0368303
2190	0.0362695
2202	0.0365499
2214	0.0362695
2226	0.0363629
2238	0.0363629
2250	0.0358956
2262	0.0351477
2274	0.0354282
2286	0.0345869
2298	0.0333716
2310	0.032063
2322	0.0304738
2334	0.032063
2346	0.0325303
2358	0.0315956
2370	0.0345869
2382	0.033839
2394	0.0339325
2406	0.0335586
2418	0.0331847
2430	0.0331847
2442	0.0337456
2454	0.0339325
2466	0.0335586
2478	0.0329977
2490	0.0326238
2502	0.0325303
2514	0.0323434
2526	0.0322499
2538	0.0315021
2550	0.0317825
2562	0.0315956
2574	0.0327173
2586	0.0324369
2598	0.0328108
2610	0.0323434
2622	0.0326238
2634	0.0328108
2646	0.0329043
2658	0.0332782
2670	0.0328108
2682	0.0327173
2694	0.0331847
2706	0.033839
2718	0.0336521
2730	0.0342129
2742	0.0339325
2754	0.0342129
2766	0.0336521
2778	0.0330912
2790	0.033839
2802	0.0332782
2814	0.0341195
2826	0.0351477
2838	0.0363629
2850	0.0391673
2862	0.0432803
2874	0.0470194
2886	0.0511325
2898	0.0520672
2910	0.0514129
2922	0.0524412
2934	0.0605737
2946	0.0753433
2958	0.0912345
2970	0.0953476
2982	0.093291
2994	0.0722585
3006	0.0607607
3018	0.0566477
3030	0.0506651
3042	0.0458977
3054	0.0425325
3066	0.0409434
3078	0.0401021
3090	0.0373912
3102	0.0366434
3114	0.0346803
3126	0.0343999
3138	0.0336521
3150	0.0333716
3162	0.0339325
3174	0.032063
3186	0.0327173
3198	0.032063
3210	0.0323434
3222	0.0327173
3234	0.0323434
3246	0.0328108
3258	0.0319695
3270	0.0315956
3282	0.0333716
3294	0.0328108
3306	0.0324369
3318	0.0327173
3330	0.031689
3342	0.0325303
3354	0.0319695
3366	0.0330912
3378	0.0327173
3390	0.0328108
3402	0.0329977
3414	0.031876
3426	0.0330912
3438	0.0321564
3450	0.0337456
3462	0.0339325
3474	0.0330912
3486	0.0329043
3498	0.0347738
3510	0.0347738
3522	0.0346803
3534	0.0334651
3546	0.0319695
3558	0.0392608
3570	0.0427194
3582	0.0486086
3594	0.0429999
3606	0.0373912
3618	0.0326238
3630	0.0322499
3642	0.0334651
3654	0.0343064
3666	0.034026
3678	0.0341195
3690	0.0326238
3702	0.0311282
3714	0.0321564
3726	0.031876
3738	0.0329977
3750	0.0343064
3762	0.0333716
3774	0.0332782
3786	0.0319695
3798	0.0330912
3810	0.0306608
3822	0.0333716
3834	0.032063
3846	0.0321564
3858	0.0326238
3870	0.0342129
3882	0.0356151
3894	0.0341195
3906	0.0315956
3918	0.0325303
3930	0.0324369
3942	0.0323434
3954	0.0339325
3966	0.0339325
