Infrared Spectrum: Formic acid, 2-methylpropyl ester
Formula: C 5 H 10 O 2
CAS: 542-55-2
Origin: Sadtler Research Labs Under US-EPA Contract
1/CM	ABSORBANCE
450	0.00372047
462	0.00303712
474	0.00888358
486	0.00690945
498	0.00197413
510	0.0051631
522	0.00637795
534	0.000835208
546	0.00402418
558	0.00607424
570	0.00918729
582	0.0102503
594	0.0119966
606	0.0138189
618	0.0123003
630	0.0148819
642	0.0197413
654	0.0142745
666	0.0100984
678	0.0130596
690	0.0123763
702	0.0106299
714	0.00903543
726	0.00956693
738	0.0135152
750	0.0178431
762	0.016856
774	0.0132115
786	0.0102503
798	0.0107058
810	0.0143504
822	0.0154893
834	0.0129078
846	0.0132115
858	0.0100984
870	0.0141985
882	0.0207283
894	0.029536
906	0.033788
918	0.0318898
930	0.0385714
942	0.0427475
954	0.0479865
966	0.0510236
978	0.0396344
990	0.0245247
1002	0.0239173
1014	0.028473
1026	0.045329
1038	0.0587683
1050	0.0597553
1062	0.0425197
1074	0.033712
1086	0.0433549
1098	0.0469994
1110	0.0596794
1122	0.0933914
1134	0.141909
1146	0.306369
1158	0.603552
1170	0.747663
1182	0.625039
1194	0.369086
1206	0.138796
1218	0.0684871
1230	0.0469235
1242	0.0387233
1254	0.0346232
1266	0.0339398
1278	0.0376603
1290	0.039027
1302	0.029536
1314	0.0217913
1326	0.0217913
1338	0.0243729
1350	0.02536
1362	0.0342435
1374	0.0471513
1386	0.0561108
1398	0.046392
1410	0.0272582
1422	0.0139708
1434	0.0144263
1446	0.0261952
1458	0.0501884
1470	0.0725112
1482	0.0592238
1494	0.0291564
1506	0.0133633
1518	0.00911136
1530	0.00690945
1542	0.00645388
1554	0.00668166
1566	0.00584646
1578	0.00584646
1590	0.00577053
1602	0.00577053
1614	0.00584646
1626	0.00607424
1638	0.00698538
1650	0.00797244
1662	0.00850394
1674	0.00994657
1686	0.0142745
1698	0.0258155
1710	0.0488976
1722	0.103034
1734	0.294145
1746	0.747663
1758	0.741513
1770	0.194907
1782	0.0913414
1794	0.0772947
1806	0.0300675
1818	0.0115411
1830	0.00774466
1842	0.0062261
1854	0.00478346
1866	0.00410011
1878	0.00349269
1890	0.00440382
1902	0.00440382
1914	0.00501125
1926	0.00554274
1938	0.0043279
1950	0.00387233
1962	0.00288526
1974	0.00235377
1986	0.00273341
1998	0.00265748
2010	0.00265748
2022	0.00303712
2034	0.00402418
2046	0.00523903
2058	0.00599831
2070	0.00599831
2082	0.00592238
2094	0.00637795
2106	0.00584646
2118	0.00508718
2130	0.00372047
2142	0.00303712
2154	0.00265748
2166	0.00258155
2178	0.00258155
2190	0.0024297
2202	0.00250562
2214	0.00212598
2226	0.0018982
2238	0.00129078
2250	0.00174634
2262	0.00167042
2274	0.00250562
2286	0.00311305
2298	0.00455568
2310	0.0062261
2322	0.00637795
2334	0.00645388
2346	0.00698538
2358	0.00683352
2370	0.00372047
2382	0.00280934
2394	0.00167042
2406	0.00159449
2418	0.00151856
2430	0.0013667
2442	0.000987064
2454	0.000455568
2466	0.000531496
2478	0.000455568
2490	0.00075928
2502	0.00075928
2514	0.00075928
2526	0.000683352
2538	0.00037964
2550	0.000531496
2562	0.000607424
2574	0.000607424
2586	0.00113892
2598	0.00106299
2610	0.00121485
2622	0.00121485
2634	0.00129078
2646	0.00174634
2658	0.00174634
2670	0.00174634
2682	0.00235377
2694	0.0024297
2706	0.00303712
2718	0.00577053
2730	0.00850394
2742	0.009491
2754	0.00804837
2766	0.0075928
2778	0.0070613
2790	0.00713723
2802	0.0081243
2814	0.010554
2826	0.0135152
2838	0.0167042
2850	0.0246007
2862	0.0400141
2874	0.0798003
2886	0.125509
2898	0.154362
2910	0.17547
2922	0.224519
2934	0.228391
2946	0.204094
2958	0.244184
2970	0.342967
2982	0.294677
2994	0.126192
3006	0.0325731
3018	0.0127559
3030	0.00827615
3042	0.00668166
3054	0.00561867
3066	0.00615017
3078	0.00607424
3090	0.00577053
3102	0.00577053
3114	0.00782058
3126	0.00721316
3138	0.00501125
3150	0.00341676
3162	0.0043279
3174	0.0043279
3186	0.00493532
3198	0.0043279
3210	0.00349269
3222	0.00250562
3234	0.00151856
3246	0.00174634
3258	0.00151856
3270	0.00151856
3282	0.000151856
3294	0.00113892
3306	0.000911136
3318	0.00151856
3330	0.00121485
3342	0.00167042
3354	0.00235377
3366	0.00121485
3378	0.0018982
3390	0.00129078
3402	0.00144263
3414	0.00144263
3426	0.00235377
3438	0.0018982
3450	0.00265748
3462	0.00485939
3474	0.00903543
3486	0.00964286
3498	0.00493532
3510	0.0032649
3522	0.00364454
3534	0.00402418
3546	0.00577053
3558	0.00447975
3570	0.00372047
3582	0.00417604
3594	0.00478346
3606	0.00364454
3618	0.00318898
3630	0.00425197
3642	0.00470754
3654	0.00698538
3666	0.00964286
3678	0.00918729
3690	0.00675759
3702	0.00303712
3714	0.00197413
3726	0.00205006
3738	0.00205006
3750	0.00212598
3762	0.00212598
3774	0.00258155
3786	0.00273341
3798	0.00235377
3810	0.00265748
3822	0.00318898
3834	0.00318898
3846	0.00402418
3858	0.00288526
3870	0.00334083
3882	0.00349269
3894	0.00296119
3906	0.0024297
3918	0.00250562
3930	0.0013667
3942	0.00258155
3954	0
3966	0.000151856
