Infrared Spectrum: Isoamyl mandelate
Formula: C 13 H 18 O 3
CAS: 5421-04-5
Origin: Sadtler Research Labs Under US-EPA Contract
1/CM	ABSORBANCE
450	0
462	0.0209901
474	0.0205864
486	0.0210708
498	0.0255917
510	0.0335034
522	0.0314044
534	0.0209093
546	0.0171957
558	0.0106565
570	0.00718506
582	0.0165499
594	0.0272063
606	0.0293861
618	0.028821
630	0.0194562
642	0.0137243
654	0.0169535
666	0.0280137
678	0.0538476
690	0.133125
702	0.142167
714	0.0814576
726	0.0963121
738	0.131188
750	0.0584492
762	0.0433525
774	0.0379436
786	0.0374592
798	0.0269642
810	0.0169535
822	0.0159847
834	0.0145316
846	0.0106565
858	0.00960699
870	0.0107372
882	0.0144508
894	0.0199406
906	0.028821
918	0.0434333
930	0.0469047
942	0.0527981
954	0.0712855
966	0.0962314
978	0.10382
990	0.084929
1002	0.0827493
1014	0.0726579
1026	0.090338
1038	0.100994
1050	0.141602
1062	0.222898
1074	0.224674
1086	0.236138
1098	0.267381
1110	0.228711
1122	0.139584
1134	0.0917104
1146	0.100591
1158	0.158959
1170	0.283043
1182	0.509332
1194	0.474295
1206	0.499483
1218	0.395986
1230	0.313963
1242	0.36337
1254	0.464849
1266	0.422223
1278	0.377337
1290	0.281105
1302	0.168566
1314	0.111893
1326	0.0808925
1338	0.0714469
1350	0.0724964
1362	0.0736267
1374	0.0992184
1386	0.10826
1398	0.0833951
1410	0.0495688
1422	0.0342299
1434	0.0400426
1446	0.0610326
1458	0.110521
1470	0.11932
1482	0.0749184
1494	0.0668453
1506	0.0348758
1518	0.0120289
1530	0.0110601
1542	0.00775018
1554	0.00831529
1566	0.00960699
1578	0.0111409
1590	0.0145316
1602	0.0230083
1614	0.0145316
1626	0.00863822
1638	0.00855749
1650	0.0109794
1662	0.0128362
1674	0.015904
1686	0.0214744
1698	0.0359253
1710	0.0576419
1722	0.0854941
1734	0.240013
1746	0.80731
1758	0.452497
1770	0.17777
1782	0.0721735
1794	0.0490037
1806	0.0352794
1818	0.0210708
1830	0.0141279
1842	0.0114638
1854	0.0121904
1866	0.012917
1878	0.0137243
1890	0.0131592
1902	0.0121096
1914	0.00968772
1926	0.0102528
1938	0.0145316
1950	0.015016
1962	0.0138857
1974	0.00839602
1986	0.00775018
1998	0.00750798
2010	0.00734652
2022	0.00726579
2034	0.00775018
2046	0.00783091
2058	0.0080731
2070	0.00775018
2082	0.00799237
2094	0.00831529
2106	0.00879968
2118	0.00888041
2130	0.00944553
2142	0.00904187
2154	0.0093648
2166	0.0093648
2178	0.00888041
2190	0.00847675
2202	0.00871895
2214	0.00855749
2226	0.00823456
2238	0.0080731
2250	0.00815383
2262	0.00815383
2274	0.00839602
2286	0.00815383
2298	0.00766944
2310	0.00710433
2322	0.00653921
2334	0.00637775
2346	0.00653921
2358	0.00637775
2370	0.00637775
2382	0.0100914
2394	0.00968772
2406	0.00960699
2418	0.00968772
2430	0.00968772
2442	0.00944553
2454	0.00968772
2466	0.00968772
2478	0.00952626
2490	0.00984918
2502	0.00976845
2514	0.00960699
2526	0.00968772
2538	0.00968772
2550	0.00944553
2562	0.00944553
2574	0.00960699
2586	0.0105758
2598	0.0112216
2610	0.0109794
2622	0.0105758
2634	0.0108987
2646	0.0111409
2658	0.0108987
2670	0.010818
2682	0.0109794
2694	0.0110601
2706	0.0112216
2718	0.0122711
2730	0.0142087
2742	0.015904
2754	0.0157425
2766	0.0153389
2778	0.0164691
2790	0.0174379
2802	0.0189718
2814	0.0219588
2826	0.0273678
2838	0.0352794
2850	0.0511835
2862	0.0716084
2874	0.128039
2886	0.194562
2898	0.180272
2910	0.202635
2922	0.228872
2934	0.260196
2946	0.273032
2958	0.32357
2970	0.536377
2982	0.303549
2994	0.120854
3006	0.0596602
3018	0.0431104
3030	0.0626473
3042	0.102367
3054	0.0628894
3066	0.0801659
3078	0.11157
3090	0.0624051
3102	0.0463396
3114	0.0300319
3126	0.0179223
3138	0.0134013
3150	0.0126748
3162	0.0126748
3174	0.0130784
3186	0.0121096
3198	0.0110601
3210	0.00984918
3222	0.00904187
3234	0.00871895
3246	0.00831529
3258	0.00799237
3270	0.00758871
3282	0.00726579
3294	0.00718506
3306	0.00766944
3318	0.00791164
3330	0.00710433
3342	0.00758871
3354	0.0080731
3366	0.00815383
3378	0.00791164
3390	0.00791164
3402	0.00766944
3414	0.00742725
3426	0.00766944
3438	0.00783091
3450	0.00879968
3462	0.0108987
3474	0.012594
3486	0.0122711
3498	0.0123518
3510	0.0143701
3522	0.0178416
3534	0.0284173
3546	0.0705589
3558	0.129815
3570	0.102851
3582	0.0582878
3594	0.030597
3606	0.0219588
3618	0.0212323
3630	0.0347143
3642	0.0238964
3654	0.0167113
3666	0.0167113
3678	0.00992991
3690	0.00960699
3702	0.00783091
3714	0.00653921
3726	0.00637775
3738	0.00637775
3750	0.00710433
3762	0.00637775
3774	0.00637775
3786	0.00637775
3798	0.00637775
3810	0.00742725
3822	0.00637775
3834	0.00653921
3846	0.00823456
3858	0.00734652
3870	0.00799237
3882	0.00775018
3894	0.00758871
3906	0.00694287
3918	0.00775018
3930	0.00742725
3942	0.00686214
3954	0.00791164
3966	0.00815383
