Infrared Spectrum: Methanone, cyclopentylphenyl-
Formula: C 12 H 14 O
CAS: 5422-88-8
Origin: Sadtler Research Labs Under US-EPA Contract
1/CM	ABSORBANCE
450	0
462	0.0153544
474	0.0142535
486	0.0115882
498	0.0103714
510	0.01182
522	0.0108929
534	0.0122835
546	0.0105453
558	0.0151226
570	0.0172085
582	0.018657
594	0.0171505
606	0.0207429
618	0.0301873
630	0.0365028
642	0.0495975
654	0.065763
666	0.0673274
678	0.0892291
690	0.223826
702	0.266297
714	0.113448
726	0.0575354
738	0.0454837
750	0.0393419
762	0.0418334
774	0.048091
786	0.0425287
798	0.030477
810	0.0253202
822	0.0307667
834	0.0348225
846	0.0322152
858	0.0312302
870	0.0604904
882	0.0650098
894	0.0316358
906	0.0296658
918	0.0349384
930	0.035344
942	0.0356917
954	0.0341272
966	0.0321573
978	0.0491919
990	0.117157
1002	0.220755
1014	0.08836
1026	0.0417175
1038	0.0415437
1050	0.0286808
1062	0.023582
1074	0.023524
1086	0.0152385
1098	0.0143114
1110	0.0135582
1122	0.0145432
1134	0.0190626
1146	0.029434
1158	0.0488443
1170	0.0865059
1182	0.137668
1194	0.0912571
1206	0.241904
1218	0.550961
1230	0.242773
1242	0.110378
1254	0.0793212
1266	0.0899824
1278	0.0882441
1290	0.0782783
1302	0.0749177
1314	0.0701666
1326	0.0523207
1338	0.0624604
1350	0.128513
1362	0.158353
1374	0.0780465
1386	0.0409063
1398	0.0232343
1410	0.0189467
1422	0.0205691
1434	0.0316937
1446	0.112927
1458	0.0896347
1470	0.0409643
1482	0.0313461
1494	0.0197579
1506	0.0151226
1518	0.0135003
1530	0.0136161
1542	0.0128629
1554	0.0128629
1566	0.0185991
1578	0.0429922
1590	0.0508143
1602	0.0588681
1614	0.0271164
1626	0.0198158
1638	0.0182514
1650	0.0246249
1662	0.0413699
1674	0.0770615
1686	0.237906
1698	0.57941
1710	0.307898
1722	0.0769456
1734	0.0395158
1746	0.0257258
1758	0.0229446
1770	0.0206849
1782	0.0152964
1794	0.0133844
1806	0.0212643
1818	0.0181355
1830	0.0119358
1842	0.0103135
1854	0.0102556
1866	0.0106032
1878	0.0126311
1890	0.01576
1902	0.0175561
1914	0.015702
1926	0.0119938
1938	0.012747
1950	0.0177299
1962	0.0196999
1974	0.0174402
1986	0.0120517
1998	0.0115882
2010	0.0116461
2022	0.0117041
2034	0.01182
2046	0.0112985
2058	0.0112406
2070	0.010835
2082	0.0112406
2094	0.0111247
2106	0.0110667
2118	0.0106611
2130	0.0103714
2142	0.0105453
2154	0.010777
2166	0.0109508
2178	0.0114723
2190	0.0116461
2202	0.0114144
2214	0.0111826
2226	0.0110088
2238	0.0114144
2250	0.0115882
2262	0.01182
2274	0.01182
2286	0.0119938
2298	0.0119938
2310	0.0128629
2322	0.0155861
2334	0.0143114
2346	0.0152385
2358	0.0130947
2370	0.0128629
2382	0.0122835
2394	0.0118779
2406	0.0111247
2418	0.0109508
2430	0.0112406
2442	0.0109508
2454	0.0108929
2466	0.0105453
2478	0.0102556
2490	0.0103135
2502	0.0101976
2514	0.0101397
2526	0.00996585
2538	0.00996585
2550	0.0101397
2562	0.0102556
2574	0.0112406
2586	0.0119358
2598	0.0129788
2610	0.0121097
2622	0.011762
2634	0.0114144
2646	0.0111826
2658	0.0112985
2670	0.0109508
2682	0.0108929
2694	0.0111826
2706	0.0112406
2718	0.0117041
2730	0.0129208
2742	0.0133264
2754	0.0136741
2766	0.0140797
2778	0.0149488
2790	0.015702
2802	0.0177879
2814	0.019642
2826	0.0222493
2838	0.028507
2850	0.0411381
2862	0.0730636
2874	0.177995
2886	0.21444
2898	0.120517
2910	0.12915
2922	0.188424
2934	0.241035
2946	0.321746
2958	0.483402
2970	0.512198
2982	0.284664
2994	0.12353
3006	0.0718468
3018	0.0537692
3030	0.0621707
3042	0.0759607
3054	0.064778
3066	0.107654
3078	0.140797
3090	0.0898086
3102	0.0629239
3114	0.031404
3126	0.017672
3138	0.014775
3150	0.014717
3162	0.01576
3174	0.0134423
3186	0.0119938
3198	0.0115882
3210	0.0115882
3222	0.0111826
3234	0.0110667
3246	0.0108929
3258	0.0108929
3270	0.0109508
3282	0.0113564
3294	0.0110667
3306	0.0105453
3318	0.0111247
3330	0.0106611
3342	0.0111247
3354	0.0114723
3366	0.0140797
3378	0.0172664
3390	0.0144273
3402	0.0110088
3414	0.0106032
3426	0.0108929
3438	0.0107191
3450	0.0110667
3462	0.0115882
3474	0.0111247
3486	0.010777
3498	0.0108929
3510	0.0111826
3522	0.0104873
3534	0.0115303
3546	0.0109508
3558	0.0110667
3570	0.0103135
3582	0.0114723
3594	0.0112406
3606	0.00984997
3618	0.0107191
3630	0.0112985
3642	0.0109508
3654	0.0118779
3666	0.0118779
3678	0.0115303
3690	0.0121097
3702	0.0114723
3714	0.0123994
3726	0.0129208
3738	0.0123994
3750	0.012747
3762	0.0121097
3774	0.0122835
3786	0.0122256
3798	0.0116461
3810	0.0121097
3822	0.0119358
3834	0.0114723
3846	0.0108929
3858	0.0117041
3870	0.0126311
3882	0.0121676
3894	0.0108929
3906	0.0121097
3918	0.0117041
3930	0.0110088
3942	0.0130947
3954	0.0119358
3966	0.0108929
