Infrared Spectrum: Acetonitrile, (methylimino)di-
Formula: C 5 H 7 N 3
CAS: 5423-24-5
Origin: Sadtler Research Labs Under US-EPA Contract
1/CM	ABSORBANCE
450	0
462	0.0322156
474	0.0725771
486	0.0463526
498	0.0636954
510	0.0716311
522	0.0673217
534	0.0631174
546	0.0606999
558	0.0492431
570	0.0508197
582	0.0568109
594	0.0526066
606	0.0609101
618	0.0474037
630	0.0543408
642	0.0547613
654	0.0456694
666	0.0555496
678	0.0573364
690	0.078358
702	0.0810383
714	0.105528
726	0.0629071
738	0.0628546
750	0.0734705
762	0.0595962
774	0.0579671
786	0.0638531
798	0.0785682
810	0.118719
822	0.206642
834	0.258723
846	0.173271
858	0.190929
870	0.317374
882	0.23376
894	0.132226
906	0.0981183
918	0.099222
930	0.100115
942	0.112886
954	0.13622
966	0.174217
978	0.208377
990	0.17779
1002	0.125814
1014	0.0985913
1026	0.14074
1038	0.360415
1050	0.520968
1062	0.284422
1074	0.124395
1086	0.0877126
1098	0.0815638
1110	0.104845
1122	0.233813
1134	0.361729
1146	0.293199
1158	0.14878
1170	0.0835609
1182	0.0865039
1194	0.156926
1206	0.16749
1218	0.105266
1230	0.0718413
1242	0.0683202
1254	0.0947023
1266	0.149779
1278	0.140319
1290	0.126655
1302	0.137271
1314	0.192243
1326	0.241854
1338	0.220622
1350	0.166912
1362	0.2315
1374	0.20659
1386	0.0963315
1398	0.0767814
1410	0.0979081
1422	0.222251
1434	0.276014
1446	0.302921
1458	0.348591
1470	0.270338
1482	0.143262
1494	0.0819842
1506	0.0547613
1518	0.0471409
1530	0.0408345
1542	0.0411498
1554	0.0398359
1566	0.0369455
1578	0.0372608
1590	0.0372608
1602	0.0372608
1614	0.0362097
1626	0.0347382
1638	0.0369455
1650	0.0392053
1662	0.0367878
1674	0.0402564
1686	0.0500314
1698	0.0471409
1710	0.0435673
1722	0.0470358
1734	0.0436724
1746	0.0361046
1758	0.0340024
1770	0.0344754
1782	0.032163
1794	0.0307966
1806	0.0308492
1818	0.0286945
1830	0.0273806
1842	0.0260142
1854	0.0277485
1866	0.0295879
1878	0.0305339
1890	0.0268551
1902	0.0244902
1914	0.0243851
1926	0.0239121
1938	0.0244902
1950	0.0258566
1962	0.0269076
1974	0.0255412
1986	0.0231763
1998	0.0229135
2010	0.0233865
2022	0.024858
2034	0.023807
2046	0.022388
2058	0.021442
2070	0.0221778
2082	0.0230187
2094	0.0246478
2106	0.0247004
2118	0.0243325
2130	0.0243325
2142	0.0248055
2154	0.0244902
2166	0.0244376
2178	0.0259617
2190	0.0256464
2202	0.0249631
2214	0.0237544
2226	0.0283792
2238	0.0405717
2250	0.0454067
2262	0.0312171
2274	0.0266449
2286	0.0250157
2298	0.022861
2310	0.0215997
2322	0.0207588
2334	0.0229661
2346	0.0240697
2358	0.0242274
2370	0.0304288
2382	0.0290098
2394	0.0290624
2406	0.0278011
2418	0.0265398
2430	0.0240697
2442	0.0234391
2454	0.0227033
2466	0.0232289
2478	0.0227033
2490	0.0225982
2502	0.0234391
2514	0.0241748
2526	0.0231763
2538	0.0224931
2550	0.0239121
2562	0.0253836
2574	0.0281689
2586	0.0275383
2598	0.0273806
2610	0.0276434
2622	0.0274857
2634	0.0271179
2646	0.0275909
2658	0.0287996
2670	0.0291675
2682	0.0287996
2694	0.0300609
2706	0.0326886
2718	0.0355265
2730	0.0382068
2742	0.0405191
2754	0.0453015
2766	0.0551817
2778	0.0733654
2790	0.103321
2802	0.168856
2814	0.261771
2826	0.253468
2838	0.218362
2850	0.178473
2862	0.171799
2874	0.182678
2886	0.190193
2898	0.17716
2910	0.149779
2922	0.132962
2934	0.144629
2946	0.19508
2958	0.270022
2970	0.268761
2982	0.195028
2994	0.18746
3006	0.136535
3018	0.0550766
3030	0.0382068
3042	0.0346856
3054	0.0339499
3066	0.0319003
3078	0.0310594
3090	0.0300083
3102	0.031585
3114	0.0295353
3126	0.0273806
3138	0.0260142
3150	0.0242274
3162	0.0257515
3174	0.0253836
3186	0.0255938
3198	0.0240697
3210	0.0234391
3222	0.023807
3234	0.0239121
3246	0.0227559
3258	0.0221252
3270	0.0231238
3282	0.0241748
3294	0.0232814
3306	0.0220727
3318	0.0220727
3330	0.0236493
3342	0.0261719
3354	0.0252785
3366	0.0252785
3378	0.0237019
3390	0.0228084
3402	0.0225457
3414	0.0211267
3426	0.0222829
3438	0.0210742
3450	0.0218625
3462	0.0225982
3474	0.0223354
3486	0.0221778
3498	0.0240697
3510	0.0222829
3522	0.0227033
3534	0.0225982
3546	0.0212318
3558	0.022388
3570	0.0220201
3582	0.0222303
3594	0.0237019
3606	0.0212844
3618	0.0217574
3630	0.0256989
3642	0.0241748
3654	0.0288521
3666	0.0259617
3678	0.0256464
3690	0.026277
3702	0.0239646
3714	0.0239646
3726	0.0204435
3738	0.021442
3750	0.0268025
3762	0.022861
3774	0.0230187
3786	0.0229135
3798	0.0265398
3810	0.0230187
3822	0.0258566
3834	0.0244902
3846	0.0229661
3858	0.0248055
3870	0.0258566
3882	0.0249106
3894	0.0251734
3906	0.0242274
3918	0.0260668
3930	0.0271179
3942	0.0255412
3954	0.0290098
3966	0.0273806
