Infrared Spectrum: 2-Methyl-5-nitrophenol
Formula: C 7 H 7 N O 3
CAS: 5428-54-6
Origin: Sadtler Research Labs Under US-EPA Contract
1/CM	ABSORBANCE
450	0
462	0.089978
474	0.0834241
486	0.0723157
498	0.0778699
510	0.0879785
522	0.0794251
534	0.0848682
546	0.0973096
558	0.0950879
570	0.083313
582	0.0788696
594	0.0746484
606	0.0749817
618	0.0809802
630	0.0856458
642	0.0987537
654	0.0866455
666	0.0788696
678	0.0732044
690	0.0734265
702	0.084646
714	0.0936438
726	0.141965
738	0.267824
750	0.17929
762	0.100753
774	0.0813135
786	0.0818689
798	0.103308
810	0.462443
822	0.442892
834	0.110417
846	0.0947547
858	0.122859
870	0.169514
882	0.145853
894	0.124081
906	0.0930884
918	0.085979
930	0.117305
942	0.123414
954	0.0921997
966	0.0889783
978	0.0940881
990	0.116971
1002	0.130079
1014	0.10964
1026	0.107974
1038	0.0975318
1050	0.0915332
1062	0.0970874
1074	0.136633
1086	0.166071
1098	0.147742
1110	0.221279
1122	0.223279
1134	0.124636
1146	0.140966
1158	0.287485
1170	0.340361
1182	0.192064
1194	0.173958
1206	0.320366
1218	0.404679
1230	0.221946
1242	0.20295
1254	0.330142
1266	0.274489
1278	0.198285
1290	0.183622
1302	0.136078
1314	0.198063
1326	0.332141
1338	0.395015
1350	0.733932
1362	0.901558
1374	0.246606
1386	0.136967
1398	0.124747
1410	0.180734
1422	0.231832
1434	0.19373
1446	0.149408
1458	0.126303
1470	0.139522
1482	0.182844
1494	0.259825
1506	0.280043
1518	0.321477
1530	0.715603
1542	1.11084
1554	0.786364
1566	0.461887
1578	0.26538
1590	0.15574
1602	0.145409
1614	0.135634
1626	0.106085
1638	0.0877564
1650	0.083313
1662	0.0748706
1674	0.0749817
1686	0.0777588
1698	0.0758704
1710	0.0705383
1722	0.0690942
1734	0.0716492
1746	0.0736487
1758	0.075315
1770	0.0724268
1782	0.0672058
1794	0.0632068
1806	0.0629846
1818	0.0616516
1830	0.062207
1842	0.0600964
1854	0.0598743
1866	0.0623181
1878	0.0650952
1890	0.0683167
1902	0.0643176
1914	0.059541
1926	0.0592078
1938	0.0592078
1950	0.0583191
1962	0.0580969
1974	0.059541
1986	0.0584302
1998	0.0587634
2010	0.0609851
2022	0.0607629
2034	0.0599854
2046	0.0575415
2058	0.0578748
2070	0.0585413
2082	0.0575415
2094	0.0579858
2106	0.0567639
2118	0.0563196
2130	0.0566528
2142	0.0575415
2154	0.056875
2166	0.0574304
2178	0.0584302
2190	0.0583191
2202	0.0573193
2214	0.0566528
2226	0.0562085
2238	0.0566528
2250	0.0570972
2262	0.0574304
2274	0.0584302
2286	0.0592078
2298	0.0588745
2310	0.0578748
2322	0.0587634
2334	0.0602075
2346	0.062096
2358	0.0602075
2370	0.0636511
2382	0.0609851
2394	0.0587634
2406	0.0596521
2418	0.0612073
2430	0.0618738
2442	0.0616516
2454	0.0598743
2466	0.0607629
2478	0.0603186
2490	0.059541
2502	0.0604297
2514	0.0589856
2526	0.0580969
2538	0.0596521
2550	0.0597632
2562	0.058208
2574	0.0580969
2586	0.0583191
2598	0.0590967
2610	0.0603186
2622	0.0599854
2634	0.0600964
2646	0.0618738
2658	0.0619849
2670	0.060874
2682	0.0614295
2694	0.0624292
2706	0.0614295
2718	0.0599854
2730	0.0585413
2742	0.0607629
2754	0.0618738
2766	0.0592078
2778	0.0585413
2790	0.0590967
2802	0.0598743
2814	0.0616516
2826	0.0632068
2838	0.0659839
2850	0.0680945
2862	0.0782031
2874	0.0921997
2886	0.0921997
2898	0.0864234
2910	0.0880896
2922	0.0896448
2934	0.108529
2946	0.117305
2958	0.0931995
2970	0.0935327
2982	0.0940881
2994	0.092533
3006	0.0796472
3018	0.0723157
3030	0.075315
3042	0.0908667
3054	0.0957544
3066	0.0954212
3078	0.0905335
3090	0.0789807
3102	0.0716492
3114	0.0643176
3126	0.0618738
3138	0.0602075
3150	0.0594299
3162	0.0594299
3174	0.0592078
3186	0.0592078
3198	0.0588745
3210	0.0604297
3222	0.0612073
3234	0.0600964
3246	0.0594299
3258	0.0577637
3270	0.0577637
3282	0.0575415
3294	0.0587634
3306	0.0596521
3318	0.0605408
3330	0.0613184
3342	0.0624292
3354	0.0615405
3366	0.0628735
3378	0.0624292
3390	0.0624292
3402	0.062096
3414	0.0618738
3426	0.0618738
3438	0.0599854
3450	0.0607629
3462	0.0624292
3474	0.0590967
3486	0.0564307
3498	0.0599854
3510	0.0593189
3522	0.0603186
3534	0.0598743
3546	0.0597632
3558	0.0597632
3570	0.0605408
3582	0.060874
3594	0.0642066
3606	0.0653174
3618	0.0705383
3630	0.104974
3642	0.278932
3654	0.366577
3666	0.152963
3678	0.0709827
3690	0.0637622
3702	0.0630957
3714	0.0624292
3726	0.0630957
3738	0.0629846
3750	0.0619849
3762	0.062207
3774	0.0627625
3786	0.0610962
3798	0.0645398
3810	0.0669837
3822	0.0720935
3834	0.0662061
3846	0.0633179
3858	0.0668726
3870	0.0659839
3882	0.0663171
3894	0.0645398
3906	0.0667615
3918	0.0683167
3930	0.0655396
3942	0.064762
3954	0.0682056
3966	0.0642066
