Infrared Spectrum: Butanedioyl dichloride
Formula: C 4 H 4 Cl 2 O 2
CAS: 543-20-4
Origin: Sadtler Research Labs Under US-EPA Contract
1/CM	ABSORBANCE
450	0.103118
462	0.075671
474	0.0268055
486	0.0261642
498	0.016545
510	0.0250099
522	0.00808013
534	0.0224448
546	0.0418115
558	0.0552783
570	0.0841359
582	0.113891
594	0.157242
606	0.0852902
618	0.0389898
630	0.0342444
642	0.0303967
654	0.0388616
666	0.080673
678	0.157498
690	0.115943
702	0.120048
714	0.159679
726	0.0484808
738	0.0212905
750	0.0411702
762	0.0438636
774	0.0293706
786	0.0298836
798	0.0305249
810	0.0174428
822	0.0135951
834	0.00910618
846	0.017058
858	0.037066
870	0.0487373
882	0.0524567
894	0.0991419
906	0.1684
918	0.277931
930	0.245482
942	0.171991
954	0.283702
966	0.523926
978	0.529184
990	0.379766
1002	0.217009
1014	0.11402
1026	0.100809
1038	0.158011
1050	0.197258
1062	0.190588
1074	0.101066
1086	0.042068
1098	0.0209057
1110	0.0112865
1122	0.00974746
1134	0.00808013
1146	0.0116713
1158	0.00987571
1170	0.0198797
1182	0.0373225
1194	0.0495068
1206	0.0424527
1218	0.0318075
1230	0.0305249
1242	0.0279598
1254	0.0405289
1266	0.0664366
1278	0.0633585
1290	0.0487373
1302	0.0323205
1314	0.0239839
1326	0.0264207
1338	0.0504046
1350	0.0292424
1362	0.0182124
1374	0.0132104
1386	0.0188536
1398	0.0407854
1410	0.0695148
1422	0.0797752
1434	0.0555348
1446	0.0256512
1458	0.0109018
1470	0.0043607
1482	0.00346291
1494	0.0020521
1506	0.00359117
1518	0.0032064
1530	0.00654106
1542	0.00282163
1554	0.00371942
1566	0.00577152
1578	0.00564326
1590	0.00705408
1602	0.0052585
1614	0.00577152
1626	0.00910618
1638	0.00692582
1650	0.00384768
1662	0.0084649
1674	0.00679757
1686	0.00513024
1698	0.00743885
1710	0.00923443
1722	0.0117996
1734	0.0184689
1746	0.0294989
1758	0.0568174
1770	0.106324
1782	0.261386
1794	0.793007
1806	1.28256
1818	0.928317
1830	0.398235
1842	0.172504
1854	0.0858033
1866	0.0624607
1878	0.0575869
1890	0.0479677
1902	0.0316792
1914	0.0214188
1926	0.0192384
1938	0.0185971
1950	0.0161603
1962	0.0119278
1974	0.00820838
1986	0.00538675
1998	0.00461722
2010	0.00513024
2022	0.00589978
2034	0.00448896
2046	0.00423245
2058	0.00346291
2070	0.00307814
2082	0.00256512
2094	0.00256512
2106	0.00269338
2118	0.00256512
2130	0.00256512
2142	0.00333466
2154	0.0032064
2166	0.00230861
2178	0.00218035
2190	0.0020521
2202	0.00192384
2214	0.00230861
2226	0.00282163
2238	0.00371942
2250	0.00423245
2262	0.00487373
2274	0.00294989
2286	0.00192384
2298	0.0011543
2310	0.000384768
2322	0.00141082
2334	0.00179558
2346	0.000384768
2358	0.0011543
2370	0.00153907
2382	0.00153907
2394	0.00243686
2406	0.00256512
2418	0.0020521
2430	0.00256512
2442	0.00192384
2454	0.00256512
2466	0.00230861
2478	0.00294989
2490	0.00218035
2502	0.00282163
2514	0.00230861
2526	0.00269338
2538	0.00269338
2550	0.00269338
2562	0.00282163
2574	0.00243686
2586	0.00282163
2598	0.0032064
2610	0.00282163
2622	0.00333466
2634	0.00307814
2646	0.00243686
2658	0.00384768
2670	0.0032064
2682	0.00410419
2694	0.00307814
2706	0.00718234
2718	0.0043607
2730	0.0075671
2742	0.00538675
2754	0.011543
2766	0.00551501
2778	0.0128256
2790	0.0043607
2802	0.00936269
2814	0.00423245
2826	0.00577152
2838	0.00359117
2850	0.00269338
2862	0.00654106
2874	0.00307814
2886	0.00487373
2898	0.00384768
2910	0.00743885
2922	0.0119278
2934	0.0193667
2946	0.0345009
2958	0.0209057
2970	0.0117996
2982	0.0179558
2994	0.0101322
3006	0.00423245
3018	0.00731059
3030	0.0084649
3042	0.00346291
3054	0.00243686
3066	0.00269338
3078	0.0032064
3090	0.00282163
3102	0.00230861
3114	0.00230861
3126	0.00269338
3138	0.00243686
3150	0.0032064
3162	0.00179558
3174	0.00230861
3186	0.00218035
3198	0.00218035
3210	0.00179558
3222	0.00218035
3234	0.0020521
3246	0.0020521
3258	0.00153907
3270	0.00166733
3282	0.00243686
3294	0.00153907
3306	0.00179558
3318	0.00153907
3330	0.00179558
3342	0.0011543
3354	0.00141082
3366	0.00102605
3378	0.00269338
3390	0.00153907
3402	0.00179558
3414	0.00179558
3426	0.00166733
3438	0.00230861
3450	0.0020521
3462	0.00166733
3474	0.00230861
3486	0.00192384
3498	0.00269338
3510	0.00230861
3522	0.00384768
3534	0.00230861
3546	0.00448896
3558	0.0064128
3570	0.0103887
3582	0.0197514
3594	0.0176993
3606	0.0124408
3618	0.00833664
3630	0.00371942
3642	0.00410419
3654	0.000384768
3666	0.00500198
3678	0.00423245
3690	0.00282163
3702	0.00397594
3714	0.00141082
3726	0.00602803
3738	0.00564326
3750	0.000384768
3762	0.00500198
3774	0.00359117
3786	0.00487373
3798	0.00128256
3810	0.00654106
3822	0.000384768
3834	0.00230861
3846	0.00474547
3858	0.00307814
3870	0.00384768
3882	0.00615629
3894	0.00448896
3906	0.00461722
3918	0.00448896
3930	0.00397594
3942	0.00628454
3954	0.0043607
3966	0.00294989
