Infrared Spectrum: Isobutyl chloroformate
Formula: C 5 H 9 Cl O 2
CAS: 543-27-1
Origin: Sadtler Research Labs Under US-EPA Contract
1/CM	ABSORBANCE
450	0
462	0.00888819
474	0.0102744
486	0.00945899
498	0.00921436
510	0.010356
522	0.0143516
534	0.0134546
546	0.00937744
558	0.0112529
570	0.00807276
582	0.0104375
594	0.00848047
606	0.010519
618	0.0100298
630	0.010519
642	0.0101929
654	0.0101113
666	0.0117422
678	0.0193257
690	0.0275615
702	0.0238106
714	0.0130469
726	0.0119053
738	0.0124761
750	0.0114976
762	0.016064
774	0.0198149
786	0.0371836
798	0.0835816
810	0.0945083
822	0.0499859
834	0.0405269
846	0.0383252
858	0.0429732
870	0.0395484
882	0.0260938
894	0.023729
906	0.0260122
918	0.0271538
930	0.0251152
942	0.0291924
954	0.029437
966	0.0357974
978	0.0411792
990	0.0225874
1002	0.01427
1014	0.0129653
1026	0.0120684
1038	0.0128838
1050	0.0152485
1062	0.0172056
1074	0.019978
1086	0.0275615
1098	0.0412608
1110	0.0813799
1122	0.216741
1134	0.548947
1146	0.81543
1158	0.616954
1170	0.386188
1182	0.178579
1194	0.0917359
1206	0.048355
1218	0.0375098
1230	0.0326987
1242	0.0288662
1254	0.0304155
1266	0.0309048
1278	0.0371836
1290	0.036042
1302	0.021772
1314	0.0157378
1326	0.0146777
1338	0.0161455
1350	0.0178579
1362	0.0197334
1374	0.0334326
1386	0.0433809
1398	0.0280508
1410	0.0187549
1422	0.0122314
1434	0.0130469
1446	0.017124
1458	0.0279692
1470	0.0429732
1482	0.0354712
1494	0.0159009
1506	0.00733887
1518	0.00742041
1530	0.00676807
1542	0.00383252
1554	0.00611572
1566	0.0064419
1578	0.00521875
1590	0.00652344
1602	0.00652344
1614	0.00660498
1626	0.0064419
1638	0.00578955
1650	0.0064419
1662	0.0070127
1674	0.0064419
1686	0.00595264
1698	0.00611572
1710	0.00864356
1722	0.0106006
1734	0.01321
1746	0.0251152
1758	0.0459087
1770	0.0981778
1782	0.268113
1794	0.438457
1806	0.28328
1818	0.0904312
1830	0.0368574
1842	0.0181025
1854	0.0120684
1866	0.00888819
1878	0.00733887
1890	0.00619727
1902	0.00636035
1914	0.00562647
1926	0.0053003
1938	0.00554492
1950	0.00570801
1962	0.00497412
1974	0.00489258
1986	0.00489258
1998	0.00481104
2010	0.00432178
2022	0.00472949
2034	0.00464795
2046	0.00464795
2058	0.00464795
2070	0.00464795
2082	0.00456641
2094	0.00448487
2106	0.00440332
2118	0.00432178
2130	0.00391406
2142	0.00326172
2154	0.00326172
2166	0.00318018
2178	0.00309863
2190	0.00358789
2202	0.00309863
2214	0.00309863
2226	0.00334326
2238	0.00399561
2250	0.00391406
2262	0.00497412
2274	0.00570801
2286	0.00570801
2298	0.00619727
2310	0.00611572
2322	0.00456641
2334	0.00220166
2346	0.00244629
2358	0.00106006
2370	0.00220166
2382	0.00334326
2394	0.00236475
2406	0.00163086
2418	0.0022832
2430	0.00220166
2442	0.00260938
2454	0.00203857
2466	0.00212012
2478	0.00203857
2490	0.00179395
2502	0.00187549
2514	0.0017124
2526	0.00179395
2538	0.0017124
2550	0.00163086
2562	0.00163086
2574	0.00212012
2586	0.00212012
2598	0.00203857
2610	0.00179395
2622	0.00187549
2634	0.00179395
2646	0.0022832
2658	0.00260938
2670	0.00203857
2682	0.00269092
2694	0.00220166
2706	0.0022832
2718	0.00277246
2730	0.00326172
2742	0.00334326
2754	0.00391406
2766	0.00350635
2778	0.00342481
2790	0.00350635
2802	0.00358789
2814	0.00383252
2826	0.00562647
2838	0.00627881
2850	0.00676807
2862	0.00848047
2874	0.0182656
2886	0.0401192
2898	0.0433809
2910	0.0391406
2922	0.0395484
2934	0.0463164
2946	0.0592002
2958	0.0819507
2970	0.131529
2982	0.152078
2994	0.0655606
3006	0.017124
3018	0.00823584
3030	0.00546338
3042	0.00497412
3054	0.00456641
3066	0.00464795
3078	0.00358789
3090	0.00375098
3102	0.00342481
3114	0.00334326
3126	0.00350635
3138	0.00342481
3150	0.00399561
3162	0.00415869
3174	0.00407715
3186	0.00424024
3198	0.00366943
3210	0.00334326
3222	0.00285401
3234	0.00269092
3246	0.00212012
3258	0.00277246
3270	0.00301709
3282	0.00260938
3294	0.00244629
3306	0.00203857
3318	0.00163086
3330	0.00236475
3342	0.00236475
3354	0.00244629
3366	0.00252783
3378	0.00244629
3390	0.00260938
3402	0.00269092
3414	0.0017124
3426	0.00163086
3438	0.00220166
3450	0.00179395
3462	0.00187549
3474	0.00163086
3486	0.00187549
3498	0.00187549
3510	0.00212012
3522	0.00154932
3534	0.00220166
3546	0.00269092
3558	0.00521875
3570	0.00497412
3582	0.00375098
3594	0.00244629
3606	0.00187549
3618	0.0017124
3630	0.000896973
3642	0.00260938
3654	0.00269092
3666	0.00326172
3678	0.00179395
3690	0.0022832
3702	0.00383252
3714	0.00342481
3726	0.00358789
3738	0.00383252
3750	0.00407715
3762	0.00554492
3774	0.00578955
3786	0.00595264
3798	0.00611572
3810	0.00676807
3822	0.00636035
3834	0.00684961
3846	0.0064419
3858	0.00676807
3870	0.0070127
3882	0.00807276
3894	0.00733887
3906	0.00717578
3918	0.00774659
3930	0.00676807
3942	0.00676807
3954	0.000489258
3966	0.00106006
