Infrared Spectrum: 2-Heptanol
Formula: C 7 H 16 O
CAS: 543-49-7
Origin: Sadtler Research Labs Under US-EPA Contract
1/CM	ABSORBANCE
450	0.0670151
462	0.0274801
474	0.0163325
486	0.0349982
498	0.0191842
510	0.0103698
522	0.0217767
534	0.0207397
546	0.0154251
558	0.00492567
570	0.00492567
582	0.0164621
594	0.0102402
606	0.014777
618	0.0103698
630	0.0117957
642	0.0103698
654	0.00881436
666	0.0103698
678	0.0114068
690	0.011018
702	0.0119253
714	0.0162029
726	0.0243691
738	0.0239803
750	0.0164621
762	0.0184065
774	0.0212582
786	0.0139993
798	0.0155548
810	0.0248876
822	0.0272208
834	0.0307207
846	0.032665
858	0.0366833
870	0.0356463
882	0.0343501
894	0.0432941
906	0.0615709
918	0.0687002
930	0.0854216
942	0.118735
954	0.130012
966	0.0977357
978	0.0666262
990	0.0549602
1002	0.0641634
1014	0.0877548
1026	0.125605
1038	0.150881
1050	0.160603
1062	0.161381
1074	0.164751
1086	0.190027
1098	0.192231
1110	0.157362
1122	0.166177
1134	0.194175
1146	0.181602
1158	0.11692
1170	0.0689594
1182	0.0600154
1194	0.0727185
1206	0.0847734
1218	0.0926804
1230	0.118735
1242	0.150622
1254	0.141808
1266	0.102402
1278	0.0803663
1290	0.070126
1302	0.0644226
1314	0.0605339
1326	0.0640338
1338	0.0850327
1350	0.108883
1362	0.133123
1374	0.205712
1386	0.247839
1398	0.166825
1410	0.0938471
1422	0.0593673
1434	0.0688298
1446	0.104217
1458	0.155548
1470	0.15464
1482	0.0820514
1494	0.0324057
1506	0.016851
1518	0.0132215
1530	0.0107587
1542	0.00661077
1554	0.00648115
1566	0.00557379
1578	0.0016851
1590	0.0050553
1602	0.00427756
1614	0.00414794
1626	0.00259246
1638	0.0016851
1650	0.00259246
1662	0.0050553
1674	0.00233321
1686	0.00194434
1698	0.00142585
1710	0.00388869
1722	0.00324057
1734	0.00233321
1746	0.00388869
1758	0.0033702
1770	0.00207397
1782	0.00285171
1794	0.00155548
1806	0.00207397
1818	0.00246284
1830	0.00155548
1842	0.00207397
1854	0.00194434
1866	0.00194434
1878	0.00207397
1890	0.00259246
1902	0.00194434
1914	0.00246284
1926	0.00129623
1938	0.00181472
1950	0.0016851
1962	0.000388869
1974	0.000907361
1986	0.000648115
1998	0.000907361
2010	0.000907361
2022	0.00103698
2034	0.000907361
2046	0.00142585
2058	0.000648115
2070	0.00103698
2082	0
2094	0.000129623
2106	0.000388869
2118	0.000388869
2130	0.000388869
2142	0.00116661
2154	0.00116661
2166	0.00103698
2178	0.00129623
2190	0.00103698
2202	0.00129623
2214	0.00129623
2226	0.000388869
2238	0.000388869
2250	0.000777738
2262	0.000777738
2274	0.000907361
2286	0.00246284
2298	0.00427756
2310	0.0067404
2322	0.00596266
2334	0.0050553
2346	0.00298133
2358	0.00842549
2370	0.00272208
2382	0.00272208
2394	0.00349982
2406	0.00401831
2418	0.00375907
2430	0.0033702
2442	0.00298133
2454	0.00311095
2466	0.00298133
2478	0.00324057
2490	0.0033702
2502	0.00375907
2514	0.00388869
2526	0.00440718
2538	0.00466643
2550	0.00479605
2562	0.00544417
2574	0.00661077
2586	0.00816625
2598	0.0102402
2610	0.0114068
2622	0.0130919
2634	0.0155548
2646	0.0174991
2658	0.0184065
2670	0.0209989
2682	0.0215174
2694	0.0190546
2706	0.0182768
2718	0.018925
2730	0.0230729
2742	0.0264431
2754	0.0261838
2766	0.0256654
2778	0.0285171
2790	0.0339612
2802	0.0443311
2814	0.0557379
2826	0.0769961
2838	0.127419
2850	0.252635
2862	0.460291
2874	0.590822
2886	0.574878
2898	0.477142
2910	0.594321
2922	0.933934
2934	1.27886
2946	1.12889
2958	0.886751
2970	1.08417
2982	0.764905
2994	0.287763
3006	0.101106
3018	0.0592377
3030	0.0442014
3042	0.0334427
3054	0.0254061
3066	0.0207397
3078	0.0184065
3090	0.016851
3102	0.014777
3114	0.0124438
3126	0.0124438
3138	0.00985135
3150	0.00985135
3162	0.0101106
3174	0.0108883
3186	0.0111476
3198	0.0117957
3210	0.0095921
3222	0.00635153
3234	0.00466643
3246	0.00272208
3258	0.00233321
3270	0.00246284
3282	0.00246284
3294	0.00129623
3306	0.000648115
3318	0.000518492
3330	0.00246284
3342	0.00259246
3354	0.00285171
3366	0.00220359
3378	0.00311095
3390	0.00466643
3402	0.00375907
3414	0.00492567
3426	0.0067404
3438	0.00699964
3450	0.00596266
3462	0.00583303
3474	0.0050553
3486	0.00557379
3498	0.00362944
3510	0.00440718
3522	0.0045368
3534	0.00388869
3546	0.00583303
3558	0.00661077
3570	0.00570341
3582	0.0045368
3594	0.00609228
3606	0.0102402
3618	0.0164621
3630	0.0269616
3642	0.0550898
3654	0.0895695
3666	0.0758295
3678	0.0277393
3690	0.0143882
3702	0.00803663
3714	0.0067404
3726	0.0120549
3738	0.00738851
3750	0.00570341
3762	0.00648115
3774	0.00596266
3786	0.00609228
3798	0.00842549
3810	0.00855512
3822	0.0123142
3834	0.00985135
3846	0.00738851
3858	0.00648115
3870	0.00609228
3882	0.00998097
3894	0.00544417
3906	0.00868474
3918	0.00933286
3930	0.00661077
3942	0.00738851
3954	0.0095921
3966	0.00998097
