Infrared Spectrum: Acetic acid, phenoxy-, 2-methylpropyl ester
Formula: C 12 H 16 O 3
CAS: 5432-66-6
Origin: Sadtler Research Labs Under US-EPA Contract
1/CM	ABSORBANCE
450	0.0823515
462	0.00353657
474	0.0551957
486	0.0546905
498	0.0042944
510	0.0211563
522	0.0349868
534	0.0395969
546	0.025198
558	0.0342921
570	0.0349236
582	0.0358078
594	0.0440808
606	0.0335974
618	0.0365656
630	0.0298082
642	0.0267137
654	0.0279768
666	0.0350499
678	0.0623952
690	0.135337
702	0.0666896
714	0.0459122
726	0.0423757
738	0.0630898
750	0.199753
762	0.106476
774	0.0630898
786	0.0740785
798	0.0527959
810	0.0386496
822	0.043323
834	0.0469227
846	0.0382076
858	0.0316397
870	0.0337869
882	0.049133
894	0.0407337
906	0.0397232
918	0.0401653
930	0.0419336
942	0.0476174
954	0.0518486
966	0.0421231
978	0.0526064
990	0.107865
1002	0.181249
1014	0.17967
1026	0.142852
1038	0.108434
1050	0.104645
1062	0.138179
1074	0.198806
1086	0.239476
1098	0.156177
1110	0.0726259
1122	0.0483752
1134	0.0517223
1146	0.0859512
1158	0.211373
1170	0.531622
1182	0.63153
1194	0.458112
1206	0.409105
1218	0.421294
1230	0.321196
1242	0.297198
1254	0.256654
1266	0.329217
1278	0.374813
1290	0.363888
1302	0.288293
1314	0.175376
1326	0.0875301
1338	0.0789412
1350	0.0581639
1362	0.061069
1374	0.0934033
1386	0.118791
1398	0.0663738
1410	0.0449649
1422	0.0349868
1434	0.0436387
1446	0.0712997
1458	0.0952347
1470	0.106602
1482	0.119233
1494	0.381823
1506	0.21232
1518	0.0430072
1530	0.0277873
1542	0.0303134
1554	0.0274084
1566	0.0344815
1578	0.0558273
1590	0.148725
1602	0.274337
1614	0.0828567
1626	0.0313239
1638	0.0226088
1650	0.0216615
1662	0.0151567
1674	0.0200827
1686	0.0250086
1698	0.0320817
1710	0.0366287
1722	0.0502698
1734	0.0856986
1746	0.256338
1758	0.491141
1770	0.235119
1782	0.306545
1794	0.148473
1806	0.0506487
1818	0.0282294
1830	0.0263348
1842	0.0209036
1854	0.0161672
1866	0.01402
1878	0.0100413
1890	0.0101045
1902	0.0094098
1914	0.0126938
1926	0.0151567
1938	0.0121885
1950	0.0106097
1962	0.00783097
1974	0.00669422
1986	0.00599953
1998	0.00713629
2010	0.00682052
2022	0.00650476
2034	0.00517855
2046	0.00574692
2058	0.00612584
2070	0.00656791
2082	0.00726259
2094	0.00669422
2106	0.00587323
2118	0.00562062
2130	0.00568377
2142	0.00599953
2154	0.00530485
2166	0.0042944
2178	0.00378918
2190	0.00227351
2202	0.00164198
2214	0.00101045
2226	0.00063153
2238	0.00063153
2250	0.00138937
2262	0.00126306
2274	0.00221035
2286	0.00448386
2298	0.00568377
2310	0.00663106
2322	0.00498909
2334	0.00265243
2346	0.00341026
2358	0.00587323
2370	0
2382	0.00284188
2394	0.00353657
2406	0.00334711
2418	0.00277873
2430	0.00252612
2442	0.0032208
2454	0.00341026
2466	0.0032208
2478	0.00296819
2490	0.00353657
2502	0.00328396
2514	0.00277873
2526	0.00271558
2538	0.00328396
2550	0.00359972
2562	0.00404179
2574	0.00473647
2586	0.00378918
2598	0.0032208
2610	0.00252612
2622	0.00183144
2634	0.00277873
2646	0.00258927
2658	0.00359972
2670	0.00498909
2682	0.00448386
2694	0.00492593
2706	0.00479963
2718	0.0042944
2730	0.00675737
2742	0.00675737
2754	0.00637845
2766	0.00732575
2778	0.00764151
2790	0.00814674
2802	0.00896773
2814	0.00852566
2826	0.0101045
2838	0.0126306
2850	0.0169882
2862	0.0272821
2874	0.050775
2886	0.106034
2898	0.100603
2910	0.0938454
2922	0.105655
2934	0.130916
2946	0.171776
2958	0.204047
2970	0.308755
2982	0.274273
2994	0.076352
3006	0.0285452
3018	0.0227982
3030	0.0318291
3042	0.0551326
3054	0.0616373
3066	0.0501435
3078	0.0653002
3090	0.048691
3102	0.0387128
3114	0.0257664
3126	0.0106729
3138	0.00688368
3150	0.00618899
3162	0.00618899
3174	0.00599953
3186	0.00505224
3198	0.00587323
3210	0.00341026
3222	0.00423125
3234	0.00341026
3246	0.00296819
3258	0.00145252
3270	0.0021472
3282	0.00132621
3294	0.0020209
3306	0.00303134
3318	0.00271558
3330	0.00284188
3342	0.00328396
3354	0.0030945
3366	0.00347341
3378	0.00479963
3390	0.00113675
3402	0.00347341
3414	0.00341026
3426	0.00334711
3438	0.00303134
3450	0.00378918
3462	0.0030945
3474	0.00315765
3486	0.00751521
3498	0.00650476
3510	0.00353657
3522	0.00410494
3534	0.00385233
3546	0.00328396
3558	0.00296819
3570	0.00334711
3582	0.00315765
3594	0.00442071
3606	0.0052417
3618	0.00353657
3630	0.00461017
3642	0.00448386
3654	0.00170513
3666	0.00751521
3678	0.00511539
3690	0.00423125
3702	0.00467332
3714	0.00397864
3726	0.00581008
3738	0.00467332
3750	0.00581008
3762	0.0041681
3774	0.00334711
3786	0.00397864
3798	0.005368
3810	0.00745205
3822	0.00410494
3834	0.00896773
3846	0.00877827
3858	0.00492593
3870	0.00745205
3882	0.00802043
3894	0.00568377
3906	0.00555746
3918	0.0112412
3930	0.0102939
3942	0.0114938
3954	0.0106729
3966	0.00871511
