Infrared Spectrum: Cyclohexanamine, N-(2-ethylhexyl)-
Formula: C 14 H 29 N
CAS: 5432-61-1
Origin: Sadtler Research Labs Under US-EPA Contract
1/CM	ABSORBANCE
450	0
462	0.0322692
474	0.0336899
486	0.0278043
498	0.0405902
510	0.0359223
522	0.0217158
534	0.0172508
546	0.0257748
558	0.0168449
570	0.0253689
582	0.0306456
594	0.0300367
606	0.0336899
618	0.0405902
630	0.0391695
642	0.037343
654	0.0365312
666	0.0424168
678	0.0535791
690	0.0675827
702	0.0714388
714	0.0708299
726	0.0700181
738	0.053782
750	0.0424168
762	0.0377489
774	0.0379518
786	0.0353135
798	0.0306456
810	0.0269925
822	0.0241512
834	0.0271954
846	0.0363282
858	0.0259777
870	0.0282102
882	0.033284
894	0.0446492
906	0.0273984
918	0.0294279
930	0.0326751
942	0.033284
954	0.0316604
966	0.0294279
978	0.0300367
990	0.0255718
1002	0.0229335
1014	0.0239482
1026	0.0320663
1038	0.0304426
1050	0.0316604
1062	0.0369371
1074	0.0466787
1086	0.062103
1098	0.0897043
1110	0.128874
1122	0.172305
1134	0.194833
1146	0.147545
1158	0.0939663
1170	0.0527673
1182	0.0345017
1194	0.0318633
1206	0.0294279
1218	0.0298338
1230	0.0387636
1242	0.0450551
1254	0.0549997
1266	0.0653502
1278	0.0468817
1290	0.0397784
1302	0.0547968
1314	0.0566233
1326	0.0629148
1338	0.0710328
1350	0.103099
1362	0.102084
1374	0.100258
1386	0.0990401
1398	0.0434315
1410	0.0363282
1422	0.0403872
1434	0.0712358
1446	0.168855
1458	0.295091
1470	0.269113
1482	0.121771
1494	0.0446492
1506	0.0276013
1518	0.0196862
1530	0.0174538
1542	0.0115682
1554	0.0113653
1566	0.0099446
1578	0.00974165
1590	0.00892984
1602	0.0099446
1614	0.00832099
1626	0.00974165
1638	0.0095387
1650	0.00527673
1662	0.00791509
1674	0.00771214
1686	0.00547968
1698	0.00547968
1710	0.00750919
1722	0.00892984
1734	0.00933575
1746	0.0111623
1758	0.0140036
1770	0.0192803
1782	0.0133948
1794	0.00832099
1806	0.00750919
1818	0.00649443
1830	0.00629148
1842	0.00730624
1854	0.00649443
1866	0.00588558
1878	0.00608853
1890	0.00568263
1902	0.00527673
1914	0.00466787
1926	0.00426197
1938	0.00446492
1950	0.00487082
1962	0.00547968
1974	0.00507377
1986	0.00487082
1998	0.00446492
2010	0.00446492
2022	0.00405902
2034	0.00385607
2046	0.00426197
2058	0.00507377
2070	0.00487082
2082	0.00507377
2094	0.00527673
2106	0.00547968
2118	0.00487082
2130	0.00466787
2142	0.00426197
2154	0.00446492
2166	0.00487082
2178	0.00547968
2190	0.00608853
2202	0.00547968
2214	0.00466787
2226	0.00527673
2238	0.00507377
2250	0.00446492
2262	0.00466787
2274	0.00426197
2286	0.00426197
2298	0.00426197
2310	0.00345017
2322	0.00324722
2334	0.00466787
2346	0.00365312
2358	0.00426197
2370	0.0103505
2382	0.00649443
2394	0.00547968
2406	0.00629148
2418	0.00669738
2430	0.00669738
2442	0.00690033
2454	0.00649443
2466	0.00629148
2478	0.00690033
2490	0.00669738
2502	0.00608853
2514	0.00690033
2526	0.00852394
2538	0.00933575
2550	0.0109594
2562	0.0131918
2574	0.0158302
2586	0.0194833
2598	0.0221217
2610	0.0221217
2622	0.0217158
2634	0.0237453
2646	0.0278043
2658	0.0351105
2670	0.0401843
2682	0.0353135
2694	0.0342987
2706	0.0351105
2718	0.0359223
2730	0.0389666
2742	0.0460699
2754	0.0519555
2766	0.0582469
2778	0.0752948
2790	0.107158
2802	0.145516
2814	0.175147
2826	0.188339
2838	0.206401
2850	0.345423
2862	0.793944
2874	0.655329
2886	0.54472
2898	0.499868
2910	0.741786
2922	1.16514
2934	1.94265
2946	1.45556
2958	0.667709
2970	0.835143
2982	0.292858
2994	0.114261
3006	0.0698151
3018	0.0503318
3030	0.0395754
3042	0.0304426
3054	0.0255718
3066	0.0215128
3078	0.0190774
3090	0.0176567
3102	0.016642
3114	0.0156272
3126	0.0154243
3138	0.0144095
3150	0.0146125
3162	0.0131918
3174	0.0101475
3186	0.00832099
3198	0.00811804
3210	0.00649443
3222	0.00629148
3234	0.00771214
3246	0.00771214
3258	0.00710328
3270	0.00730624
3282	0.00547968
3294	0.00446492
3306	0.00446492
3318	0.00507377
3330	0.00527673
3342	0.00690033
3354	0.00669738
3366	0.00771214
3378	0.00892984
3390	0.00690033
3402	0.00669738
3414	0.00608853
3426	0.00568263
3438	0.00446492
3450	0.00507377
3462	0.00527673
3474	0.00629148
3486	0.00771214
3498	0.00690033
3510	0.00710328
3522	0.00669738
3534	0.00568263
3546	0.00547968
3558	0.00547968
3570	0.00892984
3582	0.00872689
3594	0.00588558
3606	0.00750919
3618	0.00649443
3630	0.00629148
3642	0.00608853
3654	0.00466787
3666	0.00649443
3678	0.00446492
3690	0.00547968
3702	0.00852394
3714	0.00791509
3726	0.0103505
3738	0.0105535
3750	0.00527673
3762	0.00913279
3774	0.00750919
3786	0.00750919
3798	0.00730624
3810	0.0095387
3822	0.00690033
3834	0.0103505
3846	0.012583
3858	0.0095387
3870	0.00649443
3882	0.0105535
3894	0.00568263
3906	0.00365312
3918	0.00852394
3930	0.00568263
3942	0.00852394
3954	0.0140036
3966	0.0154243
