Infrared Spectrum: Benzene, 1,2-dimethoxy-4-propenyl
Formula: C 11 H 14 O 2
CAS: 54349-79-0
Origin: Sadtler Research Labs Under US-EPA Contract
1/CM	ABSORBANCE
450	0.0179369
462	0.00921755
474	0.00863626
486	0.00207603
498	0.00456726
510	0.0050655
522	0.00398597
534	0.0036538
546	0.00548071
558	0.00888539
570	0.0140339
582	0.0248293
594	0.0305591
606	0.0328012
618	0.0281509
630	0.0150304
642	0.0102971
654	0.00996492
666	0.00357076
678	0.00265731
690	0.00199298
702	0.00406901
714	0.00896843
726	0.0195146
738	0.0432644
750	0.0539767
762	0.0673463
774	0.0739895
786	0.0714983
798	0.0342959
810	0.0417696
822	0.0514854
834	0.0368702
846	0.0323029
858	0.0494094
870	0.0367872
882	0.0357076
894	0.0337146
906	0.0403579
918	0.0471673
930	0.0358737
942	0.0449252
954	0.131371
966	0.129544
978	0.0430152
990	0.0471673
1002	0.0733252
1014	0.161016
1026	0.33341
1038	0.377255
1050	0.184517
1062	0.0558036
1074	0.0305591
1086	0.0299778
1098	0.040441
1110	0.0833732
1122	0.211755
1134	0.260167
1146	0.230439
1158	0.24331
1170	0.141087
1182	0.0914281
1194	0.0880235
1206	0.109116
1218	0.226702
1230	0.391538
1242	0.393033
1254	0.436214
1266	0.725114
1278	0.725197
1290	0.438623
1302	0.330752
1314	0.195894
1326	0.112936
1338	0.0654363
1350	0.0422679
1362	0.0313065
1374	0.038448
1386	0.0471673
1398	0.0765638
1410	0.17887
1422	0.132783
1434	0.095248
1446	0.165667
1458	0.16766
1470	0.222882
1482	0.159771
1494	0.266146
1506	0.724284
1518	0.654363
1530	0.186676
1542	0.0661837
1554	0.0543919
1566	0.0853661
1578	0.125973
1590	0.0914281
1602	0.0959954
1614	0.0715813
1626	0.026324
1638	0.0160269
1650	0.0097158
1662	0.0133696
1674	0.00531462
1686	0.00149474
1698	0.000913451
1710	0.00838714
1722	0.0112936
1734	0.00822106
1746	0.00772281
1758	0.00614503
1770	0.00448421
1782	0.00315556
1794	0.000913451
1806	0.00274035
1818	0.00440117
1830	0.00282339
1842	0.00298948
1854	0.00489942
1866	0.00440117
1878	0.00448421
1890	0.00265731
1902	0.00249123
1914	0.00116257
1926	0.00124562
1938	0.00157778
1950	0.00157778
1962	0.00199298
1974	0.00406901
1986	0.00780585
1998	0.0114597
2010	0.0116257
2022	0.0132035
2034	0.016193
2046	0.0137018
2058	0.012207
2070	0.0102971
2082	0.00797194
2094	0.00423509
2106	0.0014117
2118	0.000415205
2130	0.000249123
2142	0.000415205
2154	0.000913451
2166	0.00157778
2178	0.00190994
2190	0.00190994
2202	0.00190994
2214	0.00174386
2226	0.0014117
2238	0.00166082
2250	0.00224211
2262	0.0036538
2274	0.00431813
2286	0.00373685
2298	0.00224211
2310	0.00107953
2322	0.000747369
2334	0.000913451
2346	0.00132866
2358	0.0014117
2370	0.0032386
2382	0.00199298
2394	0.00132866
2406	0.00132866
2418	0.00149474
2430	0.00116257
2442	0.00157778
2454	0.0018269
2466	0.00274035
2478	0.00357076
2490	0.00415205
2502	0.00423509
2514	0.0050655
2526	0.00631112
2538	0.00747369
2550	0.00871931
2562	0.00847018
2574	0.00755673
2586	0.00730761
2598	0.0068924
2610	0.00664328
2622	0.00531462
2634	0.00473334
2646	0.00481638
2658	0.00406901
2670	0.0036538
2682	0.00423509
2694	0.00456726
2706	0.0046503
2718	0.00572983
2730	0.00797194
2742	0.0146152
2754	0.0103801
2766	0.00954972
2778	0.0112936
2790	0.0145322
2802	0.0207603
2814	0.0338807
2826	0.0693392
2838	0.173057
2850	0.166912
2862	0.133281
2874	0.146069
2886	0.118333
2898	0.147232
2910	0.18078
2922	0.257842
2934	0.323113
2946	0.355665
2958	0.294463
2970	0.230771
2982	0.171895
2994	0.184351
3006	0.272208
3018	0.190579
3030	0.186842
3042	0.115178
3054	0.0998983
3066	0.0866948
3078	0.0633603
3090	0.044593
3102	0.0313065
3114	0.0240819
3126	0.0189333
3138	0.0123731
3150	0.00905147
3162	0.0064772
3174	0.00548071
3186	0.00456726
3198	0.00348772
3210	0.00290644
3222	0.00282339
3234	0.00282339
3246	0.00199298
3258	0.00207603
3270	0.00199298
3282	0.0018269
3294	0.00207603
3306	0.0018269
3318	0.0018269
3330	0.00157778
3342	0.00116257
3354	0.00174386
3366	0.00199298
3378	0.00190994
3390	0.00132866
3402	0.00166082
3414	0.00190994
3426	0.00149474
3438	0.00199298
3450	0.00174386
3462	0.00132866
3474	0.00224211
3486	0.00149474
3498	0.00166082
3510	0.00174386
3522	0.0014117
3534	0.00224211
3546	0.00157778
3558	0.0014117
3570	0.00190994
3582	0.00149474
3594	0.00190994
3606	0.00157778
3618	0.00224211
3630	0.00157778
3642	0.00207603
3654	0.0014117
3666	0.00166082
3678	0.0018269
3690	0.00207603
3702	0.00166082
3714	0.00199298
3726	0.00174386
3738	0.00132866
3750	0.00132866
3762	0.00132866
3774	0.0014117
3786	0.00224211
3798	0.00224211
3810	0.00274035
3822	0.00257427
3834	0.00224211
3846	0.00215907
3858	0.0014117
3870	0.00224211
3882	0.00257427
3894	0.00332164
3906	0.00174386
3918	0.00107953
3930	0.00265731
3942	0.00207603
3954	0.00149474
3966	0.00406901
