Infrared Spectrum: Benzyl 2-bromoacetate
Formula: C 9 H 9 Br O 2
CAS: 5437-45-6
Origin: Sadtler Research Labs Under US-EPA Contract
1/CM	ABSORBANCE
450	0.0571222
462	0.0262007
474	0.0480345
486	0.0664458
498	0.0454381
510	0.0220699
522	0.0129823
534	0
546	0.0315116
558	0.0284431
570	0.0315116
582	0.0607808
594	0.0632593
606	0.0634953
618	0.0420155
630	0.0317476
642	0.028089
654	0.0276169
666	0.056178
678	0.12581
690	0.194499
702	0.207245
714	0.15567
726	0.164639
738	0.19981
750	0.188362
762	0.0761235
774	0.0302134
786	0.0237222
798	0.0182933
810	0.0202996
822	0.0300954
834	0.0238402
846	0.0219519
858	0.0212438
870	0.0232501
882	0.0297413
894	0.0370586
906	0.0483886
918	0.0572402
930	0.0467363
942	0.0515752
954	0.0709306
966	0.147054
978	0.254217
990	0.275933
1002	0.241943
1014	0.146464
1026	0.0987836
1038	0.0580663
1050	0.0427236
1062	0.0499229
1074	0.0751794
1086	0.131003
1098	0.264485
1110	0.492148
1122	0.401743
1134	0.337658
1146	0.380382
1158	0.282778
1170	0.191312
1182	0.175025
1194	0.187535
1206	0.296351
1218	0.352647
1230	0.18907
1242	0.257876
1254	0.52779
1266	0.963641
1278	1.03563
1290	0.380736
1302	0.1932
1314	0.126519
1326	0.0861553
1338	0.0646755
1350	0.050513
1362	0.0591285
1374	0.0803723
1386	0.0584204
1398	0.033754
1410	0.0472084
1422	0.1133
1434	0.0858013
1446	0.0686882
1458	0.0964232
1470	0.0645575
1482	0.0300954
1494	0.0553518
1506	0.0533455
1518	0.0173491
1530	0.0151067
1542	0.0152247
1554	0.0140445
1566	0.0148706
1578	0.016877
1590	0.0202996
1602	0.0243123
1614	0.0194735
1626	0.0119201
1638	0.011212
1650	0.0115661
1662	0.0120381
1674	0.0140445
1686	0.0193554
1698	0.0286791
1710	0.0479165
1722	0.0827327
1734	0.160745
1746	0.4067
1758	0.756043
1770	0.614417
1782	0.340373
1794	0.184467
1806	0.0941808
1818	0.0501589
1830	0.0284431
1842	0.0195915
1854	0.016641
1866	0.016641
1878	0.0164049
1890	0.0143986
1902	0.00967772
1914	0.00885158
1926	0.0115661
1938	0.016641
1950	0.0200636
1962	0.0198275
1974	0.0107399
1986	0.00837949
1998	0.00826147
2010	0.00767137
2022	0.00755334
2034	0.00719928
2046	0.00814345
2058	0.0067272
2070	0.0073173
2082	0.00684522
2094	0.00531095
2106	0.00660918
2118	0.00566501
2130	0.00578303
2142	0.00566501
2154	0.0050749
2166	0.00519292
2178	0.00566501
2190	0.00625511
2202	0.00613709
2214	0.00590105
2226	0.00566501
2238	0.00590105
2250	0.00483886
2262	0.00554699
2274	0.00554699
2286	0.00554699
2298	0.00519292
2310	0.00413073
2322	0.00495688
2334	0.00590105
2346	0.00802543
2358	0.0028325
2370	0.0122742
2382	0.00920564
2394	0.00519292
2406	0.0050749
2418	0.00519292
2430	0.00531095
2442	0.00483886
2454	0.00436678
2466	0.00495688
2478	0.00424876
2490	0.00483886
2502	0.00389469
2514	0.00472084
2526	0.00531095
2538	0.00460282
2550	0.00377667
2562	0.00342261
2574	0.00401271
2586	0.00365865
2598	0.00436678
2610	0.00472084
2622	0.00401271
2634	0.00401271
2646	0.0050749
2658	0.00153427
2670	0.0022424
2682	0.00377667
2694	0.00354063
2706	0.00354063
2718	0.00413073
2730	0.00436678
2742	0.00472084
2754	0.00342261
2766	0.00424876
2778	0.00436678
2790	0.00542897
2802	0.0067272
2814	0.00826147
2826	0.01133
2838	0.0123922
2850	0.0145166
2862	0.0180572
2874	0.0207717
2886	0.0263187
2898	0.0342261
2910	0.0305674
2922	0.0286791
2934	0.0329279
2946	0.044848
2958	0.0749433
2970	0.0913483
2982	0.0638494
2994	0.0454381
3006	0.0324558
3018	0.0403632
3030	0.0859193
3042	0.139973
3054	0.0944168
3066	0.0994917
3078	0.147526
3090	0.0783659
3102	0.0557059
3114	0.033754
3126	0.0173491
3138	0.00719928
3150	0.00306855
3162	0.0044848
3174	0.00436678
3186	0.00377667
3198	0.00318657
3210	0.0028325
3222	0.00295052
3234	0.00247844
3246	0.00330459
3258	0.00472084
3270	0.00365865
3282	0.00295052
3294	0.0022424
3306	0.00259646
3318	0.00389469
3330	0.00413073
3342	0.00531095
3354	0.00295052
3366	0.00472084
3378	0.00483886
3390	0.00295052
3402	0.00295052
3414	0.0028325
3426	0.00271448
3438	0.00247844
3450	0.00106219
3462	0.00342261
3474	0.00377667
3486	0.00684522
3498	0.0067272
3510	0.00802543
3522	0.00495688
3534	0.00330459
3546	0.00247844
3558	0.00436678
3570	0.0126282
3582	0.0155788
3594	0.00979574
3606	0.00436678
3618	0.0044848
3630	0.00696324
3642	0.00885158
3654	0.00861553
3666	0.00849751
3678	0.00684522
3690	0.00778939
3702	0.00637313
3714	0.00743532
3726	0.00861553
3738	0.00578303
3750	0.00696324
3762	0.00413073
3774	0.00708126
3786	0.00531095
3798	0.00531095
3810	0.00625511
3822	0.00861553
3834	0.00849751
3846	0.00354063
3858	0.00708126
3870	0.00554699
3882	0.00483886
3894	0.00778939
3906	0.0095597
3918	0.00519292
3930	0.00118021
3942	0.00377667
3954	0.00259646
3966	0.00790741
