Infrared Spectrum: Tetradecanoic acid
Formula: C 14 H 28 O 2
CAS: 544-63-8
Origin: Sadtler Research Labs Under US-EPA Contract
1/CM	ABSORBANCE
450	0.0349124
462	0.0040798
474	0.0251476
486	0.0103667
498	0.0137108
510	0.0255489
522	0.0226061
534	0.0292943
546	0.0370526
558	0.040798
570	0.0465499
582	0.0502953
594	0.0494258
606	0.0514323
618	0.046483
630	0.04762
642	0.0347118
654	0.0171887
666	0.0140452
678	0.0196633
690	0.0234087
702	0.0177906
714	0.0216029
726	0.0193289
738	0.0213354
750	0.0284249
762	0.0155835
774	0.011905
786	0.00889531
798	0.00943036
810	0.021536
822	0.0233418
834	0.014714
846	0.00956413
858	0.0074239
870	0.00782519
882	0.00702261
894	0.0059525
906	0.00708949
918	0.00749078
930	0.0052168
942	0.00468174
954	0.00555121
966	0.00561809
978	0.00655444
990	0.00822649
1002	0.0163192
1014	0.0408649
1026	0.0621334
1038	0.0472856
1050	0.0432727
1062	0.0637385
1074	0.0900232
1086	0.115104
1098	0.139181
1110	0.156437
1122	0.145268
1134	0.141188
1146	0.108951
1158	0.0873479
1170	0.0838031
1182	0.0966445
1194	0.0697579
1206	0.0428045
1218	0.0343773
1230	0.0296956
1242	0.0291606
1254	0.0342436
1266	0.0460817
1278	0.0348455
1290	0.0319027
1302	0.0341098
1314	0.0367182
1326	0.0360494
1338	0.0375877
1350	0.0503621
1362	0.06006
1374	0.056114
1386	0.0514323
1398	0.0305651
1410	0.0206665
1422	0.0256827
1434	0.0264853
1446	0.0320365
1458	0.0593912
1470	0.0566491
1482	0.0255489
1494	0.00996542
1506	0.00494927
1518	0.00354475
1530	0.00120388
1542	0.000869466
1554	0.00207334
1566	0.00682196
1578	0.011905
1590	0.00989854
1602	0.00635379
1614	0.00655444
1626	0.00588562
1638	0.00387916
1650	0.00434733
1662	0.00341098
1674	0.00321034
1686	0.00528368
1698	0.00729014
1710	0.014179
1722	0.0279567
1734	0.0464161
1746	0.0924978
1758	0.197703
1770	0.297892
1782	0.294883
1794	0.157106
1806	0.0862778
1818	0.0391929
1830	0.0154497
1842	0.00849401
1854	0.0052168
1866	0.00361163
1878	0.00367851
1890	0.00254152
1902	0.00234087
1914	0.00214022
1926	0.00113699
1938	0.00133764
1950	0.000936348
1962	0.000468174
1974	0.000535056
1986	0.000936348
1998	0.00107011
2010	0.00153829
2022	0.00133764
2034	0.00133764
2046	0.00173893
2058	0.00120388
2070	0.00140452
2082	0.00113699
2094	0.000936348
2106	0.000735702
2118	0.000869466
2130	0.000869466
2142	0.000802584
2154	0.000735702
2166	0.000735702
2178	0.000802584
2190	0.000936348
2202	0.000802584
2214	0.000735702
2226	0.00066882
2238	0.00033441
2250	0.000401292
2262	0.000468174
2274	0.00066882
2286	0.00140452
2298	0.00227399
2310	0.00314345
2322	0.00274216
2334	0.00153829
2346	0.00274216
2358	0.00200646
2370	0.0026084
2382	0.00381227
2394	0.00127076
2406	0.00100323
2418	0.00107011
2430	0.00120388
2442	0.00113699
2454	0.00153829
2466	0.00180581
2478	0.0014714
2490	0.00160517
2502	0.00180581
2514	0.00193958
2526	0.00247463
2538	0.00287593
2550	0.00274216
2562	0.00274216
2574	0.0026084
2586	0.00280904
2598	0.00321034
2610	0.00374539
2622	0.00394604
2634	0.00421357
2646	0.00514991
2658	0.00581873
2670	0.00635379
2682	0.00682196
2694	0.00762455
2706	0.00702261
2718	0.00789208
2730	0.0081596
2742	0.00862778
2754	0.0092966
2766	0.00956413
2778	0.00989854
2790	0.0123063
2802	0.0154497
2814	0.0209341
2826	0.0285586
2838	0.0438077
2850	0.095775
2862	0.240173
2874	0.197235
2886	0.13664
2898	0.131423
2910	0.208404
2922	0.397212
2934	0.66882
2946	0.437141
2958	0.239237
2970	0.201515
2982	0.0973133
2994	0.0492252
3006	0.0305651
3018	0.0210009
3030	0.0165199
3042	0.0133095
3054	0.0107011
3066	0.00969789
3078	0.00936348
3090	0.00882842
3102	0.00708949
3114	0.00581873
3126	0.00535056
3138	0.00461486
3150	0.00454798
3162	0.00461486
3174	0.0040798
3186	0.00347786
3198	0.00327722
3210	0.00287593
3222	0.0026084
3234	0.00180581
3246	0.00220711
3258	0.00153829
3270	0.00180581
3282	0.00153829
3294	0.000936348
3306	0.00167205
3318	0.000468174
3330	0.000468174
3342	0.000601938
3354	0.000802584
3366	0.00180581
3378	0.00200646
3390	0.00307657
3402	0.00354475
3414	0.00287593
3426	0.00193958
3438	0.00307657
3450	0.00287593
3462	0.0026084
3474	0.00227399
3486	0.0018727
3498	0.0033441
3510	0.00314345
3522	0.0048155
3534	0.00575185
3546	0.00996542
3558	0.0179913
3570	0.0825993
3582	0.120388
3594	0.0340429
3606	0.00996542
3618	0.00762455
3630	0.00795896
3642	0.00548432
3654	0.00662132
3666	0.00488239
3678	0.00682196
3690	0.00648755
3702	0.00655444
3714	0.0081596
3726	0.00876154
3738	0.00909595
3750	0.00836025
3762	0.00642067
3774	0.00581873
3786	0.00428045
3798	0.00374539
3810	0.00615314
3822	0.00528368
3834	0.00528368
3846	0.00662132
3858	0.00782519
3870	0.00622003
3882	0.00635379
3894	0.00555121
3906	0.00902907
3918	0.00688885
3930	0.00655444
3942	0.0081596
3954	0.00548432
3966	0.0066882
