Infrared Spectrum: Hexane, 1-chloro-
Formula: C 6 H 13 Cl
CAS: 544-10-5
Origin: Sadtler Research Labs Under US-EPA Contract
1/CM	ABSORBANCE
450	0
462	0.00302904
474	0.00538496
486	0.00698362
498	0.00235592
510	0.00286076
522	0.004207
534	0.00563738
546	0.00597394
558	0.00555324
570	0.0127893
582	0.00437528
594	0.00950782
606	0.0100127
618	0.0141355
630	0.0189315
642	0.0291124
654	0.0646195
666	0.0748846
678	0.0321415
690	0.0203619
702	0.0244847
714	0.0447625
726	0.079933
738	0.111233
750	0.0786709
762	0.046866
774	0.0287759
786	0.0245689
798	0.0220447
810	0.0222971
822	0.0250737
834	0.0205302
846	0.0169121
858	0.0202777
870	0.0226337
882	0.0238116
894	0.0233068
906	0.0196046
918	0.0183425
930	0.0159866
942	0.0159025
954	0.019857
966	0.024064
978	0.0183425
990	0.0201936
1002	0.0239799
1014	0.0244006
1026	0.0274296
1038	0.0328987
1050	0.0360119
1062	0.0304587
1074	0.0224654
1086	0.0186791
1098	0.0167439
1110	0.0152293
1122	0.0138831
1134	0.0124527
1146	0.011443
1158	0.0113589
1170	0.0116955
1182	0.0111065
1194	0.0116955
1206	0.0153135
1218	0.0188474
1230	0.0206143
1242	0.0239799
1254	0.0411445
1266	0.0613381
1278	0.0635257
1290	0.0882629
1302	0.101136
1314	0.0819524
1326	0.0610856
1338	0.0437528
1350	0.0417334
1362	0.0350022
1374	0.0403031
1386	0.0522509
1398	0.0334036
1410	0.0202777
1422	0.0238958
1434	0.0445101
1446	0.0944051
1458	0.136307
1470	0.116113
1482	0.0634416
1494	0.0262517
1506	0.0144721
1518	0.0101809
1530	0.00774088
1542	0.00656292
1554	0.00521668
1566	0.00395458
1578	0.00387044
1590	0.00445942
1602	0.00403872
1614	0.00437528
1626	0.00311318
1638	0.00412286
1650	0.0033656
1662	0.00235592
1674	0.00143038
1686	0.00218764
1698	0.0029449
1710	0.00227178
1722	0.00218764
1734	0.00277662
1746	0.00227178
1758	0.0012621
1770	0.00100968
1782	0.00075726
1794	0.00050484
1806	0.0008414
1818	0.00075726
1830	0.00100968
1842	0.00117796
1854	0.0008414
1866	0.00067312
1878	0.00092554
1890	0.00050484
1902	0.00058898
1914	0.00067312
1926	0.00058898
1938	0.00117796
1950	0.00092554
1962	0.00109382
1974	0.00067312
1986	0.00050484
1998	0.0004207
2010	0.00109382
2022	0.00143038
2034	0.00286076
2046	0.00244006
2058	0.0029449
2070	0.00277662
2082	0.00185108
2094	0.0008414
2106	0.00067312
2118	0.0016828
2130	0.0008414
2142	0.00117796
2154	0.0016828
2166	0.0016828
2178	0.00159866
2190	0.00159866
2202	0.00176694
2214	0.00193522
2226	0.00176694
2238	0.0016828
2250	0.00218764
2262	0.00244006
2274	0.00269248
2286	0.00361802
2298	0.00496426
2310	0.00580566
2322	0.00614222
2334	0.0050484
2346	0.00614222
2358	0.00445942
2370	0.00580566
2382	0.00689948
2394	0.004207
2406	0.0046277
2418	0.00403872
2430	0.004207
2442	0.004207
2454	0.00429114
2466	0.00395458
2478	0.004207
2490	0.00521668
2502	0.0050484
2514	0.0050484
2526	0.00572152
2538	0.0058898
2550	0.00639464
2562	0.00513254
2574	0.00521668
2586	0.0058898
2598	0.00639464
2610	0.0071519
2622	0.00782502
2634	0.00849814
2646	0.00866642
2658	0.00891884
2670	0.0102651
2682	0.0118637
2694	0.0123686
2706	0.0130417
2718	0.01321
2730	0.0150611
2742	0.0176694
2754	0.0178377
2766	0.0165756
2778	0.0175011
2790	0.0212033
2802	0.0272614
2814	0.0334036
2826	0.0455197
2838	0.0756419
2850	0.153471
2862	0.284225
2874	0.370553
2886	0.370553
2898	0.296762
2910	0.345815
2922	0.530334
2934	0.770807
2946	0.819187
2958	0.707197
2970	0.763571
2982	0.468407
2994	0.218007
3006	0.133698
3018	0.0648719
3030	0.04207
3042	0.0323939
3054	0.025242
3066	0.0218764
3078	0.0190156
3090	0.0169121
3102	0.0158183
3114	0.0139672
3126	0.0129576
3138	0.0123686
3150	0.0127051
3162	0.0122003
3174	0.0119479
3186	0.0124527
3198	0.0113589
3210	0.00875056
3222	0.00790916
3234	0.00572152
3246	0.00513254
3258	0.00563738
3270	0.0050484
3282	0.00429114
3294	0.00454356
3306	0.00403872
3318	0.00496426
3330	0.00328146
3342	0.00361802
3354	0.00302904
3366	0.00344974
3378	0.00328146
3390	0.00319732
3402	0.00286076
3414	0.00454356
3426	0.00429114
3438	0.00344974
3450	0.00471184
3462	0.00201936
3474	0.00235592
3486	0.00151452
3498	0.00269248
3510	0.00412286
3522	0.00429114
3534	0.00488012
3546	0.00521668
3558	0.00395458
3570	0.00479598
3582	0.00361802
3594	0.00496426
3606	0.00572152
3618	0.00403872
3630	0.00832986
3642	0.00908712
3654	0.0106016
3666	0.0116113
3678	0.0107699
3690	0.00942368
3702	0.00976024
3714	0.00875056
3726	0.00698362
3738	0.00933954
3750	0.00891884
3762	0.0107699
3774	0.00992852
3786	0.00976024
3798	0.00849814
3810	0.0092554
3822	0.0106858
3834	0.0096761
3846	0.0128734
3858	0.0144721
3870	0.0129576
3882	0.0131258
3894	0.0123686
3906	0.0106016
3918	0.0106858
3930	0.0118637
3942	0.0101809
3954	0.0110223
3966	0.0132941
