Infrared Spectrum: Hexadecane
Formula: C 16 H 34
CAS: 544-76-3
Origin: Sadtler Research Labs Under US-EPA Contract
1/CM	ABSORBANCE
450	0.0259197
462	0.00388796
474	0.00796106
486	0.00462852
498	0.00685022
510	0.0112936
522	0.00481367
534	0.00259197
546	0.0072205
558	0.00370282
570	0.00833135
582	0.00610965
594	0.00740564
606	0.00685022
618	0.00536909
630	0.000740564
642	0.00222169
654	0.00610965
666	0.00499881
678	0.00666508
690	0.011849
702	0.0162924
714	0.0277711
726	0.0312888
738	0.02629
750	0.0177735
762	0.0125896
774	0.0137004
786	0.0133302
798	0.00870163
810	0.00796106
822	0.00907191
834	0.00759078
846	0.00962733
858	0.00888677
870	0.00740564
882	0.00962733
894	0.0107382
906	0.00925705
918	0.00999761
930	0.0081462
942	0.00759078
954	0.00759078
966	0.00685022
978	0.0072205
990	0.0072205
1002	0.0072205
1014	0.0081462
1026	0.00740564
1038	0.0072205
1050	0.00907191
1062	0.00870163
1074	0.00759078
1086	0.00796106
1098	0.00777592
1110	0.00703536
1122	0.0072205
1134	0.00796106
1146	0.00592451
1158	0.00629479
1170	0.00610965
1182	0.00536909
1194	0.00999761
1206	0.00962733
1218	0.0125896
1230	0.0111085
1242	0.010553
1254	0.0124044
1266	0.0146261
1278	0.0159221
1290	0.0198101
1302	0.0259197
1314	0.0248089
1326	0.0211061
1338	0.0292523
1350	0.0422121
1362	0.0405459
1374	0.0351768
1386	0.0373985
1398	0.0198101
1410	0.0159221
1422	0.0179587
1434	0.0277711
1446	0.0623925
1458	0.113862
1470	0.116454
1482	0.0449893
1494	0.0201804
1506	0.0129599
1518	0.00981247
1530	0.00703536
1542	0.00629479
1554	0.00518395
1566	0.00518395
1578	0.00462852
1590	0.0040731
1602	0.00425824
1614	0.00351768
1626	0.00388796
1638	0.00370282
1650	0.00333254
1662	0.00296226
1674	0.00296226
1686	0.00277712
1698	0.00277712
1710	0.00240683
1722	0.00240683
1734	0.00203655
1746	0.00222169
1758	0.00166627
1770	0.00166627
1782	0.00129599
1794	0.00166627
1806	0.00148113
1818	0.00148113
1830	0.00111085
1842	0.00148113
1854	0.00129599
1866	0.00111085
1878	0.00148113
1890	0.00111085
1902	0.00111085
1914	0.000925705
1926	0.00111085
1938	0.00111085
1950	0.00148113
1962	0.000925705
1974	0.00111085
1986	0.000925705
1998	0.000925705
2010	0.00111085
2022	0.00240683
2034	0.00296226
2046	0.00203655
2058	0.00203655
2070	0.00203655
2082	0.00222169
2094	0.00111085
2106	0.00148113
2118	0.00166627
2130	0.00203655
2142	0.00166627
2154	0.00203655
2166	0.00222169
2178	0.00166627
2190	0.00203655
2202	0.00166627
2214	0.00166627
2226	0.00185141
2238	0.00148113
2250	0.00203655
2262	0.00222169
2274	0.00203655
2286	0.00166627
2298	0.00148113
2310	0.000185141
2322	0
2334	0.000925705
2346	0.00388796
2358	0
2370	0.00759078
2382	0.00647994
2394	0.00370282
2406	0.0031474
2418	0.0031474
2430	0.00351768
2442	0.00333254
2454	0.00351768
2466	0.00333254
2478	0.00370282
2490	0.00370282
2502	0.00388796
2514	0.00388796
2526	0.00462852
2538	0.00573937
2550	0.00573937
2562	0.00629479
2574	0.00666508
2586	0.00759078
2598	0.0081462
2610	0.00962733
2622	0.0101828
2634	0.0112936
2646	0.0124044
2658	0.0133302
2670	0.0159221
2682	0.0181438
2694	0.0166627
2706	0.0146261
2718	0.014441
2730	0.015737
2742	0.018329
2754	0.0186992
2766	0.0190695
2778	0.0214764
2790	0.0268454
2802	0.0353619
2814	0.0466555
2826	0.0647993
2838	0.098495
2850	0.226613
2862	0.678542
2874	0.497659
2886	0.356211
2898	0.325478
2910	0.518025
2922	0.999761
2934	1.85141
2946	1.02457
2958	0.520061
2970	0.572456
2982	0.23013
2994	0.107011
3006	0.067021
3018	0.0479515
3030	0.0362876
3042	0.0281414
3054	0.0229575
3066	0.0205507
3078	0.0181438
3090	0.0162924
3102	0.0148113
3114	0.013145
3126	0.0107382
3138	0.0116639
3150	0.0103679
3162	0.0101828
3174	0.0103679
3186	0.00907191
3198	0.00833135
3210	0.0081462
3222	0.00740564
3234	0.00629479
3246	0.00481367
3258	0.00499881
3270	0.00499881
3282	0.00425824
3294	0.00351768
3306	0.0031474
3318	0.00388796
3330	0.00518395
3342	0.00647994
3354	0.00388796
3366	0.0040731
3378	0.00573937
3390	0.00462852
3402	0.00481367
3414	0.00425824
3426	0.00333254
3438	0.0040731
3450	0.00388796
3462	0.00592451
3474	0.00370282
3486	0.00536909
3498	0.00203655
3510	0.00166627
3522	0.00370282
3534	0.00277712
3546	0.00518395
3558	0.00259197
3570	0.00462852
3582	0.00333254
3594	0.00388796
3606	0.00592451
3618	0.00536909
3630	0.00759078
3642	0.00629479
3654	0.00833135
3666	0.00666508
3678	0.00610965
3690	0.00740564
3702	0.00647994
3714	0.00703536
3726	0.00907191
3738	0.00851649
3750	0.00888677
3762	0.00777592
3774	0.00777592
3786	0.00610965
3798	0.00796106
3810	0.00740564
3822	0.010553
3834	0.00518395
3846	0.0109233
3858	0.0112936
3870	0.00685022
3882	0.00925705
3894	0.0111085
3906	0.00796106
3918	0.00962733
3930	0.00944219
3942	0.00888677
3954	0.0112936
3966	0.0107382
