Infrared Spectrum: 2-Propanethiol, 1-anilino-2-methyl-,
Formula: C 10 H 15 N S
CAS: 54410-26-3
Origin: Sadtler Research Labs Under US-EPA Contract
1/CM	ABSORBANCE
450	0.0021691
462	0.0150438
474	0.00902626
486	0.0180525
498	0.0272187
510	0.0210613
522	0.00986591
534	0.00713704
546	0.0091662
558	0.012035
570	0.0152537
582	0.0179126
594	0.0195219
606	0.0230904
618	0.0221108
630	0.0188222
642	0.0248397
654	0.0462508
666	0.0620643
678	0.0878836
690	0.16807
702	0.0894229
714	0.050589
726	0.060315
738	0.153656
750	0.226356
762	0.0960002
774	0.043382
786	0.0213412
798	0.00258893
810	0.00629739
822	0.0152537
834	0.0109854
846	0.00902626
858	0.0143441
870	0.0260992
882	0.0179825
894	0.0146239
906	0.0148339
918	0.0126648
930	0.00993588
942	0.0110554
954	0.0125248
966	0.0181225
978	0.0258893
990	0.0279884
1002	0.016793
1014	0.0026589
1026	0.0165831
1038	0.0108455
1050	0.0153236
1062	0.0403733
1074	0.0491896
1086	0.050729
1098	0.0625541
1110	0.0643733
1122	0.0671022
1134	0.0962801
1146	0.117551
1158	0.102787
1170	0.091802
1182	0.103067
1194	0.0563966
1206	0.050589
1218	0.0557669
1230	0.0703209
1242	0.165202
1254	0.223487
1266	0.233983
1278	0.230554
1290	0.14554
1302	0.132385
1314	0.160793
1326	0.105866
1338	0.0545774
1350	0.0473004
1362	0.0633238
1374	0.0834754
1386	0.0827057
1398	0.0624841
1410	0.0321167
1422	0.0597552
1434	0.11965
1446	0.0853646
1458	0.118531
1470	0.174298
1482	0.157715
1494	0.341738
1506	0.69971
1518	0.270508
1530	0.077318
1542	0.0460409
1554	0.0478602
1566	0.0534578
1578	0.0856445
1590	0.24063
1602	0.571663
1614	0.360631
1626	0.140012
1638	0.0635337
1650	0.0263091
1662	0.0212012
1674	0.0186123
1686	0.0187522
1698	0.0132245
1710	0.0103557
1722	0.00468806
1734	0.00153936
1746	0.00335861
1758	0.00601751
1770	0.00258893
1782	0.00111954
1794	0.00132945
1806	0.00426823
1818	0.00671722
1830	0.00608748
1842	0.00314869
1854	0.00153936
1866	0.000839652
1878	0.00118951
1890	0.00272887
1902	0.00818661
1914	0.0115452
1926	0.0107755
1938	0.00615745
1950	0.00160933
1962	0.000909623
1974	0.000909623
1986	0.000909623
1998	0.00125948
2010	0.000839652
2022	0.00111954
2034	0.00160933
2046	0.00195919
2058	0.0021691
2070	0.00153936
2082	0.000909623
2094	0.000769681
2106	0.000489797
2118	0.000279884
2130	0.000139942
2142	0.000419826
2154	0.000489797
2166	0.00104956
2178	0.000909623
2190	0.00069971
2202	0.000839652
2214	0.000349855
2226	0.000279884
2238	0.000209913
2250	0.000349855
2262	0.000769681
2274	0.000909623
2286	0.000909623
2298	0.00111954
2310	0.00146939
2322	0.00209913
2334	0.00279884
2346	0.00251896
2358	0.0021691
2370	0.00209913
2382	0.00230904
2394	0.00321867
2406	0.00356852
2418	0.00258893
2430	0.0021691
2442	0.00174928
2454	0.00146939
2466	0.00160933
2478	0.00160933
2490	0.00209913
2502	0.00230904
2514	0.00307872
2526	0.00384841
2538	0.00503791
2550	0.00615745
2562	0.00839652
2574	0.012035
2586	0.0146939
2598	0.00839652
2610	0.00552771
2622	0.00419826
2634	0.00384841
2646	0.00370846
2658	0.00419826
2670	0.00573762
2682	0.00706707
2694	0.00776678
2706	0.00629739
2718	0.00636736
2730	0.00734695
2742	0.00846649
2754	0.00818661
2766	0.00902626
2778	0.0107755
2790	0.0125248
2802	0.0181925
2814	0.0311371
2826	0.0493296
2838	0.0625541
2850	0.0754987
2862	0.0935512
2874	0.114682
2886	0.110344
2898	0.108735
2910	0.123429
2922	0.147289
2934	0.158834
2946	0.125668
2958	0.143021
2970	0.246438
2982	0.248887
2994	0.109994
3006	0.0590555
3018	0.0791372
3030	0.108035
3042	0.0908224
3054	0.124478
3066	0.140572
3078	0.0901226
3090	0.082006
3102	0.0552071
3114	0.031347
3126	0.0146239
3138	0.00636736
3150	0.00412829
3162	0.00356852
3174	0.00335861
3186	0.00307872
3198	0.00370846
3210	0.00426823
3222	0.00356852
3234	0.00363849
3246	0.00307872
3258	0.00237901
3270	0.00272887
3282	0.00223907
3294	0.0021691
3306	0.00209913
3318	0.00321867
3330	0.00342858
3342	0.0053178
3354	0.00657727
3366	0.00888632
3378	0.0151137
3390	0.0255394
3402	0.0302275
3414	0.0298776
3426	0.0292479
3438	0.0238601
3450	0.0177726
3462	0.0132245
3474	0.0106356
3486	0.00783675
3498	0.00755687
3510	0.00419826
3522	0.00405832
3534	0.00202916
3546	0.00153936
3558	0.000909623
3570	0.000489797
3582	0.00069971
3594	0.00104956
3606	0.00125948
3618	0.000489797
3630	0.000629739
3642	0.00118951
3654	0.000979594
3666	0.000489797
3678	0.000979594
3690	0.000489797
3702	0.00111954
3714	0.000839652
3726	0.000629739
3738	0.00069971
3750	0.000209913
3762	0.000769681
3774	0.000629739
3786	6.9971e-05
3798	0.00111954
3810	0.00069971
3822	0.000629739
3834	0.00125948
3846	0.00181925
3858	0.00237901
3870	0.00251896
3882	0.00146939
3894	0.0021691
3906	0.00111954
3918	0.00160933
3930	0.000769681
3942	0.00223907
3954	0.00111954
3966	0.00258893
