Infrared Spectrum: 2-Propanethiol, 1-(p-chloroanilino)-2-methyl-,
Formula: C 10 H 14 Cl N S
CAS: 54410-28-5
Origin: Sadtler Research Labs Under US-EPA Contract
1/CM	ABSORBANCE
450	0
462	0.0067143
474	0.00934736
486	0.0327816
498	0.0473951
510	0.0310701
522	0.00658265
534	0.00302802
546	0.00750422
558	0.013297
570	0.0206695
582	0.0252774
594	0.0264623
606	0.0385743
618	0.0762271
630	0.124807
642	0.122437
654	0.0772803
666	0.0729358
678	0.0751739
690	0.0389693
702	0.0210645
714	0.00908406
726	0.00513447
738	0.00434455
750	0.00315967
762	0.00500281
774	0.0105322
786	0.0218544
798	0.0710926
810	0.24448
822	0.217754
834	0.0842579
846	0.0343614
858	0.0167199
870	0.0110589
882	0.00934736
894	0.0119804
906	0.0123754
918	0.00908406
930	0.00500281
942	0.0044762
954	0.00513447
966	0.00908406
978	0.0121121
990	0.00908406
1002	0.0343614
1014	0.0271205
1026	0.0067143
1038	0.0019748
1050	0.0160617
1062	0.032255
1074	0.0771487
1086	0.173387
1098	0.288583
1110	0.151664
1122	0.124939
1134	0.114011
1146	0.117829
1158	0.0887341
1170	0.127308
1182	0.17286
1194	0.0505548
1206	0.0543727
1218	0.0693811
1230	0.107297
1242	0.206564
1254	0.19669
1266	0.323866
1278	0.360334
1290	0.237897
1302	0.140737
1314	0.189317
1326	0.0942635
1338	0.055031
1350	0.0493699
1362	0.0687229
1374	0.0947902
1386	0.0984764
1398	0.122437
1410	0.0600338
1422	0.0589805
1434	0.070566
1446	0.103743
1458	0.168121
1470	0.27002
1482	0.375606
1494	1.08495
1506	1.07376
1518	0.291875
1530	0.120199
1542	0.0759638
1554	0.0577957
1566	0.0625352
1578	0.0872859
1590	0.175493
1602	0.358359
1614	0.206037
1626	0.162723
1638	0.0920254
1650	0.0501598
1662	0.0405491
1674	0.0283054
1686	0.0240925
1698	0.0201429
1710	0.0126387
1722	0.0127703
1734	0.0200113
1746	0.0115855
1758	0.00750422
1770	0.00631934
1782	0.00342298
1794	0.00513447
1806	0.00408124
1818	0.00408124
1830	0.00789918
1842	0.0123754
1854	0.0214594
1866	0.0206695
1878	0.00987398
1890	0.00631934
1902	0.00394959
1914	0.00355463
1926	0.00342298
1938	0.0022381
1950	0.00210645
1962	0.00184314
1974	0.00144818
1986	0.00131653
1998	0.00157984
2010	0.00157984
2022	0.00263306
2034	0.00289637
2046	0.00368628
2058	0.00394959
2070	0.0042129
2082	0.00329132
2094	0.00329132
2106	0.00289637
2118	0.00236975
2130	0.00171149
2142	0.00144818
2154	0.00118488
2166	0.00171149
2178	0.00171149
2190	0.00157984
2202	0.00184314
2214	0.00171149
2226	0.00144818
2238	0.00171149
2250	0.00171149
2262	0.00236975
2274	0.00263306
2286	0.00355463
2298	0.00473951
2310	0.00434455
2322	0.0044762
2334	0.0042129
2346	0.00315967
2358	0.00342298
2370	0.00368628
2382	0.0042129
2394	0.0042129
2406	0.0044762
2418	0.00434455
2430	0.00394959
2442	0.00355463
2454	0.00329132
2466	0.00302802
2478	0.00394959
2490	0.00408124
2502	0.00408124
2514	0.00487116
2526	0.00566108
2538	0.00710926
2550	0.00855745
2562	0.00961067
2574	0.0126387
2586	0.0160617
2598	0.0106639
2610	0.00710926
2622	0.00566108
2634	0.00566108
2646	0.00539777
2658	0.00631934
2670	0.00816249
2682	0.0102689
2694	0.0121121
2706	0.0107955
2718	0.0107955
2730	0.0121121
2742	0.0131653
2754	0.012902
2766	0.0122437
2778	0.0134286
2790	0.0167199
2802	0.0243558
2814	0.038706
2826	0.0520029
2838	0.0683279
2850	0.0909722
2862	0.113353
2874	0.138104
2886	0.134681
2898	0.133233
2910	0.149031
2922	0.178785
2934	0.188132
2946	0.154429
2958	0.165225
2970	0.281737
2982	0.300827
2994	0.149426
3006	0.070566
3018	0.0491066
3030	0.0828097
3042	0.0674063
3054	0.0583223
3066	0.0535828
3078	0.0455519
3090	0.0468685
3102	0.0423923
3114	0.0240925
3126	0.0115855
3138	0.00737257
3150	0.00697761
3162	0.00697761
3174	0.00684596
3186	0.006451
3198	0.00697761
3210	0.00724091
3222	0.00737257
3234	0.00697761
3246	0.00605604
3258	0.00487116
3270	0.00487116
3282	0.00473951
3294	0.00487116
3306	0.00526612
3318	0.00552943
3330	0.00684596
3342	0.00934736
3354	0.0119804
3366	0.0169832
3378	0.0244875
3390	0.0365995
3402	0.0476584
3414	0.0543727
3426	0.0483167
3438	0.0338348
3450	0.025409
3462	0.0184314
3474	0.0154034
3486	0.0151401
3498	0.0150084
3510	0.0114538
3522	0.00855745
3534	0.00552943
3546	0.00434455
3558	0.00302802
3570	0.00302802
3582	0.00263306
3594	0.00289637
3606	0.00263306
3618	0.00236975
3630	0.00276471
3642	0.0022381
3654	0.00236975
3666	0.00157984
3678	0.00315967
3690	0.0022381
3702	0.00263306
3714	0.00302802
3726	0.00263306
3738	0.00302802
3750	0.00184314
3762	0.0019748
3774	0.00263306
3786	0.00210645
3798	0.00263306
3810	0.00118488
3822	0.00184314
3834	0.0022381
3846	0.00355463
3858	0.00513447
3870	0.00579273
3882	0.00289637
3894	0.00342298
3906	0.00289637
3918	0.00315967
3930	0.00236975
3942	0.00342298
3954	0.00276471
3966	0.0019748
