Infrared Spectrum: Cyclohexanone, 4-ethyl-
Formula: C 8 H 14 O
CAS: 5441-51-0
Origin: Sadtler Research Labs Under US-EPA Contract
1/CM	ABSORBANCE
450	0.0130147
462	0.0055268
474	0.0121233
486	0.016937
498	0.0183633
510	0.0246923
522	0.0170261
534	0.00641822
546	0.00213941
558	0.00436796
570	0.00231769
582	0.00311997
594	0.00249598
606	0.00213941
618	0.00356568
630	0.00142627
642	0.00124799
654	0.00142627
666	0.00418967
678	0.00677479
690	0.00329825
702	0.00285254
714	0.00303083
726	0.00739879
738	0.0222855
750	0.0240683
762	0.0128364
774	0.00517024
786	0.00329825
798	0.00249598
810	0.00347654
822	0.0055268
834	0.0104296
846	0.00909248
858	0.00561595
870	0.00410053
882	0.0061508
894	0.011321
906	0.0147976
918	0.0218398
930	0.0385093
942	0.0322694
954	0.0124799
966	0.0111427
978	0.010073
990	0.00454624
1002	0.00695308
1014	0.00971648
1026	0.00677479
1038	0.00668565
1050	0.011945
1062	0.0165804
1074	0.015689
1086	0.0121233
1098	0.0131039
1110	0.0256729
1122	0.0478693
1134	0.0390442
1146	0.0219289
1158	0.0416293
1170	0.0788015
1182	0.0710462
1194	0.0303083
1206	0.0187198
1218	0.0213049
1230	0.0331608
1242	0.0437687
1254	0.0334282
1266	0.0168478
1278	0.0132822
1290	0.0167587
1302	0.026386
1314	0.0385093
1326	0.0599926
1338	0.0578532
1350	0.0279014
1362	0.0164021
1374	0.0173827
1386	0.0268317
1398	0.0213941
1410	0.0227312
1422	0.0578532
1434	0.086022
1446	0.0779992
1458	0.0837935
1470	0.0678371
1482	0.0311106
1494	0.0116776
1506	0.00811192
1518	0.00597251
1530	0.00418967
1542	0.00623994
1554	0.0044571
1566	0.00392225
1578	0.00427882
1590	0.00436796
1602	0.00374396
1614	0.00401139
1626	0.00534852
1638	0.00820106
1650	0.0142627
1662	0.0191655
1674	0.0236226
1686	0.0317346
1698	0.0417185
1710	0.0641822
1722	0.269565
1734	0.861825
1746	0.513012
1758	0.109734
1770	0.0361917
1782	0.0177393
1794	0.0157781
1806	0.0151541
1818	0.012569
1830	0.00704222
1842	0.00383311
1854	0.00231769
1866	0.0027634
1878	0.00213941
1890	0.00160456
1902	0.00151541
1914	0.00249598
1926	0.0027634
1938	0.00124799
1950	0.00044571
1962	0.00089142
1974	0.000713136
1986	0.000713136
1998	0.00115885
2010	0.000534852
2022	0.000802278
2034	0.00044571
2046	0.000802278
2058	0.00124799
2070	0.00133713
2082	0.00115885
2094	0.000623994
2106	0.000267426
2118	0
2130	8.9142e-05
2142	0.000267426
2154	0.000534852
2166	0.000534852
2178	0.000534852
2190	0.000356568
2202	0.000623994
2214	0.000534852
2226	0.0010697
2238	0.0010697
2250	0.00089142
2262	0.00089142
2274	0.00133713
2286	0.00178284
2298	0.00347654
2310	0.00481367
2322	0.00463538
2334	0.00472453
2346	0.00463538
2358	0.00517024
2370	0.00418967
2382	0.00356568
2394	0.00178284
2406	0.00196112
2418	0.00160456
2430	0.00133713
2442	0.0010697
2454	0.00142627
2466	0.0016937
2478	0.0016937
2490	0.00124799
2502	0.00142627
2514	0.00133713
2526	0.00142627
2538	0.00142627
2550	0.00196112
2562	0.00213941
2574	0.00258512
2586	0.0027634
2598	0.00329825
2610	0.00401139
2622	0.00490281
2634	0.00508109
2646	0.00481367
2658	0.0055268
2670	0.00650737
2682	0.0072205
2694	0.00739879
2706	0.00713136
2718	0.00641822
2730	0.00713136
2742	0.00793364
2754	0.00846849
2766	0.00802278
2778	0.00873592
2790	0.0107862
2802	0.0135496
2814	0.016313
2826	0.0241575
2838	0.0418076
2850	0.077821
2862	0.192458
2874	0.258779
2886	0.20984
2898	0.188268
2910	0.239614
2922	0.349258
2934	0.478693
2946	0.443571
2958	0.337581
2970	0.452485
2982	0.323853
2994	0.0747901
3006	0.026386
3018	0.0180067
3030	0.0148867
3042	0.0126582
3054	0.0122125
3066	0.0118559
3078	0.00971648
3090	0.00757707
3102	0.00677479
3114	0.00623994
3126	0.00632908
3138	0.0061508
3150	0.00588337
3162	0.00481367
3174	0.00436796
3186	0.00418967
3198	0.00294169
3210	0.00285254
3222	0.00249598
3234	0.00178284
3246	0.00231769
3258	0.00196112
3270	0.00187198
3282	0.0016937
3294	0.00231769
3306	0.00205027
3318	0.00222855
3330	0.00231769
3342	0.00240683
3354	0.00231769
3366	0.00320911
3378	0.00294169
3390	0.00303083
3402	0.00294169
3414	0.0027634
3426	0.00356568
3438	0.00641822
3450	0.0129256
3462	0.0114102
3474	0.00320911
3486	0.00178284
3498	0.00196112
3510	0.00133713
3522	0.00142627
3534	0.00187198
3546	0.0010697
3558	0.0010697
3570	0.000534852
3582	0.00178284
3594	0.00133713
3606	0.00124799
3618	0.00160456
3630	0.00231769
3642	0.00124799
3654	0.00151541
3666	0.00240683
3678	0.00240683
3690	0.00213941
3702	0.0016937
3714	0.00213941
3726	0.00178284
3738	0.00222855
3750	0.00311997
3762	0.00249598
3774	0.00160456
3786	0.00151541
3798	0.00142627
3810	0.00205027
3822	0.00249598
3834	0.00240683
3846	0.00240683
3858	0.00187198
3870	0.00249598
3882	0.00213941
3894	0.00160456
3906	0.00151541
3918	0.00151541
3930	0.00285254
3942	0.00178284
3954	0.00213941
3966	0.00231769
