Infrared Spectrum: Phenol, 2,6-bis(1,1-dimethylethyl)-4-ethoxy-
Formula: C 16 H 26 O 2
CAS: 5442-35-3
Origin: Sadtler Research Labs Under US-EPA Contract
1/CM	ABSORBANCE
450	0.0245269
462	0.0231182
474	0.0177323
486	0.0142521
498	0.0198038
510	0.0188923
522	0.0204667
534	0.0194723
546	0.0178151
558	0.03157
570	0.0207153
582	0.0219582
594	0.0164065
606	0.0256869
618	0.0301614
630	0.0323158
642	0.0308243
654	0.0258526
666	0.0127606
678	0.0231182
690	0.0191409
702	0.0225382
714	0.0207981
726	0.0228696
738	0.0379503
750	0.0622286
762	0.109542
774	0.104156
786	0.035796
798	0
810	0.0123463
822	0.0177323
834	0.0296642
846	0.0377846
858	0.0502138
870	0.0832753
882	0.0925557
894	0.0755692
906	0.0460707
918	0.0418448
930	0.0466507
942	0.0387789
954	0.0562626
966	0.0700175
978	0.0810381
990	0.0425906
1002	0.0246097
1014	0.025024
1026	0.0559312
1038	0.110039
1050	0.251069
1062	0.283965
1074	0.14509
1086	0.106808
1098	0.130092
1110	0.102499
1122	0.105565
1134	0.0865069
1146	0.154536
1158	0.232342
1170	0.188923
1182	0.198535
1194	0.311806
1206	0.46833
1218	0.300785
1230	0.197955
1242	0.239054
1254	0.150061
1266	0.0855954
1278	0.143847
1290	0.246097
1302	0.296311
1314	0.239303
1326	0.135809
1338	0.0801266
1350	0.0711776
1362	0.130755
1374	0.175334
1386	0.174174
1398	0.261344
1410	0.147161
1422	0.276839
1434	0.586739
1446	0.381409
1458	0.203341
1470	0.169782
1482	0.148735
1494	0.0846839
1506	0.0408505
1518	0.0330615
1530	0.0292499
1542	0.0239468
1554	0.0321501
1566	0.039939
1578	0.076315
1590	0.189089
1602	0.239385
1614	0.095953
1626	0.0449935
1638	0.0308243
1650	0.0327301
1662	0.0569255
1674	0.074492
1686	0.0317358
1698	0.0283385
1710	0.0336416
1722	0.0319843
1734	0.0296642
1746	0.02983
1758	0.0282556
1770	0.0253555
1782	0.0235325
1794	0.0199695
1806	0.0169036
1818	0.0137549
1830	0.0108548
1842	0.0111034
1854	0.00994332
1866	0.00986046
1878	0.00986046
1890	0.00936329
1902	0.00944615
1914	0.00944615
1926	0.0103576
1938	0.00994332
1950	0.00952902
1962	0.00886613
1974	0.00928043
1986	0.00961188
1998	0.00961188
2010	0.00903185
2022	0.00687746
2034	0.0067946
2046	0.00704319
2058	0.00687746
2070	0.00754035
2082	0.00737463
2094	0.00662888
2106	0.00671174
2118	0.00563455
2130	0.00588313
2142	0.0048888
2154	0.00621457
2166	0.00654602
2178	0.00745749
2190	0.00646316
2202	0.00522024
2214	0.00414305
2226	0.00348016
2238	0.00389447
2250	0.00430877
2262	0.00406019
2274	0.00414305
2286	0.00596599
2298	0.00936329
2310	0.0133406
2322	0.0128435
2334	0.0116005
2346	0.0135063
2358	0.0165722
2370	0.0128435
2382	0.0100262
2394	0.00447449
2406	0.00480594
2418	0.00480594
2430	0.00538597
2442	0.00389447
2454	0.00248583
2466	0.00182294
2478	0.0014915
2490	0.00107719
2502	0.0019058
2514	0.00082861
2526	8.2861e-05
2538	0.00082861
2550	0.00174008
2562	0.00281727
2574	0.00248583
2586	0.00265155
2598	0.00165722
2610	0.002983
2622	0.00364588
2634	0.00372875
2646	0.00397733
2658	0.00464022
2670	0.0048888
2682	0.00464022
2694	0.0053031
2706	0.00729177
2718	0.0114348
2730	0.0137549
2742	0.011932
2754	0.0135892
2766	0.0145835
2778	0.0154121
2790	0.0196381
2802	0.0209638
2814	0.024444
2826	0.0321501
2838	0.0382818
2850	0.0537768
2862	0.0979417
2874	0.221653
2886	0.311392
2898	0.277336
2910	0.307911
2922	0.351082
2934	0.346525
2946	0.416542
2958	0.607537
2970	0.82861
2982	0.546137
2994	0.248583
3006	0.14857
3018	0.0802094
3030	0.0434192
3042	0.0296642
3054	0.0236982
3066	0.0218753
3078	0.0202181
3090	0.0269298
3102	0.0307414
3114	0.019058
3126	0.015495
3138	0.0122634
3150	0.011352
3162	0.00986046
3174	0.0101919
3186	0.00936329
3198	0.00812038
3210	0.0078718
3222	0.00588313
3234	0.00546883
3246	0.0048888
3258	0.00447449
3270	0.00447449
3282	0.00439163
3294	0.00439163
3306	0.00430877
3318	0.00414305
3330	0.002983
3342	0.00157436
3354	0.00240297
3366	0.00240297
3378	0.00223725
3390	0.00240297
3402	0.00240297
3414	0.00356302
3426	0.00430877
3438	0.00265155
3450	0.00323158
3462	0.00281727
3474	0.00140864
3486	0.000497166
3498	0.00314872
3510	0.00082861
3522	0.00256869
3534	0.00273441
3546	0.00273441
3558	0.00372875
3570	0.0019058
3582	0.00604885
3594	0.00604885
3606	0.00845182
3618	0.0107719
3630	0.018478
3642	0.0392761
3654	0.095953
3666	0.19174
3678	0.160087
3690	0.082861
3702	0.0424248
3714	0.0265155
3726	0.0217096
3738	0.0186437
3750	0.0163236
3762	0.0175665
3774	0.0209638
3786	0.0216267
3798	0.0234497
3810	0.0236982
3822	0.0254383
3834	0.0245269
3846	0.0255212
3858	0.022041
3870	0.0236154
3882	0.0261012
3894	0.026847
3906	0.0256869
3918	0.0259355
3930	0.0261841
3942	0.0261012
3954	0.00356302
3966	0.00571741
