Infrared Spectrum: 2-Propenal, 2-bromo-3-phenyl-
Formula: C 9 H 7 Br O
CAS: 5443-49-2
Origin: Sadtler Research Labs Under US-EPA Contract
1/CM	ABSORBANCE
450	0.00925394
462	0.00981722
474	0.0592252
486	0.0414415
498	0.0733073
510	0.0605127
522	0.064858
534	0.0755604
546	0.0565697
558	0.0522244
570	0.0282446
582	0.0292907
594	0.00144844
606	0.0604322
618	0.0234165
630	0.0231751
642	0.00828831
654	0.0251063
666	0.057133
678	0.119255
690	0.181055
702	0.112174
714	0.106782
726	0.0607541
738	0.0669502
750	0.122796
762	0.0878721
774	0.0362915
786	0.0428095
798	0.065019
810	0.0568111
822	0.0373376
834	0.0382228
846	0.05319
858	0.0613174
870	0.0828026
882	0.0535924
894	0.0433728
906	0.028647
918	0.0440165
930	0.0323485
942	0.0269571
954	0.0268766
966	0.0235774
978	0.0317853
990	0.0390275
1002	0.0772502
1014	0.0733073
1026	0.169307
1038	0.266594
1050	0.116921
1062	0.0997011
1074	0.146293
1086	0.184515
1098	0.222255
1110	0.241407
1122	0.0588228
1134	0.035004
1146	0.0304173
1158	0.0296126
1170	0.0156915
1182	0.033797
1194	0.0172204
1206	0.021968
1218	0.00780549
1230	0.0205196
1242	0.0256696
1254	0.0473158
1266	0.0870675
1278	0.09608
1290	0.0615588
1302	0.0357282
1314	0.0309001
1326	0.0289688
1338	0.0323485
1350	0.014243
1362	0.0161743
1374	0.0287274
1386	0.0539142
1398	0.0262329
1410	0.0127141
1422	0.0162547
1434	0.0226118
1446	0.0581791
1458	0.0477986
1470	0.0196344
1482	0.0292907
1494	0.0669502
1506	0.0340384
1518	0.0182665
1530	0.011668
1542	0.0234969
1554	0.0170594
1566	0.0371767
1578	0.073951
1590	0.108955
1602	0.298138
1614	0.242292
1626	0.0699276
1638	0.0337165
1650	0.0317853
1662	0.0309806
1674	0.0398322
1686	0.0547994
1698	0.113381
1710	0.401943
1722	0.80469
1734	0.386251
1746	0.0678354
1758	0.0577767
1770	0.0425681
1782	0.035165
1794	0.0358087
1806	0.0243016
1818	0.0139211
1830	0.0153696
1842	0.0107828
1854	0.0111852
1866	0.0111047
1878	0.0101391
1890	0.014243
1902	0.0148868
1914	0.0115875
1926	0.00740315
1938	0.0112657
1950	0.0138407
1962	0.01545
1974	0.00724221
1986	0.0044258
1998	0.00378204
2010	0.0044258
2022	0.00394298
2034	0.00329923
2046	0.00724221
2058	0.00692033
2070	0.00852971
2082	0.00490861
2094	0.00708127
2106	0.00692033
2118	0.00780549
2130	0.0070008
2142	0.00643752
2154	0.00563283
2166	0.00579377
2178	0.0067594
2190	0.00716174
2202	0.00740315
2214	0.00297735
2226	0.00346017
2238	0.00225313
2250	0.00329923
2262	0.00112657
2274	0.00257501
2286	0.00531095
2298	0.0107828
2310	0.0148063
2322	0.0134383
2334	0.0157719
2346	0.014243
2358	0.0176227
2370	0.00877112
2382	0.0121508
2394	0.00201173
2406	0.00249454
2418	0.00225313
2430	0.00402345
2442	0.00370157
2454	0.00193126
2466	0.00249454
2478	0.00281642
2490	0.00370157
2502	0.000402345
2514	0.00378204
2526	0.00281642
2538	0.00426486
2550	0.0010461
2562	0.00273595
2574	0.00386251
2586	0.00434533
2598	0.00458673
2610	0.00305782
2622	0.00740315
2634	0.00667893
2646	0.00852971
2658	0.00780549
2670	0.0133579
2682	0.0140016
2694	0.0206001
2706	0.0264743
2718	0.0345212
2730	0.0461892
2742	0.0449822
2754	0.0263134
2766	0.0197954
2778	0.0223704
2790	0.0244626
2802	0.0568111
2814	0.0885159
2826	0.0641338
2838	0.132693
2850	0.0966433
2862	0.0170594
2874	0.0119899
2886	0.0107828
2898	0.00949534
2910	0.0127946
2922	0.00957581
2934	0.0105414
2946	0.0105414
2958	0.0214852
2970	0.0197954
2982	0.019554
2994	0.0174618
3006	0.0230141
3018	0.0288884
3030	0.0504541
3042	0.0529486
3054	0.0416829
3066	0.0912518
3078	0.103644
3090	0.0574549
3102	0.0441775
3114	0.0266352
3126	0.00692033
3138	0.00732268
3150	0.00877112
3162	0.00683987
3174	0.00346017
3186	0.00386251
3198	0.00732268
3210	0.00394298
3222	0.00410392
3234	0.00136797
3246	0.00659846
3258	0.00273595
3270	0.00474767
3282	0.00289688
3294	0.00756409
3306	0.00635705
3318	0.00346017
3330	0.00579377
3342	0.0067594
3354	0.00788596
3366	0.00241407
3378	0.00796643
3390	0.00659846
3402	0.0135188
3414	0.012875
3426	0.0174618
3438	0.0103805
3450	0.00692033
3462	0.00273595
3474	0.00386251
3486	0.00659846
3498	0.000482814
3510	0.00346017
3522	0.000402345
3534	0.00627658
3546	0.00386251
3558	0.00450626
3570	0.00667893
3582	0.0107024
3594	0.00836878
3606	0.00458673
3618	0.010461
3630	0.0124727
3642	0.0102196
3654	0.00788596
3666	0.0108633
3678	0.0141625
3690	0.0164961
3702	0.00989769
3714	0.0161743
3726	0.0171399
3738	0.019393
3750	0.0211633
3762	0.0144844
3774	0.0191516
3786	0.0165766
3798	0.0213243
3810	0.0183469
3822	0.0252673
3834	0.020761
3846	0.0204391
3858	0.0214852
3870	0.0237384
3882	0.0227727
3894	0.0198758
3906	0.0254282
3918	0.0216462
3930	0.0214852
3942	0.0158524
3954	0.00329923
3966	0.00498908
