Infrared Spectrum: Cyclohexanol, 1-butyl-
Formula: C 10 H 20 O
CAS: 5445-30-7
Origin: Sadtler Research Labs Under US-EPA Contract
1/CM	ABSORBANCE
450	0.123082
462	0
474	0.0334393
486	0.0163272
498	0.00737862
510	0.0182111
522	0.0098905
534	0.00486675
546	0.019781
558	0.00439578
570	0.0150712
582	0.0102045
594	0.0138153
606	0.0128733
618	0.0152282
630	0.0158562
642	0.00816358
654	0.0128733
666	0.00753562
678	0.00722163
690	0.00659366
702	0.0097335
714	0.0152282
726	0.0224499
738	0.0130303
750	0.0144433
762	0.0139723
774	0.020095
786	0.0160132
798	0.0113034
810	0.0116174
822	0.0178971
834	0.0302995
846	0.0359512
858	0.0287295
870	0.0177401
882	0.0224499
894	0.038463
906	0.0502374
918	0.0463126
930	0.038306
942	0.0362652
954	0.0747282
966	0.137211
978	0.131245
990	0.0525923
1002	0.0251187
1014	0.0270026
1026	0.0477256
1038	0.0681345
1050	0.0546332
1062	0.0411319
1074	0.0348522
1086	0.039562
1098	0.0491385
1110	0.0618548
1122	0.0706464
1134	0.0750422
1146	0.0822638
1158	0.0913693
1170	0.0876015
1182	0.0612269
1194	0.0431728
1206	0.0461556
1218	0.0481965
1230	0.0481965
1242	0.0573021
1254	0.0704894
1266	0.0708034
1278	0.058244
1290	0.0516504
1302	0.0456847
1314	0.0439578
1326	0.0467836
1338	0.059343
1350	0.0684485
1362	0.058244
1374	0.0626398
1386	0.0714314
1398	0.0425448
1410	0.0281016
1422	0.0271596
1434	0.0453707
1446	0.097492
1458	0.14145
1470	0.107226
1482	0.039248
1494	0.0152282
1506	0.0113034
1518	0.00879155
1530	0.0078496
1542	0.0058087
1554	0.0059657
1566	0.00486675
1578	0.00486675
1590	0.0039248
1602	0.00361082
1614	0.00439578
1626	0.00345382
1638	0.00298285
1650	0.00345382
1662	0.00251187
1674	0.00282586
1686	0.00251187
1698	0.00266886
1710	0.0020409
1722	0.00219789
1734	0.00266886
1746	0.0018839
1758	0.0020409
1770	0.00156992
1782	0.00141293
1794	0.00141293
1806	0.00156992
1818	0.00125594
1830	0.00109894
1842	0.00078496
1854	0.000470976
1866	0.00125594
1878	0.00125594
1890	0.000470976
1902	0.000313984
1914	0.00078496
1926	0.00078496
1938	0.00109894
1950	0.000627968
1962	0.000941952
1974	0.00078496
1986	0.000627968
1998	0.00109894
2010	0
2022	0.000627968
2034	0.000156992
2046	0.00078496
2058	0.000627968
2070	0.000470976
2082	0.000627968
2094	0.000313984
2106	0.000313984
2118	0.000470976
2130	0.000627968
2142	0.000470976
2154	0.000156992
2166	0.00078496
2178	0.00109894
2190	0.00141293
2202	0.00109894
2214	0.00125594
2226	0.000941952
2238	0.00078496
2250	0.000941952
2262	0.00078496
2274	0.00109894
2286	0.000627968
2298	0.000156992
2310	0
2322	0.00141293
2334	0.0020409
2346	0.00141293
2358	0.00345382
2370	0.00141293
2382	0
2394	0.00078496
2406	0.00078496
2418	0.00125594
2430	0.00109894
2442	0.000627968
2454	0.000156992
2466	0
2478	0.000470976
2490	0.00078496
2502	0.00078496
2514	0.000627968
2526	0.000941952
2538	0.00109894
2550	0.00125594
2562	0.00156992
2574	0.00141293
2586	0.00298285
2598	0.00361082
2610	0.00439578
2622	0.00533773
2634	0.00533773
2646	0.00643667
2658	0.0102045
2670	0.0139723
2682	0.0116174
2694	0.00847757
2706	0.00706464
2718	0.00737862
2730	0.00832058
2742	0.00910554
2754	0.00910554
2766	0.0100475
2778	0.0128733
2790	0.0175831
2802	0.0227638
2814	0.0270026
2826	0.0361082
2838	0.0697044
2850	0.182425
2862	0.378194
2874	0.425291
2886	0.308175
2898	0.250402
2910	0.354174
2922	0.588877
2934	1.24667
2946	1.43726
2958	0.618234
2970	0.457632
2982	0.170964
2994	0.0562031
3006	0.0345382
3018	0.0255897
3030	0.020566
3042	0.0147572
3054	0.00957651
3066	0.00816358
3078	0.0078496
3090	0.00690765
3102	0.0059657
3114	0.00439578
3126	0.00439578
3138	0.00439578
3150	0.00439578
3162	0.00376781
3174	0.00345382
3186	0.00282586
3198	0.00235488
3210	0.00172691
3222	0.00141293
3234	0.000627968
3246	0.00156992
3258	0.00078496
3270	0.00109894
3282	0.000313984
3294	0.000313984
3306	0
3318	0.000941952
3330	0.000941952
3342	0.00109894
3354	0.00141293
3366	0.00141293
3378	0.00156992
3390	0.00219789
3402	0.00298285
3414	0.00345382
3426	0.00376781
3438	0.00345382
3450	0.0020409
3462	0.0020409
3474	0.00266886
3486	0.00266886
3498	0.00282586
3510	0.0018839
3522	0.00156992
3534	0.00235488
3546	0.00282586
3558	0.00251187
3570	0.00266886
3582	0.00235488
3594	0.00313984
3606	0.00282586
3618	0.00816358
3630	0.0266886
3642	0.039562
3654	0.0210369
3666	0.00486675
3678	0.0020409
3690	0.00109894
3702	0.000156992
3714	0
3726	0.00141293
3738	0
3750	0
3762	0
3774	0
3786	0
3798	0
3810	0
3822	0
3834	0.000470976
3846	0.000156992
3858	0
3870	0.000627968
3882	0
3894	0.000156992
3906	0
3918	0
3930	0
3942	0
3954	0
3966	0
