Infrared Spectrum: 3-Nitro-2-pentanol
Formula: C 5 H 11 N O 3
CAS: 5447-99-4
Origin: Sadtler Research Labs Under US-EPA Contract
1/CM	ABSORBANCE
450	0.0952238
462	0.0682512
474	0.059459
486	0.0615453
498	0.0537962
510	0.0400864
522	0.0335295
534	0.0239922
546	0.0281648
558	0.0190746
570	0.00789806
582	0.00834512
594	0.00283138
606	0.0022353
618	0.00238432
630	0.00581178
642	0.00432158
654	0.00581178
666	0.0067059
678	0.0096863
690	0.00700394
702	0.00342746
714	0.00640786
726	0.0052157
738	0.00208628
750	0.00238432
762	0.00417256
774	0.00879218
786	0.0241412
798	0.0713806
810	0.135012
822	0.089412
834	0.0354668
846	0.0366589
858	0.0292079
870	0.0190746
882	0.0268236
894	0.044855
906	0.0436629
918	0.0463452
930	0.0499217
942	0.0479844
954	0.0557335
966	0.0436629
978	0.0192236
990	0.014604
1002	0.0271216
1014	0.067357
1026	0.0999924
1038	0.100439
1050	0.127561
1062	0.129498
1074	0.110424
1086	0.122792
1098	0.161538
1110	0.177334
1122	0.160495
1134	0.179569
1146	0.192236
1158	0.149169
1170	0.0780865
1182	0.0435138
1194	0.0360628
1206	0.0391923
1218	0.0602041
1230	0.115491
1242	0.167946
1254	0.186722
1266	0.200879
1278	0.179867
1290	0.135012
1302	0.143357
1314	0.138738
1326	0.126965
1338	0.180016
1350	0.229193
1362	0.264958
1374	0.323224
1386	0.351091
1398	0.309515
1410	0.171224
1422	0.089561
1434	0.0929885
1446	0.141718
1458	0.183742
1470	0.163624
1482	0.0912002
1494	0.0619923
1506	0.0800237
1518	0.111616
1530	0.1672
1542	0.398628
1554	1.0795
1566	1.43998
1578	0.66597
1590	0.185381
1602	0.102973
1614	0.0704865
1626	0.0412785
1638	0.0198197
1650	0.00938826
1662	0.0059608
1674	0.00685492
1686	0.00312942
1698	0.00312942
1710	0.0014902
1722	0.00536472
1734	0.00834512
1746	0.00909022
1758	0.0192236
1770	0.0257805
1782	0.0128157
1794	0.00760002
1806	0.0059608
1818	0.00193726
1830	0.00044706
1842	0.00089412
1854	0.00014902
1866	0
1878	0.00029804
1890	0.00044706
1902	0.00059608
1914	0.00104314
1926	0.00119216
1938	0.00104314
1950	0.00134118
1962	0.00119216
1974	0.00163922
1986	0.00178824
1998	0.0022353
2010	0.00208628
2022	0.00208628
2034	0.00268236
2046	0.00268236
2058	0.00238432
2070	0.0022353
2082	0.00193726
2094	0.00119216
2106	0.00119216
2118	0.00089412
2130	0.00119216
2142	0.00104314
2154	0.00089412
2166	0.00134118
2178	0.00134118
2190	0.0014902
2202	0.00178824
2214	0.00163922
2226	0.00134118
2238	0.00178824
2250	0.00208628
2262	0.00208628
2274	0.00208628
2286	0.00178824
2298	0.00134118
2310	0.00029804
2322	0
2334	0.00134118
2346	0.00238432
2358	0.0029804
2370	0.00432158
2382	0.0037255
2394	0.00312942
2406	0.00432158
2418	0.00402354
2430	0.00402354
2442	0.0044706
2454	0.00461962
2466	0.00342746
2478	0.00312942
2490	0.00283138
2502	0.0022353
2514	0.0022353
2526	0.00178824
2538	0.00178824
2550	0.0014902
2562	0.00134118
2574	0.0014902
2586	0.0014902
2598	0.0022353
2610	0.00268236
2622	0.00312942
2634	0.00327844
2646	0.00327844
2658	0.00402354
2670	0.0044706
2682	0.00581178
2694	0.00700394
2706	0.00774904
2718	0.00760002
2730	0.00834512
2742	0.0096863
2754	0.0105804
2766	0.0123687
2778	0.0119216
2790	0.0119216
2802	0.0122196
2814	0.0138589
2826	0.0166902
2838	0.0210118
2850	0.0274197
2862	0.0391923
2874	0.0655688
2886	0.129051
2898	0.166753
2910	0.15051
2922	0.16571
2934	0.199836
2946	0.248714
2958	0.210714
2970	0.230981
2982	0.498323
2994	0.49266
3006	0.17942
3018	0.0420236
3030	0.0192236
3042	0.0122196
3054	0.0102824
3066	0.00923924
3078	0.0081961
3090	0.00625884
3102	0.00506668
3114	0.00476864
3126	0.00417256
3138	0.00327844
3150	0.0037255
3162	0.00491766
3174	0.00625884
3186	0.0059608
3198	0.00417256
3210	0.0029804
3222	0.00208628
3234	0.00089412
3246	0.00029804
3258	0.00014902
3270	0.00014902
3282	0.0007451
3294	0.00014902
3306	0.0007451
3318	0.00089412
3330	0.00029804
3342	0.0007451
3354	0.0007451
3366	0.00059608
3378	0.00119216
3390	0.00014902
3402	0.0014902
3414	0.0007451
3426	0.00029804
3438	0.00014902
3450	0.00014902
3462	0.00134118
3474	0.00193726
3486	0.00283138
3498	0.00432158
3510	0.00342746
3522	0.00357648
3534	0.00432158
3546	0.00506668
3558	0.0081961
3570	0.0251844
3582	0.0807688
3594	0.11713
3606	0.0870277
3618	0.059459
3630	0.0657178
3642	0.0691453
3654	0.059906
3666	0.0436629
3678	0.0143059
3690	0.00491766
3702	0.00268236
3714	0.00119216
3726	0.0007451
3738	0.00014902
3750	0
3762	0
3774	0
3786	0
3798	0
3810	0
3822	0
3834	0
3846	0
3858	0
3870	0
3882	0
3894	0
3906	0
3918	0
3930	0
3942	0
3954	0
3966	0
