Infrared Spectrum: Tetradecanoic acid, 7-oxo-, methyl ester
Formula: C 15 H 28 O 3
CAS: 54527-03-6
Origin: Sadtler Research Labs Under US-EPA Contract
1/CM	ABSORBANCE
450	0.0224785
462	0.00938665
474	0.00164678
486	0.00329356
498	0.00551671
510	0.00477566
522	0.0063401
534	0.00419929
546	0.0029642
558	0.00502268
570	0.00370525
582	0.00584607
594	0.00477566
606	0.0082339
618	0.00782221
630	0.0086456
642	0.0082339
654	0.00428163
666	0.00247017
678	0.00205848
690	0.00386993
702	0.00749285
714	0.0135036
726	0.0200084
738	0.0256074
750	0.0284893
762	0.0239606
774	0.0198437
786	0.0153974
798	0.0124332
810	0.014574
822	0.0208318
834	0.0254428
846	0.0274189
858	0.0261838
870	0.0255251
882	0.02429
894	0.019185
906	0.0168795
918	0.0135036
930	0.0125979
942	0.0121038
954	0.0159738
966	0.0213258
978	0.0324416
990	0.0509678
1002	0.0800335
1014	0.109346
1026	0.125896
1038	0.143023
1050	0.128943
1062	0.113792
1074	0.107864
1086	0.123261
1098	0.149939
1110	0.148293
1122	0.190532
1134	0.248005
1146	0.340142
1158	0.453194
1170	0.511737
1182	0.470485
1194	0.435162
1206	0.428245
1218	0.388558
1230	0.361715
1242	0.355128
1254	0.339978
1266	0.278388
1278	0.207
1290	0.173077
1302	0.15875
1314	0.155785
1326	0.157844
1338	0.181475
1350	0.236807
1362	0.261756
1374	0.178264
1386	0.1063
1398	0.0700705
1410	0.0829154
1422	0.117827
1434	0.194649
1446	0.211364
1458	0.181228
1470	0.130507
1482	0.0611779
1494	0.0317005
1506	0.0219022
1518	0.015068
1530	0.0111158
1542	0.0121038
1554	0.00930431
1566	0.00757519
1578	0.00749285
1590	0.00625776
1602	0.00452864
1614	0.00518736
1626	0.00666946
1638	0.00782221
1650	0.0126802
1662	0.0142446
1674	0.0262661
1686	0.048086
1698	0.0895848
1710	0.224538
1722	0.533063
1734	0.587406
1746	0.571844
1758	0.82339
1770	0.556447
1782	0.256568
1794	0.0900789
1806	0.0327709
1818	0.0127625
1830	0.00708115
1842	0.00419929
1854	0.00139976
1866	0.0018938
1878	0.00082339
1890	0.000494034
1902	0.000494034
1914	0
1926	8.2339e-05
1938	0.00115275
1950	0.00131742
1962	0.00181146
1974	0.00271719
1986	0.0033759
1998	0.00436397
2010	0.00518736
2022	0.00568139
2034	0.00601075
2046	0.00642244
2058	0.00576373
2070	0.00518736
2082	0.00403461
2094	0.0029642
2106	0.00181146
2118	0.00107041
2130	0.000988068
2142	0.00082339
2154	0.000741051
2166	0.000658712
2178	0.000905729
2190	0.000247017
2202	0.000494034
2214	0.000329356
2226	0.000329356
2238	0.000164678
2250	0.000164678
2262	0.000411695
2274	0.000988068
2286	0.00131742
2298	0.00181146
2310	0.00247017
2322	0.00304654
2334	0.00205848
2346	0.00304654
2358	0.00205848
2370	0.00494034
2382	0.00345824
2394	0.0018938
2406	0.00181146
2418	0.00139976
2430	0.00131742
2442	0.000988068
2454	0.000905729
2466	0.000988068
2478	0.00107041
2490	0.000658712
2502	0.000988068
2514	0.00107041
2526	0.0014821
2538	0.0018938
2550	0.00181146
2562	0.00172912
2574	0.00255251
2586	0.00312888
2598	0.00403461
2610	0.00419929
2622	0.00444631
2634	0.004858
2646	0.00609309
2658	0.00732817
2670	0.00806922
2682	0.00881027
2694	0.00922197
2706	0.00856326
2718	0.00815156
2730	0.00946898
2742	0.0118568
2754	0.0126802
2766	0.0134213
2778	0.0154797
2790	0.0198437
2802	0.0270072
2814	0.0369702
2826	0.0484977
2838	0.0715526
2850	0.126308
2862	0.210376
2874	0.304407
2886	0.30803
2898	0.298973
2910	0.341048
2922	0.452535
2934	0.613508
2946	0.763447
2958	0.797783
2970	0.671969
2982	0.331579
2994	0.169371
3006	0.113298
3018	0.0820096
3030	0.0670239
3042	0.0487447
3054	0.0347471
3066	0.0265132
3078	0.0232196
3090	0.0200907
3102	0.0177029
3114	0.0146563
3126	0.0116921
3138	0.00988068
3150	0.00839858
3162	0.00749285
3174	0.00658712
3186	0.00625776
3198	0.00568139
3210	0.00419929
3222	0.0033759
3234	0.00238783
3246	0.00238783
3258	0.00181146
3270	0.00238783
3282	0.00172912
3294	0.00205848
3306	0.00230549
3318	0.00172912
3330	0.00222315
3342	0.00247017
3354	0.00288186
3366	0.00271719
3378	0.0029642
3390	0.00329356
3402	0.00411695
3414	0.00601075
3426	0.00732817
3438	0.00831624
3450	0.00584607
3462	0.00386993
3474	0.00411695
3486	0.00609309
3498	0.0082339
3510	0.00601075
3522	0.00279953
3534	0.000988068
3546	0.000576373
3558	0.000576373
3570	0.0014821
3582	0.00131742
3594	0.0014821
3606	0.000494034
3618	0.00115275
3630	0.00205848
3642	0.00164678
3654	0.0018938
3666	0.00222315
3678	0.00123508
3690	0.00230549
3702	0.000411695
3714	0.00279953
3726	0.0018938
3738	0.00197614
3750	0.00222315
3762	0.00222315
3774	0.0014821
3786	0.000658712
3798	0.00172912
3810	0.00214081
3822	0.000494034
3834	0.00123508
3846	0.00082339
3858	0.0014821
3870	0.00107041
3882	0.00205848
3894	0.00139976
3906	0.00172912
3918	0.00156444
3930	0.00238783
3942	0.00181146
3954	0.000741051
3966	0.00214081
