Infrared Spectrum: Bicyclo(2.2.1)-5-heptene-2-carboxaldehyde
Formula: C 8 H 10 O
CAS: 5453-80-5
Origin: Sadtler Research Labs Under US-EPA Contract
1/CM	ABSORBANCE
450	0.0389944
462	0.0015673
474	0.0110965
486	0.00564228
498	0.00175538
510	0.00758573
522	0.00796188
534	0.00570497
546	0.00488998
558	0.0106576
570	0.00771112
582	0.00633189
594	0.0086515
606	0.00426306
618	0.0146699
630	0.0198107
642	0.0305937
654	0.0342925
666	0.0320356
678	0.0218795
690	0.0325998
702	0.0882703
714	0.171086
726	0.137734
738	0.038681
750	0.0220049
762	0.0213153
774	0.0220049
786	0.0145445
798	0.0117861
810	0.0174284
822	0.0295279
834	0.0271456
846	0.0162372
858	0.0131026
870	0.0119115
882	0.0201241
894	0.0339791
906	0.0426306
918	0.0531001
930	0.0421917
942	0.0228199
954	0.0192464
966	0.021378
978	0.0269576
990	0.0319729
1002	0.0381794
1014	0.0320356
1026	0.0199987
1038	0.0203122
1050	0.0276472
1062	0.0400602
1074	0.047019
1086	0.0400602
1098	0.027271
1110	0.0279606
1122	0.0311579
1134	0.0452636
1146	0.0457025
1158	0.032161
1170	0.0248887
1182	0.0179926
1194	0.014043
1206	0.0117861
1218	0.0158611
1230	0.0211272
1242	0.0262053
1254	0.0282741
1266	0.0265187
1278	0.0206884
1290	0.0127892
1302	0.0137295
1314	0.0193091
1326	0.0414394
1338	0.0612501
1350	0.0352329
1362	0.0160492
1374	0.0156103
1386	0.0216287
1398	0.0201241
1410	0.00971726
1422	0.010783
1434	0.0122876
1446	0.0279606
1458	0.0319102
1470	0.0206257
1482	0.0078365
1494	0.00351075
1506	0.00777381
1518	0.00658266
1530	0.00495267
1542	0.0078365
1554	0.00526613
1566	0.0113473
1578	0.0142938
1590	0.00733496
1602	0.00526613
1614	0.0137922
1626	0.0160492
1638	0.0162999
1650	0.0153595
1662	0.014858
1674	0.0214407
1686	0.0339791
1698	0.0458905
1710	0.0630682
1722	0.244436
1734	0.569745
1746	0.49207
1758	0.127516
1770	0.0732869
1782	0.0482728
1794	0.0339164
1806	0.0228826
1818	0.0142311
1830	0.00921572
1842	0.00714689
1854	0.00507805
1866	0.00488998
1878	0.00413767
1890	0.00420036
1902	0.00344806
1914	0.00432575
1926	0.00332268
1938	0.00476459
1950	0.00338537
1962	0.00325998
1974	0.00338537
1986	0.00219422
1998	0.00307191
2010	0.00225691
2022	0.00357344
2034	0.00445113
2046	0.00445113
2058	0.00608112
2070	0.00426306
2082	0.00407498
2094	0.00332268
2106	0.00438844
2118	0.0031346
2130	0.00376152
2142	0.0038869
2154	0.00438844
2166	0.00445113
2178	0.00570497
2190	0.00451382
2202	0.00576766
2214	0.00413767
2226	0.00269576
2238	0.00382421
2250	0.00319729
2262	0.00263306
2274	0.00188076
2286	0.00150461
2298	0.00275845
2310	0.00219422
2322	0.00219422
2334	0.00896496
2346	0.00382421
2358	0.00288383
2370	0.000877688
2382	0.00288383
2394	0.00288383
2406	0.0023196
2418	0.00225691
2430	0.00219422
2442	0.00181807
2454	0.00181807
2466	0.00294652
2478	0.00250768
2490	0.00031346
2502	0.00150461
2514	0.00325998
2526	0.00144192
2538	0.00338537
2550	0.00300922
2562	0.00175538
2574	0.00363614
2586	0.00250768
2598	0.00382421
2610	0.00407498
2622	0.00451382
2634	0.00996803
2646	0.014858
2658	0.019748
2670	0.0267695
2682	0.0477086
2694	0.101875
2706	0.14927
2718	0.119177
2730	0.0654504
2742	0.0409379
2754	0.0354837
2766	0.0337283
2778	0.0376152
2790	0.0627547
2802	0.107266
2814	0.0920945
2826	0.0441352
2838	0.0281487
2850	0.0258918
2862	0.0472698
2874	0.101122
2886	0.124381
2898	0.0975488
2910	0.0803085
2922	0.0830042
2934	0.101624
2946	0.166196
2958	0.218983
2970	0.313585
2982	0.427434
2994	0.314651
3006	0.0935992
3018	0.0203122
3030	0.00952918
3042	0.00915303
3054	0.024011
3066	0.068397
3078	0.0787412
3090	0.0314714
3102	0.00965457
3114	0.00890226
3126	0.0105323
3138	0.0132907
3150	0.0111592
3162	0.00677074
3174	0.00382421
3186	0.00382421
3198	0.00382421
3210	0.00382421
3222	0.00520344
3234	0.00557959
3246	0.00438844
3258	0.00514074
3270	0.00438844
3282	0.00495267
3294	0.00401229
3306	0.00608112
3318	0.00576766
3330	0.00495267
3342	0.00539151
3354	0.00651997
3366	0.00557959
3378	0.00495267
3390	0.0070842
3402	0.00758573
3414	0.00727227
3426	0.0085888
3438	0.0100934
3450	0.0159238
3462	0.0155476
3474	0.00840073
3486	0.00633189
3498	0.00689612
3510	0.00488998
3522	0.00488998
3534	0.00595574
3546	0.00463921
3558	0.00325998
3570	0.00821265
3582	0.00984264
3594	0.00589305
3606	0.00432575
3618	0.00162999
3630	0.00488998
3642	0.00608112
3654	0.00670804
3666	0.00282114
3678	0.00432575
3690	0.00677074
3702	0.0031346
3714	0.00445113
3726	0.00401229
3738	0.00376152
3750	0.00445113
3762	0.00438844
3774	0.00413767
3786	0.00557959
3798	0.00488998
3810	0
3822	0.00645728
3834	0.00112846
3846	0.00200614
3858	0.00570497
3870	0.0023196
3882	0.00576766
3894	0.000188076
3906	0.0100307
3918	0.00583036
3930	0.00507805
3942	0.0120369
3954	0.00583036
3966	0.00658266
