Infrared Spectrum: Hydantoin, 5-isopropyl-5-methyl-,
Formula: C 7 H 12 N 2 O 2
CAS: 5455-35-6
Origin: Sadtler Research Labs Under US-EPA Contract
1/CM	ABSORBANCE
450	0.00686553
462	0.00686553
474	0.0155619
486	0.0167061
498	0.0201389
510	0.0228851
522	0.0281487
534	0.0524069
546	0.132276
558	0.270273
570	0.267298
582	0.156076
594	0.0833018
606	0.0636206
618	0.0535511
630	0.0604167
642	0.0473722
654	0.0286064
666	0.0256313
678	0.0238005
690	0.0265467
702	0.0359296
714	0.047601
726	0.0546954
738	0.0585859
750	0.0768939
762	0.078267
774	0.0505761
786	0.0320391
798	0.0247159
810	0.0226562
822	0.0205966
834	0.0210543
846	0.0267756
858	0.0233428
870	0.0144176
882	0.0137311
894	0.0135022
906	0.0155619
918	0.0238005
930	0.027691
942	0.0324968
954	0.0473722
966	0.0562973
978	0.0993213
990	0.0938289
1002	0.0363873
1014	0.0270044
1026	0.0361585
1038	0.0535511
1050	0.0668245
1062	0.0494318
1074	0.0503472
1086	0.0585859
1098	0.0714015
1110	0.0926847
1122	0.0924558
1134	0.0855903
1146	0.0743766
1158	0.0489741
1170	0.043024
1182	0.0432528
1194	0.0395912
1206	0.0375316
1218	0.0402778
1230	0.0656802
1242	0.124266
1254	0.134107
1266	0.0869634
1278	0.0743766
1290	0.0881076
1302	0.106416
1314	0.146922
1326	0.176673
1338	0.159967
1350	0.162942
1362	0.303914
1374	0.36845
1386	0.265925
1398	0.174384
1410	0.0716304
1422	0.0347854
1434	0.0308949
1446	0.0409643
1458	0.0615609
1470	0.0718592
1482	0.0487453
1494	0.0299795
1506	0.0247159
1518	0.0249448
1530	0.01991
1542	0.0109848
1554	0.0187658
1566	0.0144176
1578	0.0274621
1590	0.0224274
1602	0.0157907
1614	0.0187658
1626	0.00366162
1638	0.0173927
1650	0
1662	0.0178504
1674	0.0162484
1686	0.030666
1698	0.0395912
1710	0.0601878
1722	0.0846749
1734	0.140057
1746	0.283089
1758	0.924558
1770	2.28851
1782	1.46213
1794	0.516517
1806	0.919066
1818	0.554048
1830	0.115341
1842	0.0620186
1854	0.0395912
1866	0.0320391
1878	0.027691
1890	0.0224274
1902	0.0180792
1914	0.0187658
1926	0.0221985
1938	0.0254025
1950	0.0256313
1962	0.021512
1974	0.015333
1986	0.0112137
1998	0.0100694
2010	0.00732323
2022	0.00732323
2034	0.00572127
2046	0.00549242
2058	0.00572127
2070	0.00549242
2082	0.00503472
2094	0.00572127
2106	0.00434817
2118	0.00457702
2130	0.00457702
2142	0.00411932
2154	0.00411932
2166	0.00411932
2178	0.00320391
2190	0.00366162
2202	0.00320391
2214	0.00389047
2226	0.00503472
2238	0.00503472
2250	0.00503472
2262	0.00549242
2274	0.00595013
2286	0.00823864
2298	0.0139599
2310	0.01991
2322	0.0224274
2334	0.0233428
2346	0.0267756
2358	0.0226562
2370	0.0254025
2382	0.0155619
2394	0.00823864
2406	0.00892519
2418	0.00732323
2430	0.00709438
2442	0.00709438
2454	0.00686553
2466	0.00686553
2478	0.00686553
2490	0.00709438
2502	0.00755208
2514	0.00755208
2526	0.00709438
2538	0.00686553
2550	0.00709438
2562	0.00663668
2574	0.00732323
2586	0.00732323
2598	0.00823864
2610	0.00938289
2622	0.00869634
2634	0.00869634
2646	0.00892519
2658	0.00869634
2670	0.00892519
2682	0.00869634
2694	0.00892519
2706	0.00961174
2718	0.00961174
2730	0.00984059
2742	0.010756
2754	0.010756
2766	0.0102983
2778	0.0102983
2790	0.0100694
2802	0.010756
2814	0.0114425
2826	0.0128157
2838	0.0144176
2850	0.0173927
2862	0.0228851
2874	0.047601
2886	0.0828441
2898	0.0748343
2910	0.0604167
2922	0.0686553
2934	0.0865057
2946	0.106187
2958	0.101839
2970	0.181479
2982	0.264552
2994	0.145778
3006	0.0546954
3018	0.0242582
3030	0.0180792
3042	0.0178504
3054	0.0173927
3066	0.0162484
3078	0.0155619
3090	0.0164773
3102	0.0164773
3114	0.016935
3126	0.016935
3138	0.0183081
3150	0.0192235
3162	0.0180792
3174	0.0173927
3186	0.0173927
3198	0.0171638
3210	0.0157907
3222	0.015333
3234	0.0148753
3246	0.0141888
3258	0.0144176
3270	0.0148753
3282	0.0148753
3294	0.0141888
3306	0.0148753
3318	0.0144176
3330	0.0148753
3342	0.0148753
3354	0.0144176
3366	0.0137311
3378	0.0135022
3390	0.0139599
3402	0.0137311
3414	0.0139599
3426	0.0144176
3438	0.016935
3450	0.0292929
3462	0.0796401
3474	0.222901
3486	0.309407
3498	0.126326
3510	0.0249448
3522	0.0210543
3534	0.0210543
3546	0.0265467
3558	0.0263179
3570	0.0297506
3582	0.0196812
3594	0.0235717
3606	0.0139599
3618	0.0208254
3630	0.027691
3642	0.0180792
3654	0.0157907
3666	0.00961174
3678	0.032268
3690	0.0125868
3702	0.0180792
3714	0.0226562
3726	0.0254025
3738	0.015333
3750	0.0228851
3762	0.0205966
3774	0.0162484
3786	0.0151042
3798	0.0116714
3810	0.0192235
3822	0.0308949
3834	0.021512
3846	0.0270044
3858	0.0251736
3870	0.0247159
3882	0.0331834
3894	0.015333
3906	0.0297506
3918	0.0226562
3930	0.0187658
3942	0.0226562
3954	0.016935
3966	0.0240294
