Infrared Spectrum: n-Butyl cyanoacetate
Formula: C 7 H 11 N O 2
CAS: 5459-58-5
Origin: Sadtler Research Labs Under US-EPA Contract
1/CM	ABSORBANCE
450	0
462	0.0106564
474	0.0116155
486	0.0102301
498	0.030051
510	0.0253622
522	0.011722
534	0.00767261
546	0.0169437
558	0.0112958
570	0.014919
582	0.0264279
594	0.0240835
606	0.0269607
618	0.0202472
630	0.020034
642	0.0151321
654	0.0164109
666	0.0132139
678	0.0248294
690	0.0250425
702	0.0187553
714	0.0212062
726	0.0247228
738	0.0235506
750	0.0352727
762	0.0177962
774	0.0199275
786	0.0180093
798	0.026641
810	0.0234441
822	0.0299445
834	0.0365515
846	0.0376171
858	0.0318626
870	0.0270673
882	0.0242966
894	0.0280263
906	0.0306904
918	0.0378302
930	0.0418797
942	0.0520032
954	0.0680944
966	0.0947354
978	0.103793
990	0.102195
1002	0.12841
1014	0.176363
1026	0.149083
1038	0.0756604
1050	0.0627662
1062	0.107203
1074	0.0890875
1086	0.0492326
1098	0.0393221
1110	0.0484866
1122	0.0690535
1134	0.104966
1146	0.206734
1158	0.400574
1170	0.546354
1182	0.487104
1194	0.383737
1206	0.282395
1218	0.238277
1230	0.267689
1242	0.397484
1254	0.614768
1266	0.702257
1278	0.523975
1290	0.317454
1302	0.279837
1314	0.232096
1326	0.245523
1338	0.226448
1350	0.115729
1362	0.0664959
1374	0.0586102
1386	0.0825871
1398	0.0841856
1410	0.0689469
1422	0.0658566
1434	0.0521098
1446	0.0563724
1458	0.0829068
1470	0.0984651
1482	0.0653237
1494	0.030797
1506	0.0187553
1518	0.0136402
1530	0.0125746
1542	0.0131074
1554	0.0110827
1566	0.0094842
1578	0.00873825
1590	0.00884481
1602	0.0102301
1614	0.0094842
1626	0.010017
1638	0.00884481
1650	0.00991045
1662	0.0142796
1674	0.0126811
1686	0.0138533
1698	0.0185421
1710	0.0314364
1722	0.0588233
1734	0.105392
1746	0.216431
1758	0.605177
1770	1.06564
1782	0.692346
1794	0.239876
1806	0.0945223
1818	0.049872
1830	0.0302642
1842	0.020034
1854	0.0150255
1866	0.0142796
1878	0.0127877
1890	0.0121483
1902	0.0101236
1914	0.00895138
1926	0.0079923
1938	0.00756604
1950	0.00692666
1962	0.0068201
1974	0.00660697
1986	0.00639384
1998	0.0065004
2010	0.00639384
2022	0.00660697
2034	0.00628728
2046	0.00607415
2058	0.00628728
2070	0.00660697
2082	0.00618071
2094	0.00618071
2106	0.0065004
2118	0.00628728
2130	0.00607415
2142	0.00511507
2154	0.00447569
2166	0.00468882
2178	0.00490194
2190	0.00447569
2202	0.00372974
2214	0.00372974
2226	0.00309036
2238	0.004156
2250	0.00543476
2262	0.00745948
2274	0.00724635
2286	0.0053282
2298	0.00586102
2310	0.00756604
2322	0.00852512
2334	0.00863168
2346	0.00884481
2358	0.0068201
2370	0.00713979
2382	0.00756604
2394	0.00447569
2406	0.00447569
2418	0.00404943
2430	0.00404943
2442	0.00436912
2454	0.00426256
2466	0.0038363
2478	0.00404943
2490	0.00458225
2502	0.00394287
2514	0.00468882
2526	0.00436912
2538	0.00447569
2550	0.00426256
2562	0.00436912
2574	0.00479538
2586	0.00458225
2598	0.00490194
2610	0.00511507
2622	0.00479538
2634	0.00447569
2646	0.0038363
2658	0.0053282
2670	0.00596758
2682	0.00639384
2694	0.00660697
2706	0.00639384
2718	0.00692666
2730	0.00703322
2742	0.00863168
2754	0.0103367
2766	0.0091645
2778	0.0091645
2790	0.00969732
2802	0.0114023
2814	0.0137468
2826	0.0161977
2838	0.0215259
2850	0.036658
2862	0.060848
2874	0.100277
2886	0.157182
2898	0.133738
2910	0.12841
2922	0.163149
2934	0.210144
2946	0.295822
2958	0.298912
2970	0.441921
2982	0.361678
2994	0.147911
3006	0.0713979
3018	0.0380433
3030	0.0253622
3042	0.0204603
3054	0.0148124
3066	0.0116155
3078	0.0103367
3090	0.00863168
3102	0.00831199
3114	0.00745948
3126	0.00745948
3138	0.00703322
3150	0.00660697
3162	0.00660697
3174	0.0068201
3186	0.00660697
3198	0.00703322
3210	0.00618071
3222	0.00639384
3234	0.00586102
3246	0.00479538
3258	0.0038363
3270	0.00362318
3282	0.00447569
3294	0.00426256
3306	0.00362318
3318	0.00341005
3330	0.00341005
3342	0.004156
3354	0.00426256
3366	0.004156
3378	0.00372974
3390	0.00341005
3402	0.00351661
3414	0.00394287
3426	0.00372974
3438	0.00458225
3450	0.004156
3462	0.00436912
3474	0.004156
3486	0.00554133
3498	0.00852512
3510	0.0110827
3522	0.0138533
3534	0.0103367
3546	0.00852512
3558	0.00564789
3570	0.00500851
3582	0.00564789
3594	0.00554133
3606	0.00554133
3618	0.00372974
3630	0.00468882
3642	0.00596758
3654	0.00586102
3666	0.0068201
3678	0.00554133
3690	0.00618071
3702	0.00575446
3714	0.00607415
3726	0.00458225
3738	0.00618071
3750	0.0065004
3762	0.00436912
3774	0.00596758
3786	0.00618071
3798	0.00426256
3810	0.00511507
3822	0.0038363
3834	0.00618071
3846	0.00809886
3858	0.0038363
3870	0.00436912
3882	0.00639384
3894	0.00490194
3906	0.0065004
3918	0.0091645
3930	0.00458225
3942	0.0068201
3954	0.00564789
3966	0.00554133
