Infrared Spectrum: 2-Methyl-3-nitrophenol
Formula: C 7 H 7 N O 3
CAS: 5460-31-1
Origin: Sadtler Research Labs Under US-EPA Contract
1/CM	ABSORBANCE
450	0
462	0.132907
474	0.104727
486	0.108324
498	0.108624
510	0.130808
522	0.134206
534	0.122614
546	0.121515
558	0.101629
570	0.116818
582	0.11422
594	0.106625
606	0.110623
618	0.123314
630	0.118117
642	0.111422
654	0.103428
666	0.102528
678	0.107025
690	0.133806
702	0.169981
714	0.17188
726	0.194164
738	0.204657
750	0.158389
762	0.153393
774	0.224243
786	0.25672
798	0.231838
810	0.15699
822	0.262216
834	0.288598
846	0.125612
858	0.110023
870	0.106625
882	0.107225
894	0.110722
906	0.112421
918	0.104727
930	0.105226
942	0.107625
954	0.103428
966	0.103128
978	0.104827
990	0.108024
1002	0.11462
1014	0.123414
1026	0.151294
1038	0.186569
1050	0.173379
1062	0.153293
1074	0.161487
1086	0.137104
1098	0.115619
1110	0.114919
1122	0.12831
1134	0.18517
1146	0.331368
1158	0.340661
1170	0.202258
1182	0.160887
1194	0.189167
1206	0.294294
1218	0.355851
1230	0.231038
1242	0.158289
1254	0.179874
1266	0.311282
1278	0.412611
1290	0.274907
1302	0.210153
1314	0.229939
1326	0.216348
1338	0.225042
1350	0.404617
1362	0.581093
1374	0.334566
1386	0.195463
1398	0.173379
1410	0.147996
1422	0.136105
1434	0.134606
1446	0.164884
1458	0.230339
1470	0.264215
1482	0.216548
1494	0.202758
1506	0.238033
1518	0.339862
1530	0.591086
1542	0.971819
1554	0.836914
1566	0.468872
1578	0.344759
1590	0.27071
1602	0.192865
1614	0.160288
1626	0.132407
1638	0.112121
1650	0.107525
1662	0.10013
1674	0.10013
1686	0.0987308
1698	0.0968322
1710	0.0955331
1722	0.0967322
1734	0.0939342
1746	0.0976316
1758	0.11362
1770	0.107025
1782	0.094234
1794	0.0917357
1806	0.0921355
1818	0.0930348
1830	0.0936344
1842	0.0925352
1854	0.0940341
1866	0.0917357
1878	0.0903367
1890	0.0909363
1902	0.094234
1914	0.0950334
1926	0.0938343
1938	0.0904366
1950	0.0879384
1962	0.0861397
1974	0.0861397
1986	0.0857399
1998	0.0857399
2010	0.08564
2022	0.0858399
2034	0.0863395
2046	0.087039
2058	0.0874387
2070	0.0874387
2082	0.0862396
2094	0.0865394
2106	0.0860397
2118	0.08564
2130	0.0843409
2142	0.0841411
2154	0.0834416
2166	0.0841411
2178	0.0843409
2190	0.0839412
2202	0.0836414
2214	0.0846407
2226	0.0843409
2238	0.0852403
2250	0.0852403
2262	0.0855401
2274	0.0861397
2286	0.0875387
2298	0.0893374
2310	0.091436
2322	0.091336
2334	0.0906365
2346	0.0937343
2358	0.0884381
2370	0.0945338
2382	0.0936344
2394	0.0893374
2406	0.0889377
2418	0.0888378
2430	0.0895373
2442	0.0896372
2454	0.0896372
2466	0.0887378
2478	0.0900369
2490	0.0910362
2502	0.0916358
2514	0.0922354
2526	0.0901369
2538	0.0910362
2550	0.0898371
2562	0.0884381
2574	0.0890376
2586	0.0898371
2598	0.0898371
2610	0.0912361
2622	0.0912361
2634	0.091336
2646	0.0901369
2658	0.089937
2670	0.0893374
2682	0.0905366
2694	0.0911362
2706	0.0918357
2718	0.092835
2730	0.0919356
2742	0.0912361
2754	0.0923353
2766	0.0925352
2778	0.091436
2790	0.0907364
2802	0.0916358
2814	0.0922354
2826	0.0937343
2838	0.0951334
2850	0.0979314
2862	0.102428
2874	0.110123
2886	0.11392
2898	0.115419
2910	0.113421
2922	0.115919
2934	0.123014
2946	0.126012
2958	0.120016
2970	0.110822
2982	0.107625
2994	0.104727
3006	0.104427
3018	0.108624
3030	0.113321
3042	0.11392
3054	0.109623
3066	0.110423
3078	0.118117
3090	0.116319
3102	0.100929
3114	0.0933346
3126	0.0903367
3138	0.091336
3150	0.0898371
3162	0.0903367
3174	0.0892375
3186	0.0906365
3198	0.0891376
3210	0.0893374
3222	0.0898371
3234	0.0895373
3246	0.0888378
3258	0.0884381
3270	0.0897371
3282	0.088538
3294	0.088538
3306	0.0884381
3318	0.0897371
3330	0.0903367
3342	0.0903367
3354	0.0900369
3366	0.0902368
3378	0.0904366
3390	0.0897371
3402	0.0910362
3414	0.0890376
3426	0.0889377
3438	0.0883381
3450	0.0879384
3462	0.088538
3474	0.0836414
3486	0.0859398
3498	0.0912361
3510	0.0955331
3522	0.0990306
3534	0.0882382
3546	0.0878385
3558	0.0904366
3570	0.0959328
3582	0.098531
3594	0.095633
3606	0.0933346
3618	0.098531
3630	0.126312
3642	0.252223
3654	0.37114
3666	0.187868
3678	0.0986309
3690	0.0903367
3702	0.0918357
3714	0.0912361
3726	0.0886379
3738	0.0906365
3750	0.0911362
3762	0.0904366
3774	0.0905366
3786	0.0900369
3798	0.0900369
3810	0.0945338
3822	0.101629
3834	0.0977315
3846	0.0900369
3858	0.0908364
3870	0.0891376
3882	0.0895373
3894	0.0889377
3906	0.0901369
3918	0.0917357
3930	0.0929349
3942	0.0903367
3954	0.0916358
3966	0.0958329
