Infrared Spectrum: Toluene-2,4,5-triol, triacetate
Formula: C 13 H 14 O 6
CAS: 5462-27-1
Origin: Sadtler Research Labs Under US-EPA Contract
1/CM	ABSORBANCE
450	0.00413614
462	0.0189573
474	0.0062042
486	0.0199913
498	0.0062042
510	0.00379146
522	0.00379146
534	0.0031021
546	0.0039638
558	0.0070659
570	0.0196466
582	0.0561825
594	0.0744504
606	0.0418784
618	0.0225764
630	0.0165445
642	0.0175786
654	0.0170616
666	0.0117191
678	0.00413614
690	0.00585953
702	0.00361912
714	0.000861695
726	0.000689356
738	0.000344678
750	0.00206807
762	0.00224041
774	0.00258508
786	0.00413614
798	0.00465315
810	0.0108574
822	0.0156828
834	0.0134424
846	0.0239551
858	0.0325721
870	0.0444635
882	0.0727271
894	0.134941
906	0.196639
918	0.242309
930	0.0834121
942	0.0206807
954	0.0115467
966	0.0156828
978	0.0342955
990	0.0763462
1002	0.189745
1014	0.274536
1026	0.100129
1038	0.061525
1050	0.0656612
1062	0.0847908
1074	0.142007
1086	0.258336
1098	0.236277
1110	0.0982332
1122	0.08031
1134	0.12081
1146	0.303489
1158	1.05902
1170	1.16088
1182	1.2934
1194	1.67651
1206	1.50728
1218	0.681428
1230	0.214045
1242	0.126324
1254	0.0806547
1266	0.0649718
1278	0.0642824
1290	0.0989226
1302	0.149763
1314	0.0577336
1326	0.0330891
1338	0.0279189
1350	0.0484273
1362	0.169582
1374	0.485824
1386	0.147005
1398	0.0806547
1410	0.0858248
1422	0.0515294
1434	0.0546315
1446	0.0572165
1458	0.0529081
1470	0.0577336
1482	0.0765185
1494	0.188539
1506	0.492373
1518	0.143041
1530	0.0530804
1542	0.0274019
1554	0.0225764
1566	0.0201637
1578	0.0179233
1590	0.0194743
1602	0.0227487
1614	0.0239551
1626	0.02137
1638	0.010685
1650	0.0039638
1662	0.00913397
1674	0.00844461
1686	0.010168
1698	0.0117191
1710	0.020853
1722	0.0301593
1734	0.0434294
1746	0.0742781
1758	0.125635
1770	0.211288
1782	0.522704
1794	0.945624
1806	0.509779
1818	0.175441
1830	0.0773802
1842	0.0456698
1854	0.0323997
1866	0.0175786
1878	0.0110297
1890	0.00723824
1902	0.0070659
1914	0.00585953
1926	0.00430847
1938	0.00379146
1950	0.00361912
1962	0.00327444
1974	0.00327444
1986	0.00292976
1998	0.00258508
2010	0.00344678
2022	0.00465315
2034	0.0062042
2046	0.00603186
2058	0.00568719
2070	0.00517017
2082	0.00517017
2094	0.00499783
2106	0.00465315
2118	0.00448081
2130	0.00344678
2142	0.00172339
2154	0.00103403
2166	0.00120637
2178	0.000861695
2190	0.000172339
2202	0.000344678
2214	0.000517017
2226	0.000689356
2238	0.00137871
2250	0.00275742
2262	0.00258508
2274	0.00292976
2286	0.00344678
2298	0.00430847
2310	0.00551485
2322	0.00430847
2334	0.00258508
2346	0.00637654
2358	0.00551485
2370	0.00775525
2382	0.00654888
2394	0.00241275
2406	0.00224041
2418	0.00137871
2430	0.000689356
2442	0.00172339
2454	0.00258508
2466	0.00241275
2478	0.00172339
2490	0.00275742
2502	0.00189573
2514	0.000689356
2526	0.000344678
2538	0.000861695
2550	0.00103403
2562	0.00103403
2574	0.00120637
2586	0.00103403
2598	0.000689356
2610	0.000172339
2622	0.000172339
2634	0.000172339
2646	0
2658	0
2670	0.000344678
2682	0.000861695
2694	0.00103403
2706	0.000861695
2718	0.000861695
2730	0.000172339
2742	0.000689356
2754	0.00120637
2766	0.00120637
2778	0.00189573
2790	0.00258508
2802	0.00275742
2814	0.00224041
2826	0.00241275
2838	0.00361912
2850	0.0062042
2862	0.0110297
2874	0.0148212
2886	0.0144765
2898	0.0125807
2910	0.0141318
2922	0.0163722
2934	0.0334338
2946	0.0511847
2958	0.030504
2970	0.0246445
2982	0.0244721
2994	0.0251615
3006	0.0158552
3018	0.0148212
3030	0.0211977
3042	0.0201637
3054	0.0201637
3066	0.0165445
3078	0.0139595
3090	0.0117191
3102	0.00930631
3114	0.00741058
3126	0.00551485
3138	0.00465315
3150	0.0039638
3162	0.0031021
3174	0.00206807
3186	0.00172339
3198	0.00172339
3210	0.00155105
3222	0.00120637
3234	0.00103403
3246	0.000861695
3258	0.000517017
3270	0.000517017
3282	0.000689356
3294	0.000517017
3306	0.000517017
3318	0.000861695
3330	0.000689356
3342	0.000689356
3354	0.000517017
3366	0.00120637
3378	0.00103403
3390	0.00120637
3402	0.00137871
3414	0.000861695
3426	0.00172339
3438	0.00189573
3450	0.00137871
3462	0.00155105
3474	0.00120637
3486	0.00120637
3498	0.00189573
3510	0.00206807
3522	0.00224041
3534	0.00430847
3546	0.00637654
3558	0.00758292
3570	0.00654888
3582	0.0039638
3594	0.000517017
3606	0.000517017
3618	0.00224041
3630	0.000172339
3642	0.000861695
3654	0.00172339
3666	0.00189573
3678	0.000689356
3690	0
3702	0.00137871
3714	0.00155105
3726	0.000689356
3738	0.000861695
3750	0.00224041
3762	0.00137871
3774	0.00137871
3786	0.000689356
3798	0.000172339
3810	0.000689356
3822	0.00189573
3834	0.00189573
3846	0.00189573
3858	0.00120637
3870	0.000861695
3882	0.00258508
3894	0.000861695
3906	0.00155105
3918	0.00189573
3930	0.00172339
3942	0.00189573
3954	0.00258508
3966	0.00172339
