Infrared Spectrum: Naphthalene, 1-bromo-4-methoxy-
Formula: C 11 H 9 Br O
CAS: 5467-58-3
Origin: Sadtler Research Labs Under US-EPA Contract
1/CM	ABSORBANCE
450	0
462	0.00665986
474	0.00952613
486	0.00682846
498	0.0166075
510	0.0492324
522	0.0262179
534	0.0083459
546	0.00657556
558	0.0106221
570	0.0111279
582	0.0218342
594	0.0198953
606	0.035744
618	0.141796
630	0.135895
642	0.0371772
654	0.0218342
666	0.0122238
678	0.0159331
690	0.010875
702	0.0247005
714	0.0788224
726	0.0271452
738	0.0255435
750	0.223063
762	0.534812
774	0.14677
786	0.0488952
798	0.13404
810	0.190691
822	0.0746073
834	0.02959
846	0.0182935
858	0.0194738
870	0.0191366
882	0.0255435
894	0.0601073
906	0.150732
918	0.0936595
930	0.0229301
942	0.0177877
954	0.0245319
966	0.023183
978	0.0286627
990	0.0764619
1002	0.0895287
1014	0.054712
1026	0.158235
1038	0.0750288
1050	0.05193
1062	0.108918
1074	0.25788
1086	0.494178
1098	0.260746
1110	0.0860723
1122	0.130837
1134	0.0692119
1146	0.0532789
1158	0.237479
1170	0.153851
1182	0.0639009
1194	0.0790753
1206	0.100572
1218	0.150395
1230	0.42387
1242	0.84302
1254	0.484989
1266	0.686555
1278	0.0979589
1290	0.0418138
1302	0.0661771
1314	0.188415
1326	0.160511
1338	0.0741858
1350	0.107064
1362	0.285615
1374	0.70291
1386	0.393775
1398	0.0918049
1410	0.119119
1422	0.283592
1434	0.0948397
1446	0.119372
1458	0.394028
1470	0.181334
1482	0.0577469
1494	0.0618777
1506	0.195159
1518	0.0626364
1530	0.0303487
1542	0.0296743
1554	0.0337208
1566	0.0892758
1578	0.184874
1590	0.446463
1602	0.247258
1614	0.119962
1626	0.0863252
1638	0.0261336
1650	0.0118023
1662	0.0138255
1674	0.00977903
1686	0.0084302
1698	0.0111279
1710	0.0306859
1722	0.0226772
1734	0.0118866
1746	0.0128982
1758	0.00935752
1770	0.00682846
1782	0.0082616
1794	0.0126453
1806	0.0374301
1818	0.0439213
1830	0.0256278
1842	0.0215813
1854	0.0107907
1866	0.00935752
1878	0.00944182
1890	0.0085145
1902	0.0113808
1914	0.0136569
1926	0.0207383
1938	0.0230144
1950	0.0262179
1962	0.0214127
1974	0.015343
1986	0.0150901
1998	0.0122238
2010	0.00961043
2022	0.0116337
2034	0.0128139
2046	0.0111279
2058	0.0123081
2070	0.0154273
2082	0.0183778
2094	0.0132354
2106	0.0102005
2118	0.0118023
2130	0.0116337
2142	0.0120552
2154	0.013404
2166	0.0113808
2178	0.00969473
2190	0.0082616
2202	0.00885171
2214	0.0112122
2226	0.0114651
2238	0.0119709
2250	0.0102848
2262	0.00902031
2274	0.00876741
2286	0.00902031
2298	0.00792439
2310	0.00590114
2322	0.0041308
2334	0.00370929
2346	0.00531103
2358	0.00455231
2370	0.00750288
2382	0.00809299
2394	0.00935752
2406	0.0114651
2418	0.0111279
2430	0.00817729
2442	0.00876741
2454	0.0101162
2466	0.0113808
2478	0.012561
2490	0.0112122
2502	0.010875
2514	0.00893601
2526	0.00885171
2538	0.00902031
2550	0.0105377
2562	0.0112965
2574	0.0119709
2586	0.0115494
2598	0.0106221
2610	0.0110436
2622	0.0112965
2634	0.0106221
2646	0.00977903
2658	0.00961043
2670	0.00944182
2682	0.00952613
2694	0.0102005
2706	0.00910462
2718	0.0083459
2730	0.00910462
2742	0.0102848
2754	0.0102848
2766	0.0107907
2778	0.0120552
2790	0.014247
2802	0.0166075
2814	0.0224243
2826	0.0343952
2838	0.0707294
2850	0.145674
2862	0.082616
2874	0.0556393
2886	0.0488952
2898	0.0582527
2910	0.0801712
2922	0.106052
2934	0.106979
2946	0.223906
2958	0.201988
2970	0.125863
2982	0.0651654
2994	0.0677788
3006	0.148456
3018	0.130078
3030	0.0611189
3042	0.0627207
3054	0.101921
3066	0.105377
3078	0.15402
3090	0.152418
3102	0.0832904
3114	0.026808
3126	0.0138255
3138	0.010875
3150	0.00986333
3162	0.00918892
3174	0.0083459
3186	0.0085145
3198	0.0082616
3210	0.00876741
3222	0.00750288
3234	0.00640695
3246	0.00539533
3258	0.00547963
3270	0.00514242
3282	0.00455231
3294	0.00472091
3306	0.00531103
3318	0.00463661
3330	0.00547963
3342	0.00472091
3354	0.00463661
3366	0.00531103
3378	0.00556393
3390	0.00488952
3402	0.00522672
3414	0.00514242
3426	0.00497382
3438	0.00522672
3450	0.00522672
3462	0.00539533
3474	0.00539533
3486	0.00455231
3498	0.00547963
3510	0.00539533
3522	0.00497382
3534	0.00573254
3546	0.00472091
3558	0.00547963
3570	0.00463661
3582	0.00497382
3594	0.00514242
3606	0.00472091
3618	0.00488952
3630	0.00531103
3642	0.00396219
3654	0.00497382
3666	0.0041308
3678	0.00590114
3690	0.00472091
3702	0.00488952
3714	0.00455231
3726	0.00446801
3738	0.00505812
3750	0.00480521
3762	0.00514242
3774	0.00370929
3786	0.00505812
3798	0.00463661
3810	0.00370929
3822	0.00514242
3834	0.00564823
3846	0.00615405
3858	0.0043837
3870	0.00522672
3882	0.00370929
3894	0.00379359
3906	0.00370929
3918	0.00370929
3930	0.0041308
3942	0.00370929
3954	0.00370929
3966	0.00379359
