Infrared Spectrum: p-Chloro-.alpha.,.alpha.-dimethylphenethyl alcohol
Formula: C 10 H 13 Cl O
CAS: 5468-97-3
Origin: Sadtler Research Labs Under US-EPA Contract
1/CM	ABSORBANCE
450	0.0548221
462	0.0288356
474	0.0510234
486	0.0738156
498	0.0184755
510	0.00319436
522	0.0185618
534	0.0818446
546	0.110335
558	0.0499011
570	0.00733839
582	0.00207202
594	0.00215835
606	0.000777006
618	0.00138134
630	0.000949674
642	0.00250369
654	0.0109644
666	0.104809
678	0.0404043
690	0.00561171
702	0.0119141
714	0.0813266
726	0.0182165
738	0.0182165
750	0.107917
762	0.160322
774	0.0594841
786	0.0340156
798	0.0768373
810	0.165848
822	0.183201
834	0.204957
846	0.224123
858	0.0574121
870	0.043944
882	0.0637145
894	0.149962
906	0.219979
918	0.121472
930	0.0630238
942	0.0607791
954	0.0469657
966	0.0753696
978	0.0709665
990	0.0322889
1002	0.0319436
1014	0.31486
1026	0.141242
1038	0.0257275
1050	0.0262455
1062	0.0575848
1074	0.132005
1086	0.437454
1098	0.633778
1110	0.398949
1122	0.382978
1134	0.344818
1146	0.276355
1158	0.271434
1170	0.197705
1182	0.163085
1194	0.178798
1206	0.211346
1218	0.212554
1230	0.209274
1242	0.18251
1254	0.132005
1266	0.112839
1278	0.115429
1290	0.110162
1302	0.110853
1314	0.111889
1326	0.11068
1338	0.145818
1350	0.142192
1362	0.16343
1374	0.291118
1386	0.289737
1398	0.157387
1410	0.122853
1422	0.0897874
1434	0.0764919
1446	0.0968667
1458	0.129846
1470	0.214713
1482	0.369682
1494	0.792978
1506	0.2388
1518	0.0589661
1530	0.0259002
1542	0.0221878
1554	0.0126048
1566	0.0107054
1578	0.0176121
1590	0.0435987
1602	0.0530091
1614	0.0144178
1626	0.0159718
1638	0.0227058
1650	0.0256412
1662	0.0214972
1674	0.0146768
1686	0.0088924
1698	0.0083744
1710	0.00423037
1722	0.00397136
1734	0.0088924
1746	0.00733839
1758	0.0102737
1770	0.0180438
1782	0.0209792
1794	0.00794273
1806	0.00423037
1818	0.00276269
1830	0.00241735
1842	0.00198568
1854	0.00181301
1866	0.00543904
1878	0.0123458
1890	0.0269362
1902	0.0274542
1914	0.0106191
1926	0.00267635
1938	0.000949674
1950	0.000518004
1962	0.000604338
1974	0.000518004
1986	0.000259002
1998	0.000259002
2010	0.000949674
2022	0.00112234
2034	0.00172668
2046	0.00207202
2058	0.00172668
2070	0.00120868
2082	0.00138134
2094	0.00189935
2106	0.00172668
2118	0.00138134
2130	0.00120868
2142	0.00120868
2154	0.000949674
2166	0.000604338
2178	0.00043167
2190	0.000690672
2202	0.000604338
2214	0.000172668
2226	0.00043167
2238	0.00043167
2250	0.00112234
2262	0.00233102
2274	0.00423037
2286	0.00630238
2298	0.00794273
2310	0.0081154
2322	0.00543904
2334	0.00302169
2346	0.0040577
2358	0.00302169
2370	0.00328069
2382	0.00423037
2394	0.00164035
2406	0.00164035
2418	0.00146768
2430	0.000949674
2442	0.000777006
2454	0.000949674
2466	0.00043167
2478	0.00043167
2490	0.00043167
2502	0.000777006
2514	0.00120868
2526	0.00146768
2538	0.00172668
2550	0.00276269
2562	0.00276269
2574	0.00302169
2586	0.00440303
2598	0.00423037
2610	0.00388503
2622	0.00310802
2634	0.00250369
2646	0.00224468
2658	0.00250369
2670	0.00233102
2682	0.00310802
2694	0.00328069
2706	0.00319436
2718	0.00440303
2730	0.00733839
2742	0.00820173
2754	0.00820173
2766	0.00759739
2778	0.00716572
2790	0.00820173
2802	0.0113961
2814	0.0167488
2826	0.0236555
2838	0.037469
2850	0.0745062
2862	0.0975574
2874	0.11845
2886	0.145645
2898	0.165934
2910	0.202971
2922	0.316155
2934	0.429339
2946	0.397827
2958	0.294744
2970	0.591647
2982	0.86334
2994	0.356732
3006	0.0784776
3018	0.0567214
3030	0.106795
3042	0.118191
3054	0.0699305
3066	0.043426
3078	0.0574121
3090	0.0872837
3102	0.0567214
3114	0.0207202
3126	0.0088924
3138	0.00621605
3150	0.00526637
3162	0.00543904
3174	0.00587071
3186	0.00647505
3198	0.00768373
3210	0.00699305
3222	0.00587071
3234	0.00569804
3246	0.00353969
3258	0.00198568
3270	0.00103601
3282	0.000518004
3294	0.00146768
3306	0.00138134
3318	0.00284902
3330	0.00241735
3342	0.00310802
3354	0.00345336
3366	0.00397136
3378	0.00362603
3390	0.0043167
3402	0.0040577
3414	0.0037987
3426	0.0043167
3438	0.00328069
3450	0.00250369
3462	0.00181301
3474	0.00172668
3486	0.000949674
3498	0.00043167
3510	0.00086334
3522	0.000259002
3534	0.00103601
3546	0.00086334
3558	0.000518004
3570	0.00423037
3582	0.00595705
3594	0.0120868
3606	0.0183028
3618	0.0499011
3630	0.0861613
3642	0.101615
3654	0.0355696
3666	0.0141588
3678	0.00923774
3690	0.00371236
3702	0.00129501
3714	0.00224468
3726	0.00276269
3738	0.00233102
3750	0.00207202
3762	0.000690672
3774	0.000518004
3786	0.00043167
3798	0.00138134
3810	0.000777006
3822	0.00181301
3834	0.00207202
3846	0.00293536
3858	0.0040577
3870	0.00448937
3882	0.0040577
3894	0.00492104
3906	0.00466204
3918	0.00319436
3930	0.00440303
3942	0.00310802
3954	0
3966	0
