Infrared Spectrum: Propanoic acid, 2-hydroxy-, methyl ester
Formula: C 4 H 8 O 3
CAS: 547-64-8
Origin: Sadtler Research Labs Under US-EPA Contract
1/CM	ABSORBANCE
450	0
462	0.0351687
474	0.0174913
486	0.0138628
498	0.0290282
510	0.0178635
522	0.026144
534	0.0283769
546	0.0296794
558	0.0430771
570	0.0379599
582	0.0388903
594	0.0392625
606	0.0395416
618	0.0347966
630	0.0374017
642	0.0434492
654	0.0354479
666	0.0168401
678	0.0117229
690	0.00576842
702	0.00204686
714	0.00474499
726	0.00902478
738	0.014235
750	0.0169331
762	0.0138628
774	0.0194452
786	0.0107925
798	0.00837351
810	0.0133976
822	0.0272604
834	0.0361922
846	0.0324706
858	0.0188869
870	0.00660577
882	0.00297725
894	0.00493107
906	0.0139559
918	0.021492
930	0.0240971
942	0.0186078
954	0.0134907
966	0.0255857
978	0.0697793
990	0.0990865
1002	0.0841073
1014	0.0710818
1026	0.0981561
1038	0.175099
1050	0.211292
1062	0.186264
1074	0.146257
1086	0.166168
1098	0.235017
1110	0.330009
1122	0.491246
1134	0.673137
1146	0.549395
1158	0.291398
1170	0.205523
1182	0.221619
1194	0.292887
1206	0.435609
1218	0.613127
1230	0.700212
1242	0.605312
1254	0.572562
1266	0.520367
1278	0.401742
1290	0.263486
1302	0.157329
1314	0.11174
1326	0.0896896
1338	0.0868054
1350	0.0946207
1362	0.120672
1374	0.14635
1386	0.14635
1398	0.0901548
1410	0.0660577
1422	0.066709
1434	0.100854
1446	0.139931
1458	0.128952
1470	0.0873636
1482	0.0495898
1494	0.028563
1506	0.0218642
1518	0.0187008
1530	0.0150723
1542	0.0171192
1554	0.014235
1566	0.0121881
1578	0.0124672
1590	0.00958302
1602	0.00828047
1614	0.0093039
1626	0.00753616
1638	0.0093039
1650	0.00772224
1662	0.00855959
1674	0.0124672
1686	0.0209338
1698	0.0305168
1710	0.0494967
1722	0.100296
1734	0.263952
1746	0.612941
1758	0.882103
1770	0.769805
1782	0.550977
1794	0.262556
1806	0.130162
1818	0.0650343
1830	0.0473569
1842	0.035727
1854	0.0129324
1866	0.00837351
1878	0.00725704
1890	0.007164
1902	0.00576842
1914	0.00530322
1926	0.00483803
1938	0.00604753
1950	0.00753616
1962	0.0093039
1974	0.00883871
1986	0.00651273
1998	0.00493107
2010	0.00437283
2022	0.00558234
2034	0.00604753
2046	0.00735008
2058	0.0093039
2070	0.0101413
2082	0.0100482
2094	0.00809439
2106	0.00567538
2118	0.00455891
2130	0.00325637
2142	0.00297725
2154	0.00251205
2166	0.0016747
2178	0.00232598
2190	0.00344244
2202	0.00279117
2214	0.00316333
2226	0.00251205
2238	0.0016747
2250	0.00204686
2262	0.00232598
2274	0.00269813
2286	0.00362852
2298	0.00474499
2310	0.00632665
2322	0.00735008
2334	0.00511715
2346	0.00316333
2358	0.00846655
2370	0.0016747
2382	0.00195382
2394	0.00344244
2406	0.00427979
2418	0.00465195
2430	0.00446587
2442	0.00437283
2454	0.00400068
2466	0.00362852
2478	0.00400068
2490	0.00372156
2502	0.00344244
2514	0.00437283
2526	0.00455891
2538	0.00446587
2550	0.00511715
2562	0.00493107
2574	0.00483803
2586	0.00446587
2598	0.00474499
2610	0.00455891
2622	0.00400068
2634	0.00288421
2646	0.00297725
2658	0.00316333
2670	0.00390764
2682	0.00409372
2694	0.00418676
2706	0.0038146
2718	0.0038146
2730	0.0038146
2742	0.00427979
2754	0.00409372
2766	0.00530322
2778	0.00735008
2790	0.00921086
2802	0.011909
2814	0.016747
2826	0.021492
2838	0.0314472
2850	0.0455891
2862	0.0509854
2874	0.0491246
2886	0.0567538
2898	0.0733147
2910	0.0878288
2922	0.0885731
2934	0.0884801
2946	0.11788
2958	0.181984
2970	0.183194
2982	0.147002
2994	0.181054
3006	0.165795
3018	0.0902478
3030	0.0614057
3042	0.0481012
3054	0.0322845
3066	0.0230737
3078	0.0183287
3090	0.0162818
3102	0.0147002
3114	0.0111647
3126	0.0102343
3138	0.0093039
3150	0.00576842
3162	0.00623361
3174	0.00446587
3186	0.00493107
3198	0.00483803
3210	0.00437283
3222	0.00390764
3234	0.00325637
3246	0.00232598
3258	0.00316333
3270	0.00288421
3282	0.00279117
3294	0.00353548
3306	0.00269813
3318	0.00400068
3330	0.00353548
3342	0.00251205
3354	0.00325637
3366	0.00390764
3378	0.00390764
3390	0.00344244
3402	0.00400068
3414	0.00269813
3426	0.00390764
3438	0.00297725
3450	0.00660577
3462	0.00855959
3474	0.0109786
3486	0.0136767
3498	0.0161888
3510	0.0131185
3522	0.0121881
3534	0.0133976
3546	0.0194452
3558	0.0484733
3570	0.117043
3582	0.146909
3594	0.108018
3606	0.0496828
3618	0.0258648
3630	0.0256788
3642	0.0307029
3654	0.0273535
3666	0.0137698
3678	0.0102343
3690	0.00623361
3702	0.0106064
3714	0.00651273
3726	0.00800135
3738	0.00781528
3750	0.00623361
3762	0.00530322
3774	0.00883871
3786	0.00651273
3798	0.00446587
3810	0.00641969
3822	0.00725704
3834	0.00614057
3846	0.00855959
3858	0.00753616
3870	0.00744312
3882	0.00744312
3894	0.00837351
3906	0.00669881
3918	0.0102343
3930	0.00828047
3942	0.0093039
3954	0.00660577
3966	0.00893174
