Infrared Spectrum: Propanoic acid, 2-methyl-, methyl ester
Formula: C 5 H 10 O 2
CAS: 547-63-7
Origin: Sadtler Research Labs Under US-EPA Contract
1/CM	ABSORBANCE
450	0.00136991
462	0.00313123
474	0.00339217
486	0.00221796
498	0.00313123
510	0.00319647
522	0.00476208
534	0.00574059
546	0.00189179
558	0.00417498
570	0.00156562
582	0.00371834
594	0.00704527
606	0.00789331
618	0.00841519
630	0.00808902
642	0.00724097
654	0.00476208
666	0.00313123
678	0.00391404
690	0.0036531
702	0.00437068
714	0.00397927
726	0.00541442
738	0.00848042
750	0.0160476
762	0.0200921
774	0.0170261
786	0.0135687
798	0.0175479
810	0.0308557
822	0.0402494
834	0.0309209
846	0.0148734
858	0.0099808
870	0.0139601
882	0.0234842
894	0.0285073
906	0.022571
918	0.0123945
930	0.0108288
942	0.00971987
954	0.00880659
966	0.0099808
978	0.0169608
990	0.0397927
1002	0.0501649
1014	0.0308557
1026	0.0127206
1038	0.0114812
1050	0.0189179
1062	0.0413584
1074	0.105353
1086	0.175806
1098	0.168108
1110	0.125902
1122	0.138622
1134	0.195441
1146	0.375161
1158	0.505498
1170	0.402494
1182	0.287225
1194	0.45031
1206	0.40706
1218	0.245541
1230	0.171109
1242	0.166934
1254	0.196289
1266	0.184417
1278	0.106658
1290	0.049056
1302	0.040706
1314	0.0437068
1326	0.0564926
1338	0.0969377
1350	0.114225
1362	0.088653
1374	0.0645817
1386	0.0795855
1398	0.067191
1410	0.0335955
1422	0.0369224
1434	0.0893053
1446	0.118856
1458	0.0905448
1470	0.125119
1482	0.109202
1494	0.051861
1506	0.0247237
1518	0.0200268
1530	0.0172218
1542	0.0144819
1554	0.012264
1566	0.0112855
1578	0.0099808
1590	0.00932846
1602	0.00815425
1614	0.00782808
1626	0.00821948
1638	0.00815425
1650	0.00834995
1662	0.00711051
1674	0.00841519
1686	0.0113507
1698	0.0180698
1710	0.0356178
1722	0.0833691
1734	0.209466
1746	0.467858
1758	0.65234
1770	0.519328
1782	0.188331
1794	0.0521872
1806	0.0190483
1818	0.011416
1830	0.00828472
1842	0.00606676
1854	0.00456638
1866	0.00424021
1878	0.00397927
1890	0.00430544
1902	0.00397927
1914	0.0034574
1926	0.00397927
1938	0.00352264
1950	0.00463161
1962	0.00606676
1974	0.00861089
1986	0.0101113
1998	0.00952416
2010	0.00802378
2022	0.00658863
2034	0.00547966
2046	0.00450115
2058	0.00489255
2070	0.00534919
2082	0.00587106
2094	0.00482732
2106	0.00358787
2118	0.00280506
2130	0.00273983
2142	0.0032617
2154	0.00319647
2166	0.00267459
2178	0.00221796
2190	0.00169608
2202	0.00163085
2214	0.00163085
2226	0.00150038
2238	0.00156562
2250	0.00150038
2262	0.00163085
2274	0.00143515
2286	0.00130468
2298	0.00163085
2310	0.00202225
2322	0.00247889
2334	0.00254413
2346	0.00228319
2358	0.00247889
2370	0.00169608
2382	0.00097851
2394	0.00163085
2406	0.00156562
2418	0.00156562
2430	0.00123945
2442	0.00097851
2454	0.00097851
2466	0.000848042
2478	0.00065234
2490	0.000848042
2502	0.000717574
2514	0.000782808
2526	0.000782808
2538	0.000848042
2550	0.000782808
2562	0.00130468
2574	0.00228319
2586	0.00182655
2598	0.00130468
2610	0.000848042
2622	0.00136991
2634	0.00143515
2646	0.00136991
2658	0.00241366
2670	0.00195702
2682	0.00195702
2694	0.00150038
2706	0.00143515
2718	0.00143515
2730	0.00247889
2742	0.003066
2754	0.00339217
2766	0.00332693
2778	0.00397927
2790	0.00404451
2802	0.00450115
2814	0.0067191
2826	0.0102417
2838	0.0197007
2850	0.0313123
2862	0.033726
2874	0.044881
2886	0.0750191
2898	0.0863698
2910	0.086696
2922	0.0992861
2934	0.120487
2946	0.169869
2958	0.240126
2970	0.290161
2982	0.316254
2994	0.254543
3006	0.125184
3018	0.067452
3030	0.0444896
3042	0.0297467
3054	0.0179394
3066	0.0135034
3078	0.0115464
3090	0.0106331
3102	0.00971987
3114	0.00861089
3126	0.00743668
3138	0.00600153
3150	0.00528395
3162	0.00482732
3174	0.00489255
3186	0.00508825
3198	0.00456638
3210	0.0034574
3222	0.00293553
3234	0.000913276
3246	0.000848042
3258	0
3270	0.000587106
3282	0.00117421
3294	0.00065234
3306	0.00156562
3318	0.00104374
3330	0.00104374
3342	0.00097851
3354	0.000521872
3366	0.00156562
3378	0.00065234
3390	0.00156562
3402	0.000717574
3414	0.00117421
3426	0.00065234
3438	0.000717574
3450	0.00208749
3462	0.00254413
3474	0.0036531
3486	0.00606676
3498	0.00756714
3510	0.00600153
3522	0.0028703
3534	0.00189179
3546	0.000782808
3558	0.000848042
3570	0.00143515
3582	0.00189179
3594	0.00221796
3606	0.00176132
3618	0.00208749
3630	0.00189179
3642	0.00182655
3654	0.00182655
3666	0.00228319
3678	0.00176132
3690	0.00247889
3702	0.00332693
3714	0.00234842
3726	0.00293553
3738	0.00293553
3750	0.00267459
3762	0.00313123
3774	0.00260936
3786	0.00267459
3798	0.0034574
3810	0.00273983
3822	0.00371834
3834	0.00280506
3846	0.00300076
3858	0.00352264
3870	0.0028703
3882	0.00319647
3894	0.00260936
3906	0.00300076
3918	0.00293553
3930	0.00280506
3942	0.00371834
3954	0.00358787
3966	0.00443591
