Infrared Spectrum: Diethyl 1,4-piperazinedicarboxylate
Formula: C 10 H 18 N 2 O 4
CAS: 5470-28-0
Origin: Sadtler Research Labs Under US-EPA Contract
1/CM	ABSORBANCE
450	0.0216616
462	0.00911373
474	0.00554749
486	0.00449082
498	0.00528332
510	0.00752873
522	0.00964206
534	0.0130762
546	0.0154537
558	0.00845331
570	0.0104346
582	0.00303791
594	0.00184916
606	0.00105666
618	0.001585
630	0.00145291
642	0.00277374
654	0.00198124
666	0.00132083
678	0.00132083
690	0.00290583
702	0.00316999
714	0.00184916
726	0.00211333
738	0.00713248
750	0.0128121
762	0.027077
774	0.0615507
786	0.0310395
798	0.014265
810	0.0180954
822	0.0118875
834	0.0122837
846	0.0163783
858	0.0136045
870	0.022322
882	0.0243033
894	0.0062079
906	0.00184916
918	0.00211333
930	0.00356624
942	0.0100383
954	0.0170387
966	0.0157179
978	0.0347378
990	0.191256
1002	0.141461
1014	0.0388324
1026	0.0401532
1038	0.0405495
1050	0.0497953
1062	0.0718532
1074	0.106987
1086	0.189671
1098	0.370361
1110	0.414873
1122	0.179369
1134	0.128385
1146	0.102496
1158	0.0887598
1170	0.115176
1182	0.125875
1194	0.122573
1206	0.198257
1218	0.618281
1230	1.08797
1242	0.415269
1254	0.270374
1266	0.151235
1278	0.116101
1290	0.14714
1302	0.0807027
1314	0.0591732
1326	0.0610223
1338	0.103157
1350	0.16616
1362	0.133404
1374	0.155198
1386	0.264034
1398	0.241712
1410	0.382909
1422	0.437327
1434	0.23524
1446	0.142253
1458	0.169991
1470	0.176727
1482	0.122441
1494	0.0660415
1506	0.0497953
1518	0.0371153
1530	0.0261524
1542	0.0258883
1554	0.0140008
1566	0.00554749
1578	0.00488707
1590	0.00435874
1602	0.00633998
1614	0.0120196
1626	0.0166425
1638	0.0179633
1650	0.0253599
1662	0.0244354
1674	0.0383041
1686	0.0663057
1698	0.100647
1710	0.233391
1722	0.894334
1734	1.05164
1746	0.282658
1758	0.100251
1770	0.0495311
1782	0.0256241
1794	0.0194162
1806	0.0154537
1818	0.0109629
1830	0.00924581
1842	0.00633998
1854	0.00237749
1866	0.00330207
1878	0.00211333
1890	0.00316999
1902	0.00290583
1914	0.00303791
1926	0.00224541
1938	0.00211333
1950	0.00264166
1962	0.00224541
1974	0.00237749
1986	0.00198124
1998	0.00237749
2010	0.00237749
2022	0.00303791
2034	0.00184916
2046	0.00224541
2058	0.00171708
2070	0.00250958
2082	0.00250958
2094	0.00198124
2106	0.00132083
2118	0.000924581
2130	0.000660415
2142	0.000264166
2154	0.000264166
2166	0.000396249
2178	0.000660415
2190	0.00105666
2202	0.00118875
2214	0.000660415
2226	0.000924581
2238	0.00118875
2250	0.000924581
2262	0.00118875
2274	0.001585
2286	0.00237749
2298	0.00409457
2310	0.00594373
2322	0.00475499
2334	0.00303791
2346	0.00515124
2358	0.00316999
2370	0.00237749
2382	0.00435874
2394	0.000924581
2406	0.000792498
2418	0.000528332
2430	0.000132083
2442	0.000660415
2454	0
2466	0.000528332
2478	0.000792498
2490	0.000792498
2502	0.000792498
2514	0.00105666
2526	0.000792498
2538	0.00118875
2550	0.00132083
2562	0.00105666
2574	0.000660415
2586	0.000660415
2598	0.00132083
2610	0.00132083
2622	0.00132083
2634	0.00132083
2646	0.00145291
2658	0.001585
2670	0.00250958
2682	0.00435874
2694	0.00343416
2706	0.00290583
2718	0.00383041
2730	0.00554749
2742	0.00528332
2754	0.00501915
2766	0.00488707
2778	0.00488707
2790	0.00554749
2802	0.00752873
2814	0.00924581
2826	0.0114912
2838	0.0157179
2850	0.0276053
2862	0.0669661
2874	0.0911373
2886	0.0730419
2898	0.0723815
2910	0.0820235
2922	0.0813631
2934	0.0880994
2946	0.0964206
2958	0.0713248
2970	0.084269
2982	0.126271
2994	0.112403
3006	0.0791177
3018	0.0521728
3030	0.0243033
3042	0.0122837
3054	0.00871748
3066	0.00739665
3078	0.00686832
3090	0.0062079
3102	0.00515124
3114	0.00475499
3126	0.0046229
3138	0.00501915
3150	0.00409457
3162	0.00356624
3174	0.00250958
3186	0.00237749
3198	0.00198124
3210	0.00184916
3222	0.00132083
3234	0.00145291
3246	0.000924581
3258	0.00132083
3270	0.000924581
3282	0.00105666
3294	0.00171708
3306	0.00105666
3318	0.00145291
3330	0.00250958
3342	0.00171708
3354	0.00198124
3366	0.00211333
3378	0.00184916
3390	0.00250958
3402	0.00224541
3414	0.00264166
3426	0.00369832
3438	0.0062079
3450	0.00356624
3462	0.00264166
3474	0.00171708
3486	0.00132083
3498	0.00145291
3510	0.000924581
3522	0.000660415
3534	0.00118875
3546	0.00118875
3558	0.000396249
3570	0.000792498
3582	0
3594	0.001585
3606	0.000924581
3618	0.000924581
3630	0.000924581
3642	0.000132083
3654	0.001585
3666	0.00132083
3678	0.00198124
3690	0.00224541
3702	0.00132083
3714	0.00184916
3726	0.00224541
3738	0.001585
3750	0.000792498
3762	0.00105666
3774	0.00118875
3786	0.000132083
3798	0.00211333
3810	0.00132083
3822	0.000924581
3834	0.00132083
3846	0.000924581
3858	0.00132083
3870	0.00184916
3882	0.00132083
3894	0.00132083
3906	0.001585
3918	0.00184916
3930	0.00145291
3942	0.00211333
3954	0.00132083
3966	0.00250958
