Infrared Spectrum: Ethanamine, N-ethyl-N-nitroso-
Formula: C 4 H 10 N 2 O
CAS: 55-18-5
Origin: Sadtler Research Labs Under US-EPA Contract
1/CM	ABSORBANCE
450	0.0128414
462	0.0160164
474	0.0133353
486	0.0193326
498	0.0149581
510	0.0165103
522	0.014182
534	0.00740848
546	0.00437453
558	0.00846684
570	0.00818461
582	0.0129825
594	0.0075496
606	0.0138292
618	0.0163692
630	0.0131236
642	0.0172159
654	0.0141114
666	0.0100191
678	0.0095252
690	0.0110774
702	0.00747904
714	0.00924297
726	0.00889018
738	0.00762016
750	0.00430398
762	0.0158048
774	0.0231427
786	0.0276583
798	0.0400764
810	0.0931352
822	0.131165
834	0.0946169
846	0.036478
858	0.0194032
870	0.0152403
882	0.0102308
894	0.012418
906	0.00973687
918	0.0148875
930	0.0225782
942	0.0388769
954	0.0498132
966	0.0518594
978	0.0901718
990	0.131024
1002	0.150498
1014	0.202781
1026	0.413111
1038	0.646796
1050	0.612082
1062	0.271786
1074	0.131377
1086	0.104354
1098	0.087914
1110	0.0580684
1122	0.0448037
1134	0.0354902
1146	0.0336557
1158	0.037113
1170	0.0474849
1182	0.0784594
1194	0.192127
1206	0.379667
1218	0.400834
1230	0.227405
1242	0.119524
1254	0.0763427
1266	0.0447331
1278	0.050801
1290	0.0613846
1302	0.0995559
1314	0.190927
1326	0.264165
1338	0.308193
1350	0.353279
1362	0.314684
1374	0.22677
1386	0.177239
1398	0.121287
1410	0.0785299
1422	0.0937703
1434	0.135611
1446	0.171665
1458	0.235166
1470	0.407749
1482	0.694845
1494	0.60933
1506	0.187682
1518	0.0485432
1530	0.0305512
1542	0.0153109
1554	0.0168631
1566	0.0136175
1578	0.0115008
1590	0.0137586
1602	0.010513
1614	0.0135469
1626	0.00867851
1638	0.00733793
1650	0.00825517
1662	0.00797294
1674	0.00635013
1686	0.00465676
1698	0.00776127
1710	0.00931352
1722	0.00698514
1734	0.00176392
1746	0.00324562
1758	0.00268117
1770	0.00289284
1782	0.00331618
1794	0.00395119
1806	0.00613846
1818	0.00529177
1830	0.00352785
1842	0.00479788
1854	0.0060679
1866	0.00599734
1878	0.00493899
1890	0.00345729
1902	0.00303395
1914	0.00310451
1926	0.00211671
1938	0.00246949
1950	0.00268117
1962	0.00289284
1974	0.00338674
1986	0.00352785
1998	0.00388063
2010	0.00451565
2022	0.00430398
2034	0.00444509
2046	0.00324562
2058	0.00381008
2070	0.00381008
2082	0.00381008
2094	0.00359841
2106	0.00310451
2118	0.00239894
2130	0.00225782
2142	0.00282228
2154	0.00246949
2166	0.00218727
2178	0.00218727
2190	0.00268117
2202	0.00324562
2214	0.00254005
2226	0.00261061
2238	0.00310451
2250	0.00359841
2262	0.00282228
2274	0.00282228
2286	0.00204615
2298	0.00162281
2310	0.000987798
2322	0.000917241
2334	0.000141114
2346	0.000211671
2358	0
2370	0
2382	0.00261061
2394	0.00289284
2406	0.00345729
2418	0.00409231
2430	0.00409231
2442	0.00416286
2454	0.00423342
2466	0.00416286
2478	0.00338674
2490	0.00289284
2502	0.00310451
2514	0.00409231
2526	0.0045862
2538	0.0050801
2550	0.00430398
2562	0.00388063
2574	0.00296339
2586	0.00254005
2598	0.00211671
2610	0.00218727
2622	0.00225782
2634	0.00239894
2646	0.00310451
2658	0.00373952
2670	0.00486843
2682	0.00642069
2694	0.00832573
2706	0.00776127
2718	0.00811406
2730	0.00825517
2742	0.00881962
2754	0.00966631
2766	0.0102308
2778	0.0122769
2790	0.0144642
2802	0.0170748
2814	0.0194737
2826	0.022931
2838	0.0269528
2850	0.0323151
2862	0.0473437
2874	0.0796589
2886	0.120229
2898	0.135681
2910	0.140761
2922	0.160306
2934	0.226276
2946	0.286038
2958	0.249278
2970	0.247726
2982	0.379597
2994	0.372682
3006	0.192268
3018	0.0759193
3030	0.0362663
3042	0.0244127
3054	0.0194032
3066	0.0143936
3078	0.0129119
3090	0.0102308
3102	0.00966631
3114	0.00973687
3126	0.00832573
3138	0.00769071
3150	0.00769071
3162	0.0080435
3174	0.00874907
3186	0.00769071
3198	0.00670291
3210	0.00642069
3222	0.00543289
3234	0.00437453
3246	0.00352785
3258	0.00465676
3270	0.00381008
3282	0.00388063
3294	0.00381008
3306	0.00381008
3318	0.00402175
3330	0.00395119
3342	0.00515066
3354	0.00451565
3366	0.00395119
3378	0.00479788
3390	0.00437453
3402	0.00366896
3414	0.00465676
3426	0.00359841
3438	0.00317506
3450	0.00317506
3462	0.00268117
3474	0.00381008
3486	0.00388063
3498	0.00352785
3510	0.0045862
3522	0.00282228
3534	0.00331618
3546	0.00331618
3558	0.00366896
3570	0.00366896
3582	0.00388063
3594	0.00317506
3606	0.00239894
3618	0.00310451
3630	0.00112891
3642	0.00303395
3654	0.00141114
3666	0.00359841
3678	0.000846684
3690	0.00190504
3702	0.00324562
3714	0.00225782
3726	0.00331618
3738	0.00169337
3750	0.00105835
3762	0.00395119
3774	0.00493899
3786	0.00451565
3798	0.00317506
3810	0.00218727
3822	0.00282228
3834	0.00331618
3846	0.00444509
3858	0.00381008
3870	0.00204615
3882	0.00338674
3894	0.00430398
3906	0.00479788
3918	0.00423342
3930	0.00578567
3942	0.00592679
3954	0.00112891
3966	0.00162281
