Infrared Spectrum: Ethanone, 1-(2-aminophenyl)-
Formula: C 8 H 9 N O
CAS: 551-93-9
Origin: Sadtler Research Labs Under US-EPA Contract
1/CM	ABSORBANCE
450	0.00399067
462	0.00133022
474	0.00224475
486	0.0169604
498	0.0433154
510	0.0739937
522	0.0551212
534	0.040655
546	0.0655967
558	0.0775687
570	0.0632688
582	0.0589456
594	0.0961918
606	0.242267
618	0.218157
630	0.0739106
642	0.0487195
654	0.0570334
666	0.0654304
678	0.0683403
690	0.068174
702	0.0555369
714	0.0499665
726	0.0905384
738	0.226471
750	0.241685
762	0.0811437
774	0.0135517
786	0.0128865
798	0.0184569
810	0.0230295
822	0.0335882
834	0.035916
846	0.0261888
858	0.0162952
870	0.017958
882	0.0208679
894	0.0193714
906	0.0169604
918	0.01854
930	0.0320917
942	0.121632
954	0.172015
966	0.0591118
978	0.0172098
990	0.00939471
1002	0.0105587
1014	0.0202028
1026	0.0292649
1038	0.0197039
1050	0.0122214
1062	0.0207016
1074	0.0206185
1086	0.0147156
1098	0.0148819
1110	0.0158795
1122	0.0123046
1134	0.0169604
1146	0.0713333
1158	0.234286
1170	0.198536
1182	0.0330062
1194	0.0129697
1206	0.0212004
1218	0.0782338
1230	0.327651
1242	0.586961
1254	0.471232
1266	0.214499
1278	0.119388
1290	0.207016
1302	0.15547
1314	0.117143
1326	0.104339
1338	0.0518787
1350	0.0835547
1362	0.218656
1374	0.158546
1386	0.0341701
1398	0.023944
1410	0.0251911
1422	0.0357498
1434	0.0563682
1446	0.129946
1458	0.15971
1470	0.0818088
1482	0.139757
1494	0.140588
1506	0.0596107
1518	0.0418189
1530	0.0595275
1542	0.149068
1554	0.291735
1566	0.276021
1578	0.302959
1590	0.524108
1602	0.545142
1614	0.660041
1626	0.522445
1638	0.1568
1650	0.164366
1662	0.642166
1674	0.808444
1686	0.282589
1698	0.0793146
1710	0.0366643
1722	0.0325073
1734	0.036498
1746	0.0235283
1758	0.0146325
1770	0.0164615
1782	0.0151313
1794	0.0106418
1806	0.00947785
1818	0.00623543
1830	0.0049052
1842	0.00332556
1854	0.0049052
1866	0.00914529
1878	0.00739937
1890	0.00823076
1902	0.0106418
1914	0.00714995
1926	0.0114732
1938	0.0118057
1950	0.00424009
1962	0.00174592
1974	0.000914529
1986	0.00182906
1998	0.00174592
2010	0.00257731
2022	0.00249417
2034	0.00174592
2046	0.00207848
2058	0.000997668
2070	0.00166278
2082	0.000415695
2094	8.3139e-05
2106	0.000415695
2118	0.000581973
2130	0.00116395
2142	0.00116395
2154	0.00157964
2166	0.00124708
2178	0.00207848
2190	0.00249417
2202	0.0014965
2214	8.3139e-05
2226	0.00083139
2238	0.000665112
2250	0.000249417
2262	0.000665112
2274	0.00182906
2286	0.00415695
2298	0.00598601
2310	0.00773193
2322	0.00731623
2334	0.00590287
2346	0.00872959
2358	0.00565345
2370	0.00590287
2382	0.00573659
2394	0.00249417
2406	0.0019122
2418	0.00249417
2430	0.00216161
2442	0.00207848
2454	0.00216161
2466	0.00116395
2478	0.00141336
2490	0.00141336
2502	0.00174592
2514	0.00232789
2526	0.00282673
2538	0.00257731
2550	0.00249417
2562	0.00199534
2574	0.00141336
2586	0.00199534
2598	0.00216161
2610	0.0034087
2622	0.00457265
2634	0.00523776
2646	0.00698368
2658	0.00706682
2670	0.0053209
2682	0.0049052
2694	0.00324242
2706	0.00324242
2718	0.00315928
2730	0.00241103
2742	0.00199534
2754	0.00232789
2766	0.00274359
2778	0.00399067
2790	0.00498834
2802	0.00465578
2814	0.00440637
2826	0.00465578
2838	0.00457265
2850	0.00573659
2862	0.00498834
2874	0.00656798
2886	0.00615229
2898	0.00573659
2910	0.00789821
2922	0.0115563
2934	0.0192882
2946	0.0218656
2958	0.0152976
2970	0.0201196
2982	0.0293481
2994	0.0253574
3006	0.0345027
3018	0.0533752
3030	0.0710838
3042	0.0767373
3054	0.0884599
3066	0.0786495
3078	0.0725803
3090	0.0754902
3102	0.0392416
3114	0.0261888
3126	0.0163784
3138	0.00889587
3150	0.00631856
3162	0.00565345
3174	0.00523776
3186	0.00390753
3198	0.00241103
3210	0.00241103
3222	0.00133022
3234	0.00365812
3246	0.00573659
3258	0.00673426
3270	0.00723309
3282	0.00631856
3294	0.00623543
3306	0.00897901
3318	0.0142168
3330	0.0330893
3342	0.114233
3354	0.216078
3366	0.192966
3378	0.11124
3390	0.0492183
3402	0.0182906
3414	0.00972726
3426	0.00482206
3438	0.00382439
3450	0.00448951
3462	0.0083139
3474	0.0134685
3486	0.027519
3498	0.0638508
3510	0.128034
3522	0.144911
3534	0.0803123
3546	0.0202859
3558	0.00615229
3570	0.00415695
3582	0.00241103
3594	0.000498834
3606	0.00083139
3618	8.3139e-05
3630	0.00133022
3642	0.00124708
3654	0.00157964
3666	0.000166278
3678	0.000997668
3690	0
3702	0.00124708
3714	0.00241103
3726	0.000498834
3738	0.00241103
3750	0.00108081
3762	0.000249417
3774	0.000415695
3786	8.3139e-05
3798	0.000249417
3810	8.3139e-05
3822	0.00083139
3834	0.00108081
3846	0.000914529
3858	0.00166278
3870	0.00116395
3882	0.0014965
3894	0.00266045
3906	0.00166278
3918	0.000997668
3930	0.00166278
3942	0.00116395
3954	0.00124708
3966	0.00124708
