Infrared Spectrum: Naphthalene, 1-isothiocyanato-
Formula: C 11 H 7 N S
CAS: 551-06-4
Origin: Sadtler Research Labs Under US-EPA Contract
1/CM	ABSORBANCE
450	0.00131616
462	0.00377299
474	0.0127229
486	0.0144778
498	0.0246561
510	0.0207076
522	0.0246561
534	0.0337814
546	0.0342202
558	0.0444862
570	0.0277271
582	0.0227257
594	0.0350099
606	0.0224625
618	0.014039
630	0.00719501
642	0.0133371
654	0.0236031
666	0.0365892
678	0.0118454
690	0.00368525
702	0.0043872
714	0.00465043
726	0.00780922
738	0.0105293
750	0.0318511
762	0.141443
774	0.103977
786	0.13495
798	0.141443
810	0.0335182
822	0.0144778
834	0.00868666
846	0.00824794
858	0.0167591
870	0.00780922
882	0.00368525
894	0.0101783
906	0.0251825
918	0.0542258
930	0.0630002
942	0.0263232
954	0.0114945
966	0.0105293
978	0.0057911
990	0.00500141
1002	0.00965184
1014	0.0171101
1026	0.0108803
1038	0.00666854
1050	0.0107048
1062	0.00570336
1074	0.00368525
1086	0.00508915
1098	0.0095641
1110	0.00429946
1122	0.00473818
1134	0.0051769
1146	0.0051769
1158	0.00859891
1170	0.00851117
1182	0.00456269
1194	0.00386074
1206	0.00640531
1218	0.00886214
1230	0.00429946
1242	0.00605434
1254	0.00614208
1266	0.0207076
1278	0.0214973
1290	0.00772147
1302	0.00473818
1314	0.00570336
1326	0.0051769
1338	0.00780922
1350	0.00816019
1362	0.00947635
1374	0.0135126
1386	0.04045
1398	0.100291
1410	0.0231644
1422	0.0167591
1434	0.0163204
1446	0.0242173
1458	0.0152675
1470	0.0138636
1482	0.00693178
1494	0.0132493
1506	0.0418539
1518	0.0346589
1530	0.0107925
1542	0.00587885
1554	0.0100906
1566	0.0452759
1578	0.065106
1590	0.0532606
1602	0.0255335
1614	0.0136003
1626	0.014039
1638	0.00754598
1650	0.00701952
1662	0.00728275
1674	0.00544013
1686	0.0095641
1698	0.00745824
1710	0.00780922
1722	0.00807245
1734	0.00570336
1746	0.0087744
1758	0.00728275
1770	0.00816019
1782	0.010968
1794	0.00912538
1806	0.00965184
1818	0.00868666
1830	0.0115822
1842	0.0119332
1854	0.0144778
1866	0.0107925
1878	0.010617
1890	0.0126351
1902	0.0174611
1914	0.0270252
1926	0.0350099
1938	0.0449249
1950	0.065106
1962	0.0925699
1974	0.13223
1986	0.184087
1998	0.257704
2010	0.351941
2022	0.443458
2034	0.557964
2046	0.753809
2058	0.859452
2070	0.804086
2082	0.808473
2094	0.72652
2106	0.559894
2118	0.4045
2130	0.311667
2142	0.271392
2154	0.220764
2166	0.126966
2178	0.0758986
2190	0.0633512
2202	0.0423804
2214	0.0232522
2226	0.0171978
2238	0.0121964
2250	0.00868666
2262	0.00930086
2274	0.0108803
2286	0.010617
2298	0.00903763
2310	0.00614208
2322	0.00666854
2334	0.0117577
2346	0.0104415
2358	0.00921312
2370	0.00859891
2382	0.00561562
2394	0.00386074
2406	0.00544013
2418	0.00886214
2430	0.00903763
2442	0.00991507
2454	0.00780922
2466	0.00622982
2478	0.00719501
2490	0.00789696
2502	0.00772147
2514	0.00816019
2526	0.00763373
2538	0.00754598
2550	0.00763373
2562	0.00710726
2574	0.0065808
2586	0.00587885
2598	0.00622982
2610	0.00605434
2622	0.0043872
2634	0.00350976
2646	0.00254458
2658	0.00228134
2670	0.00289555
2682	0.00236909
2694	0.00289555
2706	0.00333427
2718	0.00421171
2730	0.00526464
2742	0.00412397
2754	0.00315878
2766	0.00228134
2778	0.00175488
2790	0.00272006
2802	0.00228134
2814	0.00210586
2826	0.0021936
2838	0.00236909
2850	0.00342202
2862	0.00342202
2874	0.00350976
2886	0.00350976
2898	0.0035975
2910	0.00342202
2922	0.00289555
2934	0.00456269
2946	0.00587885
2958	0.00587885
2970	0.00526464
2982	0.00447494
2994	0.00552787
3006	0.00868666
3018	0.010968
3030	0.0119332
3042	0.0168468
3054	0.0455391
3066	0.0995017
3078	0.0526464
3090	0.0330795
3102	0.0221992
3114	0.00605434
3126	0.00280781
3138	0.00166714
3150	0.00149165
3162	0.00210586
3174	0.00114067
3186	0.00114067
3198	0.00105293
3210	0.00131616
3222	0.00184262
3234	0.0014039
3246	0.00122842
3258	0.00114067
3270	0.00157939
3282	0.00157939
3294	0.00201811
3306	0.00114067
3318	0.0014039
3330	0.00193037
3342	0.00193037
3354	0.00201811
3366	0.00193037
3378	0.00114067
3390	0.00175488
3402	0.00236909
3414	0.00131616
3426	0.00280781
3438	0.00236909
3450	0.00236909
3462	0.00166714
3474	0.00254458
3486	0.00263232
3498	0.0021936
3510	0.0029833
3522	0.00324653
3534	0.00342202
3546	0.0029833
3558	0.00315878
3570	0.00307104
3582	0.0035975
3594	0.00324653
3606	0.00315878
3618	0.00289555
3630	0.00201811
3642	0.00350976
3654	0.00307104
3666	0.00307104
3678	0.00193037
3690	0.00333427
3702	0.00333427
3714	0.00289555
3726	0.00377299
3738	0.00254458
3750	0.00254458
3762	0.00394848
3774	0.00386074
3786	0.00447494
3798	0.0035975
3810	0.00272006
3822	0.00333427
3834	0.00386074
3846	0.00394848
3858	0.00544013
3870	0.00561562
3882	0.00500141
3894	0.0043872
3906	0.00561562
3918	0.00535238
3930	0.00535238
3942	0.0073705
3954	0
3966	0.000526464
