Infrared Spectrum: Phenol, 2,6-bis(1-methylpropyl)-
Formula: C 14 H 22 O
CAS: 5510-99-6
Origin: Sadtler Research Labs Under US-EPA Contract
1/CM	ABSORBANCE
450	0.0171865
462	0.016276
474	0.0182109
486	0.0153654
498	0.0168451
510	0.0142273
522	0.0155931
534	0.0182109
546	0.0203734
558	0.0143411
570	0.00705672
582	0.00785344
594	0.0056909
606	0.00307309
618	0.00136582
630	0.000796726
642	0.00341454
654	0.002504
666	0.00352836
678	0.00557708
690	0.0114956
702	0.00762581
714	0.00466654
726	0.00956071
738	0.113818
750	0.188141
762	0.039381
774	0.054405
786	0.0615755
798	0.0478036
810	0.0489417
822	0.0717053
834	0.0434785
846	0.0202596
858	0.015024
870	0.00671526
882	0.00876399
894	0.0158207
906	0.0119509
918	0.0069429
930	0.00546326
942	0.00500799
954	0.0144549
966	0.021284
978	0.0141134
990	0.0177556
1002	0.0392672
1014	0.0530392
1026	0.0286821
1038	0.0152516
1050	0.0278854
1062	0.0440476
1074	0.0483727
1086	0.0579334
1098	0.0686323
1110	0.0709086
1122	0.0514457
1134	0.068177
1146	0.123379
1158	0.116322
1170	0.206693
1182	0.248465
1194	0.319942
1206	0.202937
1218	0.091282
1230	0.0698843
1242	0.105395
1254	0.160711
1266	0.114046
1278	0.085705
1290	0.0859326
1302	0.111542
1314	0.126338
1326	0.0804693
1338	0.0555432
1350	0.0583886
1362	0.055657
1374	0.0818351
1386	0.116094
1398	0.0366494
1410	0.0274301
1422	0.0450719
1434	0.0905991
1446	0.245733
1458	0.368657
1470	0.223083
1482	0.0878675
1494	0.0701119
1506	0.0808108
1518	0.0628275
1530	0.0194629
1542	0.0103574
1554	0.00910544
1566	0.0122923
1578	0.0227636
1590	0.0433647
1602	0.0404054
1614	0.0350559
1626	0.0192352
1638	0.015024
1650	0.00921926
1662	0.00671526
1674	0.00557708
1686	0.00591854
1698	0.00637381
1710	0.00432508
1722	0.00330072
1734	0.00216254
1746	0.00193491
1758	0.00227636
1770	0.00204872
1782	0.00273163
1794	0.00466654
1806	0.00239018
1818	0.00113818
1830	0.000455272
1842	0.00512181
1854	0.0127476
1866	0.00261781
1878	0.00216254
1890	0.00193491
1902	0.00648763
1914	0.00762581
1926	0.00159345
1938	0.000455272
1950	0.000227636
1962	0
1974	0.000227636
1986	0.000113818
1998	0.000682908
2010	0.000910544
2022	0.000682908
2034	0.000455272
2046	0.000796726
2058	0.00102436
2070	0.001252
2082	0.00113818
2094	0.000682908
2106	0.000796726
2118	0.000910544
2130	0.000455272
2142	0.00056909
2154	0.000682908
2166	0.000910544
2178	0.00056909
2190	0.000455272
2202	0.00056909
2214	0.000341454
2226	0.000682908
2238	0.00136582
2250	0.00136582
2262	0.00204872
2274	0.00239018
2286	0.00239018
2298	0.00284545
2310	0.00398363
2322	0.00500799
2334	0.00637381
2346	0.00751199
2358	0.00660144
2370	0.00625999
2382	0.00591854
2394	0.00591854
2406	0.00591854
2418	0.00625999
2430	0.00682908
2442	0.00660144
2454	0.0056909
2466	0.00534945
2478	0.00478036
2490	0.00432508
2502	0.00432508
2514	0.00421127
2526	0.00409745
2538	0.0044389
2550	0.00523563
2562	0.0056909
2574	0.00660144
2586	0.0069429
2598	0.00728435
2610	0.00717053
2622	0.0069429
2634	0.00705672
2646	0.00762581
2658	0.0081949
2670	0.00910544
2682	0.00944689
2694	0.00899162
2706	0.0102436
2718	0.0120647
2730	0.0151378
2742	0.0188938
2754	0.0157069
2766	0.0143411
2778	0.0152516
2790	0.0188938
2802	0.0241294
2814	0.0309585
2826	0.039381
2838	0.0508766
2850	0.0685184
2862	0.144207
2874	0.313455
2886	0.425793
2898	0.256887
2910	0.264172
2922	0.387436
2934	0.515709
2946	0.488507
2958	0.477922
2970	1.13818
2982	0.58161
2994	0.142045
3006	0.074437
3018	0.0715915
3030	0.0883228
3042	0.104143
3054	0.0898024
3066	0.10016
3078	0.102322
3090	0.0578195
3102	0.0333487
3114	0.0211701
3126	0.0168451
3138	0.0142273
3150	0.0136582
3162	0.0136582
3174	0.0135443
3186	0.0127476
3198	0.0106989
3210	0.00876399
3222	0.00648763
3234	0.00500799
3246	0.00409745
3258	0.00364218
3270	0.00330072
3282	0.00341454
3294	0.00273163
3306	0.00330072
3318	0.00273163
3330	0.00284545
3342	0.00352836
3354	0.00432508
3366	0.00478036
3378	0.00523563
3390	0.00534945
3402	0.00580472
3414	0.00512181
3426	0.0044389
3438	0.00352836
3450	0.00284545
3462	0.00227636
3474	0.00261781
3486	0.00182109
3498	0.00170727
3510	0.00193491
3522	0.00170727
3534	0.00170727
3546	0.00113818
3558	0.00170727
3570	0.00261781
3582	0.00421127
3594	0.00489417
3606	0.00717053
3618	0.0139996
3630	0.050649
3642	0.246985
3654	0.242888
3666	0.0899162
3678	0.0167312
3690	0.00580472
3702	0.00375599
3714	0.00204872
3726	0.00273163
3738	0.00136582
3750	0.00102436
3762	0.00193491
3774	0.00204872
3786	0.00170727
3798	0.00113818
3810	0.00227636
3822	0.00227636
3834	0.00386981
3846	0.00455272
3858	0.00466654
3870	0.00386981
3882	0.00478036
3894	0.00512181
3906	0.00523563
3918	0.00455272
3930	0.00478036
3942	0.00455272
3954	0.00409745
3966	0.00330072
