Infrared Spectrum: Ethanol, 2-thymyloxy-,
Formula: C 12 H 18 O 2
CAS: 55129-21-0
Origin: Sadtler Research Labs Under US-EPA Contract
1/CM	ABSORBANCE
450	0.0395532
462	0.0366066
474	0.0321866
486	0.0389866
498	0.0387599
510	0.0301466
522	0.0193799
534	0.0176799
546	0.0192666
558	0.0234599
570	0.0275399
582	0.0441999
594	0.0711731
606	0.0513398
618	0.0224399
630	0.00940664
642	0.00328666
654	0.00124666
666	0.00192666
678	0.000453332
690	0.000679998
702	0.00203999
714	0.00589332
726	0.0207399
738	0.0359266
750	0.0245933
762	0.01326
774	0.01156
786	0.0124666
798	0.0864731
810	0.351332
822	0.0921397
834	0.0342266
846	0.0669798
858	0.0888531
870	0.0955397
882	0.0957664
894	0.111973
906	0.0829598
918	0.0464665
930	0.0592732
942	0.10982
954	0.151866
966	0.101206
978	0.0755931
990	0.10472
1002	0.1411
1014	0.179746
1026	0.343966
1038	0.727825
1050	0.685665
1062	0.454125
1074	0.415932
1086	0.391792
1098	0.438485
1110	0.344872
1122	0.173513
1134	0.178726
1146	0.276079
1158	0.426359
1170	0.383632
1182	0.191646
1194	0.134186
1206	0.16218
1218	0.145746
1230	0.198673
1242	0.474299
1254	0.894651
1266	0.655745
1278	0.435085
1290	0.357906
1302	0.140873
1314	0.108686
1326	0.12512
1338	0.204113
1350	0.261346
1362	0.213293
1374	0.215673
1386	0.180313
1398	0.200146
1410	0.322319
1422	0.412419
1434	0.256813
1446	0.178839
1458	0.243779
1470	0.220886
1482	0.182353
1494	0.307699
1506	0.533912
1518	0.192779
1530	0.110386
1542	0.0812598
1554	0.0779731
1566	0.12988
1578	0.195046
1590	0.10234
1602	0.151526
1614	0.264066
1626	0.133506
1638	0.0338866
1650	0.0173399
1662	0.01394
1674	0.01122
1686	0.0107666
1698	0.0099733
1710	0.01156
1722	0.00951997
1734	0.00736664
1746	0.0136
1758	0.00827331
1770	0.00487332
1782	0.00373999
1794	0.00283332
1806	0.00226666
1818	0.00113333
1830	0.000339999
1842	0.00124666
1854	0.00430665
1866	0.00974664
1878	0.0207399
1890	0.0123533
1902	0.00770664
1914	0.00623331
1926	0.00396665
1938	0.00328666
1950	0.00339999
1962	0.00385332
1974	0.00441999
1986	0.00430665
1998	0.00339999
2010	0.00192666
2022	0.000793331
2034	0.000339999
2046	0
2058	0.000566665
2070	0.00237999
2082	0.00396665
2094	0.00385332
2106	0.00317332
2118	0.00226666
2130	0.00215333
2142	0.00192666
2154	0.00203999
2166	0.000906664
2178	0.000226666
2190	0
2202	0.000339999
2214	0.000793331
2226	0.00158666
2238	0.00226666
2250	0.00192666
2262	0.00102
2274	0.000793331
2286	0.000793331
2298	0.00215333
2310	0.00317332
2322	0.00237999
2334	0.00124666
2346	0.00441999
2358	0.00169999
2370	0.00339999
2382	0.00509998
2394	0.00362666
2406	0.00589332
2418	0.00634665
2430	0.00543998
2442	0.00430665
2454	0.00385332
2466	0.00362666
2478	0.00317332
2490	0.00317332
2502	0.00351332
2514	0.00487332
2526	0.00589332
2538	0.00770664
2550	0.00713998
2562	0.00555332
2574	0.00487332
2586	0.00498665
2598	0.00623331
2610	0.00577998
2622	0.00430665
2634	0.00385332
2646	0.00441999
2658	0.00634665
2670	0.00883997
2682	0.01054
2694	0.0117866
2706	0.0148466
2718	0.0227799
2730	0.0307132
2742	0.0329799
2754	0.0258399
2766	0.0258399
2778	0.0262933
2790	0.0299199
2802	0.0352466
2814	0.0428399
2826	0.0515665
2838	0.0689065
2850	0.11118
2862	0.208646
2874	0.460925
2886	0.561565
2898	0.419219
2910	0.426359
2922	0.573805
2934	0.827331
2946	0.748338
2958	0.767491
2970	1.13333
2982	0.558165
2994	0.253526
3006	0.165013
3018	0.157533
3030	0.210119
3042	0.189266
3054	0.167166
3066	0.12546
3078	0.0891931
3090	0.0599532
3102	0.0341132
3114	0.0271999
3126	0.0225533
3138	0.01564
3150	0.0116733
3162	0.0104266
3174	0.00974664
3186	0.00917997
3198	0.00770664
3210	0.00668665
3222	0.00475999
3234	0.00419332
3246	0.00294666
3258	0.00203999
3270	0.00147333
3282	0.00136
3294	0.00102
3306	0.000566665
3318	0.00102
3330	0.00124666
3342	0.000793331
3354	0.00192666
3366	0.00237999
3378	0.00147333
3390	0.00124666
3402	0.00181333
3414	0.00136
3426	0.00169999
3438	0.00124666
3450	0.00113333
3462	0.00158666
3474	0.00226666
3486	0.00260666
3498	0.00271999
3510	0.00249333
3522	0.00328666
3534	0.00419332
3546	0.00509998
3558	0.00419332
3570	0.00509998
3582	0.00600665
3594	0.00849997
3606	0.0155266
3618	0.0301466
3630	0.0871531
3642	0.13702
3654	0.0650531
3666	0.0596132
3678	0.0504332
3690	0.0312799
3702	0.01292
3714	0.00906664
3726	0.00736664
3738	0.00702665
3750	0.00770664
3762	0.00317332
3774	0.00339999
3786	0.00328666
3798	0.00362666
3810	0.00102
3822	0.00169999
3834	0.00181333
3846	0.00136
3858	0.00226666
3870	0.00169999
3882	0.00158666
3894	0.00260666
3906	0.00181333
3918	0.00271999
3930	0.00249333
3942	0.000906664
3954	0.000453332
3966	0.00305999
