Infrared Spectrum: Ethanol, 2-(4-chlorothymyloxy)-,
Formula: C 12 H 17 Cl O 2
CAS: 55129-22-1
Origin: Sadtler Research Labs Under US-EPA Contract
1/CM	ABSORBANCE
450	0.0299695
462	0.0201766
474	0.0223716
486	0.0162933
498	0.019248
510	0.0167154
522	0.0166309
534	0.0108059
546	0.00802
558	0.00396779
570	0.006416
582	0.0140983
594	0.0215274
606	0.028872
618	0.0298006
630	0.0526787
642	0.0670303
654	0.0329242
666	0.00903305
678	0.00346126
690	0.00118189
702	0.00498084
714	0.0133385
726	0.0425482
738	0.0424638
750	0.0781738
762	0.101052
774	0.0636534
786	0.0212741
798	0.0136762
810	0.0130008
822	0.0162933
834	0.0397623
846	0.0642444
858	0.0742905
870	0.0942983
882	0.204214
894	0.207254
906	0.138957
918	0.060952
930	0.0417884
942	0.0332619
954	0.0367231
966	0.0599389
978	0.0915124
990	0.0913435
1002	0.0997856
1014	0.130008
1026	0.197714
1038	0.403701
1050	0.506695
1062	0.345451
1074	0.390869
1086	0.29885
1098	0.187499
1110	0.206831
1122	0.301805
1134	0.229794
1146	0.174161
1158	0.36453
1170	0.697571
1182	0.396863
1194	0.243132
1206	0.149763
1218	0.12908
1230	0.24136
1242	0.597025
1254	0.352036
1266	0.216287
1278	0.181843
1290	0.143853
1302	0.0974218
1314	0.0960711
1326	0.169517
1338	0.369426
1350	0.323586
1362	0.245496
1374	0.343847
1386	0.28281
1398	0.365036
1410	0.146808
1422	0.0959867
1434	0.102572
1446	0.146302
1458	0.300454
1470	0.290915
1482	0.39661
1494	0.650042
1506	0.257062
1518	0.130599
1530	0.0626404
1542	0.0454185
1554	0.0461783
1566	0.0439833
1578	0.0260861
1590	0.0289564
1602	0.0676212
1614	0.0607831
1626	0.0216118
1638	0.0116501
1650	0.00802
1662	0.00911747
1674	0.0102149
1686	0.00802
1698	0.00692252
1710	0.00827326
1722	0.00675368
1734	0.00759789
1746	0.0107215
1758	0.017053
1770	0.0133385
1782	0.00464315
1794	0.00278589
1806	0.00236379
1818	0.00101305
1830	0.000253263
1842	0.000168842
1854	0.000675368
1866	0.00135074
1878	0.00346126
1890	0.00557179
1902	0.00616273
1914	0.00557179
1926	0.00624715
1938	0.00548737
1950	0.00464315
1962	0.00489642
1974	0.00455873
1986	0.00464315
1998	0.00438989
2010	0.00422105
2022	0.00354568
2034	0.00346126
2046	0.00303916
2058	0.00287031
2070	0.00253263
2082	0.00312358
2094	0.00405221
2106	0.004812
2118	0.00464315
2130	0.00371452
2142	0.00261705
2154	0.00261705
2166	0.00219495
2178	0.00168842
2190	0.00126632
2202	0.00109747
2214	0.00185726
2226	0.00270147
2238	0.00371452
2250	0.00337684
2262	0.00312358
2274	0.00227937
2286	0.00253263
2298	0.00278589
2310	0.00354568
2322	0.00438989
2334	0.00438989
2346	0.00574063
2358	0.00438989
2370	0.0052341
2382	0.00582505
2394	0.00396779
2406	0.0052341
2418	0.00464315
2430	0.00422105
2442	0.00379894
2454	0.00405221
2466	0.00455873
2478	0.00464315
2490	0.00430547
2502	0.00422105
2514	0.00514968
2526	0.00565621
2538	0.00590947
2550	0.00540294
2562	0.00540294
2574	0.00489642
2586	0.00574063
2598	0.00607831
2610	0.00582505
2622	0.00472758
2634	0.00413663
2646	0.00472758
2658	0.00498084
2670	0.00574063
2682	0.00709136
2694	0.00785115
2706	0.0104682
2718	0.0151114
2730	0.0204299
2742	0.0209364
2754	0.0210208
2766	0.0203455
2778	0.0210208
2790	0.0223716
2802	0.0260861
2814	0.0323332
2826	0.0393402
2838	0.0516657
2850	0.0776673
2862	0.130346
2874	0.267783
2886	0.365205
2898	0.271667
2910	0.274537
2922	0.333379
2934	0.53582
2946	0.519105
2958	0.479765
2970	0.84421
2982	0.457646
2994	0.173738
3006	0.0784271
3018	0.0546204
3030	0.0530164
3042	0.0650042
3054	0.0522566
3066	0.0380739
3078	0.0270147
3090	0.0227092
3102	0.0223716
3114	0.0199234
3126	0.0135074
3138	0.00945515
3150	0.00751347
3162	0.00751347
3174	0.00776673
3186	0.00802
3198	0.00734463
3210	0.00666926
3222	0.00548737
3234	0.00422105
3246	0.00303916
3258	0.00295474
3270	0.00227937
3282	0.00227937
3294	0.00168842
3306	0.00185726
3318	0.001604
3330	0.00185726
3342	0.00126632
3354	0.00126632
3366	0.00194168
3378	0.00219495
3390	0.00177284
3402	0.00168842
3414	0.00177284
3426	0.001604
3438	0.0020261
3450	0.00135074
3462	0.001604
3474	0.00219495
3486	0.00219495
3498	0.00219495
3510	0.00185726
3522	0.00270147
3534	0.00329242
3546	0.00295474
3558	0.00447431
3570	0.00514968
3582	0.004812
3594	0.00574063
3606	0.010637
3618	0.0188259
3630	0.0438145
3642	0.0973374
3654	0.0562244
3666	0.0509059
3678	0.0449964
3690	0.025664
3702	0.0113124
3714	0.00675368
3726	0.00590947
3738	0.00506526
3750	0.00498084
3762	0.00388337
3774	0.00244821
3786	0.00185726
3798	0.00211052
3810	0.00177284
3822	0.00211052
3834	0.00270147
3846	0.000675368
3858	0.00261705
3870	0.00143516
3882	0.00135074
3894	0.00194168
3906	0.0020261
3918	0.00194168
3930	0.00244821
3942	0.00118189
3954	0.0020261
3966	0.00270147
