Infrared Spectrum: Ethanone, 1,2-di-2-furanyl-2-hydroxy-
Formula: C 10 H 8 O 4
CAS: 552-86-3
Origin: Sadtler Research Labs Under US-EPA Contract
1/CM	ABSORBANCE
450	0.0149603
462	0.00780256
474	0.0114137
486	0.0251488
498	0.0253422
510	0.0064484
522	0.00064484
534	0.001999
546	0.00696427
558	0.0126389
570	0.0360466
582	0.0441715
594	0.122133
606	0.0429463
618	0.0128968
630	0.00870534
642	0.0120585
654	0.0101885
666	0.0130903
678	0.0163145
690	0.0316616
702	0.0573908
714	0.0682886
726	0.139092
738	0.330352
750	0.455708
762	0.413342
774	0.108978
786	0.100208
798	0.11188
810	0.108204
822	0.0954363
834	0.0614533
846	0.0504265
858	0.0103174
870	0.0181845
882	0.144896
894	0.122004
906	0.0816367
918	0.040367
930	0.0513937
942	0.0689979
954	0.0330158
966	0.0344989
978	0.103239
990	0.135932
1002	0.210992
1014	0.517678
1026	0.310942
1038	0.108269
1050	0.0508134
1062	0.0619046
1074	0.146637
1086	0.179459
1098	0.100788
1110	0.05249
1122	0.0187004
1134	0.046493
1146	0.145411
1158	0.175977
1170	0.0790574
1182	0.036369
1194	0.0277281
1206	0.0373362
1218	0.0953074
1230	0.161339
1242	0.12626
1254	0.153021
1266	0.155664
1278	0.226339
1290	0.214474
1302	0.114395
1314	0.0611953
1326	0.0407539
1338	0.0319841
1350	0.040367
1362	0.0669989
1374	0.143928
1386	0.230982
1398	0.155858
1410	0.0600346
1422	0.0334027
1434	0.0228273
1446	0.0399156
1458	0.187262
1470	0.338348
1482	0.163016
1494	0.0548759
1506	0.0539731
1518	0.0266964
1530	0.0154117
1542	0.023988
1554	0.0815723
1566	0.197192
1578	0.186036
1590	0.0697072
1602	0.0458481
1614	0.0206994
1626	0.0171527
1638	0.0235367
1650	0.0419146
1662	0.0931149
1674	0.267351
1686	0.51368
1698	0.643421
1710	0.424111
1722	0.131483
1734	0.0529414
1746	0.0306944
1758	0.0261805
1770	0.0244394
1782	0.0140575
1794	0.0128968
1806	0.0119295
1818	0.00760911
1830	0.00438491
1842	0.00309523
1854	0.0028373
1866	0.00116071
1878	0.00193452
1890	0.00264384
1902	0.00315972
1914	0.00238591
1926	0.00232142
1938	0.00335317
1950	0.0036111
1962	0.00477182
1974	0.00457836
1986	0.00477182
1998	0.00561011
2010	0.0064484
2022	0.00728669
2034	0.00696427
2046	0.00631943
2058	0.00593253
2070	0.00689979
2082	0.0084474
2094	0.00960812
2106	0.00876982
2118	0.00709324
2130	0.00490078
2142	0.0048363
2154	0.00496527
2166	0.00573908
2178	0.0060615
2190	0.0048363
2202	0.00451388
2214	0.00425594
2226	0.00502975
2238	0.00580356
2250	0.0052232
2262	0.00406249
2274	0.00406249
2286	0.00432043
2298	0.00631943
2310	0.00831844
2322	0.00812498
2334	0.00599701
2346	0.00818947
2358	0.00670634
2370	0.00528769
2382	0.00786705
2394	0.00567459
2406	0.00406249
2418	0.00238591
2430	0.00193452
2442	0.00296626
2454	0.00451388
2466	0.00451388
2478	0.00406249
2490	0.00257936
2502	0.00109623
2514	0.00032242
2526	0.000515872
2538	0.00187004
2550	0.00328868
2562	0.00315972
2574	0.00141865
2586	0.00103174
2598	0.00128968
2610	0.00174107
2622	0.00335317
2634	0.00399801
2646	0.00348214
2658	0.00296626
2670	0.00212797
2682	0.00193452
2694	0.0032242
2706	0.00309523
2718	0.00245039
2730	0.00270833
2742	0.00174107
2754	0.00251488
2766	0.00290178
2778	0.00348214
2790	0.00457836
2802	0.00432043
2814	0.00451388
2826	0.00548114
2838	0.0064484
2850	0.00941466
2862	0.0109623
2874	0.0107688
2886	0.0110912
2898	0.0145089
2910	0.0179266
2922	0.0196031
2934	0.0159275
2946	0.0113492
2958	0.00883431
2970	0.00786705
2982	0.0064484
2994	0.00470733
3006	0.00257936
3018	0.00154762
3030	0.00193452
3042	0.00174107
3054	0.00154762
3066	0.00270833
3078	0.00264384
3090	0.00257936
3102	0.00270833
3114	0.00631943
3126	0.0172172
3138	0.0121875
3150	0.00864086
3162	0.0103819
3174	0.0036111
3186	0.00193452
3198	0.0016121
3210	0.00180555
3222	0.00141865
3234	0.0016121
3246	0.00135416
3258	0.00154762
3270	0.00206349
3282	0.00109623
3294	0.00180555
3306	0.00135416
3318	0.00187004
3330	0.00296626
3342	0.00432043
3354	0.00554562
3366	0.00831844
3378	0.0100595
3390	0.00754463
3402	0.00548114
3414	0.00412698
3426	0.00502975
3438	0.00580356
3450	0.00586804
3462	0.00947915
3474	0.013993
3486	0.0259226
3498	0.0420436
3510	0.0553918
3522	0.0662896
3534	0.0538441
3546	0.042237
3558	0.0308234
3570	0.0259871
3582	0.0175396
3594	0.0129613
3606	0.00709324
3618	0.00735118
3630	0.012123
3642	0.00973708
3654	0.00599701
3666	0.00212797
3678	0.00438491
3690	0.001999
3702	0.00206349
3714	0.00251488
3726	0.00219246
3738	0.00367559
3750	0.000386904
3762	0.00141865
3774	0.00154762
3786	0.000773808
3798	0.00167658
3810	0.000773808
3822	0.00380456
3834	0.00341765
3846	0.00174107
3858	0.00432043
3870	0.00541666
3882	0.00257936
3894	0.00438491
3906	0.0036111
3918	0.00219246
3930	0.00399801
3942	0.0028373
3954	0.00206349
3966	0.00187004
