Infrared Spectrum: Ethanone, 1-(2-hydroxy-4-methoxyphenyl)-
Formula: C 9 H 10 O 3
CAS: 552-41-0
Origin: Sadtler Research Labs Under US-EPA Contract
1/CM	ABSORBANCE
450	0
462	0.0199195
474	0.0120443
486	0.0130866
498	0.0181823
510	0.0243203
522	0.0315006
534	0.0320796
546	0.0349749
558	0.0809519
570	0.135267
582	0.0870899
594	0.0767827
606	0.0497987
618	0.0687917
630	0.0340484
642	0.0321955
654	0.0387967
666	0.0313848
678	0.0288369
690	0.0493355
702	0.0550102
714	0.0440082
726	0.0452821
738	0.0367121
750	0.0419236
762	0.0579055
774	0.0926488
786	0.146733
798	0.180665
810	0.142448
822	0.0826891
834	0.0669388
846	0.0920697
858	0.0697182
870	0.0387967
882	0.0121602
894	0.00671704
906	0.00972812
918	0.0200353
930	0.0518833
942	0.0869741
954	0.0697182
966	0.111989
978	0.137583
990	0.0332378
1002	0.0250152
1014	0.0543154
1026	0.137236
1038	0.113379
1050	0.0428501
1062	0.0818784
1074	0.0990184
1086	0.0399548
1098	0.0375228
1110	0.050841
1122	0.129245
1134	0.409044
1146	0.235328
1158	0.309331
1170	0.337242
1182	0.206144
1194	0.230811
1206	0.351834
1218	0.228611
1230	0.254205
1242	0.767248
1254	1.1353
1266	0.788905
1278	0.519065
1290	0.144416
1302	0.147543
1314	0.196995
1326	0.290801
1338	0.24633
1350	0.234633
1362	0.4534
1374	0.584035
1386	0.271808
1398	0.15426
1410	0.11859
1422	0.128666
1434	0.144532
1446	0.192362
1458	0.169895
1470	0.157503
1482	0.123686
1494	0.202901
1506	0.324155
1518	0.264281
1530	0.178117
1542	0.158661
1554	0.199542
1566	0.307941
1578	0.421436
1590	0.405339
1602	0.34338
1614	0.54049
1626	0.902631
1638	0.834187
1650	1.15105
1662	0.741769
1674	0.199311
1686	0.0707605
1698	0.040418
1710	0.0313848
1722	0.0273314
1734	0.0248994
1746	0.0186456
1758	0.0143606
1770	0.0107704
1782	0.00880164
1794	0.00660123
1806	0.00706447
1818	0.00648542
1830	0.00718028
1842	0.00810677
1854	0.00914907
1866	0.0129708
1878	0.0145922
1890	0.0123918
1902	0.014708
1914	0.0129708
1926	0.011002
1938	0.0121602
1950	0.0120443
1962	0.0100756
1974	0.0103072
1986	0.0125076
1998	0.0130866
2010	0.0127392
2022	0.0115811
2034	0.0121602
2046	0.0150554
2058	0.0162135
2070	0.0143606
2082	0.0126234
2094	0.0118127
2106	0.0105388
2118	0.00775934
2130	0.00660123
2142	0.00660123
2154	0.00694866
2166	0.00706447
2178	0.00787515
2190	0.0084542
2202	0.0084542
2214	0.00752772
2226	0.00718028
2238	0.00694866
2250	0.00648542
2262	0.00648542
2274	0.00706447
2286	0.0084542
2298	0.011002
2310	0.0157503
2322	0.0177191
2334	0.0176033
2346	0.0230464
2358	0.0206144
2370	0.0215408
2382	0.01714
2394	0.0112337
2406	0.011002
2418	0.0119285
2430	0.0120443
2442	0.0123918
2454	0.0134341
2466	0.0140131
2478	0.0143606
2490	0.0133183
2502	0.0127392
2514	0.0137815
2526	0.0145922
2538	0.0158661
2550	0.0170242
2562	0.0181823
2574	0.0213092
2586	0.0244361
2598	0.0267523
2610	0.029995
2622	0.0304583
2634	0.0276788
2646	0.0248994
2658	0.0250152
2670	0.0265207
2682	0.0283737
2694	0.0296476
2706	0.0311532
2718	0.031269
2730	0.0295318
2742	0.0279105
2754	0.026984
2766	0.0268682
2778	0.0280263
2790	0.0286053
2802	0.0298792
2814	0.0326587
2826	0.0385651
2838	0.0560525
2850	0.0969338
2862	0.0828049
2874	0.0581371
2886	0.0565158
2898	0.06497
2910	0.0859318
2922	0.103072
2934	0.106778
2946	0.141753
2958	0.158314
2970	0.150438
2982	0.11917
2994	0.0994816
3006	0.124613
3018	0.164104
3030	0.0965864
3042	0.0806045
3054	0.0844262
3066	0.0861634
3078	0.08211
3090	0.0852369
3102	0.0810677
3114	0.0724977
3126	0.0660123
3138	0.0623063
3150	0.0591794
3162	0.0576739
3174	0.0567474
3186	0.0547786
3198	0.0528098
3210	0.0499145
3222	0.0470193
3234	0.0460928
3246	0.0466718
3258	0.0467876
3270	0.0481774
3282	0.0456295
3294	0.0420394
3306	0.0396074
3318	0.0350907
3330	0.0327745
3342	0.0311532
3354	0.0288369
3366	0.0267523
3378	0.0245519
3390	0.0230464
3402	0.0213092
3414	0.0200353
3426	0.0187614
3438	0.0170242
3450	0.0164452
3462	0.0144764
3474	0.0140131
3486	0.0136657
3498	0.0123918
3510	0.0115811
3522	0.0113495
3534	0.0106546
3546	0.0116969
3558	0.0105388
3570	0.0094965
3582	0.0105388
3594	0.0114653
3606	0.00926488
3618	0.0105388
3630	0.0108862
3642	0.0103072
3654	0.00891745
3666	0.00694866
3678	0.0126234
3690	0.00775934
3702	0.00868583
3714	0.00914907
3726	0.00984393
3738	0.00995975
3750	0.00961231
3762	0.00868583
3774	0.00833839
3786	0.00880164
3798	0.0084542
3810	0.00799096
3822	0.0111179
3834	0.0100756
3846	0.0106546
3858	0.0108862
3870	0.0107704
3882	0.0125076
3894	0.00926488
3906	0.0111179
3918	0.0108862
3930	0.00891745
3942	0.00914907
3954	0.00938069
3966	0.0115811
