Infrared Spectrum: Benzophenone, 2pr-chloro-2-hydroxy
Formula: C 13 H 9 Cl O 2
CAS: 55270-71-8
Origin: Sadtler Research Labs Under US-EPA Contract
1/CM	ABSORBANCE
450	0
462	0.0436886
474	0.0337483
486	0.0295783
498	0.0172621
510	0.00916442
522	0.0258446
534	0.0240505
546	0.0232747
558	0.0239536
570	0.0134799
582	0.0157589
594	0.0190077
606	0.0151771
618	0.0176985
630	0.0444644
642	0.15114
654	0.0376275
666	0.0273478
678	0.0532894
690	0.0587202
702	0.0599324
714	0.0671088
726	0.0845163
738	0.171457
750	0.279151
762	0.205399
774	0.0478102
786	0.0257961
798	0.0246809
810	0.0224504
822	0.0580413
834	0.0459676
846	0.0185228
858	0.026669
870	0.0200744
882	0.015274
894	0.0168742
906	0.01765
918	0.0258931
930	0.143091
942	0.164378
954	0.0555684
966	0.0143043
978	0.0140133
990	0.0143527
1002	0.0161953
1014	0.0182804
1026	0.0402944
1038	0.0555684
1050	0.0489739
1062	0.0757398
1074	0.0238566
1086	0.0203654
1098	0.0258931
1110	0.0620659
1122	0.0589141
1134	0.0568291
1146	0.192356
1158	0.0750125
1170	0.0475192
1182	0.0531924
1194	0.059496
1206	0.0821404
1218	0.193908
1230	0.2086
1242	0.269987
1254	0.206224
1266	0.176161
1278	0.0700666
1290	0.0754004
1302	0.196768
1314	0.336029
1326	0.218637
1338	0.191726
1350	0.0907714
1362	0.0612901
1374	0.050671
1386	0.0546956
1398	0.0614356
1410	0.0628417
1422	0.0765641
1434	0.135187
1446	0.126217
1458	0.179603
1470	0.164766
1482	0.191629
1494	0.121756
1506	0.0786492
1518	0.041943
1530	0.0349606
1542	0.0400034
1554	0.0456281
1566	0.0895592
1578	0.156426
1590	0.160499
1602	0.130532
1614	0.195847
1626	0.185083
1638	0.394119
1650	0.410362
1662	0.160305
1674	0.0623569
1686	0.0455312
1698	0.0383548
1710	0.0240021
1722	0.0244385
1734	0.0211412
1746	0.0172136
1758	0.0178924
1770	0.0159529
1782	0.015565
1794	0.020026
1806	0.0238081
1818	0.0156135
1830	0.0163893
1842	0.0149346
1854	0.0107161
1866	0.0122677
1878	0.0115889
1890	0.0140133
1902	0.0130435
1914	0.0178924
1926	0.0183288
1938	0.0134799
1950	0.0205108
1962	0.013092
1974	0.0104736
1986	0.00984327
1998	0.0101342
2010	0.00911593
2022	0.00979478
2034	0.00979478
2046	0.00930989
2058	0.00974629
2070	0.00994025
2082	0.00950384
2094	0.00955233
2106	0.00921291
2118	0.00964931
2130	0.0106191
2142	0.0100857
2154	0.00935838
2166	0.00984327
2178	0.00955233
2190	0.00950384
2202	0.00945536
2214	0.00906744
2226	0.00921291
2238	0.00960082
2250	0.00989176
2262	0.0111525
2274	0.0112979
2286	0.0119768
2298	0.0125587
2310	0.0134315
2322	0.0135769
2334	0.013189
2346	0.0140618
2358	0.0129951
2370	0.0144497
2382	0.0129951
2394	0.0114434
2406	0.0106676
2418	0.0106676
2430	0.010813
2442	0.0109585
2454	0.011201
2466	0.0113949
2478	0.0116374
2490	0.0113464
2502	0.0116374
2514	0.0116858
2526	0.0117343
2538	0.0128011
2550	0.0137224
2562	0.0143043
2574	0.0147407
2586	0.0144012
2598	0.0143043
2610	0.0148861
2622	0.0161468
2634	0.0161953
2646	0.0157589
2658	0.0147891
2670	0.0140618
2682	0.0140618
2694	0.0148861
2706	0.0164863
2718	0.0166317
2730	0.0161953
2742	0.0160983
2754	0.0163408
2766	0.0161953
2778	0.0170196
2790	0.0166802
2802	0.0165832
2814	0.017844
2826	0.0182804
2838	0.0182319
2850	0.0177955
2862	0.0176985
2874	0.0181349
2886	0.0182319
2898	0.0189592
2910	0.019832
2922	0.0200744
2934	0.0206078
2946	0.0204624
2958	0.0205108
2970	0.0213836
2982	0.0233232
2994	0.0243415
3006	0.0269114
3018	0.0315179
3030	0.0356394
3042	0.0432522
3054	0.0564897
3066	0.0906259
3078	0.103282
3090	0.0752549
3102	0.0528045
3114	0.0458221
3126	0.0442705
3138	0.0445129
3150	0.0436886
3162	0.0434946
3174	0.0448523
3186	0.0450948
3198	0.0446584
3210	0.0431552
3222	0.0417005
3234	0.0414581
3246	0.0417005
3258	0.0410217
3270	0.0406338
3282	0.0394216
3294	0.039761
3306	0.0373365
3318	0.0346211
3330	0.0333604
3342	0.0320027
3354	0.030936
3366	0.0297722
3378	0.0280266
3390	0.0258931
3402	0.0250203
3414	0.0236141
3426	0.0225474
3438	0.021917
3450	0.0202684
3462	0.0190077
3474	0.0187168
3486	0.0172621
3498	0.0167772
3510	0.0162923
3522	0.0152255
3534	0.015371
3546	0.0136254
3558	0.0152255
3570	0.0134799
3582	0.0145467
3594	0.0137224
3606	0.013189
3618	0.0118313
3630	0.0107646
3642	0.0134315
3654	0.0141588
3666	0.013286
3678	0.00906744
3690	0.0117343
3702	0.0122677
3714	0.0111525
3726	0.0112494
3738	0.0142073
3750	0.0108615
3762	0.0120738
3774	0.0122192
3786	0.0121707
3798	0.0118313
3810	0.0115889
3822	0.0100372
3834	0.011201
3846	0.011201
3858	0.0111525
3870	0.0107161
3882	0.00955233
3894	0.0133345
3906	0.0108615
3918	0.0116374
3930	0.0119768
3942	0.0123162
3954	0.0123162
3966	0.0118313
