Infrared Spectrum: Benzene, 2,4-dichloro-1-methoxy-
Formula: C 7 H 6 Cl 2 O
CAS: 553-82-2
Origin: Sadtler Research Labs Under US-EPA Contract
1/CM	ABSORBANCE
450	0.00203424
462	0.00438967
474	0.00567445
486	0.00760162
498	0.00310489
510	0.00845814
522	0.0085652
534	0.00770868
546	0.0135973
558	0.0317983
570	0.034582
582	0.0211989
594	0.00685216
606	0.00877933
618	0.0061027
630	0.0153103
642	0.143253
654	0.07077
666	0.00406847
678	0.00695923
690	0.0176657
702	0.088864
714	0.225265
726	0.108778
738	0.0426119
750	0.0209847
762	0.0102782
774	0.0112418
786	0.0319054
798	0.120127
810	0.130084
822	0.0951808
834	0.176122
846	0.144324
858	0.0360809
870	0.110705
882	0.0562091
894	0.00770868
906	0.00556738
918	0.0061027
930	0.00535325
942	0.00546032
954	0.00717336
966	0.00995705
978	0.0156315
990	0.0265521
1002	0.0544961
1014	0.135973
1026	0.186079
1038	0.122375
1050	0.0670227
1062	0.229547
1074	0.280724
1086	0.0890781
1098	0.189933
1110	0.294857
1122	0.110919
1134	0.0464662
1146	0.0401494
1158	0.0246249
1170	0.0203424
1182	0.0401494
1194	0.0340467
1206	0.0269804
1218	0.0383293
1230	0.0811553
1242	0.215308
1254	0.454277
1266	0.588429
1278	0.37719
1290	0.443249
1302	0.239183
1314	0.0347961
1326	0.0167021
1338	0.0178799
1350	0.0194858
1362	0.0294429
1374	0.0422907
1386	0.0920759
1398	0.0679863
1410	0.0315842
1422	0.0714124
1434	0.195394
1446	0.22762
1458	0.178799
1470	0.397854
1482	0.812088
1494	0.989923
1506	0.314664
1518	0.0646673
1530	0.0260168
1542	0.0256956
1554	0.0249461
1566	0.0497852
1578	0.0837248
1590	0.0835107
1602	0.046145
1614	0.0149891
1626	0.0112418
1638	0.0105994
1650	0.0135973
1662	0.0067451
1674	0.0128478
1686	0.0134902
1698	0.0130619
1710	0.0103853
1722	0.0135973
1734	0.0219483
1746	0.0199141
1758	0.00899346
1770	0.00749455
1782	0.00513912
1794	0.00781575
1806	0.00471086
1818	0.00278369
1830	0.0061027
1842	0.0123125
1854	0.00920759
1866	0.00920759
1878	0.0061027
1890	0.00438967
1902	0.00299782
1914	0.00449673
1926	0.00406847
1938	0.00535325
1950	0.00449673
1962	0.00556738
1974	0.00663803
1986	0.00567445
1998	0.00546032
2010	0.00695923
2022	0.00685216
2034	0.00578151
2046	0.00471086
2058	0.00556738
2070	0.00546032
2082	0.00460379
2094	0.00685216
2106	0.00760162
2118	0.00535325
2130	0.00460379
2142	0.00299782
2154	0.00107065
2166	0.000535325
2178	0.00128478
2190	0.00289076
2202	0.00278369
2214	0.00299782
2226	0.0024625
2238	0.00139185
2250	0.000535325
2262	0.000749455
2274	0.000963585
2286	0.00235543
2298	0.0024625
2310	0.00310489
2322	0.00342608
2334	0.00149891
2346	0
2358	0
2370	0
2382	0
2394	0
2406	0.00021413
2418	0.00107065
2430	0.00128478
2442	0.000321195
2454	0
2466	0.00021413
2478	0.00042826
2490	0.00117771
2502	0.00235543
2514	0.0042826
2526	0.00813694
2538	0.0103853
2550	0.00920759
2562	0.00524619
2574	0.0021413
2586	0.00224836
2598	0.0021413
2610	0.00192717
2622	0.0021413
2634	0.0021413
2646	0.00256956
2658	0.00171304
2670	0.0021413
2682	0.00235543
2694	0.0024625
2706	0.0021413
2718	0.00235543
2730	0.00310489
2742	0.00299782
2754	0.00353315
2766	0.00385434
2778	0.0042826
2790	0.00556738
2802	0.00792281
2814	0.0137043
2826	0.0225907
2838	0.0505347
2850	0.0958232
2862	0.0541749
2874	0.0275157
2886	0.0277298
2898	0.0406847
2910	0.0605988
2922	0.0640249
2934	0.0639178
2946	0.144431
2958	0.138435
2970	0.100534
2982	0.0498923
2994	0.0349032
3006	0.0589928
3018	0.114024
3030	0.0408988
3042	0.0192717
3054	0.0158456
3066	0.0165951
3078	0.0258027
3090	0.0232331
3102	0.0130619
3114	0.00781575
3126	0.00460379
3138	0.00406847
3150	0.00396141
3162	0.00331902
3174	0.00289076
3186	0.00289076
3198	0.00256956
3210	0.00224836
3222	0.00224836
3234	0.00192717
3246	0.00117771
3258	0.00171304
3270	0.00117771
3282	0.00117771
3294	0.00107065
3306	0.00117771
3318	0.00117771
3330	0.00149891
3342	0.00160598
3354	0.00149891
3366	0.00192717
3378	0.00149891
3390	0.00149891
3402	0.00203424
3414	0.00182011
3426	0.00139185
3438	0.00224836
3450	0.00117771
3462	0.00107065
3474	0.00203424
3486	0.00149891
3498	0.00203424
3510	0.00139185
3522	0.00139185
3534	0.00160598
3546	0.00064239
3558	0.00203424
3570	0.00171304
3582	0.00192717
3594	0.00128478
3606	0.00128478
3618	0.00203424
3630	0.00171304
3642	0.000321195
3654	0.00139185
3666	0.00289076
3678	0.000749455
3690	0.00289076
3702	0.00235543
3714	0.00192717
3726	0.00267663
3738	0.00235543
3750	0.00374727
3762	0.00321195
3774	0.00203424
3786	0.00203424
3798	0.00235543
3810	0.00449673
3822	0.00224836
3834	0.00171304
3846	0.00364021
3858	0.0042826
3870	0.00342608
3882	0.00406847
3894	0.00289076
3906	0.00278369
3918	0.00460379
3930	0.00578151
3942	0.00481793
3954	0.0042826
3966	0.00588858
