Infrared Spectrum: Benzene, 2-bromo-1,4-dimethyl-
Formula: C 8 H 9 Br
CAS: 553-94-6
Origin: Sadtler Research Labs Under US-EPA Contract
1/CM	ABSORBANCE
450	0.0172823
462	0.0177254
474	0.00781027
486	0.00803184
498	0.00304656
510	0.0164514
522	0.0228769
534	0.0696831
546	0.0331244
558	0.0137926
570	0.0198857
582	0.0183901
594	0.0109676
606	0.0168392
618	0.0116323
630	0.0108014
642	0.0130725
654	0.0187779
666	0.0673013
678	0.129839
690	0.0396607
702	0.0270867
714	0.0160083
726	0.0393837
738	0.0463077
750	0.0249264
762	0.0122416
774	0.0155098
786	0.046917
798	0.246162
810	0.276738
822	0.0600449
834	0.0225445
846	0.134935
858	0.226055
870	0.153103
882	0.0604881
894	0.018224
906	0.01695
918	0.0183348
930	0.0194426
942	0.022046
954	0.0303548
966	0.0615959
978	0.112224
990	0.0648086
1002	0.0396053
1014	0.0400484
1026	0.0710125
1038	0.337891
1050	0.310306
1062	0.0558905
1074	0.0295793
1086	0.0219906
1098	0.019498
1110	0.020772
1122	0.0176147
1134	0.0178362
1146	0.0368911
1158	0.0283607
1170	0.0206612
1182	0.0224338
1194	0.0299671
1206	0.0823125
1218	0.1017
1230	0.023874
1242	0.0181686
1254	0.0228215
1266	0.0363372
1278	0.0397715
1290	0.022046
1302	0.015399
1314	0.0180578
1326	0.0198303
1338	0.026422
1350	0.0280284
1362	0.031518
1374	0.0647532
1386	0.131002
1398	0.116711
1410	0.0822017
1422	0.0817586
1434	0.104691
1446	0.125629
1458	0.134935
1470	0.143299
1482	0.219352
1494	0.55392
1506	0.289534
1518	0.083365
1530	0.0704586
1542	0.0747792
1554	0.094388
1566	0.12646
1578	0.0952188
1590	0.0596018
1602	0.125795
1614	0.129063
1626	0.0397161
1638	0.0199965
1650	0.018224
1662	0.0124078
1674	0.0177254
1686	0.0160637
1698	0.0159529
1710	0.0182794
1722	0.0294685
1734	0.0387744
1746	0.0355617
1758	0.0141804
1770	0.0101367
1782	0.0083088
1794	0.0105245
1806	0.0137372
1818	0.0133495
1830	0.0113
1842	0.0114108
1854	0.00980438
1866	0.0103029
1878	0.0191102
1890	0.0271421
1902	0.0114661
1914	0.00952742
1926	0.00819802
1938	0.00648086
1950	0.0062593
1962	0.00520685
1974	0.00509606
1986	0.00603773
1998	0.00576077
2010	0.00492989
2022	0.00542842
2034	0.00515146
2046	0.00664704
2058	0.00520685
2070	0.00736714
2082	0.00637008
2094	0.00470832
2106	0.0048745
2118	0.00603773
2130	0.0055392
2142	0.00443136
2154	0.00443136
2166	0.00404362
2178	0.00420979
2190	0.00526224
2202	0.00448675
2214	0.00404362
2226	0.00454214
2238	0.00492989
2250	0.00531763
2262	0.00548381
2274	0.00504067
2286	0.00570538
2298	0.00775488
2310	0.00825341
2322	0.00908429
2334	0.00731174
2346	0.00614851
2358	0.00509606
2370	0.00299117
2382	0.00437597
2394	0.00548381
2406	0.00697939
2418	0.00941664
2430	0.00769949
2442	0.00609312
2454	0.00603773
2466	0.00703478
2478	0.00742253
2490	0.00742253
2502	0.0062593
2514	0.00570538
2526	0.00664704
2538	0.00709018
2550	0.00492989
2562	0.0034343
2574	0.00437597
2586	0.00714557
2598	0.00958282
2610	0.00548381
2622	0
2634	0.00116323
2646	0.00570538
2658	0.00437597
2670	0.00504067
2682	0.00443136
2694	0.00376666
2706	0.00387744
2718	0.00409901
2730	0.00720096
2742	0.0181686
2754	0.0190548
2766	0.00891811
2778	0.00714557
2790	0.00769949
2802	0.00941664
2814	0.0126294
2826	0.0185563
2838	0.0257019
2850	0.0426518
2862	0.0859684
2874	0.144075
2886	0.145681
2898	0.123967
2910	0.124798
2922	0.18933
2934	0.372788
2946	0.297898
2958	0.16457
2970	0.152162
2982	0.169278
2994	0.168835
3006	0.134436
3018	0.164237
3030	0.186948
3042	0.162022
3054	0.173432
3066	0.165013
3078	0.101367
3090	0.0396607
3102	0.0301332
3114	0.0223784
3126	0.0134603
3138	0.00659165
3150	0.00504067
3162	0.00459754
3174	0.00720096
3186	0.00637008
3198	0.00592694
3210	0.00448675
3222	0.00321274
3234	0.00637008
3246	0.0103029
3258	0.0075887
3270	0.00725635
3282	0.0062593
3294	0.00675782
3306	0.00614851
3318	0.00559459
3330	0.0083088
3342	0.00720096
3354	0.00714557
3366	0.00720096
3378	0.00886272
3390	0.00781027
3402	0.00653626
3414	0.00598234
3426	0.00542842
3438	0.00631469
3450	0.0034343
3462	0.00409901
3474	0.00216029
3486	0.00265882
3498	0.00166176
3510	0.00193872
3522	0.00232646
3534	0.00132941
3546	0.00232646
3558	0.00249264
3570	0.00238186
3582	0.000997056
3594	0.000886272
3606	0.000886272
3618	0.00160637
3630	0.00227107
3642	0.00055392
3654	0.000221568
3666	0.00171715
3678	0.00254803
3690	0.00337891
3702	0.00581616
3714	0.00420979
3726	0.0062593
3738	0.00420979
3750	0.00420979
3762	0.00387744
3774	0.00398822
3786	0.00670243
3798	0.00437597
3810	0.00581616
3822	0.00459754
3834	0.00531763
3846	0.00564998
3858	0.00504067
3870	0.00454214
3882	0.0048191
3894	0.00570538
3906	0.00609312
3918	0.00609312
3930	0.00531763
3942	0.00492989
3954	0.0048745
3966	0.00476371
