Infrared Spectrum: 2-Coumaranone
Formula: C 8 H 6 O 2
CAS: 553-86-6
Origin: Sadtler Research Labs Under US-EPA Contract
1/CM	ABSORBANCE
450	0.0116008
462	0.00029002
474	0.0072505
486	0.00957066
498	0.0101507
510	0.0162411
522	0.014501
534	0.0156611
546	0.0278419
558	0.0256668
570	0.0123258
582	0.0116008
594	0.0126159
606	0.00696048
618	0.0043503
630	0.00232016
642	0.00551038
654	0.00957066
666	0.0189963
678	0.0229116
690	0.0120358
702	0.0179812
714	0.0236366
726	0.0323372
738	0.106727
750	0.255218
762	0.123839
774	0.028857
786	0.0101507
798	0.0262468
810	0.0609042
822	0.0735201
834	0.0472733
846	0.0221865
858	0.015081
870	0.0342224
882	0.315397
894	0.350344
906	0.0340773
918	0.0174012
930	0.0101507
942	0.0131959
954	0.0224765
966	0.0156611
978	0.00841058
990	0.00638044
1002	0.0185613
1014	0.0466932
1026	0.0926614
1038	0.275519
1050	0.593091
1062	0.44228
1074	0.0501735
1086	0.0198664
1098	0.042923
1110	0.127464
1122	0.159366
1134	0.108757
1146	0.0688798
1158	0.029292
1170	0.0163861
1182	0.0334973
1194	0.0701848
1206	0.087151
1218	0.110353
1230	0.262758
1242	0.245212
1254	0.0342224
1266	0.0174012
1278	0.0237816
1290	0.07265
1302	0.0651095
1314	0.0384277
1326	0.0426329
1338	0.0253768
1350	0.0197214
1362	0.014936
1374	0.0131959
1386	0.014646
1398	0.029582
1410	0.0334973
1422	0.0174012
1434	0.0108758
1446	0.0324822
1458	0.157191
1470	0.260438
1482	0.191558
1494	0.110353
1506	0.014936
1518	0.00594541
1530	0.00681547
1542	0.00043503
1554	0.0118908
1566	0.0156611
1578	0.0204464
1590	0.0503185
1602	0.0772903
1614	0.0883111
1626	0.0736651
1638	0.0311772
1650	0.0165311
1662	0.0178362
1674	0.00957066
1686	0.00551038
1698	0.00493034
1710	0.015081
1722	0.0156611
1734	0.0104407
1746	0.013921
1758	0.0207364
1770	0.0319022
1782	0.0379926
1794	0.0455331
1806	0.0748252
1818	0.169372
1830	1.01318
1842	1.43487
1854	0.352084
1866	0.087296
1878	0.0406028
1890	0.0230566
1902	0.0205914
1914	0.0203014
1926	0.0266818
1938	0.0336423
1950	0.0220415
1962	0.0121808
1974	0.0104407
1986	0.0108758
1998	0.0121808
2010	0.0134859
2022	0.0111658
2034	0.0111658
2046	0.0110208
2058	0.0108758
2070	0.0126159
2082	0.0165311
2094	0.0208814
2106	0.0214615
2118	0.0187063
2130	0.014211
2142	0.0100057
2154	0.0113108
2166	0.0126159
2178	0.0121808
2190	0.00957066
2202	0.00797555
2214	0.00783054
2226	0.00797555
2238	0.00913563
2250	0.0104407
2262	0.0105857
2274	0.0117458
2286	0.0129059
2298	0.0124709
2310	0.0117458
2322	0.0111658
2334	0.0100057
2346	0.0108758
2358	0.0100057
2370	0.00783054
2382	0.00812056
2394	0.00551038
2406	0.00464032
2418	0.00464032
2430	0.0043503
2442	0.00464032
2454	0.00493034
2466	0.00638044
2478	0.00594541
2490	0.00507535
2502	0.00464032
2514	0.00493034
2526	0.00493034
2538	0.00420529
2550	0.00319022
2562	0.00348024
2574	0.0029002
2586	0.00261018
2598	0.00275519
2610	0.0029002
2622	0.00261018
2634	0.00232016
2646	0.00275519
2658	0.00275519
2670	0.00188513
2682	0.00116008
2694	0.00159511
2706	0.00130509
2718	0.00101507
2730	0.00087006
2742	0.00101507
2754	0.00014501
2766	0.00043503
2778	0.00087006
2790	0.00188513
2802	0.00188513
2814	0.00087006
2826	0.00116008
2838	0.00087006
2850	0.00101507
2862	0.00116008
2874	0.00174012
2886	0.00159511
2898	0.00174012
2910	0.00232016
2922	0.00319022
2934	0.0163861
2946	0.0185613
2958	0.00478533
2970	0.00304521
2982	0.00188513
2994	0.00174012
3006	0.00087006
3018	0.00420529
3030	0.0113108
3042	0.0261018
3054	0.0397327
3066	0.0452431
3078	0.0423429
3090	0.0368325
3102	0.0188513
3114	0.0087006
3126	0.00406028
3138	0.00246517
3150	0.0014501
3162	0.00203014
3174	0.00188513
3186	0.00116008
3198	0.00232016
3210	0.00116008
3222	0.00130509
3234	0.0014501
3246	0.00101507
3258	0.00116008
3270	0.00072505
3282	0.00116008
3294	0.00072505
3306	0.00159511
3318	0.00116008
3330	0.00116008
3342	0.00159511
3354	0.00159511
3366	0.00087006
3378	0.00101507
3390	0.00130509
3402	0.00159511
3414	0.00029002
3426	0.0014501
3438	0.00174012
3450	0.00159511
3462	0.00217515
3474	0.00217515
3486	0.00188513
3498	0.00116008
3510	0.00130509
3522	0.00159511
3534	0.00203014
3546	0.00159511
3558	0.00261018
3570	0.00217515
3582	0.00203014
3594	0.00188513
3606	0.00101507
3618	0.00319022
3630	0.00449531
3642	0.00710549
3654	0.0162411
3666	0.0158061
3678	0.00522036
3690	0.00029002
3702	0.00261018
3714	0.00246517
3726	0.00116008
3738	0.00377026
3750	0.00130509
3762	0.00101507
3774	0.00130509
3786	0.00101507
3798	0.00130509
3810	0
3822	0.00188513
3834	0.0014501
3846	0.00159511
3858	0.00072505
3870	0.0014501
3882	0.00304521
3894	0.0014501
3906	0.00203014
3918	0.00391527
3930	0.00174012
3942	0.00159511
3954	0.00348024
3966	0.00333523
