Infrared Spectrum: Benzenamine, N,N-bis(2-chloroethyl)-
Formula: C 10 H 13 Cl 2 N
CAS: 553-27-5
Origin: Sadtler Research Labs Under US-EPA Contract
1/CM	ABSORBANCE
450	0.00883238
462	0.00713728
474	0.0111074
486	0.0131594
498	0.0175309
510	0.0130701
522	0.0128471
534	0.0160143
546	0.0212334
558	0.0303334
570	0.0210104
582	0.0132932
594	0.00356864
606	0.00089216
618	0.00240883
630	0.00272109
642	0.00740493
654	0.0203859
666	0.0591948
678	0.0797145
690	0.129586
702	0.101305
714	0.0678042
726	0.0779748
738	0.0967548
750	0.210371
762	0.184856
774	0.109334
786	0.0525482
798	0.0300658
810	0.0196275
822	0.0138285
834	0.0122672
846	0.0137839
858	0.0180662
870	0.0216349
882	0.0136054
894	0.0110182
906	0.0150775
918	0.028906
930	0.0358648
942	0.0262741
954	0.0284153
966	0.0292182
978	0.0231962
990	0.0349727
1002	0.041084
1014	0.0345266
1026	0.0426452
1038	0.0403256
1050	0.015702
1062	0.015479
1074	0.0140961
1086	0.0118211
1098	0.0135608
1110	0.0235084
1122	0.0410394
1134	0.0886807
1146	0.0977807
1158	0.0913126
1170	0.114018
1182	0.169198
1194	0.109602
1206	0.107862
1218	0.092517
1230	0.106925
1242	0.133155
1254	0.152202
1266	0.112814
1278	0.0972008
1290	0.0752983
1302	0.0796699
1314	0.0754767
1326	0.0739155
1338	0.113394
1350	0.183428
1362	0.153987
1374	0.0875655
1386	0.0632988
1398	0.0356864
1410	0.0189138
1422	0.019806
1434	0.0461247
1446	0.0940337
1458	0.0888145
1470	0.0632095
1482	0.0806959
1494	0.28045
1506	0.393309
1518	0.082614
1530	0.034482
1542	0.0264079
1554	0.0272555
1566	0.0379614
1578	0.0784209
1590	0.16786
1602	0.317252
1614	0.124367
1626	0.0376938
1638	0.016951
1650	0.0102598
1662	0.00651277
1674	0.00736032
1686	0.00785101
1698	0.00905542
1710	0.00883238
1722	0.00967994
1734	0.0105721
1746	0.00874317
1758	0.00990298
1770	0.00918925
1782	0.0050407
1794	0.00450541
1806	0.00321178
1818	0.00330099
1830	0.0044608
1842	0.00330099
1854	0.00227501
1866	0.00231962
1878	0.00182893
1890	0.00303334
1902	0.00486227
1914	0.00785101
1926	0.00740493
1938	0.0072711
1950	0.00347942
1962	0.00147206
1974	0.000267648
1986	8.9216e-05
1998	0.000490688
2010	0.000267648
2022	0.00066912
2034	0.000802944
2046	0.000981376
2058	0.000981376
2070	0.00133824
2082	0.000847552
2094	0.000579904
2106	0.000356864
2118	8.9216e-05
2130	0.000133824
2142	8.9216e-05
2154	0.00022304
2166	0.000490688
2178	0
2190	0.00044608
2202	0.000312256
2214	0.00066912
2226	0.000936768
2238	0.000267648
2250	0.000133824
2262	4.4608e-05
2274	0.000579904
2286	0.00187354
2298	0.00437158
2310	0.0061559
2322	0.00508531
2334	0.00258726
2346	0.00459462
2358	0.00298874
2370	0.00370246
2382	0.00410394
2394	0.000802944
2406	0.000758336
2418	0.00102598
2430	0.000981376
2442	0.0016951
2454	0.00191814
2466	0.00178432
2478	0.00129363
2490	0.00124902
2502	0.0011152
2514	0.00178432
2526	0.0022304
2538	0.00267648
2550	0.00249805
2562	0.00312256
2574	0.00294413
2586	0.00267648
2598	0.00325638
2610	0.00254266
2622	0.00298874
2634	0.00258726
2646	0.00285491
2658	0.00321178
2670	0.00397011
2682	0.00455002
2694	0.00539757
2706	0.00686963
2718	0.00682502
2730	0.00709267
2742	0.00704806
2754	0.00798483
2766	0.00860934
2778	0.00954611
2790	0.0115981
2802	0.0180662
2814	0.0273447
2826	0.0337683
2838	0.0397903
2850	0.0486227
2862	0.0530835
2874	0.0540649
2886	0.0612468
2898	0.0513884
2910	0.0442065
2922	0.0449649
2934	0.0495595
2946	0.0538865
2958	0.0915356
2970	0.124099
2982	0.0766365
2994	0.0439389
3006	0.0664213
3018	0.0606223
3030	0.0545556
3042	0.0720419
3054	0.0598193
3066	0.0657968
3078	0.0870302
3090	0.047909
3102	0.048132
3114	0.0248467
3126	0.0103937
3138	0.00401472
3150	0.00267648
3162	0.00160589
3174	0.000981376
3186	0.000847552
3198	0.000802944
3210	0.00133824
3222	0.000713728
3234	0.000535296
3246	0.00066912
3258	0.00120442
3270	0.0011152
3282	0.000847552
3294	0.000713728
3306	0.00022304
3318	0.000356864
3330	0.000936768
3342	0.00089216
3354	0.000579904
3366	0.00129363
3378	0.00044608
3390	0.00107059
3402	0.00151667
3414	0.00138285
3426	0.00129363
3438	0.00124902
3450	0.00147206
3462	0.0016951
3474	0.00138285
3486	0.000713728
3498	0.00107059
3510	0.000579904
3522	0.00200736
3534	0.00102598
3546	0.00120442
3558	0.00102598
3570	0.00156128
3582	0.00089216
3594	0.000981376
3606	0.000579904
3618	0.00173971
3630	0.00312256
3642	0.00120442
3654	0.00124902
3666	0.00133824
3678	0.00312256
3690	0.00066912
3702	0.00124902
3714	0.00147206
3726	0.00147206
3738	0.00129363
3750	0.00160589
3762	0.00107059
3774	0.00178432
3786	0.00196275
3798	0.00258726
3810	0.00124902
3822	0.00218579
3834	0.00218579
3846	0.00107059
3858	0.00240883
3870	0.00285491
3882	0.00107059
3894	0.0028103
3906	0.0022304
3918	0.0028103
3930	0.00303334
3942	0.00120442
3954	0.0011152
3966	0.00356864
