Infrared Spectrum: Acetylsalicyloyl chloride
Formula: C 9 H 7 Cl O 3
CAS: 5538-51-2
Origin: Sadtler Research Labs Under US-EPA Contract
1/CM	ABSORBANCE
450	0.0617402
462	0.0231306
474	0.0126647
486	0.00738772
498	0.0153911
510	0.0197006
522	0.00474925
534	0.0153911
546	0.012137
558	0.0142477
570	0.0199644
582	0.053385
594	0.0794179
606	0.0729097
618	0.0679846
630	0.0333327
642	0.0542645
654	0.0782746
666	0.0440624
678	0.0631474
690	0.0386096
702	0.029287
714	0.015479
726	0.0176777
738	0.0438866
750	0.0618281
762	0.0821444
774	0.0342122
786	0.0255932
798	0.044854
810	0.0796818
822	0.0469648
834	0.0468768
846	0.122601
858	0.140806
870	0.0788903
882	0.12049
894	0.0768674
906	0.118467
918	0.108617
930	0.0526815
942	0.0600692
954	0.0873334
966	0.0991185
978	0.103956
990	0.105099
1002	0.124272
1014	0.135354
1026	0.0924344
1038	0.0717664
1050	0.06904
1062	0.0700074
1074	0.058574
1086	0.0665774
1098	0.101493
1110	0.156285
1122	0.139223
1134	0.0600692
1146	0.0674569
1158	0.174227
1170	0.215915
1182	0.64836
1194	0.813089
1206	0.322157
1218	0.174227
1230	0.116005
1242	0.0803854
1254	0.0591897
1266	0.0540007
1278	0.0878611
1290	0.051802
1302	0.0458214
1314	0.0360591
1326	0.0240101
1338	0.0191729
1350	0.0269124
1362	0.0614764
1374	0.129461
1386	0.0554958
1398	0.0213716
1410	0.0156549
1422	0.0196126
1434	0.029287
1446	0.0617402
1458	0.0576066
1470	0.0547043
1482	0.0996462
1494	0.0401927
1506	0.015567
1518	0.00949849
1530	0.00905875
1542	0.0108177
1554	0.0108177
1566	0.0195247
1578	0.0397529
1590	0.041336
1602	0.0964801
1614	0.0544404
1626	0.0229547
1638	0.0124008
1650	0.0131923
1662	0.0146875
1674	0.0201403
1686	0.0324532
1698	0.0471407
1710	0.0511863
1722	0.0729097
1734	0.0985908
1746	0.11794
1758	0.183638
1770	0.244322
1782	0.32805
1794	0.523121
1806	0.401487
1818	0.208175
1830	0.173523
1842	0.0556717
1854	0.0184693
1866	0.01029
1878	0.00826721
1890	0.00888285
1902	0.00870695
1914	0.00923464
1926	0.0110816
1938	0.00791541
1950	0.00492514
1962	0.00615643
1974	0.00422155
1986	0.0044854
1998	0.00580463
2010	0.00483719
2022	0.00474925
2034	0.00545284
2046	0.00510104
2058	0.0039577
2070	0.0044854
2082	0.0039577
2094	0.00281437
2106	0.00307821
2118	0.00316616
2130	0.00378181
2142	0.00351796
2154	0.00272642
2166	0.00378181
2178	0.00211078
2190	0.00140718
2202	0.00123129
2214	0.000527694
2226	0.00131923
2238	0.00158308
2250	0.00193488
2262	0.00237462
2274	0.00290232
2286	0.00325411
2298	0.00404565
2310	0.00474925
2322	0.0044854
2334	0.0041336
2346	0.00536489
2358	0.00281437
2370	0.00545284
2382	0.00580463
2394	0.00360591
2406	0.0039577
2418	0.00369386
2430	0.00246257
2442	0.00299027
2454	0.00272642
2466	0.00228667
2478	0.00246257
2490	0.00228667
2502	0.00211078
2514	0.00246257
2526	0.00202283
2538	0.00211078
2550	0.00167103
2562	0.00219872
2574	0.00255052
2586	0.00290232
2598	0.00281437
2610	0.00272642
2622	0.00255052
2634	0.00140718
2646	0.00246257
2658	0.00158308
2670	0.00167103
2682	0.00483719
2694	0.00131923
2706	0.00642028
2718	0.00255052
2730	0.00853105
2742	0.00299027
2754	0.0116093
2766	0.00307821
2778	0.0128406
2790	0.00369386
2802	0.0101141
2814	0.00299027
2826	0.00510104
2838	0.00255052
2850	0.00272642
2862	0.00633233
2874	0.0046613
2886	0.00422155
2898	0.00378181
2910	0.00721182
2922	0.00518899
2934	0.00492514
2946	0.0190849
2958	0.00650823
2970	0.00659617
2982	0.0170621
2994	0.0084431
3006	0.00721182
3018	0.0128406
3030	0.0163585
3042	0.0160067
3054	0.0119611
3066	0.0126647
3078	0.0209319
3090	0.024098
3102	0.0101141
3114	0.00703592
3126	0.00527694
3138	0.00360591
3150	0.00360591
3162	0.00545284
3174	0.00378181
3186	0.00343001
3198	0.00307821
3210	0.00360591
3222	0.00237462
3234	0.00290232
3246	0.00360591
3258	0.00404565
3270	0.0041336
3282	0.0041336
3294	0.00378181
3306	0.00404565
3318	0.00325411
3330	0.0044854
3342	0.0044854
3354	0.0041336
3366	0.00219872
3378	0.00386976
3390	0.00272642
3402	0.00343001
3414	0.00290232
3426	0.00140718
3438	0.00290232
3450	0.00307821
3462	0.00255052
3474	0.00228667
3486	0.00299027
3498	0.00290232
3510	0.00378181
3522	0.00272642
3534	0.0046613
3546	0.00642028
3558	0.00686002
3570	0.00941054
3582	0.0151272
3594	0.0105539
3606	0.00633233
3618	0.00343001
3630	0.00167103
3642	0.00351796
3654	0.0039577
3666	0.00299027
3678	0.00545284
3690	0.00149513
3702	0.000791541
3714	0.00483719
3726	0.00202283
3738	0.000791541
3750	0.0041336
3762	0.00527694
3774	0.00457335
3786	0.00501309
3798	0.00571668
3810	0.00202283
3822	0.00835515
3834	0.00809131
3846	0.00483719
3858	0.00554079
3870	0.00677207
3882	0.00835515
3894	0.00422155
3906	0.00765156
3918	0.00791541
3930	0.00598053
3942	0.00738772
3954	0.00756361
3966	0.01029
