Infrared Spectrum: Phenol, 3-nitro-
Formula: C 6 H 5 N O 3
CAS: 554-84-7
Origin: Sadtler Research Labs Under US-EPA Contract
1/CM	ABSORBANCE
450	0
462	0.0492033
474	0.0680876
486	0.0563066
498	0.0653156
510	0.0829872
522	0.0772699
534	0.089051
546	0.084893
558	0.0601181
570	0.0495498
582	0.0547473
594	0.0712062
606	0.0628901
618	0.0519753
630	0.0481638
642	0.0576926
654	0.0909568
666	0.153674
678	0.152461
690	0.0803885
702	0.0564798
714	0.0864522
726	0.187977
738	0.310466
750	0.151421
762	0.0698202
774	0.0978868
786	0.152634
798	0.191442
810	0.559774
822	0.393453
834	0.086972
846	0.0751909
858	0.108975
870	0.144838
882	0.123874
894	0.102391
906	0.0867988
918	0.121969
930	0.14016
942	0.0857592
954	0.0580391
966	0.0571728
978	0.0568263
990	0.0635831
1002	0.0764037
1014	0.0609844
1026	0.0521486
1038	0.0568263
1050	0.0680876
1062	0.0965008
1074	0.129072
1086	0.127513
1098	0.111227
1110	0.0871453
1122	0.0769234
1134	0.0951148
1146	0.18919
1158	0.34321
1170	0.563066
1182	0.614002
1194	0.54089
1206	0.299724
1218	0.128899
1230	0.116251
1242	0.222628
1254	0.379246
1266	0.28032
1278	0.162336
1290	0.278761
1302	0.374222
1314	0.347542
1326	0.326405
1338	0.381672
1350	0.759359
1362	1.00538
1374	0.338359
1386	0.0999658
1398	0.0748444
1410	0.0739782
1422	0.0715527
1434	0.087665
1446	0.148649
1458	0.202877
1470	0.208941
1482	0.252253
1494	0.245497
1506	0.177409
1518	0.250348
1530	0.624743
1542	1.28587
1554	1.66096
1566	0.754162
1578	0.444735
1590	0.360189
1602	0.287423
1614	0.232849
1626	0.207381
1638	0.110881
1650	0.0576926
1662	0.0639296
1674	0.0649691
1686	0.0583856
1698	0.0545741
1710	0.0566531
1722	0.0512823
1734	0.0535346
1746	0.0602913
1758	0.0691271
1770	0.0682609
1782	0.0576926
1794	0.0474708
1806	0.0495498
1818	0.0466045
1830	0.0421
1842	0.0472975
1854	0.0466045
1866	0.0481638
1878	0.0485103
1890	0.0408872
1902	0.0410605
1914	0.0450453
1926	0.0493765
1938	0.0512823
1950	0.0459115
1962	0.039328
1974	0.0403675
1986	0.0403675
1998	0.0405407
2010	0.0429662
2022	0.0410605
2034	0.0391547
2046	0.0401942
2058	0.0415802
2070	0.0426197
2082	0.0426197
2094	0.040714
2106	0.0408872
2118	0.0412337
2130	0.040021
2142	0.0405407
2154	0.0408872
2166	0.0412337
2178	0.043486
2190	0.0424465
2202	0.0396745
2214	0.0398477
2226	0.0398477
2238	0.0396745
2250	0.0405407
2262	0.0396745
2274	0.0401942
2286	0.0419267
2298	0.0410605
2310	0.0426197
2322	0.0450453
2334	0.0436593
2346	0.0478173
2358	0.0464313
2370	0.0436593
2382	0.0460848
2394	0.0452185
2406	0.0459115
2418	0.0479905
2430	0.0488568
2442	0.0486835
2454	0.0478173
2466	0.0452185
2478	0.0452185
2490	0.046951
2502	0.0471243
2514	0.046258
2526	0.0445255
2538	0.0438325
2550	0.0446988
2562	0.044872
2574	0.0433127
2586	0.043486
2598	0.0443523
2610	0.044872
2622	0.046258
2634	0.046258
2646	0.0471243
2658	0.047644
2670	0.046258
2682	0.045565
2694	0.0472975
2706	0.0479905
2718	0.046258
2730	0.0433127
2742	0.0421
2754	0.0412337
2766	0.0417535
2778	0.0417535
2790	0.0438325
2802	0.044872
2814	0.0453918
2826	0.0464313
2838	0.048337
2850	0.0493765
2862	0.051802
2874	0.0544008
2886	0.0589053
2898	0.0604646
2910	0.0564798
2922	0.0537078
2934	0.0535346
2946	0.050416
2958	0.0481638
2970	0.0472975
2982	0.0452185
2994	0.0452185
3006	0.0460848
3018	0.050416
3030	0.0628901
3042	0.0739782
3054	0.0679144
3066	0.0758839
3078	0.0965008
3090	0.0878383
3102	0.0717259
3114	0.0589053
3126	0.0450453
3138	0.0417535
3150	0.0408872
3162	0.0403675
3174	0.040714
3186	0.0405407
3198	0.0417535
3210	0.042793
3222	0.0421
3234	0.0426197
3246	0.0426197
3258	0.0405407
3270	0.041407
3282	0.041407
3294	0.0415802
3306	0.0426197
3318	0.043486
3330	0.0453918
3342	0.0474708
3354	0.0453918
3366	0.046258
3378	0.045565
3390	0.0445255
3402	0.0445255
3414	0.045565
3426	0.044872
3438	0.0443523
3450	0.0438325
3462	0.0419267
3474	0.0429662
3486	0.0429662
3498	0.0422732
3510	0.0422732
3522	0.040714
3534	0.0410605
3546	0.042793
3558	0.0422732
3570	0.042793
3582	0.0466045
3594	0.0466045
3606	0.0478173
3618	0.0500695
3630	0.0982333
3642	0.364693
3654	0.478
3666	0.207728
3678	0.0516288
3690	0.046258
3702	0.0433127
3714	0.040021
3726	0.0408872
3738	0.0424465
3750	0.0377687
3762	0.0405407
3774	0.0445255
3786	0.0433127
3798	0.0466045
3810	0.0398477
3822	0.0471243
3834	0.0450453
3846	0.0460848
3858	0.0452185
3870	0.0486835
3882	0.0419267
3894	0.0519753
3906	0.041407
3918	0.0481638
3930	0.0492033
3942	0.0436593
3954	0.047644
3966	0.045565
