Infrared Spectrum: Benzenamine, 2,4-dichloro-
Formula: C 6 H 5 Cl 2 N
CAS: 554-00-7
Origin: Sadtler Research Labs Under US-EPA Contract
1/CM	ABSORBANCE
450	0.0900761
462	0.0730514
474	0.0631462
486	0.0547886
498	0.055872
510	0.0467405
522	0.0626819
534	0.0783136
546	0.131864
558	0.118709
570	0.0879094
582	0.069337
594	0.0501455
606	0.0530861
618	0.0862069
630	0.146722
642	0.288956
654	0.301028
666	0.160961
678	0.152913
690	0.147341
702	0.241286
714	0.399771
726	0.493407
738	0.200582
750	0.0906952
762	0.065932
774	0.0530861
786	0.0889928
798	0.234941
810	0.317588
822	0.133412
834	0.0609794
846	0.230453
858	0.360614
870	0.278741
882	0.116387
894	0.0312635
906	0.0199653
918	0.0173342
930	0.0185724
942	0.0140841
954	0.0122268
966	0.0140841
978	0.0139293
990	0.00990528
1002	0.00526218
1014	0.00479787
1026	0.013465
1038	0.0685631
1050	0.122114
1062	0.135114
1074	0.182938
1086	0.103077
1098	0.125054
1110	0.153996
1122	0.216988
1134	0.204915
1146	0.128923
1158	0.077385
1170	0.022906
1182	0.0190367
1194	0.0213583
1206	0.0092862
1218	0.00386925
1230	0.0263109
1242	0.0609794
1254	0.0394664
1266	0.0407045
1278	0.18495
1290	0.39033
1302	0.327029
1314	0.129233
1326	0.00789327
1338	0.00417879
1350	0.0077385
1362	0.0193463
1374	0.0181081
1386	0.0515384
1398	0.147341
1410	0.141305
1422	0.0936359
1434	0.0420974
1446	0.0476692
1458	0.108029
1470	0.527147
1482	1.40562
1494	1.26277
1506	0.443107
1518	0.137591
1530	0.0755278
1542	0.0682536
1554	0.0815638
1566	0.11747
1578	0.127685
1590	0.144246
1602	0.196558
1614	0.463072
1626	0.712252
1638	0.334768
1650	0.0922429
1662	0.0386925
1674	0.0335851
1686	0.0263109
1698	0.0221321
1710	0.019501
1722	0.0394664
1734	0.0526218
1746	0.0275491
1758	0.0092862
1770	0.00789327
1782	0.00603603
1794	0.0103696
1806	0.00541695
1818	0.00201201
1830	0.00634557
1842	0.013465
1854	0.0273943
1866	0.0222869
1878	0.00526218
1890	0.00386925
1902	0.00386925
1914	0.00448833
1926	0.00417879
1938	0.00417879
1950	0.00495264
1962	0.00557172
1974	0.00557172
1986	0.00680988
1998	0.00897666
2010	0.00727419
2022	0.00603603
2034	0.00526218
2046	0.00557172
2058	0.00495264
2070	0.00371448
2082	0.00433356
2094	0.00402402
2106	0.00355971
2118	0.00386925
2130	0.00433356
2142	0.00557172
2154	0.00650034
2166	0.00572649
2178	0.00541695
2190	0.00588126
2202	0.0061908
2214	0.00495264
2226	0.00433356
2238	0.00417879
2250	0.00402402
2262	0.00417879
2274	0.00479787
2286	0.00526218
2298	0.00711942
2310	0.00866712
2322	0.00665511
2334	0.00433356
2346	0.0106791
2358	0.00804804
2370	0.00386925
2382	0.00603603
2394	0.00557172
2406	0.00448833
2418	0.00402402
2430	0.00510741
2442	0.00603603
2454	0.00541695
2466	0.00541695
2478	0.0061908
2490	0.00479787
2502	0.00325017
2514	0.00495264
2526	0.00680988
2538	0.00804804
2550	0.0077385
2562	0.0061908
2574	0.00727419
2586	0.0111434
2598	0.0108339
2610	0.00696465
2622	0.00588126
2634	0.00588126
2646	0.00650034
2658	0.00634557
2670	0.00572649
2682	0.00526218
2694	0.00634557
2706	0.00650034
2718	0.00510741
2730	0.0046431
2742	0.00448833
2754	0.00526218
2766	0.00572649
2778	0.00557172
2790	0.00557172
2802	0.00541695
2814	0.00510741
2826	0.00526218
2838	0.00696465
2850	0.0103696
2862	0.0119173
2874	0.0109887
2886	0.00742896
2898	0.00572649
2910	0.00634557
2922	0.00680988
2934	0.00588126
2946	0.00495264
2958	0.00588126
2970	0.00727419
2982	0.00742896
2994	0.00634557
3006	0.00882189
3018	0.019501
3030	0.0527766
3042	0.0577292
3054	0.0338946
3066	0.0437999
3078	0.0407045
3090	0.0267752
3102	0.0139293
3114	0.00711942
3126	0.00541695
3138	0.00665511
3150	0.00680988
3162	0.0077385
3174	0.00959574
3186	0.0126911
3198	0.0162509
3210	0.0165604
3222	0.0120721
3234	0.00959574
3246	0.00742896
3258	0.00526218
3270	0.00510741
3282	0.00526218
3294	0.00541695
3306	0.00572649
3318	0.00495264
3330	0.00650034
3342	0.00526218
3354	0.00711942
3366	0.00944097
3378	0.0162509
3390	0.0354423
3402	0.123816
3414	0.218845
3426	0.158639
3438	0.0609794
3450	0.021513
3462	0.0219773
3474	0.0331208
3486	0.0747539
3498	0.139603
3510	0.146103
3522	0.112208
3534	0.0648486
3546	0.0212035
3558	0.011453
3570	0.00820281
3582	0.0061908
3594	0.00510741
3606	0.00665511
3618	0.00680988
3630	0.00495264
3642	0.00603603
3654	0.0046431
3666	0.00526218
3678	0.00603603
3690	0.00742896
3702	0.00588126
3714	0.00417879
3726	0.00371448
3738	0.00603603
3750	0.00201201
3762	0.00355971
3774	0.00371448
3786	0.00479787
3798	0
3810	0.0061908
3822	0.00479787
3834	0.00541695
3846	0.00944097
3858	0.0136198
3870	0.00913143
3882	0.00913143
3894	0.00789327
3906	0.00603603
3918	0.0106791
3930	0.00975051
3942	0.00944097
3954	0.0116078
3966	0.0140841
