Infrared Spectrum: 1,3-Dioxolan-4-one, 2,5-bis-trichloromethyl-,
Formula: C 5 H 2 Cl 6 O 3
CAS: 554-21-2
Origin: Sadtler Research Labs Under US-EPA Contract
1/CM	ABSORBANCE
450	0
462	0.00381113
474	0.00754753
486	0.0138994
498	0.0292934
510	0.0195787
522	0.0100883
534	0.0109103
546	0.010985
558	0.0171874
570	0.0502172
582	0.0215217
594	0.0175611
606	0.0194293
618	0.051637
630	0.150427
642	0.0343002
654	0.0197282
666	0.0271263
678	0.0209986
690	0.0490216
702	0.0800337
714	0.022792
726	0.0186073
738	0.0215217
750	0.0496941
762	0.0566438
774	0.03572
786	0.0976695
798	0.215142
810	0.13735
822	0.191229
834	0.202289
846	0.181365
858	0.410257
870	0.0819019
882	0.079959
894	0.0388586
906	0.110074
918	0.157826
930	0.034076
942	0.0343002
954	0.0647892
966	0.0295923
978	0.0158423
990	0.0209238
1002	0.0452104
1014	0.0941573
1026	0.0899725
1038	0.072262
1050	0.0300407
1062	0.0257812
1074	0.0307132
1086	0.0676288
1098	0.0679278
1110	0.0606044
1122	0.111195
1134	0.0659848
1146	0.0407268
1158	0.0760731
1170	0.169707
1182	0.437159
1194	0.726431
1206	0.229191
1218	0.111195
1230	0.0680025
1242	0.0895989
1254	0.216935
1266	0.167764
1278	0.0912429
1290	0.0536547
1302	0.0378124
1314	0.0246602
1326	0.0337023
1338	0.0643408
1350	0.05769
1362	0.0240624
1374	0.0168885
1386	0.0141983
1398	0.0088179
1410	0.00792117
1422	0.00769698
1434	0.00702443
1446	0.00739807
1458	0.0158423
1470	0.0103872
1482	0.00620242
1494	0.00777171
1506	0.00844426
1518	0.00724862
1530	0.00530569
1542	0.0088179
1554	0.0069497
1566	0.00493205
1578	0.009341
1590	0.00792117
1602	0.00665079
1614	0.0102377
1626	0.00680025
1638	0.0121807
1650	0.0161412
1662	0.00807062
1674	0.00769698
1686	0.0113587
1698	0.0102377
1710	0.00582878
1722	0.00665079
1734	0.0069497
1746	0.00530569
1758	0.00635188
1770	0.0118818
1782	0.0175611
1794	0.0254822
1806	0.0334034
1818	0.0563449
1830	0.0958013
1842	0.198627
1854	0.463239
1866	0.201915
1878	0.0980431
1890	0.0381113
1902	0.0176358
1914	0.0155434
1926	0.0156182
1938	0.0133763
1950	0.0103125
1962	0.00866845
1974	0.00807062
1986	0.00762226
1998	0.0074728
2010	0.00762226
2022	0.00844426
2034	0.00807062
2046	0.00739807
2058	0.00642661
2070	0.00650134
2082	0.00702443
2094	0.0079959
2106	0.00851899
2118	0.00859372
2130	0.00851899
2142	0.00807062
2154	0.0069497
2166	0.00709916
2178	0.00762226
2190	0.00822008
2202	0.00807062
2214	0.00784644
2226	0.00687498
2238	0.00627715
2250	0.00597824
2262	0.00575406
2274	0.00582878
2286	0.00605297
2298	0.00680025
2310	0.00650134
2322	0.00605297
2334	0.00515623
2346	0.00515623
2358	0.00515623
2370	0.00590351
2382	0.0061277
2394	0.00440895
2406	0.00418477
2418	0.00433422
2430	0.00440895
2442	0.00411004
2454	0.0050815
2466	0.00485732
2478	0.00463314
2490	0.00478259
2502	0.00478259
2514	0.00515623
2526	0.00530569
2538	0.0056046
2550	0.00530569
2562	0.00523096
2574	0.00478259
2586	0.00538042
2598	0.00545514
2610	0.00515623
2622	0.00545514
2634	0.0050815
2646	0.00515623
2658	0.00515623
2670	0.0056046
2682	0.00567933
2694	0.00552987
2706	0.00552987
2718	0.00567933
2730	0.00582878
2742	0.00552987
2754	0.0061277
2766	0.00567933
2778	0.00627715
2790	0.0056046
2802	0.00597824
2814	0.00552987
2826	0.00552987
2838	0.00530569
2850	0.00590351
2862	0.00605297
2874	0.00545514
2886	0.00552987
2898	0.00597824
2910	0.00545514
2922	0.00575406
2934	0.00896736
2946	0.0106861
2958	0.0341507
2970	0.0261548
2982	0.00874318
2994	0.00784644
3006	0.00627715
3018	0.0069497
3030	0.00739807
3042	0.00702443
3054	0.00702443
3066	0.00687498
3078	0.00702443
3090	0.00665079
3102	0.00650134
3114	0.00709916
3126	0.00635188
3138	0.00650134
3150	0.00672552
3162	0.00665079
3174	0.00665079
3186	0.00680025
3198	0.00672552
3210	0.00650134
3222	0.00672552
3234	0.00657606
3246	0.00642661
3258	0.00665079
3270	0.00635188
3282	0.00657606
3294	0.0056046
3306	0.00605297
3318	0.00620242
3330	0.00627715
3342	0.00627715
3354	0.00575406
3366	0.00545514
3378	0.00590351
3390	0.00515623
3402	0.00567933
3414	0.00530569
3426	0.00530569
3438	0.00567933
3450	0.00530569
3462	0.00545514
3474	0.00590351
3486	0.00515623
3498	0.00515623
3510	0.00545514
3522	0.00500678
3534	0.00567933
3546	0.00455841
3558	0.0042595
3570	0.00515623
3582	0.0061277
3594	0.00650134
3606	0.00590351
3618	0.0056046
3630	0.00739807
3642	0.00590351
3654	0.00680025
3666	0.0098641
3678	0.0079959
3690	0.00792117
3702	0.00620242
3714	0.00545514
3726	0.00396058
3738	0.00433422
3750	0.00687498
3762	0.00530569
3774	0.00642661
3786	0.00433422
3798	0.00545514
3810	0.00687498
3822	0.00627715
3834	0.00485732
3846	0.00470786
3858	0.00440895
3870	0.00455841
3882	0.00411004
3894	0.00567933
3906	0.00538042
3918	0.00411004
3930	0.00515623
3942	0.00515623
3954	0.00709916
3966	0.00784644
