Infrared Spectrum: Oxadiazole-5-methanol, 1,2,4-, 3-phenyl-, acetate
Formula: C 11 H 10 N 2 O 3
CAS: 5543-31-7
Origin: Sadtler Research Labs Under US-EPA Contract
1/CM	ABSORBANCE
450	0.0151985
462	0.0146919
474	0.0128343
486	0.0209401
498	0.00827473
510	0.0054039
522	0.0103012
534	0.0104701
546	0.00439067
558	0.0106389
570	0.0072615
582	0.0121588
594	0.0248242
606	0.0251619
618	0.0378273
630	0.0199269
642	0.0383339
654	0.0180693
666	0.0124965
678	0.0533636
690	0.159077
702	0.14067
714	0.152491
726	0.189306
738	0.0847737
750	0.0493106
762	0.0604562
774	0.075148
786	0.0585986
798	0.0376585
810	0.0499861
822	0.0439067
834	0.0555589
846	0.040867
858	0.0337744
870	0.0442445
882	0.0650157
894	0.116184
906	0.185928
918	0.0932173
930	0.0439067
942	0.0194203
954	0.0202646
966	0.0430624
978	0.0322546
990	0.0390094
1002	0.0503239
1014	0.0901776
1026	0.159922
1038	0.12581
1050	0.172587
1062	0.23659
1074	0.227639
1086	0.15418
1098	0.132565
1110	0.157389
1122	0.124121
1134	0.0325923
1146	0.0283705
1158	0.0346188
1170	0.0741348
1182	0.202984
1194	0.323559
1206	0.88776
1218	1.63046
1230	0.716862
1242	0.34129
1254	0.152829
1266	0.0925419
1278	0.097608
1290	0.123783
1302	0.110105
1314	0.0585986
1326	0.0550523
1338	0.0982835
1350	0.388068
1362	0.261752
1374	0.197242
1386	0.172249
1398	0.108078
1410	0.0562344
1422	0.0452577
1434	0.0856181
1446	0.229159
1458	0.105545
1470	0.0768368
1482	0.0834228
1494	0.0445822
1506	0.0251619
1518	0.0317479
1530	0.07785
1542	0.0327612
1554	0.0256685
1566	0.0417114
1578	0.114495
1590	0.122263
1602	0.234394
1614	0.0621449
1626	0.0207713
1638	0.0136786
1650	0.0172249
1662	0.00996345
1674	0.0130031
1686	0.0150296
1698	0.0185759
1710	0.0190825
1722	0.0310724
1734	0.0531947
1746	0.0835916
1758	0.172249
1770	0.420322
1782	0.68123
1794	0.320012
1806	0.117366
1818	0.0471153
1830	0.0302281
1842	0.0243176
1854	0.0111456
1866	0.00878134
1878	0.00743037
1890	0.0116522
1902	0.0136786
1914	0.0106389
1926	0.00607939
1938	0.00658601
1950	0.0113144
1962	0.013172
1974	0.0109767
1986	0.00810586
1998	0.0084436
2010	0.00895022
2022	0.0103012
2034	0.0106389
2046	0.0109767
2058	0.00928796
2070	0.0096257
2082	0.0084436
2094	0.0084436
2106	0.00878134
2118	0.00878134
2130	0.00928796
2142	0.00827473
2154	0.0072615
2166	0.00692375
2178	0.00658601
2190	0.00692375
2202	0.00743037
2214	0.00759924
2226	0.00759924
2238	0.00776811
2250	0.00743037
2262	0.00692375
2274	0.00658601
2286	0.00574165
2298	0.00219534
2310	0
2322	0.00168872
2334	0.00253308
2346	0.00337744
2358	0.00253308
2370	0.00168872
2382	0.00388406
2394	0.00759924
2406	0.00810586
2418	0.00827473
2430	0.00878134
2442	0.00861247
2454	0.0084436
2466	0.00861247
2478	0.00776811
2490	0.00709262
2502	0.00743037
2514	0.00675488
2526	0.00641714
2538	0.00658601
2550	0.00675488
2562	0.00692375
2574	0.00759924
2586	0.00793698
2598	0.00776811
2610	0.00827473
2622	0.00827473
2634	0.0084436
2646	0.00810586
2658	0.00709262
2670	0.00675488
2682	0.00641714
2694	0.00607939
2706	0.00624826
2718	0.00743037
2730	0.0072615
2742	0.00692375
2754	0.00709262
2766	0.00658601
2778	0.00709262
2790	0.00743037
2802	0.00793698
2814	0.0084436
2826	0.00895022
2838	0.00979458
2850	0.0104701
2862	0.0123277
2874	0.0123277
2886	0.0133409
2898	0.0140164
2910	0.014523
2922	0.0167183
2934	0.019758
2946	0.0295526
2958	0.0484663
2970	0.0464398
2982	0.0327612
2994	0.0243176
3006	0.0209401
3018	0.0222911
3030	0.0285394
3042	0.0457643
3054	0.0523503
3066	0.0663667
3078	0.103181
3090	0.0482974
3102	0.0266818
3114	0.0157051
3126	0.0119899
3138	0.0111456
3150	0.00793698
3162	0.00709262
3174	0.00641714
3186	0.00489729
3198	0.00371518
3210	0.00371518
3222	0.00354631
3234	0.00354631
3246	0.00337744
3258	0.00337744
3270	0.00287082
3282	0.00320857
3294	0.00371518
3306	0.00337744
3318	0.00287082
3330	0.00337744
3342	0.00354631
3354	0.00287082
3366	0.00287082
3378	0.00253308
3390	0.00236421
3402	0.00287082
3414	0.00337744
3426	0.00270195
3438	0.00337744
3450	0.00253308
3462	0.00168872
3474	0.00287082
3486	0.00236421
3498	0.00287082
3510	0.00371518
3522	0.00472842
3534	0.00658601
3546	0.00675488
3558	0.00405293
3570	0.00084436
3582	0.00151985
3594	0.00168872
3606	0.00219534
3618	0.00168872
3630	0.00236421
3642	0.000506616
3654	0.00084436
3666	0.00185759
3678	0.00236421
3690	0.00270195
3702	0.00185759
3714	0.000337744
3726	0.00084436
3738	0.00168872
3750	0
3762	0
3774	0
3786	0
3798	0
3810	0
3822	0
3834	0.00135098
3846	0.000168872
3858	0.000675488
3870	0.00168872
3882	0.00135098
3894	0.00168872
3906	0.00151985
3918	0.00320857
3930	0.000675488
3942	0.00320857
3954	0.00101323
3966	0.00253308
