Infrared Spectrum: Benzene, 1-methoxy-3-nitro-
Formula: C 7 H 7 N O 3
CAS: 555-03-3
Origin: Sadtler Research Labs Under US-EPA Contract
1/CM	ABSORBANCE
450	0.012955
462	0.00579288
474	0.020749
486	0.00610885
498	0.0103219
510	0.0143242
522	0.00747807
534	0.0113751
546	0.0108485
558	0.00832067
570	0.0117964
582	0.00221183
594	0.0016852
606	0.0016852
618	0.00115858
630	0.0016852
642	0.00684612
654	0.0201171
666	0.0545583
678	0.0838387
690	0.0416034
702	0.0184319
714	0.0187478
726	0.0730955
738	0.149456
750	0.0667761
762	0.0211703
774	0.0403395
786	0.0991108
798	0.310603
810	0.208754
822	0.0303336
834	0.0180106
846	0.0215916
858	0.0412874
870	0.0641429
882	0.054769
894	0.0566649
906	0.0456057
918	0.0202224
930	0.0102165
942	0.0114804
954	0.0109538
966	0.0130603
978	0.0180106
990	0.0239088
1002	0.0328614
1014	0.0577181
1026	0.122177
1038	0.206753
1050	0.201592
1062	0.0799417
1074	0.0624577
1086	0.0869985
1098	0.0874198
1110	0.0517146
1122	0.0215916
1134	0.0125337
1146	0.012323
1158	0.0140082
1170	0.0192745
1182	0.0355999
1194	0.0346519
1206	0.0332827
1218	0.0561382
1230	0.139766
1242	0.412242
1254	0.47965
1266	0.18474
1278	0.196747
1290	0.23498
1302	0.170942
1314	0.186531
1326	0.177051
1338	0.240668
1350	0.580446
1362	0.497977
1374	0.139029
1386	0.0597193
1398	0.0295963
1410	0.0266472
1422	0.0393915
1434	0.0707784
1446	0.108063
1458	0.112487
1470	0.139872
1482	0.261627
1494	0.245513
1506	0.141346
1518	0.178105
1530	0.322189
1542	0.787936
1554	0.945397
1566	0.386859
1578	0.184213
1590	0.186109
1602	0.119123
1614	0.11333
1626	0.105009
1638	0.0471856
1650	0.0214863
1662	0.0228555
1674	0.0181159
1686	0.0104272
1698	0.0124283
1710	0.0103219
1722	0.00705677
1734	0.0067408
1746	0.00558222
1758	0.00579288
1770	0.0080047
1782	0.00642483
1794	0.00568755
1806	0.00621417
1818	0.00452898
1830	0.00368637
1842	0.0046343
1854	0.00516093
1866	0.00642483
1878	0.0067408
1890	0.0033704
1902	0.00347572
1914	0.00473962
1926	0.00684612
1938	0.0092686
1950	0.00663548
1962	0.00315975
1974	0.00326508
1986	0.00347572
1998	0.00305442
2010	0.0029491
2022	0.00273845
2034	0.0050556
2046	0.0071621
2058	0.00653015
2070	0.00621417
2082	0.00600353
2094	0.00400235
2106	0.00315975
2118	0.0021065
2130	0.00231715
2142	0.00368637
2154	0.0037917
2166	0.00315975
2178	0.00221183
2190	0.00105325
2202	0.00063195
2214	0.000526625
2226	0
2238	0.00063195
2250	0.00063195
2262	0.000737275
2274	0.0016852
2286	0.00231715
2298	0.00189585
2310	0.0021065
2322	0.00326508
2334	0.0025278
2346	0.00410767
2358	0.00147455
2370	0.00231715
2382	0.0037917
2394	0.00242247
2406	0.00157987
2418	0.0012639
2430	0.00115858
2442	0.0021065
2454	0.00179053
2466	0.00105325
2478	0.00231715
2490	0.0037917
2502	0.00484495
2514	0.00442365
2526	0.00400235
2538	0.00358105
2550	0.0037917
2562	0.00452898
2574	0.00473962
2586	0.00484495
2598	0.00473962
2610	0.00473962
2622	0.00400235
2634	0.0029491
2646	0.00284377
2658	0.00284377
2670	0.0021065
2682	0.00315975
2694	0.00400235
2706	0.004213
2718	0.00358105
2730	0.00326508
2742	0.0021065
2754	0.00231715
2766	0.0025278
2778	0.00389703
2790	0.0058982
2802	0.00663548
2814	0.00905795
2826	0.0155881
2838	0.0346519
2850	0.0591926
2862	0.038233
2874	0.0269632
2886	0.0321241
2898	0.0400235
2910	0.0445525
2922	0.049924
2934	0.0527678
2946	0.0801523
2958	0.0931073
2970	0.0811002
2982	0.0464483
2994	0.0307549
3006	0.046659
3018	0.0744648
3030	0.0391809
3042	0.021381
3054	0.0187478
3066	0.0185372
3078	0.0288591
3090	0.0388649
3102	0.0274898
3114	0.0142189
3126	0.00568755
3138	0.00358105
3150	0.00326508
3162	0.00263313
3174	0.00221183
3186	0.00231715
3198	0.0029491
3210	0.00231715
3222	0.0016852
3234	0.00200118
3246	0.00115858
3258	0.0012639
3270	0.00179053
3282	0.000737275
3294	0.00115858
3306	0.0012639
3318	0.00063195
3330	0.0012639
3342	0.00105325
3354	0.00105325
3366	0.00179053
3378	0.000737275
3390	0.00136922
3402	0.0012639
3414	0.00115858
3426	0.000737275
3438	0.00115858
3450	0.000526625
3462	0.00105325
3474	0.00157987
3486	0.00115858
3498	0.0008426
3510	0.000737275
3522	0.00136922
3534	0.00147455
3546	0.00147455
3558	0.00021065
3570	0.00115858
3582	0.00147455
3594	0.00242247
3606	0.0012639
3618	0.00221183
3630	0.00400235
3642	0.00231715
3654	0.00179053
3666	0.00147455
3678	0.00473962
3690	0.00263313
3702	0.00284377
3714	0.00526625
3726	0.00368637
3738	0.00315975
3750	0.004213
3762	0.00400235
3774	0.00389703
3786	0.0016852
3798	0.00105325
3810	0.00431832
3822	0.00400235
3834	0.004213
3846	0.00442365
3858	0.00400235
3870	0.00368637
3882	0.0054769
3894	0.00326508
3906	0.00610885
3918	0.00495027
3930	0.00305442
3942	0.00315975
3954	0.00495027
3966	0.0050556
