Infrared Spectrum: Valeronitrile, 4-methyl-2-phenyl-,
Formula: C 12 H 15 N
CAS: 5558-31-6
Origin: Sadtler Research Labs Under US-EPA Contract
1/CM	ABSORBANCE
450	0
462	0.0149468
474	0.00686746
486	0.0319135
498	0.024844
510	0.0362561
522	0.0324184
534	0.012826
546	0.00666547
558	0.0201984
570	0.0428206
582	0.0263589
594	0.0151488
606	0.0103012
618	0.0170676
630	0.0204004
642	0.025349
654	0.0239351
666	0.0535258
678	0.118868
690	0.293281
702	0.438305
714	0.179463
726	0.177746
738	0.207135
750	0.246824
762	0.134824
774	0.0536268
786	0.025046
798	0.0162597
810	0.00706944
822	0.00979622
834	0.012927
846	0.00949325
858	0.0110081
870	0.013028
882	0.00666547
894	0.0150478
906	0.0287827
918	0.0265609
930	0.0263589
942	0.0204004
954	0.0176736
966	0.0109071
978	0.0113111
990	0.00838234
1002	0.0143409
1014	0.0147448
1026	0.0558486
1038	0.0516069
1050	0.0109071
1062	0.0175726
1074	0.038276
1086	0.0260559
1098	0.0225212
1110	0.0299946
1122	0.0298936
1134	0.0193905
1146	0.0135329
1158	0.0313075
1170	0.0574644
1182	0.0349432
1194	0.0240361
1206	0.0171686
1218	0.0206024
1230	0.0163607
1242	0.012321
1254	0.0116141
1266	0.0200974
1278	0.0269649
1290	0.0364581
1302	0.0469613
1314	0.0404978
1326	0.0357512
1338	0.0471633
1350	0.0599892
1362	0.0717043
1374	0.105335
1386	0.104224
1398	0.0921047
1410	0.0391849
1422	0.0480722
1434	0.0664527
1446	0.144217
1458	0.195722
1470	0.182897
1482	0.133814
1494	0.192693
1506	0.142399
1518	0.0235311
1530	0.0139369
1542	0.012321
1554	0.0116141
1566	0.0145428
1578	0.0236321
1590	0.0514049
1602	0.0890749
1614	0.0467593
1626	0.0154518
1638	0.012018
1650	0.0140379
1662	0.00999821
1674	0.012321
1686	0.0119171
1698	0.0169667
1710	0.0133309
1722	0.0113111
1734	0.0145428
1746	0.0155528
1758	0.00989722
1770	0.0105032
1782	0.0142399
1794	0.0323174
1806	0.0233292
1818	0.0107052
1830	0.00737242
1842	0.00747341
1854	0.00969523
1866	0.0165627
1878	0.0186835
1890	0.0160577
1902	0.00919027
1914	0.0075744
1926	0.0115131
1938	0.0220163
1950	0.02545
1962	0.0222182
1974	0.00929126
1986	0.00494861
1998	0.00424166
2010	0.00424166
2022	0.00484762
2034	0.00444365
2046	0.00403968
2058	0.00414067
2070	0.00333274
2082	0.00353472
2094	0.00414067
2106	0.00393869
2118	0.00393869
2130	0.00393869
2142	0.00403968
2154	0.0037367
2166	0.00403968
2178	0.0038377
2190	0.00434266
2202	0.00454464
2214	0.00555456
2226	0.00929126
2238	0.0209053
2250	0.0201984
2262	0.0117151
2274	0.00807936
2286	0.00727142
2298	0.00605952
2310	0.00666547
2322	0.00929126
2334	0.00777638
2346	0.0088873
2358	0.00919027
2370	0.00858432
2382	0.00747341
2394	0.00787738
2406	0.00807936
2418	0.00828134
2430	0.0075744
2442	0.00676646
2454	0.0063625
2466	0.00717043
2478	0.00717043
2490	0.00686746
2502	0.00686746
2514	0.00676646
2526	0.00706944
2538	0.00737242
2550	0.00807936
2562	0.0088873
2574	0.00898829
2586	0.0104022
2598	0.0109071
2610	0.0114121
2622	0.0111091
2634	0.0116141
2646	0.0110081
2658	0.0107052
2670	0.0100992
2682	0.0105032
2694	0.0110081
2706	0.0117151
2718	0.0135329
2730	0.0187845
2742	0.0204004
2754	0.0196934
2766	0.0187845
2778	0.0212083
2790	0.0217133
2802	0.0238341
2814	0.0280758
2826	0.0356502
2838	0.0436285
2850	0.063625
2862	0.114121
2874	0.216426
2886	0.300855
2898	0.211376
2910	0.26066
2922	0.360743
2934	0.510717
2946	0.582623
2958	0.618879
2970	1.00992
2982	0.388213
2994	0.149973
3006	0.088873
3018	0.0941245
3030	0.175625
3042	0.221172
3054	0.135632
3066	0.196227
3078	0.269144
3090	0.157346
3102	0.108162
3114	0.0671597
3126	0.0358522
3138	0.0223192
3150	0.0205014
3162	0.0205014
3174	0.0207034
3186	0.0197944
3198	0.0171686
3210	0.0147448
3222	0.012119
3234	0.00929126
3246	0.00807936
3258	0.00838234
3270	0.00818035
3282	0.00838234
3294	0.0062615
3306	0.00717043
3318	0.0075744
3330	0.0075744
3342	0.00787738
3354	0.00848333
3366	0.00919027
3378	0.00767539
3390	0.00777638
3402	0.00717043
3414	0.00595853
3426	0.00717043
3438	0.00666547
3450	0.00656448
3462	0.0062615
3474	0.0063625
3486	0.00545357
3498	0.00474662
3510	0.00565555
3522	0.00565555
3534	0.00656448
3546	0.00676646
3558	0.0063625
3570	0.00585754
3582	0.00545357
3594	0.0075744
3606	0.00565555
3618	0.0063625
3630	0.00807936
3642	0.00676646
3654	0.00848333
3666	0.00575654
3678	0.00979622
3690	0.00818035
3702	0.00676646
3714	0.00807936
3726	0.00676646
3738	0.00646349
3750	0.00828134
3762	0.00535258
3774	0.00646349
3786	0.00535258
3798	0.00696845
3810	0.00585754
3822	0.00919027
3834	0.00858432
3846	0.00676646
3858	0.00999821
3870	0.00868531
3882	0.00545357
3894	0.00747341
3906	0.00818035
3918	0.00706944
3930	0.0062615
3942	0.00585754
3954	0.00777638
3966	0.00525158
