Infrared Spectrum: Benzeneacetonitrile, .alpha.-ethyl-.alpha.-phenyl-
Formula: C 16 H 15 N
CAS: 5558-68-9
Origin: Sadtler Research Labs Under US-EPA Contract
1/CM	ABSORBANCE
450	0
462	0.0249546
474	0.0293199
486	0.0252456
498	0.0360132
510	0.0403057
522	0.0483814
534	0.082503
546	0.0461988
558	0.0225537
570	0.0184795
582	0.0185523
594	0.02721
606	0.0396509
618	0.0271372
630	0.0256822
642	0.10171
654	0.0566754
666	0.0509278
678	0.123027
690	0.386105
702	0.63376
714	0.163842
726	0.0771192
738	0.131248
750	0.360132
762	0.237033
774	0.0649693
786	0.0556568
798	0.0413243
810	0.0256822
822	0.0169517
834	0.0169517
846	0.0179702
858	0.0169517
870	0.0232813
882	0.0368135
894	0.0355767
906	0.0514371
918	0.0494
930	0.0388506
942	0.050273
954	0.0288833
966	0.0342671
978	0.0235723
990	0.0252456
1002	0.044671
1014	0.0269917
1026	0.0656241
1038	0.0823575
1050	0.0268462
1062	0.0285923
1074	0.0491089
1086	0.0543472
1098	0.0440889
1110	0.0405967
1122	0.031066
1134	0.0293199
1146	0.0228448
1158	0.0245909
1170	0.0311387
1182	0.054129
1194	0.0608951
1206	0.0364498
1218	0.0277193
1230	0.027792
1242	0.0318663
1254	0.0341216
1266	0.0802477
1278	0.119026
1290	0.0525284
1302	0.0542017
1314	0.0587852
1326	0.0523101
1338	0.0380503
1350	0.0253911
1362	0.0229903
1374	0.0297564
1386	0.0574029
1398	0.0431431
1410	0.0260459
1422	0.0297564
1434	0.0540562
1446	0.190761
1458	0.167116
1470	0.0954532
1482	0.110659
1494	0.280758
1506	0.119244
1518	0.0436524
1530	0.0301929
1542	0.0271372
1554	0.022772
1566	0.0252456
1578	0.0443799
1590	0.0873048
1602	0.121426
1614	0.03725
1626	0.0103311
1638	0.0152056
1650	0.0466353
1662	0.0518736
1674	0.0785743
1686	0.0964718
1698	0.050273
1710	0.0349947
1722	0.0273555
1734	0.0283741
1746	0.027792
1758	0.0231358
1770	0.022772
1782	0.0270645
1794	0.0429249
1806	0.041106
1818	0.0253911
1830	0.0188433
1842	0.018043
1854	0.0202256
1866	0.0268462
1878	0.0305567
1890	0.0293199
1902	0.0217534
1914	0.0188433
1926	0.0203711
1938	0.0298291
1950	0.0397964
1962	0.0355767
1974	0.0196436
1986	0.0146963
1998	0.0125137
2010	0.0118589
2022	0.0115679
2034	0.0112769
2046	0.0109131
2058	0.0109131
2070	0.0111314
2082	0.0110586
2094	0.0110586
2106	0.0108403
2118	0.0106221
2130	0.0106948
2142	0.0106221
2154	0.0111314
2166	0.0110586
2178	0.0116406
2190	0.0117134
2202	0.0114951
2214	0.0120044
2226	0.0179702
2238	0.0242271
2250	0.0143325
2262	0.0124409
2274	0.0121499
2286	0.0125137
2298	0.013314
2310	0.014187
2322	0.0171699
2334	0.0128775
2346	0.0152783
2358	0.0149873
2370	0.013896
2382	0.0139688
2394	0.0120772
2406	0.0122227
2418	0.0126592
2430	0.0122954
2442	0.0116406
2454	0.0109859
2466	0.0109859
2478	0.0109131
2490	0.0105493
2502	0.0103311
2514	0.0101856
2526	0.0101128
2538	0.0101856
2550	0.0106221
2562	0.0108403
2574	0.0115679
2586	0.0125137
2598	0.013023
2610	0.0121499
2622	0.0117861
2634	0.0129502
2646	0.0129502
2658	0.0125137
2670	0.0116406
2682	0.0114224
2694	0.0110586
2706	0.0112041
2718	0.0113496
2730	0.0120044
2742	0.013314
2754	0.0160059
2766	0.0169517
2778	0.0167334
2790	0.0169517
2802	0.0164424
2814	0.0162969
2826	0.017461
2838	0.0210259
2850	0.0270645
2862	0.0339761
2874	0.0557296
2886	0.0900695
2898	0.0918155
2910	0.0534742
2922	0.0569664
2934	0.0920338
2946	0.182831
2958	0.157585
2970	0.127829
2982	0.256021
2994	0.146599
3006	0.0595855
3018	0.072754
3030	0.140561
3042	0.177738
3054	0.136923
3066	0.252675
3078	0.288542
3090	0.154238
3102	0.115897
3114	0.0655514
3126	0.0328121
3138	0.0231358
3150	0.0218262
3162	0.0215352
3174	0.0181885
3186	0.0149146
3198	0.0143325
3210	0.013605
3222	0.0128775
3234	0.0125864
3246	0.0121499
3258	0.0116406
3270	0.0116406
3282	0.0109859
3294	0.0106221
3306	0.0103311
3318	0.0102583
3330	0.0111314
3342	0.0110586
3354	0.0115679
3366	0.0117861
3378	0.013023
3390	0.013314
3402	0.013605
3414	0.013605
3426	0.0135322
3438	0.0134595
3450	0.0128775
3462	0.0128775
3474	0.0123682
3486	0.0114224
3498	0.0112769
3510	0.0111314
3522	0.0113496
3534	0.0112769
3546	0.0112041
3558	0.0114224
3570	0.0111314
3582	0.0109131
3594	0.0109131
3606	0.0114224
3618	0.0114951
3630	0.0122954
3642	0.012732
3654	0.0140415
3666	0.013023
3678	0.0123682
3690	0.0137505
3702	0.0134595
3714	0.0143325
3726	0.013314
3738	0.0125137
3750	0.0125137
3762	0.0120044
3774	0.0120044
3786	0.0112769
3798	0.0114951
3810	0.0118589
3822	0.0112769
3834	0.0113496
3846	0.0107676
3858	0.0112769
3870	0.0112041
3882	0.0105493
3894	0.0114224
3906	0.0120044
3918	0.0120772
3930	0.0124409
3942	0.0135322
3954	0.0124409
3966	0.0136778
