Infrared Spectrum: Cyclotetrasiloxane, octamethyl-
Formula: C 8 H 24 O 4 Si 4
CAS: 556-67-2
Origin: Sadtler Research Labs Under US-EPA Contract
1/CM	ABSORBANCE
450	0.0128826
462	0.01027
474	0.01027
486	0.0207202
498	0.0127024
510	0.00441431
522	0.00585572
534	0.0114412
546	0.016396
558	0.0146843
570	0.0100899
582	0.00999977
594	0.0134231
606	0.0205401
618	0.0181077
630	0.0189185
642	0.0163059
654	0.0193689
666	0.0176572
678	0.0246841
690	0.0453143
702	0.0278372
714	0.02045
726	0.0237832
738	0.026576
750	0.0321614
762	0.0306299
774	0.0385577
786	0.0587374
798	0.121889
810	0.36828
822	0.285939
834	0.127835
846	0.0725208
858	0.0477466
870	0.0386478
882	0.0311704
894	0.0304497
906	0.0263057
918	0.0218914
930	0.0193689
942	0.0162158
954	0.0172969
966	0.0166663
978	0.0201797
990	0.0247742
1002	0.0381072
1014	0.0556744
1026	0.0722506
1038	0.087025
1050	0.141168
1062	0.311614
1074	0.661336
1086	0.90088
1098	0.500619
1110	0.193509
1122	0.0977455
1134	0.0765748
1146	0.0758541
1158	0.0644129
1170	0.0424314
1182	0.0289182
1194	0.0227923
1206	0.0196392
1218	0.018378
1230	0.0250445
1242	0.0338731
1254	0.0817098
1266	0.312786
1278	0.0896376
1290	0.0268462
1302	0.018468
1314	0.0167564
1326	0.0131528
1338	0.0140537
1350	0.0144141
1362	0.0118015
1374	0.0116214
1386	0.0124321
1398	0.0142339
1410	0.0169365
1422	0.0126123
1434	0.0111709
1446	0.0121619
1458	0.0067566
1470	0.0107205
1482	0.011261
1494	0.0120718
1506	0.00585572
1518	0.00882862
1530	0.0113511
1542	0.00774757
1554	0.0144141
1566	0.0129727
1578	0.00846827
1590	0.00999977
1602	0.00846827
1614	0.0109907
1626	0.0109907
1638	0.0104502
1650	0.0107205
1662	0.01027
1674	0.00891871
1686	0.00495484
1698	0.00567554
1710	0.00909889
1722	0.0105403
1734	0.0052251
1746	0.00711695
1758	0.01027
1770	0.0082881
1782	0.0097295
1794	0.00846827
1806	0.00873854
1818	0.00729713
1830	0.00684669
1842	0.0067566
1854	0.0067566
1866	0.00774757
1878	0.00711695
1890	0.00756739
1902	0.00873854
1914	0.00837818
1926	0.00981959
1938	0.00855836
1950	0.0100899
1962	0.00855836
1974	0.00891871
1986	0.0067566
1998	0.00693678
2010	0.00657642
2022	0.00738722
2034	0.00666651
2046	0.00783766
2058	0.00855836
2070	0.00846827
2082	0.0074773
2094	0.00801783
2106	0.00666651
2118	0.0060359
2130	0.00612598
2142	0.00567554
2154	0.00648634
2166	0.00621607
2178	0.00666651
2190	0.00630616
2202	0.00684669
2214	0.00684669
2226	0.0067566
2238	0.0067566
2250	0.00684669
2262	0.00576563
2274	0.00549537
2286	0.00621607
2298	0.00594581
2310	0.00756739
2322	0.00657642
2334	0.00837818
2346	0.0118916
2358	0.0149546
2370	0.0170266
2382	0.00954933
2394	0.00594581
2406	0.00504493
2418	0.00459449
2430	0.00468458
2442	0.00423414
2454	0.00405396
2466	0.00360352
2478	0.00441431
2490	0.00486475
2502	0.0052251
2514	0.00513502
2526	0.00495484
2538	0.00540528
2550	0.00567554
2562	0.0052251
2574	0.00432422
2586	0.00468458
2598	0.00405396
2610	0.00396387
2622	0.00387378
2634	0.0045044
2646	0.00414405
2658	0.00504493
2670	0.00504493
2682	0.00477466
2694	0.00423414
2706	0.00405396
2718	0.00351343
2730	0.0029729
2742	0.0029729
2754	0.0029729
2766	0.00279273
2778	0.0037837
2790	0.0045044
2802	0.00621607
2814	0.00720704
2826	0.00720704
2838	0.00792774
2850	0.00738722
2862	0.0074773
2874	0.00837818
2886	0.00855836
2898	0.0120718
2910	0.0175672
2922	0.0137835
2934	0.0111709
2946	0.0145943
2958	0.0353145
2970	0.105223
2982	0.0374766
2994	0.0129727
3006	0.00981959
3018	0.00792774
3030	0.00765748
3042	0.00774757
3054	0.00738722
3066	0.00846827
3078	0.0090088
3090	0.00891871
3102	0.00945924
3114	0.00846827
3126	0.00837818
3138	0.0060359
3150	0.0060359
3162	0.00459449
3174	0.00396387
3186	0.00405396
3198	0.0029729
3210	0.00414405
3222	0.00423414
3234	0.00441431
3246	0.00459449
3258	0.00621607
3270	0.00387378
3282	0.00423414
3294	0.00459449
3306	0.00495484
3318	0.00306299
3330	0.00189185
3342	0.00261255
3354	0.00216211
3366	0.00189185
3378	0.00315308
3390	0.00441431
3402	0.00477466
3414	0.00486475
3426	0.00540528
3438	0.00468458
3450	0.00243238
3462	0.00414405
3474	0.00189185
3486	0.000360352
3498	0.00180176
3510	0.00135132
3522	0.00252246
3534	0.00405396
3546	0.00396387
3558	0.00495484
3570	0.00531519
3582	0.00495484
3594	0.00396387
3606	0.0037837
3618	0.0022522
3630	0.00171167
3642	0.00324317
3654	0.00171167
3666	0.00459449
3678	0.00207202
3690	0.00702686
3702	0.00729713
3714	0.00801783
3726	0.00846827
3738	0.0082881
3750	0.00585572
3762	0.00738722
3774	0.0097295
3786	0.00846827
3798	0.00756739
3810	0.00954933
3822	0.0097295
3834	0.0107205
3846	0.012252
3858	0.0138736
3870	0.012252
3882	0.0129727
3894	0.0144141
3906	0.0110808
3918	0.011261
3930	0.0109907
3942	0.00846827
3954	0.00495484
3966	0.0052251
