Infrared Spectrum: 1,2-Cyclobutanedimethanol, trans-
Formula: C 6 H 12 O 2
CAS: 55659-54-6
Origin: Sadtler Research Labs Under US-EPA Contract
1/CM	ABSORBANCE
450	0.0986622
462	0
474	0.0188653
486	0.0520847
498	0.0408944
510	0.0580607
522	0.0415975
534	0.0267747
546	0.0366175
558	0.0314032
570	0.0105458
582	0.0216776
594	0.0328679
606	0.0314618
618	0.0437066
630	0.044937
642	0.0486866
654	0.0360902
666	0.0216776
678	0.0260717
690	0.0235524
702	0.0234938
714	0.0224392
726	0.023318
738	0.0236696
750	0.0232594
762	0.0231423
774	0.0222634
786	0.0261888
798	0.037262
810	0.0314618
822	0.0291182
834	0.0277707
846	0.0379064
858	0.0435895
870	0.0354457
882	0.0437066
894	0.0361488
906	0.038961
918	0.0512645
930	0.0647983
942	0.0812616
954	0.111552
966	0.135045
978	0.135104
990	0.174416
1002	0.318602
1014	0.458451
1026	0.457924
1038	0.435367
1050	0.41035
1062	0.29417
1074	0.249292
1086	0.240562
1098	0.211913
1110	0.178811
1122	0.140318
1134	0.110731
1146	0.0872375
1158	0.0843081
1170	0.082199
1182	0.0853041
1194	0.0899912
1206	0.0960257
1218	0.107685
1230	0.123035
1242	0.134049
1254	0.132878
1266	0.115946
1278	0.0901083
1290	0.0760472
1302	0.0735865
1314	0.0756371
1326	0.0810272
1338	0.0874133
1350	0.0964358
1362	0.1112
1374	0.134928
1386	0.154789
1398	0.148521
1410	0.128308
1422	0.0909872
1434	0.0628063
1446	0.0571819
1458	0.06058
1470	0.0710087
1482	0.053901
1494	0.0331608
1506	0.0247241
1518	0.0195098
1530	0.0178108
1542	0.0132409
1554	0.0142955
1566	0.0133581
1578	0.0142369
1590	0.0130651
1602	0.011952
1614	0.0135924
1626	0.0128308
1638	0.010663
1650	0.00954984
1662	0.0110145
1674	0.00919832
1686	0.00837808
1698	0.0092569
1710	0.0100771
1722	0.0097842
1734	0.0103701
1746	0.0134167
1758	0.0116004
1770	0.011659
1782	0.0112489
1794	0.0121277
1806	0.011659
1818	0.0108974
1830	0.0110145
1842	0.0108974
1854	0.00966702
1866	0.00972561
1878	0.0100185
1890	0.00984278
1902	0.00966702
1914	0.00984278
1926	0.00937408
1938	0.00972561
1950	0.00896396
1962	0.00931549
1974	0.00949126
1986	0.010663
1998	0.0114247
2010	0.0127136
2022	0.0137096
2034	0.0131823
2046	0.0127722
2058	0.0112489
2070	0.0110145
2082	0.0108974
2094	0.010663
2106	0.0106044
2118	0.00960843
2130	0.00960843
2142	0.00937408
2154	0.00990137
2166	0.0104873
2178	0.0092569
2190	0.00861244
2202	0.00755785
2214	0.00785079
2226	0.00714774
2238	0.00761644
2250	0.00749926
2262	0.00761644
2274	0.00749926
2286	0.00738209
2298	0.00913973
2310	0.0101943
2322	0.0108974
2334	0.0114832
2346	0.0124207
2358	0.0108974
2370	0.00890538
2382	0.00837808
2394	0.00644468
2406	0.00697197
2418	0.00714774
2430	0.00744068
2442	0.00656186
2454	0.00621033
2466	0.00603456
2478	0.00562445
2490	0.00492139
2502	0.00415975
2514	0.00415975
2526	0.0039254
2538	0.00386681
2550	0.00427692
2562	0.00456986
2574	0.00509716
2586	0.00533151
2598	0.00550727
2610	0.00603456
2622	0.00650327
2634	0.00843667
2646	0.00931549
2658	0.0121277
2670	0.0125378
2682	0.0142955
2694	0.0152329
2706	0.017342
2718	0.0195098
2730	0.0220877
2742	0.0256615
2754	0.0295284
2766	0.0337467
2778	0.0388438
2790	0.0442339
2802	0.0492139
2814	0.0550141
2826	0.0688995
2838	0.103173
2850	0.179631
2862	0.332428
2874	0.477844
2886	0.445855
2898	0.411932
2910	0.502509
2922	0.58588
2934	0.535201
2946	0.512469
2958	0.478605
2970	0.486749
2982	0.539244
2994	0.228317
3006	0.0571819
3018	0.0267161
3030	0.0207402
3042	0.0181037
3054	0.0137682
3066	0.010663
3078	0.00861244
3090	0.00679621
3102	0.00667903
3114	0.00615174
3126	0.00591739
3138	0.00462845
3150	0.00527292
3162	0.00615174
3174	0.00568304
3186	0.00550727
3198	0.00521433
3210	0.00480422
3222	0.00369104
3234	0.0053901
3246	0.00544868
3258	0.00515574
3270	0.00503857
3282	0.00433551
3294	0.00492139
3306	0.00503857
3318	0.00521433
3330	0.00544868
3342	0.00673762
3354	0.00644468
3366	0.00697197
3378	0.0077922
3390	0.00738209
3402	0.00949126
3414	0.011659
3426	0.0128308
3438	0.0120691
3450	0.0120105
3462	0.0122449
3474	0.0115418
3486	0.010956
3498	0.0107802
3510	0.0118934
3522	0.0138854
3534	0.0210331
3546	0.0444683
3558	0.0783322
3570	0.0894053
3582	0.0746997
3594	0.0540181
3606	0.04025
3618	0.0313446
3630	0.0277121
3642	0.0418904
3654	0.0799726
3666	0.134752
3678	0.118348
3690	0.0503857
3702	0.017635
3714	0.00738209
3726	0.00667903
3738	0.00515574
3750	0.00351528
3762	0.00351528
3774	0.00351528
3786	0.00351528
3798	0.00351528
3810	0.00351528
3822	0.00345669
3834	0.00351528
3846	0.00404257
3858	0.00357387
3870	0.00351528
3882	0.00351528
3894	0.00351528
3906	0.00351528
3918	0.00351528
3930	0.00351528
3942	0.00351528
3954	0.00351528
3966	0.00351528
