Infrared Spectrum: 6-Phenylhexanoic acid
Formula: C 12 H 16 O 2
CAS: 5581-75-9
Origin: Sadtler Research Labs Under US-EPA Contract
1/CM	ABSORBANCE
450	0.0184908
462	0
474	0.0230695
486	0.0384492
498	0.0401515
510	0.0355728
522	0.0366294
534	0.0463738
546	0.0672126
558	0.0850577
570	0.0918084
582	0.0963283
594	0.102844
606	0.0961522
618	0.101083
630	0.0920432
642	0.073435
654	0.0498958
666	0.0474304
678	0.0631036
690	0.114467
702	0.154266
714	0.0881102
726	0.102316
738	0.137243
750	0.0702651
762	0.038684
774	0.0243609
786	0.013149
798	0.0105662
810	0.00804204
822	0.0126794
834	0.00945086
846	0.00898125
858	0.00399167
870	0.0116228
882	0.00903995
894	0.0152623
906	0.0149688
918	0.0187256
930	0.017082
942	0.0133251
954	0.0139121
966	0.0115054
978	0.0142056
990	0.0162015
1002	0.0171407
1014	0.0280004
1026	0.0476065
1038	0.0662147
1050	0.0912801
1062	0.0917497
1074	0.109477
1086	0.13513
1098	0.159432
1110	0.257932
1122	0.361833
1134	0.255467
1146	0.174225
1158	0.149805
1170	0.132312
1182	0.1184
1194	0.0960935
1206	0.0786593
1218	0.0619296
1230	0.0542397
1242	0.0470195
1254	0.0471956
1266	0.0406211
1278	0.0415603
1290	0.0389188
1302	0.0395058
1314	0.0373925
1326	0.0405624
1338	0.0511286
1350	0.0662734
1362	0.0737285
1374	0.0864666
1386	0.0855274
1398	0.0562356
1410	0.0362185
1422	0.0336357
1434	0.0420886
1446	0.0565878
1458	0.0748438
1470	0.0451411
1482	0.0242435
1494	0.0571161
1506	0.0342227
1518	0.00827684
1530	0.00475478
1542	0.00551789
1554	0.00316985
1566	0.00704412
1578	0.00862905
1590	0.016495
1602	0.0334009
1614	0.0222477
1626	0.00774853
1638	0.00481348
1650	0.00622231
1662	0.00622231
1674	0.00898125
1686	0.0119163
1698	0.0203692
1710	0.0257697
1722	0.0451998
1734	0.0797747
1746	0.143817
1758	0.248951
1770	0.448241
1782	0.568813
1794	0.310235
1806	0.161017
1818	0.0696194
1830	0.0295853
1842	0.0156732
1854	0.011388
1866	0.00939216
1878	0.00974437
1890	0.00669191
1902	0.00487218
1914	0.00446128
1926	0.0059875
1938	0.00997917
1950	0.00986177
1962	0.00516569
1974	0.00281765
1986	0.00240674
1998	0.00246544
2010	0.00234804
2022	0.00129142
2034	0.00129142
2046	0.00135012
2058	0.00105662
2070	0.000939216
2082	0.00111532
2094	0.00117402
2106	0.00140882
2118	0.00117402
2130	0.00123272
2142	0.00199583
2154	0.00270025
2166	0.00240674
2178	0.00293505
2190	0.00340466
2202	0.00340466
2214	0.00340466
2226	0.00311115
2238	0.00393297
2250	0.00287635
2262	0.00322856
2274	0.00281765
2286	0.00252414
2298	0.00234804
2310	0.00240674
2322	0.000645711
2334	0.000645711
2346	0.00164363
2358	0.000645711
2370	0.0055766
2382	0.00487218
2394	0.00346336
2406	0.00316985
2418	0.00258284
2430	0.00275895
2442	0.00293505
2454	0.00246544
2466	0.00234804
2478	0.00252414
2490	0.00299375
2502	0.00293505
2514	0.00322856
2526	0.00363946
2538	0.00346336
2550	0.00340466
2562	0.00322856
2574	0.00316985
2586	0.00358076
2598	0.00399167
2610	0.00475478
2622	0.00463738
2634	0.00475478
2646	0.00516569
2658	0.00498958
2670	0.00498958
2682	0.00516569
2694	0.0055766
2706	0.00504829
2718	0.00428517
2730	0.00440257
2742	0.00405037
2754	0.00457868
2766	0.00551789
2778	0.0058701
2790	0.00733762
2802	0.00857035
2814	0.0112706
2826	0.0149688
2838	0.0218955
2850	0.0432626
2862	0.107247
2874	0.124153
2886	0.0759004
2898	0.0648059
2910	0.0945673
2922	0.172933
2934	0.290629
2946	0.322797
2958	0.184028
2970	0.0895777
2982	0.0533592
2994	0.0352793
3006	0.0349858
3018	0.0483109
3030	0.106131
3042	0.092278
3054	0.0487218
3066	0.0811248
3078	0.0885211
3090	0.0552963
3102	0.0330487
3114	0.022189
3126	0.00962696
3138	0.00669191
3150	0.00545919
3162	0.00540049
3174	0.00463738
3186	0.00352206
3198	0.00328726
3210	0.00252414
3222	0.00223064
3234	0.00305245
3246	0.00299375
3258	0.00205454
3270	0.00193713
3282	0.00205454
3294	0.00158493
3306	0.000821814
3318	0.00246544
3330	0.00181973
3342	0.00117402
3354	0.00129142
3366	0.00135012
3378	0.00252414
3390	0.00146752
3402	0.00187843
3414	0.00129142
3426	0.00270025
3438	0.00205454
3450	0.00334596
3462	0.00281765
3474	0.00252414
3486	0.00387427
3498	0.00434387
3510	0.0058114
3522	0.00751373
3534	0.00933346
3546	0.0150862
3558	0.0336357
3570	0.143876
3582	0.201521
3594	0.0368642
3606	0.014323
3618	0.010801
3630	0.00927476
3642	0.00545919
3654	0.00921606
3666	0.00299375
3678	0.00763113
3690	0.00786593
3702	0.00305245
3714	0.00804204
3726	0.00522439
3738	0.00956826
3750	0.0103901
3762	0.00369816
3774	0.00152623
3786	0.00322856
3798	0.00264154
3810	0.00334596
3822	0.00657451
3834	0.0056353
3846	0.00410907
3858	0.00722022
3870	0.00745503
3882	0.00675061
3894	0.00428517
3906	0.00663321
3918	0.00522439
3930	0.00393297
3942	0.00405037
3954	0.00240674
3966	0.00352206
