Infrared Spectrum: 1,3-Hexanedione, 4,4,5,5,6,6,6-heptafluoro-1-(2-thienyl)-
Formula: C 10 H 5 F 7 O 2 S
CAS: 559-94-4
Origin: Sadtler Research Labs Under US-EPA Contract
1/CM	ABSORBANCE
450	0.0243109
462	0.0163894
474	0.0436594
486	0.0257677
498	0.00464365
510	0.0465276
522	0.0399718
534	0.0351461
546	0.0326421
558	0.042066
570	0.0246751
582	0.0492136
594	0.0427034
606	0.0445244
618	0.0433863
630	0.0359655
642	0.0411555
654	0.0414287
666	0.0255856
678	0.0409734
690	0.0411555
702	0.0488494
714	0.113678
726	0.0753455
738	0.0757097
750	0.0793063
762	0.0449797
774	0.0380142
786	0.048121
798	0.061369
810	0.035829
822	0.0297285
834	0.0279074
846	0.0363297
858	0.060413
870	0.0739342
882	0.0681069
894	0.0429765
906	0.0382874
918	0.0316406
930	0.0441147
942	0.0621885
954	0.0696548
966	0.0854523
978	0.0370582
990	0.0353282
1002	0.0488039
1014	0.0534931
1026	0.0521728
1038	0.0529467
1050	0.0696093
1062	0.0881383
1074	0.0641006
1086	0.083176
1098	0.0528102
1110	0.0678793
1122	0.107396
1134	0.163939
1146	0.0847239
1158	0.0908699
1170	0.105757
1182	0.142405
1194	0.164167
1206	0.193076
1218	0.313993
1230	0.406092
1242	0.420387
1254	0.244156
1266	0.223032
1278	0.16881
1290	0.109445
1302	0.0728871
1314	0.0694727
1326	0.0846784
1338	0.13503
1350	0.138945
1362	0.0680158
1374	0.0370126
1386	0.0357834
1398	0.0450252
1410	0.0844052
1422	0.0854068
1434	0.067333
1446	0.0666501
1458	0.0693816
1470	0.0748447
1482	0.0712937
1494	0.08049
1506	0.0859531
1518	0.0921901
1530	0.106258
1542	0.0786689
1554	0.0876831
1566	0.107305
1578	0.140493
1590	0.18347
1602	0.228905
1614	0.216795
1626	0.178371
1638	0.145319
1650	0.114862
1662	0.0759829
1674	0.0555872
1686	0.0424302
1698	0.0326877
1710	0.0203956
1722	0.0155244
1734	0.0117912
1746	0.0132481
1758	0.0116547
1770	0.013931
1782	0.0102889
1794	0.0106076
1806	0.00864994
1818	0.00742074
1830	0.00887757
1842	0.00769389
1854	0.00582733
1866	0.00619154
1878	0.0057818
1890	0.00509891
1902	0.00509891
1914	0.00468918
1926	0.00478023
1938	0.00468918
1950	0.00386971
1962	0.00464365
1974	0.00427944
1986	0.00459813
1998	0.00382418
2010	0.00382418
2022	0.00418839
2034	0.00373313
2046	0.00391524
2058	0.00323235
2070	0.00345998
2082	0.00355103
2094	0.00355103
2106	0.00355103
2118	0.00277709
2130	0.00282261
2142	0.00191209
2154	0.00200314
2166	0.00300472
2178	0.00268603
2190	0.00204867
2202	0.00163894
2214	0.00159341
2226	0.00127473
2238	0.00159341
2250	0.00159341
2262	0.00195762
2274	0.0024584
2286	0.00232183
2298	0.00355103
2310	0.00596391
2322	0.00864994
2334	0.0103799
2346	0.0145683
2358	0.0113815
2370	0.011336
2382	0.00641917
2394	0.00468918
2406	0.0047347
2418	0.00496233
2430	0.00491681
2442	0.00478023
2454	0.00518996
2466	0.0055997
2478	0.00564522
2490	0.00541759
2502	0.00537207
2514	0.00573628
2526	0.00569075
2538	0.00532654
2550	0.00573628
2562	0.0057818
2574	0.00614601
2586	0.00655574
2598	0.00596391
2610	0.00696548
2622	0.00678337
2634	0.00732969
2646	0.00755732
2658	0.00792152
2670	0.0080581
2682	0.00869547
2694	0.00942388
2706	0.00983362
2718	0.0106986
2730	0.0118368
2742	0.0123375
2754	0.0134757
2766	0.0138399
2778	0.0144773
2790	0.0158886
2802	0.0173454
2814	0.0178917
2826	0.0190299
2838	0.0200314
2850	0.0211241
2862	0.0222622
2874	0.0230817
2886	0.0233093
2898	0.0220801
2910	0.0240833
2922	0.0267238
2934	0.0303203
2946	0.0317771
2958	0.0290911
2970	0.0272245
2982	0.0236735
2994	0.0197583
3006	0.0170723
3018	0.0155699
3030	0.0162073
3042	0.0162528
3054	0.0150691
3066	0.014022
3078	0.0146138
3090	0.0173454
3102	0.0137033
3114	0.0128839
3126	0.011427
3138	0.0103799
3150	0.0101068
3162	0.0100612
3174	0.0103344
3186	0.00942388
3198	0.0101068
3210	0.00919625
3222	0.00896862
3234	0.0104255
3246	0.0103344
3258	0.00978809
3270	0.00933283
3282	0.00874099
3294	0.00878652
3306	0.00896862
3318	0.00864994
3330	0.00778495
3342	0.00833126
3354	0.00869547
3366	0.00915073
3378	0.00851336
3390	0.00855889
3402	0.00792152
3414	0.00796705
3426	0.00737521
3438	0.00810363
3450	0.00814915
3462	0.00746626
3474	0.00742074
3486	0.00773942
3498	0.00801258
3510	0.00796705
3522	0.00792152
3534	0.00801258
3546	0.00742074
3558	0.00851336
3570	0.00632811
3582	0.00942388
3594	0.00669232
3606	0.00974256
3618	0.0101068
3630	0.00610048
3642	0.00942388
3654	0.00068289
3666	0.0115181
3678	0.0104255
3690	0.00459813
3702	0.012292
3714	0.00783047
3726	0.0122465
3738	0.0123375
3750	0.00127473
3762	0.013157
3774	0.0117457
3786	0.0105165
3798	0.00732969
3810	0.0149325
3822	0.00874099
3834	0.0101523
3846	0.0121099
3858	0.00814915
3870	0.0107441
3882	0.00924178
3894	0.0123831
3906	0.00778495
3918	0.0105165
3930	0.0135667
3942	0.0106531
3954	0.0123375
3966	0.0123375
