Infrared Spectrum: 3,3'-Iminobispropylamine
Formula: C 6 H 17 N 3
CAS: 56-18-8
Origin: Sadtler Research Labs Under US-EPA Contract
1/CM	ABSORBANCE
450	0.0103608
462	0.0151308
474	0.0106685
486	0.0118482
498	0.0141563
510	0.0171312
522	0.0141563
534	0.0141563
546	0.0160541
558	0.0124124
570	0.0166183
582	0.0145154
594	0.018157
606	0.0175928
618	0.0223629
630	0.0305181
642	0.0338521
654	0.0416483
666	0.0519578
678	0.0648831
690	0.0757568
702	0.0911441
714	0.111045
726	0.136947
738	0.174184
750	0.206908
762	0.238042
774	0.239837
786	0.217115
798	0.163567
810	0.116533
822	0.0864766
834	0.0710893
846	0.0518552
858	0.044777
870	0.0462132
882	0.0351856
894	0.0338008
906	0.0302617
918	0.0275946
930	0.0384683
942	0.0167722
954	0.0182596
966	0.0428793
978	0.016567
990	0.0175928
1002	0.0174902
1014	0.0279023
1026	0.0356472
1038	0.0445206
1050	0.0454951
1062	0.0599079
1074	0.0771417
1086	0.0807833
1098	0.0809885
1110	0.0914006
1122	0.134382
1134	0.149872
1146	0.0970426
1158	0.0613953
1170	0.0429819
1182	0.0337495
1194	0.0349805
1206	0.0215422
1218	0.0248248
1230	0.0432896
1242	0.0438025
1254	0.0296975
1266	0.0222603
1278	0.0210806
1290	0.0221064
1302	0.0276458
1314	0.0287743
1326	0.0316465
1338	0.047239
1350	0.0627289
1362	0.0665757
1374	0.0654986
1386	0.059395
1398	0.0449309
1410	0.0289281
1422	0.0286717
1434	0.0540094
1446	0.0703713
1458	0.0921699
1470	0.103967
1482	0.067858
1494	0.0342624
1506	0.0435461
1518	0.0454951
1530	0.0162592
1542	0.00938625
1554	0.0114892
1566	0.0160028
1578	0.0175928
1590	0.0272355
1602	0.038417
1614	0.0681144
1626	0.0826298
1638	0.0590872
1650	0.0342624
1662	0.0242606
1674	0.0207216
1686	0.0150796
1698	0.00892463
1710	0.011284
1722	0.00764236
1734	0.00779623
1746	0.00594976
1758	0.00866818
1770	0.00805269
1782	0.00902722
1794	0.00641138
1806	0.00836043
1818	0.00959142
1830	0.00861689
1842	0.009694
1854	0.00666783
1866	0.00866818
1878	0.00564201
1890	0.00430844
1902	0.00318004
1914	0.00441103
1926	0.00425715
1938	0.00318004
1950	0.00307746
1962	0.00348779
1974	0.00215422
1986	0.00194906
1998	0.00235939
2010	0.00102582
2022	0.00318004
2034	0.00446232
2046	0.00138486
2058	0.00246197
2070	0.00292359
2082	0.00210293
2094	0.00241068
2106	0.00194906
2118	0.00220551
2130	0.00235939
2142	0.00138486
2154	0.00148744
2166	0.00266713
2178	0.00251326
2190	0.00194906
2202	0.0023081
2214	0.0022568
2226	0.00235939
2238	0.00235939
2250	0.00174389
2262	0.00189777
2274	0.0023081
2286	0.00297488
2298	0.00441103
2310	0.00477006
2322	0.00302617
2334	0.000974529
2346	0.00276971
2358	0.00220551
2370	0.00133357
2382	0.00420586
2394	0.00276971
2406	0.00292359
2418	0.00276971
2430	0.0028723
2442	0.00266713
2454	0.00333392
2466	0.00384682
2478	0.0034365
2490	0.00420586
2502	0.00482135
2514	0.00471877
2526	0.00543685
2538	0.00589847
2550	0.00651396
2562	0.00712945
2574	0.00825785
2586	0.00887334
2598	0.0110276
2610	0.0129766
2622	0.0136434
2634	0.0158489
2646	0.0179006
2658	0.0221064
2670	0.0250813
2682	0.0293385
2694	0.0332366
2706	0.038417
2718	0.0418535
2730	0.0485213
2742	0.0568304
2754	0.0658064
2766	0.0755004
2778	0.0877076
2790	0.11125
2802	0.151565
2814	0.199522
2826	0.222039
2838	0.228963
2850	0.251582
2862	0.271124
2874	0.256147
2886	0.231015
2898	0.23958
2910	0.30949
2922	0.425408
2934	0.509781
2946	0.44577
2958	0.288255
2970	0.153565
2982	0.0839634
2994	0.04847
3006	0.0303643
3018	0.0207216
3030	0.0165157
3042	0.014105
3054	0.0120021
3066	0.00974529
3078	0.00830914
3090	0.00748849
3102	0.0062575
3114	0.00610363
3126	0.00574459
3138	0.00441103
3150	0.0056933
3162	0.00538556
3174	0.00507781
3186	0.00451361
3198	0.00405199
3210	0.00441103
3222	0.00507781
3234	0.0051291
3246	0.00446232
3258	0.00477006
3270	0.0051291
3282	0.00482135
3294	0.00584717
3306	0.00641138
3318	0.009694
3330	0.0150796
3342	0.0194393
3354	0.0168234
3366	0.0105147
3378	0.00795011
3390	0.00861689
3402	0.0107711
3414	0.0102069
3426	0.00630879
3438	0.00641138
3450	0.0045649
3462	0.00518039
3474	0.00482135
3486	0.00461619
3498	0.0045649
3510	0.00435973
3522	0.00333392
3534	0.00425715
3546	0.00482135
3558	0.00369295
3570	0.00471877
3582	0.00348779
3594	0.00435973
3606	0.00333392
3618	0.00297488
3630	0.00312875
3642	0.00307746
3654	0.0028723
3666	0.00302617
3678	0.00210293
3690	0.00210293
3702	0.00435973
3714	0.00215422
3726	0.00194906
3738	0.00466748
3750	0.00220551
3762	0.00220551
3774	0.0016926
3786	0.00241068
3798	0.00323133
3810	0.00241068
3822	0.00441103
3834	0.00159002
3846	0.0056933
3858	0.00102582
3870	0.0022568
3882	0.00574459
3894	0.00117969
3906	0.00148744
3918	0.00369295
3930	0.00466748
3942	0.00394941
3954	0.00246197
3966	0.0011284
