Infrared Spectrum: Hexobarbital
Formula: C 12 H 16 N 2 O 3
CAS: 56-29-1
Origin: Sadtler Research Labs Under US-EPA Contract
1/CM	ABSORBANCE
450	0.013808
462	0.0035989
474	0.00293788
486	0.00506784
498	0.00800572
510	0.00558197
522	0.00800572
534	0.0134408
546	0.00778538
558	0.00881364
570	0.0132939
582	0.00675712
594	0.0060961
606	0.0126329
618	0.0264409
630	0.0254127
642	0.0307743
654	0.0396614
666	0.0198307
678	0.00506784
690	0.00190962
702	0.00514129
714	0.00528818
726	0.00433337
738	0.00719781
750	0.0282771
762	0.0523677
774	0.0121188
786	0.00543508
798	0.00749159
810	0.00616955
822	0.00440682
834	0.00271754
846	0.00146894
858	0.00279099
870	0.000440682
882	0.0024972
894	0.00594921
906	0.00330511
918	0.00587576
930	0.0073447
942	0.00646334
954	0.00572887
966	0.00381924
978	0.00227686
990	0.00227686
1002	0.00381924
1014	0.0121188
1026	0.040249
1038	0.0855658
1050	0.030554
1062	0.0130001
1074	0.0121188
1086	0.0116046
1098	0.0114577
1110	0.0202714
1122	0.026294
1134	0.0213731
1146	0.0226951
1158	0.0219607
1170	0.0351077
1182	0.0626503
1194	0.0738877
1206	0.0479609
1218	0.0265878
1230	0.0218872
1242	0.0285709
1254	0.0522943
1266	0.0600796
1278	0.0434072
1290	0.0459778
1302	0.0813793
1314	0.154826
1326	0.242963
1338	0.157984
1350	0.0917353
1362	0.0948201
1374	0.160996
1386	0.246121
1398	0.173702
1410	0.109877
1422	0.11186
1434	0.199335
1446	0.210058
1458	0.126255
1470	0.0677916
1482	0.0311415
1494	0.0227686
1506	0.0227686
1518	0.0227686
1530	0.0157177
1542	0.0119719
1554	0.0112374
1566	0.0111639
1578	0.0127798
1590	0.0127798
1602	0.0112374
1614	0.0111639
1626	0.0130001
1638	0.0167459
1650	0.0232093
1662	0.0267347
1674	0.0413507
1686	0.0717577
1698	0.195296
1710	0.620994
1722	0.364077
1734	0.425772
1746	0.73447
1758	0.350269
1770	0.205211
1782	0.0871081
1794	0.0401755
1806	0.0204183
1818	0.0143222
1830	0.0130001
1842	0.0110905
1854	0.00844641
1866	0.00631644
1878	0.00492095
1890	0.00572887
1902	0.00594921
1914	0.00381924
1926	0.00286443
1938	0.00257065
1950	0.00220341
1962	0.0024972
1974	0.00198307
1986	0.00139549
1998	0.00117515
2010	0.000807917
2022	0.000807917
2034	0.000807917
2046	0.000587576
2058	0.000661023
2070	0.000807917
2082	0.000661023
2094	0.00132205
2106	0.000881364
2118	0.000514129
2130	0.000440682
2142	0.000514129
2154	0.000440682
2166	0.000440682
2178	0.000440682
2190	0.000661023
2202	0.000954811
2214	0.00073447
2226	0.000514129
2238	0.00073447
2250	0.00073447
2262	0.00102826
2274	0.00139549
2286	0.00212996
2298	0.00308477
2310	0.00301133
2322	0.00117515
2334	0
2346	0
2358	0
2370	0
2382	0.00220341
2394	0.000881364
2406	0.000587576
2418	0.000146894
2430	7.3447e-05
2442	7.3447e-05
2454	0.000367235
2466	0.000661023
2478	0.000881364
2490	0.00073447
2502	0.00102826
2514	0.00154239
2526	0.00117515
2538	0.00102826
2550	0.000440682
2562	0.000514129
2574	0.000367235
2586	0.000293788
2598	0.000293788
2610	0.000440682
2622	0.000367235
2634	0.000661023
2646	0.000954811
2658	0.00190962
2670	0.0023503
2682	0.00227686
2694	0.00183618
2706	0.00205652
2718	0.00176273
2730	0.00110171
2742	0.00110171
2754	0.0012486
2766	0.00176273
2778	0.00286443
2790	0.00330511
2802	0.00455371
2814	0.00572887
2826	0.00844641
2838	0.0165256
2850	0.0370173
2862	0.0352546
2874	0.0517067
2886	0.0390004
2898	0.0423789
2910	0.0452434
2922	0.0707295
2934	0.103413
2946	0.186849
2958	0.116707
2970	0.0380455
2982	0.0245313
2994	0.034006
3006	0.01939
3018	0.0118984
3030	0.00954811
3042	0.00727125
3054	0.00954811
3066	0.00837296
3078	0.00506784
3090	0.00396614
3102	0.00411303
3114	0.0037458
3126	0.00279099
3138	0.00279099
3150	0.00264409
3162	0.00220341
3174	0.00183618
3186	0.00183618
3198	0.00117515
3210	0.00139549
3222	0.00117515
3234	0.00139549
3246	0.000954811
3258	0.00102826
3270	0.00102826
3282	0.00154239
3294	0.00132205
3306	0.000881364
3318	0.00073447
3330	0.00117515
3342	0.00132205
3354	0.00132205
3366	0.00183618
3378	0.00154239
3390	0.0024972
3402	0.00455371
3414	0.015277
3426	0.0792493
3438	0.081012
3450	0.0134408
3462	0.00896053
3474	0.00616955
3486	0.00506784
3498	0.00425993
3510	0.00301133
3522	0.00176273
3534	0.00117515
3546	0.000954811
3558	0.000881364
3570	0.00102826
3582	0.00117515
3594	0.000807917
3606	0.000587576
3618	0.000587576
3630	0.000514129
3642	0.000367235
3654	0.000220341
3666	0.0012486
3678	0.000293788
3690	0.00132205
3702	0.000440682
3714	0.000954811
3726	0.00073447
3738	0.000661023
3750	0.000954811
3762	0.000440682
3774	0.00132205
3786	0.00110171
3798	0.000587576
3810	0.00139549
3822	0.00110171
3834	0.0012486
3846	0.00161583
3858	0.00212996
3870	0.00110171
3882	0.0012486
3894	0.00183618
3906	0.00168928
3918	0.00212996
3930	0.00183618
3942	0.00242375
3954	0.00190962
3966	0.00183618
