Infrared Spectrum: Pentane, 2,3,3-trimethyl-
Formula: C 8 H 18
CAS: 560-21-4
Origin: Sadtler Research Labs Under US-EPA Contract
1/CM	ABSORBANCE
450	0
462	0.0133753
474	0.0144042
486	0.0200629
498	0.0169763
510	0.0185196
522	0.0214347
534	0.0243499
546	0.0219492
558	0.0166334
570	0.0135468
582	0.0147471
594	0.00754503
606	0.0113175
618	0.0111461
630	0.00977425
642	0.0113175
654	0.0102887
666	0.0116605
678	0.0111461
690	0.00994572
702	0.00943129
714	0.00874538
726	0.00754503
738	0.00823094
750	0.00771651
762	0.0120035
774	0.0205774
786	0.0219492
798	0.0138897
810	0.0123464
822	0.0106316
834	0.00960277
846	0.00840242
858	0.0085739
870	0.0085739
882	0.0108031
894	0.0121749
906	0.011832
918	0.015433
930	0.0185196
942	0.0142327
954	0.0113175
966	0.0104602
978	0.0120035
990	0.0190341
1002	0.0406403
1014	0.0567592
1026	0.0392685
1038	0.0267506
1050	0.0217777
1062	0.0173193
1074	0.0231495
1086	0.0411547
1098	0.0454417
1110	0.0329238
1122	0.0221207
1134	0.0250358
1146	0.0547015
1158	0.0684197
1170	0.0432125
1182	0.0349815
1194	0.0384111
1206	0.0306946
1218	0.0260647
1230	0.0190341
1242	0.0145756
1254	0.0135468
1266	0.0137182
1278	0.0164619
1290	0.0231495
1302	0.0238354
1314	0.0205774
1326	0.0238354
1338	0.0245214
1350	0.0349815
1362	0.0970565
1374	0.235782
1386	0.274193
1398	0.155188
1410	0.0528152
1422	0.0286368
1434	0.0402973
1446	0.082138
1458	0.174736
1470	0.235096
1482	0.170449
1494	0.0682482
1506	0.0255502
1518	0.0173193
1530	0.0140612
1542	0.0132038
1554	0.0150901
1566	0.0133753
1578	0.0132038
1590	0.0116605
1602	0.0109746
1614	0.0108031
1626	0.00977425
1638	0.0104602
1650	0.0108031
1662	0.0113175
1674	0.0106316
1686	0.0106316
1698	0.0101172
1710	0.0121749
1722	0.0128609
1734	0.0135468
1746	0.0135468
1758	0.0121749
1770	0.0108031
1782	0.00908833
1794	0.00840242
1806	0.00874538
1818	0.00874538
1830	0.00805947
1842	0.00823094
1854	0.00823094
1866	0.00805947
1878	0.00823094
1890	0.00788799
1902	0.00805947
1914	0.00788799
1926	0.00788799
1938	0.00737355
1950	0.00771651
1962	0.00771651
1974	0.00754503
1986	0.00771651
1998	0.00754503
2010	0.00771651
2022	0.00771651
2034	0.00771651
2046	0.00805947
2058	0.00771651
2070	0.00788799
2082	0.00754503
2094	0.00737355
2106	0.0070306
2118	0.00720208
2130	0.00720208
2142	0.00737355
2154	0.00720208
2166	0.00720208
2178	0.00737355
2190	0.00720208
2202	0.00720208
2214	0.00737355
2226	0.00754503
2238	0.00805947
2250	0.00805947
2262	0.00805947
2274	0.0085739
2286	0.00891686
2298	0.00943129
2310	0.00960277
2322	0.00925981
2334	0.00891686
2346	0.0101172
2358	0.00977425
2370	0.0106316
2382	0.0108031
2394	0.0101172
2406	0.00994572
2418	0.00994572
2430	0.00994572
2442	0.00977425
2454	0.00908833
2466	0.00977425
2478	0.00943129
2490	0.00977425
2502	0.00943129
2514	0.00960277
2526	0.00943129
2538	0.00994572
2550	0.0101172
2562	0.0106316
2574	0.011489
2586	0.0121749
2598	0.0152615
2610	0.0195485
2622	0.0209203
2634	0.0186911
2646	0.0169763
2658	0.0181767
2670	0.0178337
2682	0.0164619
2694	0.015776
2706	0.0171478
2718	0.0200629
2730	0.0253787
2742	0.0286368
2754	0.0267506
2766	0.027608
2778	0.0300087
2790	0.0320664
2802	0.0366963
2814	0.0416692
2826	0.0471565
2838	0.0601888
2850	0.0913978
2862	0.190855
2874	0.406231
2886	0.613548
2898	0.606518
2910	0.524037
2922	0.565363
2934	0.701174
2946	0.850359
2958	1.12455
2970	1.67277
2982	1.44007
2994	0.550101
3006	0.152787
3018	0.0747644
3030	0.0567592
3042	0.0495571
3054	0.043041
3066	0.0384111
3078	0.0360104
3090	0.0324093
3102	0.0284653
3114	0.0260647
3126	0.0253787
3138	0.0255502
3150	0.0264076
3162	0.0281224
3174	0.0291513
3186	0.0274365
3198	0.0246928
3210	0.0217777
3222	0.0181767
3234	0.0161189
3246	0.0144042
3258	0.0128609
3270	0.0120035
3282	0.011489
3294	0.011489
3306	0.0104602
3318	0.0108031
3330	0.0120035
3342	0.011832
3354	0.0113175
3366	0.0104602
3378	0.0108031
3390	0.0109746
3402	0.0106316
3414	0.0106316
3426	0.0109746
3438	0.00994572
3450	0.00960277
3462	0.00977425
3474	0.00925981
3486	0.00925981
3498	0.0085739
3510	0.00874538
3522	0.0085739
3534	0.00823094
3546	0.00805947
3558	0.00823094
3570	0.00771651
3582	0.00771651
3594	0.00771651
3606	0.00771651
3618	0.0085739
3630	0.00823094
3642	0.00771651
3654	0.00840242
3666	0.00977425
3678	0.00840242
3690	0.00943129
3702	0.0085739
3714	0.00908833
3726	0.00891686
3738	0.00891686
3750	0.00908833
3762	0.00977425
3774	0.00943129
3786	0.00874538
3798	0.00977425
3810	0.00891686
3822	0.00943129
3834	0.0085739
3846	0.00908833
3858	0.00823094
3870	0.00891686
3882	0.00840242
3894	0.00874538
3906	0.00908833
3918	0.00720208
3930	0.00908833
3942	0.0085739
3954	0.00874538
3966	0.00823094
