Infrared Spectrum: Valeric acid, 4-hydroxy-3-mercapto-, .gamma.-lactone
Formula: C 5 H 8 O 2 S
CAS: 56078-99-0
Origin: Sadtler Research Labs Under US-EPA Contract
1/CM	ABSORBANCE
450	0.00528092
462	0.00304053
474	0.00336059
486	0.00576101
498	0.00784137
510	0.0121621
522	0.0103218
534	0.00672118
546	0.00264046
558	0.000160028
570	0.00168029
582	0.00328057
594	0.0028805
606	0.00320056
618	0.00144025
630	0.000960168
642	0.0011202
654	0.00536094
666	0.00560098
678	0.00728127
690	0.00696122
702	0.0151226
714	0.00792139
726	0.00616108
738	0.00504088
750	0.00984172
762	0.00784137
774	0.00536094
786	0.0148026
798	0.0473683
810	0.110979
822	0.0791338
834	0.0509689
846	0.0242442
858	0.0292051
870	0.0544095
882	0.0595304
894	0.0388868
906	0.0104818
918	0.0224839
930	0.0497687
942	0.0883355
954	0.0902558
966	0.0909759
978	0.034326
990	0.0130423
1002	0.00792139
1014	0.0140024
1026	0.028805
1038	0.0308054
1050	0.0188833
1062	0.0288851
1074	0.05721
1086	0.0920161
1098	0.178591
1110	0.239402
1122	0.197875
1134	0.102578
1146	0.127222
1158	0.127942
1170	0.0820143
1182	0.0452879
1194	0.0324857
1206	0.0149626
1218	0.0108019
1230	0.0108019
1242	0.0091216
1254	0.0160828
1266	0.0192034
1278	0.0197635
1290	0.0300853
1302	0.0537694
1314	0.0733728
1326	0.0493686
1338	0.0337659
1350	0.0180031
1362	0.0149626
1374	0.0199235
1386	0.0218438
1398	0.0164029
1410	0.00632111
1422	0.00848148
1434	0.0109619
1446	0.017283
1458	0.022884
1470	0.017043
1482	0.00872153
1494	0.00448078
1506	0.00568099
1518	0.00448078
1530	0.00120021
1542	0.00192034
1554	0
1566	0.000960168
1578	0.00320056
1590	0.00336059
1602	0.00616108
1614	0.00928162
1626	0.00768134
1638	0.0080014
1650	0.00608106
1662	0.0110419
1674	0.0148026
1686	0.0154427
1698	0.0134424
1710	0.0176831
1722	0.0235241
1734	0.0277649
1746	0.0388868
1758	0.0528893
1770	0.0770535
1782	0.190113
1794	0.567699
1806	0.762293
1818	0.701883
1830	0.315815
1842	0.195074
1854	0.0550496
1866	0.0273648
1878	0.0182432
1890	0.0107219
1902	0.0122421
1914	0.0124822
1926	0.00816143
1938	0.00224039
1950	0.00184032
1962	0.00248043
1974	0.00360063
1986	0.00432076
1998	0.00488085
2010	0.00488085
2022	0.00536094
2034	0.00648113
2046	0.00696122
2058	0.00488085
2070	0.00728127
2082	0.00408071
2094	0.00120021
2106	0.00104018
2118	0.00104018
2130	0.000720126
2142	0.000720126
2154	0.00104018
2166	0.00144025
2178	0.00160028
2190	0.00200035
2202	0.00224039
2214	0.00224039
2226	0.00264046
2238	0.00408071
2250	0.00648113
2262	0.00792139
2274	0.0074413
2286	0.00600105
2298	0.00552097
2310	0.00504088
2322	0.00352062
2334	0.00320056
2346	0.00640112
2358	0.0034406
2370	0.00640112
2382	0.0045608
2394	8.0014e-05
2406	0.00040007
2418	8.0014e-05
2430	0
2442	0.000960168
2454	0.00240042
2466	0.00264046
2478	0.00264046
2490	0.00240042
2502	0.00184032
2514	0.000960168
2526	0.000640112
2538	0.000560098
2550	0.000320056
2562	0.00080014
2574	0.0011202
2586	0.00160028
2598	0.00240042
2610	0.00232041
2622	0.00120021
2634	0.0011202
2646	0.00120021
2658	0.00136024
2670	0.00160028
2682	0.00160028
2694	0.000960168
2706	0.00136024
2718	0.00152027
2730	0.00144025
2742	0.00192034
2754	0.00224039
2766	0.00232041
2778	0.00248043
2790	0.00224039
2802	0.00248043
2814	0.00280049
2826	0.00256045
2838	0.00296052
2850	0.00368064
2862	0.00600105
2874	0.0120821
2886	0.0194434
2898	0.0297652
2910	0.0447278
2922	0.0363264
2934	0.0423274
2946	0.0378466
2958	0.0248043
2970	0.0242442
2982	0.0464881
2994	0.0579301
3006	0.0384067
3018	0.0154427
3030	0.00656115
3042	0.00472083
3054	0.0040007
3066	0.00392069
3078	0.00624109
3090	0.00624109
3102	0.00656115
3114	0.00488085
3126	0.00392069
3138	0.00248043
3150	0.00200035
3162	0.00168029
3174	0.00160028
3186	0.00176031
3198	0.00224039
3210	0.00240042
3222	0.00240042
3234	0.00208036
3246	0.00128022
3258	0.00104018
3270	0.00080014
3282	0.000880154
3294	0.000960168
3306	0.000880154
3318	0.00128022
3330	0.00160028
3342	0.00128022
3354	0.00104018
3366	0.00120021
3378	0.000880154
3390	0.000880154
3402	0.00104018
3414	0.000880154
3426	0.00040007
3438	0.000880154
3450	0.000720126
3462	0.000560098
3474	0.000960168
3486	0.000560098
3498	0.000720126
3510	0.000720126
3522	0.00080014
3534	0.000480084
3546	0.00184032
3558	0.00176031
3570	0.00592104
3582	0.00832146
3594	0.0074413
3606	0.00440077
3618	0.000880154
3630	0.00168029
3642	0.00192034
3654	0.00256045
3666	0.00200035
3678	0.00040007
3690	0.00152027
3702	0.00104018
3714	0.00192034
3726	0.00176031
3738	0.00296052
3750	0.0011202
3762	0.000720126
3774	0.0011202
3786	0.000720126
3798	0.000640112
3810	0.00160028
3822	0.00152027
3834	0.00104018
3846	0.00240042
3858	0.00144025
3870	0.00152027
3882	0.00280049
3894	0.00152027
3906	0.00160028
3918	0.00176031
3930	0.00080014
3942	0.00168029
3954	0.00200035
3966	0.000720126
