Infrared Spectrum: 2,5-Pyrrolidinedione, 3-methyl-
Formula: C 5 H 7 N O 2
CAS: 5615-90-7
Origin: Sadtler Research Labs Under US-EPA Contract
1/CM	ABSORBANCE
450	0.0152258
462	0.00851334
474	0.00425667
486	0.00327436
498	0.00474782
510	0.00409295
522	0.0163718
534	0.0253763
546	0.0514075
558	0.0576287
570	0.0361817
582	0.0286506
594	0.0335622
606	0.052226
618	0.106417
630	0.171576
642	0.205302
654	0.133758
666	0.0800581
678	0.0391286
690	0.0217745
702	0.0189913
714	0.0337259
726	0.056319
738	0.0325799
750	0.0135886
762	0.0099868
774	0.0160444
786	0.0261949
798	0.0217745
810	0.0099868
822	0.00442039
834	0.00212833
846	0.00261949
858	0.0121151
870	0.0219382
882	0.0260312
894	0.0229205
906	0.0320887
918	0.0476419
930	0.0455136
942	0.0185001
954	0.00851334
966	0.00671244
978	0.00622128
990	0.00769475
1002	0.0137523
1014	0.0432216
1026	0.0874254
1038	0.0859519
1050	0.0389649
1062	0.0283232
1074	0.0376551
1086	0.0399472
1098	0.0361817
1110	0.0379826
1122	0.0528809
1134	0.116895
1146	0.311228
1158	0.388012
1170	0.232152
1182	0.0885714
1194	0.0898812
1206	0.0802218
1218	0.0612305
1230	0.0631951
1242	0.061558
1254	0.0623766
1266	0.0836599
1278	0.127864
1290	0.152258
1302	0.143908
1314	0.170758
1326	0.312701
1338	0.322361
1350	0.163391
1362	0.0579562
1374	0.0451862
1386	0.0404383
1398	0.0253763
1410	0.0170267
1422	0.0289781
1434	0.0335622
1446	0.0329073
1458	0.0327436
1470	0.0306153
1482	0.0178453
1494	0.00867705
1506	0.00573013
1518	0.00327436
1530	0.00343808
1542	0.00376551
1554	0.006385
1566	0.00622128
1578	0.00523898
1590	0.00409295
1602	0.00327436
1614	0.00327436
1626	0.00442039
1638	0.00654872
1650	0.0109691
1662	0.0147346
1674	0.0212833
1686	0.0301241
1698	0.0450224
1710	0.0789121
1722	0.169448
1734	0.334312
1746	0.741479
1758	1.46167
1770	1.59543
1782	0.934339
1794	0.515384
1806	0.334476
1818	0.228878
1830	0.0810404
1842	0.0355268
1854	0.0224294
1866	0.0183364
1878	0.0176815
1890	0.0142435
1902	0.0101505
1914	0.00867705
1926	0.0106417
1938	0.0126063
1950	0.00916821
1962	0.00523898
1974	0.00278321
1986	0.0018009
1998	0.000982308
2010	0.00114603
2022	0
2034	0.000163718
2046	0.000491154
2058	0.000654872
2070	0.00081859
2082	0.00081859
2094	0.000654872
2106	0.00130974
2118	0.00196462
2130	0.00163718
2142	0.000163718
2154	0.000491154
2166	0.00081859
2178	0.00130974
2190	0.00196462
2202	0.00245577
2214	0.00196462
2226	0.0018009
2238	0.00130974
2250	0.0018009
2262	0.00196462
2274	0.0018009
2286	0.00245577
2298	0.00311064
2310	0.00392923
2322	0.0036018
2334	0.00212833
2346	0.00392923
2358	0.00491154
2370	0.00523898
2382	0.00589385
2394	0.00311064
2406	0.00294692
2418	0.00196462
2430	0.00163718
2442	0.00196462
2454	0.00261949
2466	0.00327436
2478	0.00376551
2490	0.00343808
2502	0.00229205
2514	0.00114603
2526	0.00130974
2538	0.00147346
2550	0.00147346
2562	0.000982308
2574	0.00130974
2586	0.00147346
2598	0.00229205
2610	0.00245577
2622	0.00212833
2634	0.00278321
2646	0.00327436
2658	0.00409295
2670	0.00327436
2682	0.00196462
2694	0.00081859
2706	0.00114603
2718	0.00081859
2730	0.00081859
2742	0.00130974
2754	0.00114603
2766	0.000982308
2778	0.00114603
2790	0.00147346
2802	0.00130974
2814	0.00229205
2826	0.0036018
2838	0.00507526
2850	0.00589385
2862	0.00687616
2874	0.0135886
2886	0.0222656
2898	0.0221019
2910	0.0206285
2922	0.0288144
2934	0.0440401
2946	0.0564827
2958	0.0514075
2970	0.0631951
2982	0.088244
2994	0.0645049
3006	0.0340533
3018	0.00851334
3030	0.00507526
3042	0.00573013
3054	0.00474782
3066	0.00425667
3078	0.00409295
3090	0.00425667
3102	0.00491154
3114	0.00474782
3126	0.00556641
3138	0.00589385
3150	0.00507526
3162	0.00311064
3174	0.00294692
3186	0.00278321
3198	0.00278321
3210	0.00327436
3222	0.0018009
3234	0.00212833
3246	0.00212833
3258	0.00130974
3270	0.000982308
3282	0.00212833
3294	0.0018009
3306	0.00114603
3318	0.00147346
3330	0.00212833
3342	0.00147346
3354	0.00229205
3366	0.00196462
3378	0.00163718
3390	0.00245577
3402	0.00261949
3414	0.00474782
3426	0.0171904
3438	0.0708899
3450	0.153895
3462	0.140143
3474	0.0518986
3486	0.00720359
3498	0.00343808
3510	0.00474782
3522	0.00769475
3534	0.0114603
3546	0.0142435
3558	0.0144072
3570	0.00982308
3582	0.00589385
3594	0.0036018
3606	0.0018009
3618	0.00147346
3630	0.00130974
3642	0.00114603
3654	0.000491154
3666	0.00163718
3678	0.00229205
3690	0.00278321
3702	0.00229205
3714	0.00245577
3726	0.00163718
3738	0.00196462
3750	0.0018009
3762	0.00081859
3774	0.0018009
3786	0.00163718
3798	0.00081859
3810	0.00212833
3822	0.000491154
3834	0.00245577
3846	0.00278321
3858	0.00196462
3870	0.00163718
3882	0.00261949
3894	0.00081859
3906	0.00327436
3918	0.00327436
3930	0.00114603
3942	0.00327436
3954	0.00523898
3966	0.00163718
