Infrared Spectrum: Pentane, 3,3-dimethyl-
Formula: C 7 H 16
CAS: 562-49-2
Origin: Sadtler Research Labs Under US-EPA Contract
1/CM	ABSORBANCE
450	0
462	0.0169966
474	0.0152693
486	0.0152002
498	0.00994925
510	0.0145784
522	0.0136802
534	0.0154075
546	0.0126438
558	0.0138184
570	0.0125057
582	0.0132657
594	0.011262
606	0.0119529
618	0.013542
630	0.0122984
642	0.0129202
654	0.0125747
666	0.0110547
678	0.0124366
690	0.012022
702	0.0134038
714	0.0114693
726	0.0125057
738	0.0116765
750	0.0136111
762	0.0147857
774	0.0186548
786	0.0214185
798	0.0187239
810	0.0147857
822	0.0125747
834	0.0121602
846	0.0129202
858	0.0133348
870	0.0123675
882	0.0118838
894	0.012782
906	0.0131966
918	0.0137493
930	0.0129893
942	0.0116765
954	0.0122984
966	0.0125747
978	0.0140948
990	0.0214876
1002	0.0367569
1014	0.0353751
1026	0.0216949
1038	0.0178257
1050	0.0156839
1062	0.0155457
1074	0.0179639
1086	0.0171348
1098	0.0139566
1110	0.0125747
1122	0.0122984
1134	0.0123675
1146	0.0122293
1158	0.0130584
1170	0.0152693
1182	0.0220403
1194	0.0279823
1206	0.0257713
1218	0.0214185
1230	0.0156839
1242	0.0136802
1254	0.0129893
1266	0.0131275
1278	0.0150621
1290	0.0172039
1302	0.0167894
1314	0.0149239
1326	0.0147857
1338	0.0161675
1350	0.0231458
1362	0.0395897
1374	0.0692993
1386	0.0792485
1398	0.0527863
1410	0.0237676
1422	0.0171348
1434	0.0216949
1446	0.041317
1458	0.0804922
1470	0.101911
1482	0.0760703
1494	0.035306
1506	0.0169275
1518	0.0131275
1530	0.0126438
1542	0.0125747
1554	0.0128511
1566	0.0133348
1578	0.0132657
1590	0.0129893
1602	0.012022
1614	0.0114693
1626	0.0116075
1638	0.0114693
1650	0.0117456
1662	0.0115384
1674	0.0117456
1686	0.0108474
1698	0.0114002
1710	0.0107093
1722	0.0107784
1734	0.0107784
1746	0.010502
1758	0.0107093
1770	0.010502
1782	0.0104329
1794	0.0104329
1806	0.0102947
1818	0.0102947
1830	0.0101565
1842	0.0101565
1854	0.0101565
1866	0.0101565
1878	0.010502
1890	0.0102947
1902	0.0100874
1914	0.0100874
1926	0.00988016
1938	0.0100183
1950	0.0100183
1962	0.00981106
1974	0.00994925
1986	0.00960379
1998	0.00974197
2010	0.00960379
2022	0.0095347
2034	0.00981106
2046	0.00994925
2058	0.00974197
2070	0.00981106
2082	0.00988016
2094	0.00974197
2106	0.00967288
2118	0.0095347
2130	0.0094656
2142	0.0094656
2154	0.00967288
2166	0.00974197
2178	0.00960379
2190	0.00932742
2202	0.0095347
2214	0.0095347
2226	0.00981106
2238	0.0095347
2250	0.00988016
2262	0.00967288
2274	0.0100874
2286	0.00974197
2298	0.0102947
2310	0.0102256
2322	0.00918924
2334	0.00918924
2346	0.00939651
2358	0.00932742
2370	0.0100874
2382	0.0111929
2394	0.0108474
2406	0.0109856
2418	0.0108474
2430	0.0104329
2442	0.0102256
2454	0.0106402
2466	0.0108474
2478	0.0105711
2490	0.0105711
2502	0.00994925
2514	0.0100874
2526	0.0103638
2538	0.0106402
2550	0.0109165
2562	0.0109856
2574	0.0109856
2586	0.0109856
2598	0.0110547
2610	0.0118838
2622	0.0127129
2634	0.0130584
2646	0.0134038
2658	0.0148548
2670	0.0151311
2682	0.0146475
2694	0.0139566
2706	0.0138875
2718	0.0154766
2730	0.0170657
2742	0.0185167
2754	0.0178257
2766	0.0175494
2778	0.0191385
2790	0.0207967
2802	0.0233531
2814	0.0259095
2826	0.0294332
2838	0.0395897
2850	0.0742739
2862	0.132726
2874	0.181574
2886	0.225447
2898	0.249284
2910	0.280099
2922	0.312641
2934	0.330812
2946	0.356515
2958	0.506237
2970	0.690367
2982	0.479153
2994	0.1453
3006	0.047328
3018	0.0318514
3030	0.0270841
3042	0.0252186
3054	0.0250804
3066	0.0245968
3078	0.0232149
3090	0.0216949
3102	0.0196912
3114	0.0169275
3126	0.0162366
3138	0.0163057
3150	0.0166512
3162	0.0170657
3174	0.0172039
3186	0.0166512
3198	0.016513
3210	0.0153384
3222	0.014302
3234	0.0134038
3246	0.0131275
3258	0.0127129
3270	0.012022
3282	0.0118147
3294	0.0111929
3306	0.0114693
3318	0.0123675
3330	0.0125747
3342	0.0121602
3354	0.0117456
3366	0.0116075
3378	0.0119529
3390	0.0118838
3402	0.0113311
3414	0.0110547
3426	0.0113311
3438	0.0109165
3450	0.0105711
3462	0.0109165
3474	0.011262
3486	0.010502
3498	0.00994925
3510	0.00988016
3522	0.00994925
3534	0.00981106
3546	0.00988016
3558	0.0106402
3570	0.00960379
3582	0.00994925
3594	0.0102256
3606	0.0103638
3618	0.0102947
3630	0.0103638
3642	0.0109856
3654	0.0105711
3666	0.0109165
3678	0.0107093
3690	0.0102256
3702	0.0101565
3714	0.0107784
3726	0.0106402
3738	0.0102947
3750	0.0111929
3762	0.0103638
3774	0.0108474
3786	0.0102256
3798	0.00981106
3810	0.0111238
3822	0.00981106
3834	0.0102947
3846	0.0105711
3858	0.00988016
3870	0.00988016
3882	0.0105711
3894	0.0111238
3906	0.0110547
3918	0.0105711
3930	0.0101565
3942	0.0102947
3954	0.0109165
3966	0.00960379
