Infrared Spectrum: Pentane, 2,2,3-trimethyl-
Formula: C 8 H 18
CAS: 564-02-3
Origin: Sadtler Research Labs Under US-EPA Contract
1/CM	ABSORBANCE
450	0
462	0.0137017
474	0.00811955
486	0.00621653
498	0.00850016
510	0.00761208
522	0.00786582
534	0.00900763
546	0.00811955
558	0.00773895
570	0.00875389
582	0.011545
594	0.00393291
606	0.00545532
618	0.00837329
630	0.00773895
642	0.00621653
654	0.00862702
666	0.00900763
678	0.006724
690	0.0095151
702	0.0098957
714	0.0114181
726	0.01053
738	0.0095151
750	0.0091345
762	0.0106569
774	0.0162391
786	0.0159854
798	0.0123062
810	0.0098957
822	0.00964197
834	0.00888076
846	0.00799268
858	0.00862702
870	0.00850016
882	0.00900763
894	0.00875389
906	0.0091345
918	0.0110375
930	0.0124331
942	0.0101494
954	0.0137017
966	0.0206795
978	0.021187
990	0.0194108
1002	0.0243587
1014	0.0237243
1026	0.0209332
1038	0.0148436
1050	0.0112913
1062	0.0138286
1074	0.0284184
1086	0.0324782
1098	0.0173809
1110	0.0145898
1122	0.014463
1134	0.0158585
1146	0.0289259
1158	0.0308289
1170	0.016366
1182	0.0166197
1194	0.031717
1206	0.0452919
1218	0.0364111
1230	0.0299408
1242	0.0286722
1254	0.0209332
1266	0.0133211
1278	0.0112913
1290	0.0117987
1302	0.013448
1314	0.0133211
1326	0.0131943
1338	0.014463
1350	0.0274035
1362	0.0941361
1374	0.17216
1386	0.143868
1398	0.0959122
1410	0.0498591
1422	0.021187
1434	0.0284184
1446	0.052904
1458	0.106315
1470	0.152749
1482	0.130801
1494	0.0688893
1506	0.024993
1518	0.0147167
1530	0.0126868
1542	0.0109106
1554	0.00964197
1566	0.00761208
1578	0.00761208
1590	0.00710461
1602	0.00723148
1614	0.00710461
1626	0.00710461
1638	0.00697774
1650	0.00773895
1662	0.00685087
1674	0.006724
1686	0.00697774
1698	0.0059628
1710	0.00621653
1722	0.00583593
1734	0.00545532
1746	0.00532846
1758	0.00482098
1770	0.00520159
1782	0.00494785
1794	0.00456725
1806	0.00418664
1818	0.00431351
1830	0.00393291
1842	0.00393291
1854	0.00380604
1866	0.00367917
1878	0.0035523
1890	0.00367917
1902	0.00367917
1914	0.00342544
1926	0.00380604
1938	0.00329857
1950	0.00342544
1962	0.0031717
1974	0.00304483
1986	0.0031717
1998	0.00291796
2010	0.00304483
2022	0.00329857
2034	0.00291796
2046	0.0031717
2058	0.0031717
2070	0.00304483
2082	0.00329857
2094	0.00329857
2106	0.00342544
2118	0.00291796
2130	0.00266423
2142	0.00241049
2154	0.00304483
2166	0.00253736
2178	0.00266423
2190	0.0027911
2202	0.0027911
2214	0.00215676
2226	0.00215676
2238	0.00228362
2250	0.00215676
2262	0.00215676
2274	0.00228362
2286	0.0027911
2298	0.00291796
2310	0.00241049
2322	0.00164928
2334	0.00152242
2346	0.00164928
2358	0.00177615
2370	0.00228362
2382	0.00304483
2394	0.00329857
2406	0.00393291
2418	0.00393291
2430	0.0035523
2442	0.00304483
2454	0.0027911
2466	0.00253736
2478	0.00215676
2490	0.00228362
2502	0.00253736
2514	0.00253736
2526	0.00253736
2538	0.00253736
2550	0.00304483
2562	0.00380604
2574	0.00482098
2586	0.00710461
2598	0.00837329
2610	0.00786582
2622	0.00748521
2634	0.00799268
2646	0.00799268
2658	0.00710461
2670	0.00723148
2682	0.00799268
2694	0.00875389
2706	0.00926136
2718	0.0119256
2730	0.0162391
2742	0.0173809
2754	0.0158585
2766	0.0154779
2778	0.015351
2790	0.017254
2802	0.0214407
2814	0.0263885
2826	0.0312095
2838	0.0428814
2850	0.078785
2862	0.188018
2874	0.366649
2886	0.452284
2898	0.367663
2910	0.317043
2922	0.360305
2934	0.472076
2946	0.646519
2958	0.933875
2970	1.26868
2982	0.944279
2994	0.352059
3006	0.0990839
3018	0.0513815
3030	0.0395828
3042	0.0320976
3054	0.0242318
3066	0.0185227
3078	0.015351
3090	0.0140823
3102	0.013448
3114	0.0131943
3126	0.0138286
3138	0.0138286
3150	0.014463
3162	0.0158585
3174	0.0152242
3186	0.0142092
3198	0.0123062
3210	0.0111644
3222	0.00926136
3234	0.00786582
3246	0.00659714
3258	0.00532846
3270	0.00494785
3282	0.00558219
3294	0.00456725
3306	0.00520159
3318	0.00456725
3330	0.00494785
3342	0.00482098
3354	0.00507472
3366	0.00469412
3378	0.00431351
3390	0.00469412
3402	0.00507472
3414	0.00456725
3426	0.00507472
3438	0.00342544
3450	0.0035523
3462	0.00393291
3474	0.00304483
3486	0.00304483
3498	0.00342544
3510	0.00291796
3522	0.00329857
3534	0.00253736
3546	0.00266423
3558	0.00266423
3570	0.0027911
3582	0.0027911
3594	0.00190302
3606	0.00266423
3618	0.00266423
3630	0.00253736
3642	0.00291796
3654	0.00304483
3666	0.00469412
3678	0.00139555
3690	0.00380604
3702	0.00215676
3714	0.0031717
3726	0.00215676
3738	0.00152242
3750	0.00253736
3762	0.00253736
3774	0.00304483
3786	0.00253736
3798	0.00190302
3810	0.00418664
3822	0.00190302
3834	0.00139555
3846	0.00164928
3858	0.00291796
3870	0.00215676
3882	0.00241049
3894	0.00367917
3906	0.00405978
3918	0.00253736
3930	0.0035523
3942	0.0035523
3954	0.00482098
3966	0.00393291
