Infrared Spectrum: Butanoic acid, 2-methyl-, phenylmethyl ester
Formula: C 12 H 16 O 2
CAS: 56423-40-6
Origin: Sadtler Research Labs Under US-EPA Contract
1/CM	ABSORBANCE
450	0
462	0.019991
474	0.023076
486	0.0339353
498	0.0454116
510	0.0478796
522	0.0636749
534	0.0995846
546	0.0811979
558	0.048003
570	0.0401053
582	0.0463988
594	0.0577517
606	0.04862
618	0.0429435
630	0.0392415
642	0.0288758
654	0.0289992
666	0.0397351
678	0.0668833
690	0.183004
702	0.257538
714	0.0850233
726	0.0702152
738	0.0803341
750	0.123648
762	0.163136
774	0.0713258
786	0.0505944
798	0.0403521
810	0.0364033
822	0.0310971
834	0.0339353
846	0.0433138
858	0.054173
870	0.051705
882	0.0396117
894	0.0414627
906	0.0514582
918	0.054173
930	0.0977336
942	0.174859
954	0.120686
966	0.0578751
978	0.0484966
990	0.0803341
1002	0.137222
1014	0.139196
1026	0.190284
1038	0.220641
1050	0.244828
1062	0.505697
1074	0.563326
1086	0.382913
1098	0.351446
1110	0.256551
1122	0.182757
1134	0.168813
1146	0.221752
1158	0.391428
1170	0.917733
1182	1.00498
1194	0.635392
1206	0.457941
1218	0.30443
1230	0.30949
1242	0.378841
1254	0.452388
1266	0.336021
1278	0.242113
1290	0.237547
1302	0.220394
1314	0.159681
1326	0.151907
1338	0.159804
1350	0.203118
1362	0.245074
1374	0.244211
1386	0.18214
1398	0.0918103
1410	0.0647855
1422	0.0744108
1434	0.103904
1446	0.125252
1458	0.172268
1470	0.120193
1482	0.074781
1494	0.101312
1506	0.0617005
1518	0.0372671
1530	0.0350459
1542	0.0318375
1554	0.0289992
1566	0.0282588
1578	0.0318375
1590	0.0402287
1602	0.0466456
1614	0.0386245
1626	0.0287524
1638	0.028012
1650	0.0297396
1662	0.0347991
1674	0.0386245
1686	0.0424499
1698	0.0573815
1710	0.0931678
1722	0.13932
1734	0.254206
1746	0.801243
1758	1.10777
1770	0.325038
1782	0.167825
1794	0.124265
1806	0.0736704
1818	0.0456584
1830	0.0338119
1842	0.0303566
1854	0.0306034
1866	0.0349225
1878	0.0362799
1890	0.0355395
1902	0.0288758
1914	0.0271482
1926	0.0296162
1938	0.0355395
1950	0.0360331
1962	0.0345523
1974	0.0252972
1986	0.023076
1998	0.0228292
2010	0.022459
2022	0.0222122
2034	0.0234462
2046	0.0257908
2058	0.0256674
2070	0.0233228
2082	0.0228292
2094	0.0229526
2106	0.0227058
2118	0.022459
2130	0.021842
2142	0.021842
2154	0.0208548
2166	0.020608
2178	0.0204846
2190	0.020608
2202	0.0209782
2214	0.0202378
2226	0.0207314
2238	0.0217186
2250	0.0222122
2262	0.0214718
2274	0.0225824
2286	0.0227058
2298	0.023693
2310	0.0265312
2322	0.0291226
2334	0.0264078
2346	0.0246802
2358	0.0260376
2370	0.0177697
2382	0.0197442
2394	0.020608
2406	0.020608
2418	0.0213484
2430	0.0203612
2442	0.0202378
2454	0.0191272
2466	0.0186336
2478	0.0197442
2490	0.0190038
2502	0.0188804
2514	0.0196208
2526	0.0191272
2538	0.018757
2550	0.0185101
2562	0.0183867
2574	0.0177697
2586	0.0177697
2598	0.0172761
2610	0.0188804
2622	0.0198676
2634	0.0188804
2646	0.0183867
2658	0.0209782
2670	0.021225
2682	0.0203612
2694	0.0207314
2706	0.0214718
2718	0.0214718
2730	0.0204846
2742	0.0213484
2754	0.0228292
2766	0.0211016
2778	0.0227058
2790	0.0233228
2802	0.0266546
2814	0.0294928
2826	0.0339353
2838	0.0376373
2850	0.0426967
2862	0.0568879
2874	0.100202
2886	0.173625
2898	0.136111
2910	0.122784
2922	0.147834
2934	0.230143
2946	0.342314
2958	0.284316
2970	0.35194
2982	0.46226
2994	0.393896
3006	0.119329
3018	0.079717
3030	0.112665
3042	0.169059
3054	0.113406
3066	0.129201
3078	0.166221
3090	0.102176
3102	0.074781
3114	0.0551602
3126	0.0350459
3138	0.0262844
3150	0.0245568
3162	0.0239398
3174	0.025544
3186	0.02431
3198	0.0239398
3210	0.0227058
3222	0.0213484
3234	0.0228292
3246	0.021842
3258	0.020608
3270	0.0215952
3282	0.0234462
3294	0.0220888
3306	0.019374
3318	0.0197442
3330	0.0188804
3342	0.018757
3354	0.0196208
3366	0.0196208
3378	0.0203612
3390	0.0202378
3402	0.0201144
3414	0.0183867
3426	0.0201144
3438	0.018757
3450	0.018757
3462	0.0214718
3474	0.0246802
3486	0.0272716
3498	0.0246802
3510	0.0217186
3522	0.0211016
3534	0.0211016
3546	0.0214718
3558	0.0231994
3570	0.0338119
3582	0.0314673
3594	0.0277652
3606	0.0209782
3618	0.0233228
3630	0.020608
3642	0.0228292
3654	0.023076
3666	0.0254206
3678	0.02431
3690	0.0235696
3702	0.0229526
3714	0.0239398
3726	0.0259142
3738	0.0234462
3750	0.0225824
3762	0.0231994
3774	0.0229526
3786	0.0231994
3798	0.0220888
3810	0.0228292
3822	0.0260376
3834	0.0229526
3846	0.0208548
3858	0.0235696
3870	0.022459
3882	0.0227058
3894	0.0246802
3906	0.0211016
3918	0.0225824
3930	0.0219654
3942	0.0223356
3954	0.021225
3966	0.0260376
