Infrared Spectrum: Pentane, 2,3,4-trimethyl-
Formula: C 8 H 18
CAS: 565-75-3
Origin: Sadtler Research Labs Under US-EPA Contract
1/CM	ABSORBANCE
450	0
462	0.00432507
474	0.00688079
486	0.0108127
498	0.0100263
510	0.00747057
522	0.00825695
534	0.0110093
546	0.0106161
558	0.0102229
570	0.0204458
582	0.0133684
594	0.00747057
606	0.00688079
618	0.0066842
630	0.00530804
642	0.00766717
654	0.0066842
666	0.0066842
678	0.00806035
690	0.00786376
702	0.00629101
714	0.00786376
726	0.00688079
738	0.00884673
750	0.0102229
762	0.00904332
774	0.00825695
786	0.00766717
798	0.00845354
810	0.011599
822	0.00766717
834	0.0064876
846	0.00570123
858	0.00707738
870	0.00943651
882	0.0121888
894	0.0137616
906	0.0141548
918	0.0212322
930	0.0220185
942	0.0173003
954	0.0178901
966	0.0230015
978	0.0290959
990	0.0296857
1002	0.0294891
1014	0.025164
1026	0.0338142
1038	0.0579952
1050	0.0461996
1062	0.0320448
1074	0.0424643
1086	0.0422677
1098	0.0489519
1110	0.0839456
1122	0.116973
1134	0.0804069
1146	0.0448234
1158	0.0434473
1170	0.0391222
1182	0.0404984
1194	0.039712
1206	0.032438
1218	0.0290959
1230	0.0275232
1242	0.0216253
1254	0.019856
1266	0.0231981
1278	0.0249674
1290	0.0241811
1302	0.0263436
1314	0.0379426
1326	0.0467894
1338	0.0420711
1350	0.0607475
1362	0.142531
1374	0.307473
1386	0.391812
1398	0.235716
1410	0.0664488
1422	0.0428575
1434	0.0572089
1446	0.119333
1458	0.233357
1470	0.313764
1482	0.229229
1494	0.0865014
1506	0.0340108
1518	0.0206424
1530	0.0147446
1542	0.0141548
1554	0.0119922
1566	0.0106161
1578	0.0100263
1590	0.00904332
1602	0.00923992
1614	0.0104195
1626	0.00963311
1638	0.0112059
1650	0.0104195
1662	0.0104195
1674	0.0100263
1686	0.0133684
1698	0.0171037
1710	0.0273266
1722	0.0393188
1734	0.04502
1746	0.0401052
1758	0.0302755
1770	0.0226083
1782	0.0153343
1794	0.0121888
1806	0.0112059
1818	0.0066842
1830	0.00530804
1842	0.00432507
1854	0.00432507
1866	0.00412847
1878	0.00373529
1890	0.00353869
1902	0.0031455
1914	0.00275232
1926	0.0031455
1938	0.00373529
1950	0.00294891
1962	0.00353869
1974	0.00294891
1986	0.00294891
1998	0.0031455
2010	0.00294891
2022	0.00255572
2034	0.00216253
2046	0.00255572
2058	0.00275232
2070	0.00176935
2082	0.00216253
2094	0.0033421
2106	0.0031455
2118	0.00373529
2130	0.00373529
2142	0.00393188
2154	0.00373529
2166	0.00373529
2178	0.00393188
2190	0.00393188
2202	0.00393188
2214	0.00373529
2226	0.0033421
2238	0.0033421
2250	0.00353869
2262	0.00412847
2274	0.00452166
2286	0.00570123
2298	0.00707738
2310	0.00825695
2322	0.00845354
2334	0.00766717
2346	0.00707738
2358	0.00943651
2370	0.00727398
2382	0.00904332
2394	0.00845354
2406	0.00747057
2418	0.0064876
2430	0.0066842
2442	0.00629101
2454	0.00550463
2466	0.00530804
2478	0.00530804
2490	0.00530804
2502	0.00550463
2514	0.00589782
2526	0.00629101
2538	0.0066842
2550	0.00727398
2562	0.0100263
2574	0.0143514
2586	0.0167105
2598	0.0171037
2610	0.019856
2622	0.0218219
2634	0.0218219
2646	0.0212322
2658	0.0204458
2670	0.0182832
2682	0.0182832
2694	0.0194628
2706	0.0202492
2718	0.0279163
2730	0.039712
2742	0.0422677
2754	0.0373529
2766	0.0359767
2778	0.0367631
2790	0.0373529
2802	0.0446268
2814	0.0572089
2826	0.07215
2838	0.0953481
2850	0.167498
2862	0.316123
2874	0.631067
2886	0.950139
2898	0.814292
2910	0.671958
2922	0.756887
2934	0.936967
2946	1.11842
2958	1.57413
2970	1.96594
2982	1.61659
2994	0.674711
3006	0.218023
3018	0.106554
3030	0.0758853
3042	0.0587816
3054	0.0491485
3066	0.0432507
3078	0.0389256
3090	0.0365665
3102	0.0359767
3114	0.0349937
3126	0.0349937
3138	0.0363699
3150	0.0385324
3162	0.0393188
3174	0.039712
3186	0.0381392
3198	0.0342074
3210	0.0292925
3222	0.0243777
3234	0.0233947
3246	0.019856
3258	0.019856
3270	0.0173003
3282	0.0169071
3294	0.0151377
3306	0.0157275
3318	0.0123854
3330	0.0121888
3342	0.011599
3354	0.0129752
3366	0.011599
3378	0.0129752
3390	0.0133684
3402	0.0121888
3414	0.0110093
3426	0.0106161
3438	0.0098297
3450	0.0100263
3462	0.0108127
3474	0.0100263
3486	0.0129752
3498	0.0117956
3510	0.00806035
3522	0.00943651
3534	0.0100263
3546	0.0112059
3558	0.00943651
3570	0.0133684
3582	0.0104195
3594	0.0117956
3606	0.00786376
3618	0.00747057
3630	0.00727398
3642	0.0064876
3654	0.00707738
3666	0.00589782
3678	0.00589782
3690	0.0066842
3702	0.00432507
3714	0.00629101
3726	0.00727398
3738	0.00530804
3750	0.00432507
3762	0.00550463
3774	0.00235913
3786	0.00452166
3798	0.00747057
3810	0.0098297
3822	0.00845354
3834	0.00707738
3846	0.00786376
3858	0.00609441
3870	0.00393188
3882	0.00688079
3894	0.0104195
3906	0.00806035
3918	0.00629101
3930	0.00707738
3942	0.0064876
3954	0.00609441
3966	0.00825695
