Infrared Spectrum: 3-Pentanol, 2-methyl-
Formula: C 6 H 14 O
CAS: 565-67-3
Origin: Sadtler Research Labs Under US-EPA Contract
1/CM	ABSORBANCE
450	0.00401093
462	0.0118723
474	0.0121932
486	0.0202151
498	0.019092
510	0.0145998
522	0.0147602
534	0.00705923
546	0.0073801
558	0.0123536
570	0.0104284
582	0.00545486
594	0.0213381
606	0.0186107
618	0.0158833
630	0.0126745
642	0.00850316
654	0.00994709
666	0.00802185
678	0.00385049
690	0.0056153
702	0.00641748
714	0.00673835
726	0.00770098
738	0.0086636
750	0.00770098
762	0.0107493
774	0.0131558
786	0.0125141
798	0.0168459
810	0.0218194
822	0.0269534
834	0.0258304
846	0.0192524
858	0.0202151
870	0.0340126
882	0.0439597
894	0.0367401
906	0.0290391
918	0.0397884
930	0.0802185
942	0.161079
954	0.264881
966	0.365796
978	0.430132
990	0.35617
1002	0.172309
1014	0.0946578
1026	0.105728
1038	0.127708
1050	0.137174
1062	0.151453
1074	0.178246
1086	0.190599
1098	0.175197
1110	0.141505
1122	0.124178
1134	0.133323
1146	0.144554
1158	0.13204
1170	0.114071
1182	0.0922513
1194	0.0778119
1206	0.0969039
1218	0.140062
1230	0.165571
1242	0.151292
1254	0.123857
1266	0.103482
1278	0.0936952
1290	0.0956205
1302	0.0927326
1314	0.0784537
1326	0.0669022
1338	0.0659396
1350	0.0859942
1362	0.141505
1374	0.209691
1386	0.260229
1398	0.2129
1410	0.104926
1422	0.057276
1434	0.0625704
1446	0.115836
1458	0.213381
1470	0.264881
1482	0.190599
1494	0.0802185
1506	0.031927
1518	0.0202151
1530	0.0155624
1542	0.0144393
1554	0.013958
1566	0.0121932
1578	0.011391
1590	0.00994709
1602	0.0086636
1614	0.00802185
1626	0.00802185
1638	0.00882404
1650	0.00850316
1662	0.00914491
1674	0.00834272
1686	0.00802185
1698	0.00721967
1710	0.00497355
1722	0.00513398
1734	0.00529442
1746	0.00449224
1758	0.00401093
1770	0.00369005
1782	0.00272743
1794	0.00272743
1806	0.00272743
1818	0.00240656
1830	0.00224612
1842	0.00256699
1854	0.00208568
1866	0.0030483
1878	0.0030483
1890	0.00336918
1902	0.00385049
1914	0.00449224
1926	0.00417136
1938	0.00449224
1950	0.0043318
1962	0.00449224
1974	0.00385049
1986	0.00336918
1998	0.0030483
2010	0.00288787
2022	0.00176481
2034	0.00112306
2046	0.00112306
2058	0.00160437
2070	0.000160437
2082	0.00112306
2094	0.0030483
2106	0.00240656
2118	0.00192524
2130	0.0012835
2142	0.00144393
2154	0.0012835
2166	0.00112306
2178	0.00112306
2190	0.000320874
2202	0
2214	0
2226	0.000481311
2238	0.000481311
2250	0.00112306
2262	0.0012835
2274	0.000641748
2286	0.000962622
2298	0.0012835
2310	0.00192524
2322	0.0030483
2334	0.00272743
2346	0
2358	0.00352961
2370	0
2382	0
2394	0.0030483
2406	0.00401093
2418	0.0043318
2430	0.00369005
2442	0.00224612
2454	0.00240656
2466	0.00192524
2478	0.0012835
2490	0.00160437
2502	0.00176481
2514	0.00176481
2526	0.00224612
2538	0.00176481
2550	0.00240656
2562	0.00369005
2574	0.00497355
2586	0.00673835
2598	0.00994709
2610	0.0144393
2622	0.016525
2634	0.0158833
2646	0.013958
2658	0.015402
2670	0.0141185
2682	0.0115515
2694	0.0150811
2706	0.0194129
2718	0.0245469
2730	0.0309643
2742	0.0365796
2754	0.0367401
2766	0.0357775
2778	0.0375423
2790	0.0401092
2802	0.0454037
2814	0.0550299
2826	0.078935
2838	0.133163
2850	0.233917
2862	0.356972
2874	0.537624
2886	0.688756
2898	0.658754
2910	0.556396
2922	0.592494
2934	0.7563
2946	0.905025
2958	1.14584
2970	1.60437
2982	1.25205
2994	0.475054
3006	0.148244
3018	0.0651374
3030	0.0465267
3042	0.040751
3054	0.0385049
3066	0.0346544
3078	0.0308039
3090	0.027916
3102	0.0239051
3114	0.0218194
3126	0.0208568
3138	0.0223007
3150	0.0243864
3162	0.0261512
3174	0.0285578
3186	0.0255095
3198	0.0210172
3210	0.0149206
3222	0.0118723
3234	0.00994709
3246	0.00850316
3258	0.0086636
3270	0.00834272
3282	0.00593617
3294	0.00320874
3306	0.00176481
3318	0.00320874
3330	0.00320874
3342	0.00112306
3354	0.00369005
3366	0.00144393
3378	0
3390	0.00160437
3402	0.00272743
3414	0.00609661
3426	0.0043318
3438	0.00481311
3450	0.00609661
3462	0.00657792
3474	0.00449224
3486	0.00577573
3498	0.00417136
3510	0.0030483
3522	0.00272743
3534	0.00352961
3546	0.0043318
3558	0.00240656
3570	0.00465267
3582	0.00417136
3594	0.00529442
3606	0.0056153
3618	0.0144393
3630	0.0290391
3642	0.0556716
3654	0.0983479
3666	0.113429
3678	0.0688275
3690	0.0231029
3702	0.0117119
3714	0.00705923
3726	0.00401093
3738	0.00401093
3750	0.00481311
3762	0.00192524
3774	0.0030483
3786	0.00497355
3798	0.00465267
3810	0.00818229
3822	0.0056153
3834	0.00673835
3846	0.00882404
3858	0.00994709
3870	0.00593617
3882	0.00609661
3894	0.00465267
3906	0.00577573
3918	0.00577573
3930	0.00946578
3942	0.0073801
3954	0.00417136
3966	0.00240656
