Infrared Spectrum: 2-Pentanone, 3-methyl-
Formula: C 6 H 12 O
CAS: 565-61-7
Origin: Sadtler Research Labs Under US-EPA Contract
1/CM	ABSORBANCE
450	0.00945742
462	0.0027619
474	0.00995959
486	0.00535642
498	0.00359884
510	0.00719768
522	0.0112987
534	0.0143954
546	0.01314
558	0.0113824
570	0.0233506
582	0.0339798
594	0.0414285
606	0.0322222
618	0.017241
630	0.0168225
642	0.00912265
654	0.0070303
666	0.0041847
678	0.00426839
690	0.0125541
702	0.0205887
714	0.0156508
726	0.0137258
738	0.00761615
750	0.00887156
762	0.00677921
774	0.0100433
786	0.0145628
798	0.0136421
810	0.00929003
822	0.00569119
834	0.00544011
846	0.0083694
858	0.00728138
870	0.00527272
882	0.00585858
894	0.00636074
906	0.00912265
918	0.0215931
930	0.0467013
942	0.0730649
954	0.0823549
966	0.0707214
978	0.0527272
990	0.0502164
1002	0.0417633
1014	0.0445252
1026	0.0410101
1038	0.0302135
1050	0.0192496
1062	0.0219278
1074	0.0374949
1086	0.0685454
1098	0.081518
1110	0.0789234
1122	0.110141
1134	0.149394
1146	0.137258
1158	0.0962481
1170	0.146967
1182	0.218274
1194	0.171405
1206	0.0807647
1218	0.0663693
1230	0.0714747
1242	0.0709725
1254	0.0649465
1266	0.0553217
1278	0.0441904
1290	0.04486
1302	0.0436883
1314	0.0374112
1326	0.0482914
1338	0.0975872
1350	0.230493
1362	0.325653
1374	0.251417
1386	0.152156
1398	0.10671
1410	0.0710562
1422	0.0741529
1434	0.0866233
1446	0.122863
1458	0.181365
1470	0.180695
1482	0.103446
1494	0.0423492
1506	0.0255267
1518	0.0216767
1530	0.0204213
1542	0.0205887
1554	0.0193333
1566	0.0169899
1578	0.0156508
1590	0.0125541
1602	0.0119682
1614	0.0121356
1626	0.0107965
1638	0.0134747
1650	0.0140606
1662	0.0214257
1674	0.0371601
1686	0.0697171
1698	0.137091
1710	0.344903
1722	0.675578
1734	0.787309
1746	0.404409
1758	0.116084
1770	0.0595901
1782	0.0368254
1794	0.024355
1806	0.0205887
1818	0.0105454
1830	0.00535642
1842	0.00410101
1854	0.00318037
1866	0.00326407
1878	0.00301298
1890	0.00301298
1902	0.00359884
1914	0.00217604
1926	0.00267821
1938	0.00209235
1950	0.00125541
1962	0.00192496
1974	0.00167388
1986	0.000251082
1998	0.000334776
2010	0.000585858
2022	0.00192496
2034	0.00359884
2046	0.00443578
2058	0.00627705
2070	0.00870418
2082	0.00477056
2094	0.000920634
2106	0.00083694
2118	0.000502164
2130	0.000251082
2142	0.00117172
2154	0.000251082
2166	0.000334776
2178	0.000502164
2190	0.000167388
2202	0.000669552
2214	0.000502164
2226	0.000251082
2238	0.000334776
2250	0.00083694
2262	0.000585858
2274	0.0014228
2286	0.00301298
2298	0.00485425
2310	0.00577489
2322	0.00251082
2334	0.00167388
2346	0.00468686
2358	0.000669552
2370	0.00761615
2382	0.00786724
2394	0.00351515
2406	0.00410101
2418	0.00368254
2430	0.00410101
2442	0.00351515
2454	0.00460317
2466	0.00435209
2478	0.0055238
2490	0.00610966
2502	0.00569119
2514	0.0055238
2526	0.00577489
2538	0.00585858
2550	0.00686291
2562	0.00728138
2574	0.00828571
2586	0.00895526
2598	0.00895526
2610	0.00669552
2622	0.00460317
2634	0.00426839
2646	0.00502164
2658	0.00443578
2670	0.00803462
2682	0.0135584
2694	0.0135584
2706	0.0118009
2718	0.0123867
2730	0.0132237
2742	0.0159856
2754	0.017492
2766	0.0169062
2778	0.0161529
2790	0.0189985
2802	0.0222626
2814	0.0251919
2826	0.0315526
2838	0.0403405
2850	0.0548196
2862	0.100349
2874	0.201033
2886	0.305399
2898	0.29477
2910	0.232
2922	0.286317
2934	0.414787
2946	0.448516
2958	0.440984
2970	0.69307
2982	0.709307
2994	0.353105
3006	0.13232
3018	0.0843636
3030	0.0604271
3042	0.0467013
3054	0.0411774
3066	0.0379134
3078	0.0345656
3090	0.0286233
3102	0.0247734
3114	0.0209235
3126	0.017241
3138	0.0164877
3150	0.0145628
3162	0.0136421
3174	0.0124704
3186	0.0107128
3198	0.00719768
3210	0.00569119
3222	0.00376623
3234	0.00359884
3246	0.00318037
3258	0.00393362
3270	0.00309668
3282	0.00309668
3294	0.00376623
3306	0.00594227
3318	0.00619336
3330	0.00828571
3342	0.0083694
3354	0.00351515
3366	0.00619336
3378	0.0100433
3390	0.00954112
3402	0.0104618
3414	0.0141443
3426	0.0170736
3438	0.0219278
3450	0.0191659
3462	0.0123867
3474	0.00686291
3486	0.00544011
3498	0.00493795
3510	0.0070303
3522	0.00619336
3534	0.00669552
3546	0.00485425
3558	0.00602597
3570	0.00619336
3582	0.00619336
3594	0.00493795
3606	0.00217604
3618	0.00167388
3630	0.00309668
3642	0.00192496
3654	0.00384992
3666	0.00100433
3678	0.00234343
3690	0.00259451
3702	0.00125541
3714	0.00292929
3726	0.00259451
3738	0.00410101
3750	0.00443578
3762	0.00544011
3774	0.00510533
3786	0.00502164
3798	0.00435209
3810	0.00376623
3822	0.00619336
3834	0.00510533
3846	0.00468686
3858	0.00769985
3870	0.00895526
3882	0.00234343
3894	0.00485425
3906	0.0056075
3918	0.00719768
3930	0
3942	0.00209235
3954	0.0100433
3966	0.00502164
