Infrared Spectrum: Butanoic acid, 2-bromo-3-methyl-
Formula: C 5 H 9 Br O 2
CAS: 565-74-2
Origin: Sadtler Research Labs Under US-EPA Contract
1/CM	ABSORBANCE
450	0.0249003
462	0.0126869
474	0.0442146
486	0.0365457
498	0.0566174
510	0.0523569
522	0.08379
534	0.131318
546	0.16313
558	0.144763
570	0.0813284
582	0.0775413
594	0.0619194
606	0.111531
618	0.191344
630	0.259891
642	0.262353
654	0.227606
666	0.14855
678	0.0942046
690	0.0834113
702	0.0594578
714	0.0580376
726	0.0389127
738	0.0482858
750	0.0418477
762	0.0398594
774	0.0278353
786	0.0426998
798	0.044404
810	0.0460135
822	0.0409956
834	0.0367351
846	0.0314331
858	0.0198824
870	0.0182729
882	0.014107
894	0.0160953
906	0.00094678
918	0.019125
930	0.0250897
942	0.039386
954	0.0487592
966	0.0545345
978	0.0415636
990	0.0249003
1002	0.0430785
1014	0.0422264
1026	0.0596471
1038	0.0496113
1050	0.0756477
1062	0.089376
1074	0.200717
1086	0.37038
1098	0.583595
1110	0.474526
1122	0.377576
1134	0.331941
1146	0.314994
1158	0.31471
1170	0.217759
1182	0.159627
1194	0.167107
1206	0.155651
1218	0.0812337
1230	0.058227
1242	0.0589844
1254	0.0813284
1266	0.0929738
1278	0.080571
1290	0.101779
1302	0.126016
1314	0.149307
1326	0.15868
1338	0.143532
1350	0.120052
1362	0.153757
1374	0.187936
1386	0.171651
1398	0.102631
1410	0.0395754
1422	0.0173261
1434	0.0154325
1446	0.0333267
1458	0.0668427
1470	0.0859676
1482	0.0543452
1494	0.0181782
1506	0.00710085
1518	0.00615407
1530	0.000568068
1542	0.00880505
1554	0.00284034
1566	0.00246163
1578	0.00426051
1590	0.00208292
1602	0.00539665
1614	0.00255631
1626	0.00501793
1638	0.00520729
1650	0.011172
1662	0.00852102
1674	0.0100359
1686	0.0115507
1698	0.0192196
1710	0.0349362
1722	0.0682628
1734	0.128005
1746	0.217949
1758	0.428039
1770	0.801071
1782	0.944602
1794	0.527546
1806	0.203842
1818	0.0992225
1830	0.0672214
1842	0.0345575
1854	0.0174208
1866	0.00965716
1878	0.00539665
1890	0.00482858
1902	0.00179888
1914	0.0030297
1926	0.00104146
1938	0.00312437
1950	0.00123081
1962	0.00397648
1974	0.00274566
1986	0.00435519
1998	0.00255631
2010	0.00255631
2022	0.00227227
2034	0.00198824
2046	0.00340841
2058	0.00094678
2070	0.00284034
2082	0.00094678
2094	0.00208292
2106	0.00142017
2118	0.00227227
2130	0.00189356
2142	0.00255631
2154	0.00198824
2166	0.00246163
2178	0.00359776
2190	0.00407115
2202	0.00463922
2214	0.00217759
2226	0.00454454
2238	0.00217759
2250	0.00359776
2262	0.00227227
2274	0.00407115
2286	0.00520729
2298	0.0118347
2310	0.0176101
2322	0.0137283
2334	0.0131602
2346	0.0134443
2358	0.0229121
2370	0.00975183
2382	0.0127815
2394	0.00160953
2406	0.00359776
2418	0.00293502
2430	0.00312437
2442	0.00331373
2454	0.00255631
2466	0.00350309
2478	0.00284034
2490	0.00378712
2502	0.00160953
2514	0.0038818
2526	0.00132549
2538	0.00246163
2550	0.000662746
2562	0.00189356
2574	0.00151485
2586	0.00132549
2598	0.00284034
2610	0.00151485
2622	0.0030297
2634	0.000662746
2646	0.00340841
2658	0.000284034
2670	0.00265098
2682	0.000189356
2694	0.0017042
2706	0.00094678
2718	0.00227227
2730	0.00359776
2742	0.00492326
2754	0.00615407
2766	0.00378712
2778	0.00634343
2790	0.00501793
2802	0.00766892
2814	0.00681682
2826	0.0118347
2838	0.0133496
2850	0.0176101
2862	0.024995
2874	0.0533984
2886	0.108501
2898	0.100359
2910	0.086441
2922	0.0936365
2934	0.124596
2946	0.162183
2958	0.154514
2970	0.271821
2982	0.357315
2994	0.197782
3006	0.0600259
3018	0.0217759
3030	0.0162846
3042	0.0144857
3054	0.0115507
3066	0.0140123
3078	0.00880505
3090	0.010888
3102	0.00719553
3114	0.0104146
3126	0.00624875
3138	0.0077636
3150	0.00691149
3162	0.00814231
3174	0.00814231
3186	0.00804763
3198	0.00899441
3210	0.00444987
3222	0.005586
3234	0.00198824
3246	0.00397648
3258	0.00160953
3270	0.00482858
3282	0.00350309
3294	0.00511261
3306	0.00407115
3318	0.0038818
3330	0.00539665
3342	0.00208292
3354	0.00463922
3366	0.00208292
3378	0.005586
3390	0.000378712
3402	0.005586
3414	0.00312437
3426	0.00662746
3438	0.00293502
3450	0.00416583
3462	0.0064381
3474	0.00710085
3486	0.0176101
3498	0.0266045
3510	0.0320958
3522	0.0250897
3534	0.0245216
3546	0.0261311
3558	0.0815178
3570	0.370096
3582	0.394523
3594	0.0923111
3606	0.0159059
3618	0.0126869
3630	0.00984651
3642	0.00908909
3654	0.00719553
3666	0.0100359
3678	0.00994119
3690	0.0125922
3702	0.00899441
3714	0.0131602
3726	0.0147698
3738	0.0169474
3750	0.019409
3762	0.0150538
3774	0.0181782
3786	0.016758
3798	0.0209238
3810	0.0177995
3822	0.0233855
3834	0.0200717
3846	0.0231014
3858	0.022344
3870	0.0221547
3882	0.0221547
3894	0.0199771
3906	0.024995
3918	0.0208292
3930	0.0215866
3942	0.0178941
3954	0.00766892
3966	0.00918377
