Infrared Spectrum: Benzonitrile, 2,3-dimethoxy-
Formula: C 9 H 9 N O 2
CAS: 5653-62-3
Origin: Sadtler Research Labs Under US-EPA Contract
1/CM	ABSORBANCE
450	0.00110902
462	0.00948825
474	0.0326544
486	0.0363511
498	0.0239055
510	0.0389388
522	0.04128
534	0.0437445
546	0.0385691
558	0.040171
570	0.043991
582	0.0442374
594	0.0547115
606	0.0585314
618	0.0536024
630	0.0468251
642	0.0483038
654	0.060503
666	0.0682661
678	0.0754131
690	0.0597636
702	0.0517541
714	0.0523702
726	0.0692519
738	0.187054
750	0.290685
762	0.139982
774	0.103385
786	0.188533
798	0.193831
810	0.136902
822	0.0745505
834	0.0563134
846	0.0518773
858	0.0512612
870	0.0505218
882	0.0517541
894	0.0574224
906	0.0745505
918	0.0883516
930	0.078124
942	0.0653087
954	0.0660481
966	0.0712235
978	0.0865032
990	0.156002
1002	0.365852
1014	0.463076
1026	0.313975
1038	0.335169
1050	0.312619
1062	0.359568
1074	0.598253
1086	0.572745
1098	0.207509
1110	0.0846549
1122	0.0608727
1134	0.0553276
1146	0.0592707
1158	0.0815743
1170	0.129878
1182	0.141215
1194	0.126797
1206	0.141954
1218	0.222419
1230	0.398014
1242	0.636575
1254	0.79615
1266	1.15732
1278	1.06256
1290	0.543295
1302	0.346136
1314	0.211699
1326	0.100551
1338	0.0734415
1350	0.0662945
1362	0.0589011
1374	0.0520005
1386	0.0524934
1398	0.060503
1410	0.113736
1422	0.380392
1434	0.497825
1446	0.266657
1458	0.317179
1470	0.763619
1482	1.10803
1494	0.561039
1506	0.164997
1518	0.0879819
1530	0.0646926
1542	0.0600101
1554	0.0697448
1566	0.15058
1578	0.325065
1590	0.212808
1602	0.0868729
1614	0.0432516
1626	0.0305596
1638	0.0252609
1650	0.0250145
1662	0.0229197
1674	0.0226732
1686	0.0241519
1698	0.0239055
1710	0.0171281
1722	0.0125688
1734	0.0126921
1746	0.0133082
1758	0.014294
1770	0.0121992
1782	0.0107205
1794	0.0115831
1806	0.0129385
1818	0.0138011
1830	0.0160191
1842	0.0129385
1854	0.0109669
1866	0.0101044
1878	0.00763989
1890	0.00948825
1902	0.0156494
1914	0.0211945
1926	0.0174978
1938	0.0139243
1950	0.0140475
1962	0.0155262
1974	0.0170049
1986	0.0183604
1998	0.0188533
2010	0.0184836
2022	0.0145404
2034	0.0123224
2046	0.0139243
2058	0.0144172
2070	0.0119527
2082	0.0102276
2094	0.0087489
2106	0.00739344
2118	0.00776311
2130	0.00911858
2142	0.0114598
2154	0.0141708
2166	0.0139243
2178	0.0125688
2190	0.0125688
2202	0.0130617
2214	0.0163888
2226	0.0452232
2238	0.0802188
2250	0.0242751
2262	0.00825601
2274	0.00850246
2286	0.0092418
2298	0.00517541
2310	0
2322	0.00135546
2334	0.00579153
2346	0.00455929
2358	0.00640765
2370	0.00800956
2382	0.0087489
2394	0.012076
2406	0.0101044
2418	0.0087489
2430	0.0087489
2442	0.0097347
2454	0.0107205
2466	0.0129385
2478	0.0152798
2490	0.0186068
2502	0.0205784
2514	0.0193462
2526	0.0182372
2538	0.0197158
2550	0.0234126
2562	0.0256306
2574	0.0241519
2586	0.01873
2598	0.0156494
2610	0.0146637
2622	0.0141708
2634	0.0145404
2646	0.0145404
2658	0.0146637
2670	0.0136779
2682	0.0128153
2694	0.0135546
2706	0.0151566
2718	0.0151566
2730	0.0158959
2742	0.0161423
2754	0.0161423
2766	0.015403
2778	0.0160191
2790	0.0186068
2802	0.0239055
2814	0.0342563
2826	0.06383
2838	0.14639
2850	0.177443
2862	0.101537
2874	0.0934038
2886	0.106589
2898	0.113366
2910	0.124703
2922	0.143679
2934	0.204059
2946	0.355378
2958	0.324818
2970	0.220694
2982	0.169433
2994	0.152921
3006	0.201594
3018	0.205784
3030	0.111394
3042	0.0703609
3054	0.0579153
3066	0.0590243
3078	0.0876123
3090	0.0948825
3102	0.0443606
3114	0.021441
3126	0.0163888
3138	0.0136779
3150	0.0129385
3162	0.0114598
3174	0.00948825
3186	0.00763989
3198	0.00554508
3210	0.0056683
3222	0.00492896
3234	0.00492896
3246	0.00455929
3258	0.00418962
3270	0.00443606
3282	0.00443606
3294	0.00394317
3306	0.00418962
3318	0.00381994
3330	0.00443606
3342	0.00369672
3354	0.00418962
3366	0.0035735
3378	0.0035735
3390	0.00369672
3402	0.0030806
3414	0.00345027
3426	0.00345027
3438	0.00271093
3450	0.00332705
3462	0.00455929
3474	0.00431284
3486	0.00320382
3498	0.00283415
3510	0.0025877
3522	0.0025877
3534	0.00197158
3546	0.00221803
3558	0.00197158
3570	0.00135546
3582	0.00221803
3594	0.00221803
3606	0.00271093
3618	0.000739344
3630	0.00172514
3642	0.00184836
3654	0
3666	0.00123224
3678	0.00135546
3690	0.00295738
3702	0.00283415
3714	0.000739344
3726	0.00320382
3738	0.00221803
3750	0.000739344
3762	0.000492896
3774	0.000246448
3786	0
3798	0.00135546
3810	0.00061612
3822	0.00246448
3834	0.0030806
3846	0.00184836
3858	0.000123224
3870	0.0035735
3882	0.00554508
3894	0.00480574
3906	0.0025877
3918	0.00529863
3930	0.00369672
3942	0.00517541
3954	0.0030806
3966	0.00295738
