Infrared Spectrum: Indole-3-carboxylic acid, 1-methyl-, ethyl ester
Formula: C 12 H 13 N O 2
CAS: 56559-60-5
Origin: Sadtler Research Labs Under US-EPA Contract
1/CM	ABSORBANCE
450	0.00459296
462	0.00531061
474	0.00215295
486	0.00186589
498	0.0028706
510	0.00516708
522	0.00703297
534	0.00789415
546	0.0104777
558	0.0180848
570	0.0555461
582	0.0279884
594	0.00631532
606	0.00401884
618	0.00301413
630	0.00258354
642	0.00114824
654	0.0028706
666	0.00200942
678	0.00387531
690	0.00803768
702	0.0101906
714	0.00918592
726	0.081238
738	0.348491
750	0.23582
762	0.0756403
774	0.140229
786	0.0485131
798	0.0188024
810	0.0179412
822	0.0245436
834	0.0308589
846	0.0239695
858	0.0140659
870	0.0172236
882	0.0103342
894	0.00660238
906	0.0057412
918	0.00832474
930	0.0133483
942	0.00947298
954	0.0139224
966	0.0344472
978	0.0826733
990	0.0726262
1002	0.0463602
1014	0.126593
1026	0.170801
1038	0.211994
1050	0.156448
1062	0.143243
1074	0.0874098
1086	0.176398
1098	0.889025
1110	0.839507
1122	0.1675
1134	0.144391
1146	0.366432
1158	0.446091
1170	0.254048
1182	0.192474
1194	0.151568
1206	0.36758
1218	1.38894
1230	0.657654
1242	0.111953
1254	0.124441
1266	0.325957
1278	0.159749
1290	0.0505226
1302	0.0686073
1314	0.0650191
1326	0.124728
1338	0.0973133
1350	0.10004
1362	0.172236
1374	0.285768
1386	0.265961
1398	0.12645
1410	0.0974569
1422	0.120852
1434	0.0937251
1446	0.0714779
1458	0.168361
1470	0.341745
1482	0.155587
1494	0.0654497
1506	0.040619
1518	0.0711909
1530	0.22893
1542	0.593927
1554	0.29926
1566	0.0806639
1578	0.0770756
1590	0.0475084
1602	0.0434896
1614	0.0780803
1626	0.0518143
1638	0.0271272
1650	0.0318637
1662	0.0512402
1674	0.0618614
1686	0.0829603
1698	0.110518
1710	0.217591
1722	0.787836
1734	1.02983
1746	0.226203
1758	0.0551155
1770	0.0437767
1782	0.0310025
1794	0.021673
1806	0.021673
1818	0.0140659
1830	0.00846827
1842	0.00660238
1854	0.0071765
1866	0.00703297
1878	0.00602826
1890	0.0133483
1902	0.0107648
1914	0.00631532
1926	0.0101906
1938	0.00775062
1950	0.00215295
1962	0.00244001
1974	0.00229648
1986	0.00086118
1998	0.00014353
2010	0.00014353
2022	0.00057412
2034	0.0014353
2046	0.00172236
2058	0.00157883
2070	0.00172236
2082	0.00172236
2094	0.00100471
2106	0.00071765
2118	0.00114824
2130	0.00157883
2142	0.00157883
2154	0.00114824
2166	0.00057412
2178	0.00014353
2190	0.00028706
2202	0.00057412
2214	0.00014353
2226	0.00043059
2238	0.00100471
2250	0.00086118
2262	0.00057412
2274	0.00071765
2286	0.00028706
2298	0.00057412
2310	0.00129177
2322	0.00272707
2334	0.00373178
2346	0.0043059
2358	0.00373178
2370	0.00531061
2382	0.00387531
2394	0.00272707
2406	0.00215295
2418	0.00215295
2430	0.00200942
2442	0.00200942
2454	0.00157883
2466	0.00157883
2478	0.00215295
2490	0.00244001
2502	0.00244001
2514	0.00229648
2526	0.00215295
2538	0.00229648
2550	0.00272707
2562	0.00344472
2574	0.00502355
2586	0.00459296
2598	0.0043059
2610	0.00330119
2622	0.00215295
2634	0.00200942
2646	0.00258354
2658	0.00301413
2670	0.00401884
2682	0.00502355
2694	0.00545414
2706	0.00602826
2718	0.00688944
2730	0.0071765
2742	0.00631532
2754	0.00631532
2766	0.0071765
2778	0.00803768
2790	0.00947298
2802	0.0133483
2814	0.0208118
2826	0.0294236
2838	0.0298542
2850	0.0232519
2862	0.0256919
2874	0.0440637
2886	0.0750662
2898	0.0775062
2910	0.0924333
2922	0.116259
2934	0.142956
2946	0.190895
2958	0.168791
2970	0.155156
2982	0.192043
2994	0.150563
3006	0.0891321
3018	0.0519579
3030	0.0417672
3042	0.0459296
3054	0.0800897
3066	0.12157
3078	0.0862615
3090	0.0374613
3102	0.0343037
3114	0.0152142
3126	0.0120565
3138	0.00932945
3150	0.00746356
3162	0.00645885
3174	0.00459296
3186	0.00373178
3198	0.00401884
3210	0.00358825
3222	0.00315766
3234	0.0028706
3246	0.00244001
3258	0.00244001
3270	0.00488002
3282	0.00373178
3294	0.00244001
3306	0.00186589
3318	0.00157883
3330	0.00086118
3342	0.0014353
3354	0.00114824
3366	0.00172236
3378	0.00172236
3390	0.00129177
3402	0.00229648
3414	0.00244001
3426	0.00401884
3438	0.00488002
3450	0.00315766
3462	0.00100471
3474	0.00043059
3486	0
3498	0.00172236
3510	0.00200942
3522	0.0014353
3534	0.00086118
3546	0.00129177
3558	0.00028706
3570	0.00114824
3582	0.00172236
3594	0.00129177
3606	0.0014353
3618	0.00114824
3630	0.00186589
3642	0.00114824
3654	0.00071765
3666	0.00114824
3678	0.00114824
3690	0.00172236
3702	0.00186589
3714	0.00200942
3726	0.00186589
3738	0.00129177
3750	0.00172236
3762	0.00114824
3774	0.00157883
3786	0.0014353
3798	0.00086118
3810	0.00157883
3822	0.00157883
3834	0.00215295
3846	0.0028706
3858	0.00215295
3870	0.00215295
3882	0.0014353
3894	0.00057412
3906	0.00200942
3918	0.00186589
3930	0.00057412
3942	0.00157883
3954	0.00114824
3966	0.00172236
