Infrared Spectrum: Pentane, 1,5-dichloro-3-methyl-,
Formula: C 6 H 12 Cl 2
CAS: 56702-89-7
Origin: Sadtler Research Labs Under US-EPA Contract
1/CM	ABSORBANCE
450	0.0226674
462	0.0114858
474	0.00950812
486	0.0114858
498	0.0113337
510	0.00585701
522	0.000836715
534	0.00372719
546	0.00418358
558	0.00578094
570	0.00121704
582	0.00342292
594	0.0015213
606	0.00159736
618	0.00867141
630	0.0123986
642	0.0261664
654	0.0785751
666	0.200279
678	0.172059
690	0.0525609
702	0.0392495
714	0.0515721
726	0.13532
738	0.206364
750	0.16179
762	0.159584
774	0.059635
786	0.0387931
798	0.0270791
810	0.0168864
822	0.016354
834	0.0212982
846	0.023428
858	0.0297414
870	0.0425203
882	0.0765214
894	0.0624494
906	0.0390213
918	0.0238083
930	0.0237323
942	0.0232759
954	0.0174949
966	0.0165822
978	0.0137678
990	0.0189402
1002	0.0300457
1014	0.0423682
1026	0.0382607
1038	0.0266988
1050	0.017571
1062	0.0106491
1074	0.0109534
1086	0.0153651
1098	0.0121704
1110	0.0119422
1122	0.0220588
1134	0.0207657
1146	0.0166582
1158	0.0170386
1170	0.0255578
1182	0.0299696
1194	0.0264706
1206	0.0194726
1218	0.0181035
1230	0.0244169
1242	0.0514199
1254	0.0881593
1266	0.0641989
1278	0.0758368
1290	0.185751
1302	0.22287
1314	0.152054
1326	0.103601
1338	0.0862577
1350	0.0773581
1362	0.0781188
1374	0.0625254
1386	0.0906695
1398	0.0519524
1410	0.0190162
1422	0.0249493
1434	0.0645792
1446	0.129234
1458	0.185446
1470	0.140036
1482	0.0607759
1494	0.0182556
1506	0.00943206
1518	0.00684585
1530	0.00502029
1542	0.00463997
1554	0.00289047
1566	0.00273834
1578	0.0028144
1590	0.00266227
1602	0.00235801
1614	0.00258621
1626	0.00243408
1638	0.00365112
1650	0.00289047
1662	0.00289047
1674	0.00334686
1686	0.00357505
1698	0.00327079
1710	0.00311867
1722	0.00334686
1734	0.00357505
1746	0.00509635
1758	0.00570487
1770	0.00669372
1782	0.00562881
1794	0.00387931
1806	0.00251015
1818	0.00205375
1830	0.00182556
1842	0.00190162
1854	0.00190162
1866	0.00228195
1878	0.00212982
1890	0.00205375
1902	0.00190162
1914	0.00106491
1926	0.00121704
1938	0.00106491
1950	0.00091278
1962	0.00212982
1974	0.00251015
1986	0.00205375
1998	0.00220588
2010	0.00258621
2022	0.00266227
2034	0.00380325
2046	0.00441177
2058	0.00471603
2070	0.0043357
2082	0.00289047
2094	0.00273834
2106	0.00289047
2118	0.0030426
2130	0.00342292
2142	0.0028144
2154	0.00289047
2166	0.00319473
2178	0.00342292
2190	0.00327079
2202	0.00380325
2214	0.00342292
2226	0.00349899
2238	0.00327079
2250	0.0028144
2262	0.00327079
2274	0.00296653
2286	0.00319473
2298	0.00395538
2310	0.00463997
2322	0.00418358
2334	0.00289047
2346	0.00228195
2358	0.00372719
2370	0.00174949
2382	0.00228195
2394	0.00357505
2406	0.00372719
2418	0.00220588
2430	0.00190162
2442	0.00197769
2454	0.00190162
2466	0.00212982
2478	0.00205375
2490	0.00144524
2502	0.00060852
2514	0.000380325
2526	0.00114098
2538	0.00030426
2550	0.000532455
2562	0.0012931
2574	0.0015213
2586	0.00197769
2598	0.00159736
2610	0.00197769
2622	0.00258621
2634	0.00296653
2646	0.0043357
2658	0.00524848
2670	0.00524848
2682	0.00578094
2694	0.00829109
2706	0.00905173
2718	0.00806289
2730	0.00988845
2742	0.0119422
2754	0.0126268
2766	0.0111816
2778	0.00897567
2790	0.0121704
2802	0.0132353
2814	0.0161258
2826	0.0247211
2838	0.0525609
2850	0.08428
2862	0.0840518
2874	0.158443
2886	0.261131
2898	0.245005
2910	0.221653
2922	0.247972
2934	0.395386
2946	0.448099
2958	0.387171
2970	0.708469
2982	0.507277
2994	0.207049
3006	0.220208
3018	0.0726421
3030	0.0231238
3042	0.014072
3054	0.00882354
3066	0.00661766
3078	0.00494423
3090	0.00380325
3102	0.00251015
3114	0.00167343
3126	0.00266227
3138	0.00212982
3150	0.00273834
3162	0.00296653
3174	0.00205375
3186	0.00380325
3198	0.0030426
3210	0.00197769
3222	0.00228195
3234	0.00174949
3246	0.00106491
3258	0.000836715
3270	0.00060852
3282	0.00190162
3294	0.00251015
3306	0.0028144
3318	0.00342292
3330	0.00425964
3342	0.00372719
3354	0.00463997
3366	0.00395538
3378	0.00463997
3390	0.00494423
3402	0.00509635
3414	0.00479209
3426	0.00547668
3438	0.00418358
3450	0.00289047
3462	0.00342292
3474	0.00220588
3486	0.00410751
3498	0.00266227
3510	0.00509635
3522	0.00387931
3534	0.00212982
3546	0.00296653
3558	0.00357505
3570	0.0045639
3582	0.00273834
3594	0.00251015
3606	0.00144524
3618	0.00182556
3630	0.00167343
3642	0.00311867
3654	0.00365112
3666	0.00212982
3678	0.00365112
3690	0.00296653
3702	0.00167343
3714	0.00418358
3726	0.00540062
3738	0.0030426
3750	0.00114098
3762	0.00091278
3774	0.00425964
3786	0.00015213
3798	0.00205375
3810	0.00220588
3822	0.00448783
3834	0.00441177
3846	0.00167343
3858	0.00296653
3870	0.000532455
3882	0.00205375
3894	0.00387931
3906	0.00136917
3918	0.00349899
3930	0.00494423
3942	0.00540062
3954	0.00532455
3966	0.00121704
