Infrared Spectrum: 2,6-Dimethoxytoluene
Formula: C 9 H 12 O 2
CAS: 5673-07-4
Origin: Sadtler Research Labs Under US-EPA Contract
1/CM	ABSORBANCE
450	0
462	0.0426345
474	0.069405
486	0.0644475
498	0.0556893
510	0.0441218
522	0.048914
534	0.0408167
546	0.0393295
558	0.0380075
570	0.0512275
582	0.0551935
594	0.0558545
606	0.0444522
618	0.0413125
630	0.0365203
642	0.0408167
654	0.0424693
666	0.0467658
678	0.0629602
690	0.11237
702	0.195326
714	0.188055
726	0.0890698
738	0.0596552
750	0.072049
762	0.152856
774	0.214329
786	0.142611
798	0.0732057
810	0.0470962
822	0.0441218
834	0.040982
846	0.0480877
858	0.0434607
870	0.0546978
882	0.0510623
894	0.0444522
906	0.040982
918	0.040321
930	0.0399905
942	0.043626
954	0.0480877
966	0.0494098
978	0.0578375
990	0.0741973
1002	0.0956798
1014	0.109561
1026	0.108074
1038	0.116171
1050	0.134844
1062	0.157648
1074	0.176818
1086	0.227384
1098	0.349338
1110	0.716028
1122	1.43949
1134	1.60127
1146	0.72049
1158	0.227219
1170	0.344877
1182	0.304721
1194	0.147238
1206	0.0867563
1218	0.110057
1230	0.22821
1242	0.669593
1254	0.995962
1266	0.494428
1278	0.310505
1290	0.214329
1302	0.187559
1314	0.165746
1326	0.0999763
1338	0.0821293
1350	0.0703965
1362	0.0682482
1374	0.072049
1386	0.0748583
1398	0.0789895
1410	0.097167
1422	0.167729
1434	0.391973
1446	0.405193
1458	0.420727
1470	0.985055
1482	0.767091
1494	0.236968
1506	0.115014
1518	0.0900613
1530	0.0907223
1542	0.1089
1554	0.131209
1566	0.188055
1578	0.378092
1590	0.752383
1602	0.613904
1614	0.235151
1626	0.119145
1638	0.0822945
1650	0.0718837
1662	0.064117
1674	0.0697355
1686	0.0622993
1698	0.0500708
1710	0.0434607
1722	0.041643
1734	0.0424693
1746	0.0404863
1758	0.0388338
1770	0.0411473
1782	0.0427998
1794	0.0459395
1806	0.043626
1818	0.0413125
1830	0.0408167
1842	0.036355
1854	0.035033
1866	0.0378423
1878	0.044948
1890	0.04627
1902	0.0401558
1914	0.0401558
1926	0.0404863
1938	0.0411473
1950	0.0394948
1962	0.0348678
1974	0.0332153
1986	0.0333805
1998	0.0332153
2010	0.033711
2022	0.0366855
2034	0.0393295
2046	0.0406515
2058	0.0381727
2070	0.0348678
2082	0.03305
2094	0.0338763
2106	0.0358593
2118	0.0391643
2130	0.0446175
2142	0.0513928
2154	0.052219
2166	0.0472615
2178	0.0434607
2190	0.0385033
2202	0.0335457
2214	0.0313975
2226	0.031067
2238	0.0307365
2250	0.031728
2262	0.0325542
2274	0.034372
2286	0.0351983
2298	0.0348678
2310	0.0340415
2322	0.031728
2334	0.0332153
2346	0.038338
2358	0.0380075
2370	0.0348678
2382	0.0338763
2394	0.0313975
2406	0.0315628
2418	0.031067
2430	0.0299102
2442	0.0295798
2454	0.029084
2466	0.0300755
2478	0.0322238
2490	0.034372
2502	0.0371812
2514	0.0404863
2526	0.0413125
2538	0.0393295
2550	0.0351983
2562	0.0335457
2574	0.0342068
2586	0.0342068
2598	0.0348678
2610	0.0361897
2622	0.0355287
2634	0.034372
2646	0.034372
2658	0.0335457
2670	0.0315628
2682	0.0315628
2694	0.0327195
2706	0.0338763
2718	0.0366855
2730	0.040321
2742	0.0421388
2754	0.0411473
2766	0.0413125
2778	0.0446175
2790	0.0494098
2802	0.0586638
2814	0.075354
2826	0.109561
2838	0.251345
2850	0.292823
2862	0.164093
2874	0.149386
2886	0.163928
2898	0.197143
2910	0.251015
2922	0.292162
2934	0.370491
2946	0.53855
2958	0.459395
2970	0.27101
2982	0.196317
2994	0.262913
3006	0.334136
3018	0.191525
3030	0.128234
3042	0.115345
3054	0.111379
3066	0.121293
3078	0.129887
3090	0.139141
3102	0.107413
3114	0.05949
3126	0.044287
3138	0.0408167
3150	0.038999
3162	0.0371812
3174	0.0366855
3186	0.0353635
3198	0.0355287
3210	0.03305
3222	0.0318932
3234	0.0313975
3246	0.0313975
3258	0.0315628
3270	0.0300755
3282	0.0315628
3294	0.0302408
3306	0.030406
3318	0.0292493
3330	0.029084
3342	0.0305713
3354	0.0307365
3366	0.0313975
3378	0.0299102
3390	0.0294145
3402	0.0302408
3414	0.0302408
3426	0.0309018
3438	0.0307365
3450	0.0305713
3462	0.0295798
3474	0.0313975
3486	0.0313975
3498	0.0294145
3510	0.0299102
3522	0.030406
3534	0.0309018
3546	0.031728
3558	0.0312322
3570	0.032389
3582	0.0322238
3594	0.0312322
3606	0.0322238
3618	0.0327195
3630	0.0313975
3642	0.0313975
3654	0.03305
3666	0.032389
3678	0.0328848
3690	0.0322238
3702	0.0322238
3714	0.0325542
3726	0.0345372
3738	0.0332153
3750	0.0299102
3762	0.0318932
3774	0.0320585
3786	0.0325542
3798	0.031067
3810	0.0309018
3822	0.0327195
3834	0.0292493
3846	0.031728
3858	0.035033
3870	0.0322238
3882	0.035694
3894	0.033711
3906	0.0351983
3918	0.0328848
3930	0.0322238
3942	0.033711
3954	0.035033
3966	0.031067
