Infrared Spectrum: 2,4-Pentanediol, 3-methyl-
Formula: C 6 H 14 O 2
CAS: 5683-44-3
Origin: Sadtler Research Labs Under US-EPA Contract
1/CM	ABSORBANCE
450	0.0306662
462	0.0117172
474	0.00668249
486	0.023526
498	0.0353348
510	0.0397288
522	0.0310324
534	0.0248992
546	0.02911
558	0.0241668
570	0.0234345
582	0.0228852
594	0.0202306
606	0.0278285
618	0.0258146
630	0.0270961
642	0.0238922
654	0.0166605
666	0.0228852
678	0.0248076
690	0.0156535
702	0.0151958
714	0.0153789
726	0.0180336
738	0.0199559
750	0.023343
762	0.0205967
774	0.0220614
786	0.0239837
798	0.0272792
810	0.0274623
822	0.0363418
834	0.0457705
846	0.0497068
858	0.0398203
870	0.0401865
882	0.0666418
894	0.147656
906	0.218875
918	0.212009
930	0.167612
942	0.109117
954	0.0982235
966	0.122573
978	0.149761
990	0.188758
1002	0.214297
1014	0.226747
1026	0.243316
1038	0.274623
1050	0.289636
1062	0.279109
1074	0.283319
1086	0.296593
1098	0.317281
1110	0.347032
1122	0.369734
1134	0.359665
1146	0.31307
1158	0.253385
1170	0.178505
1182	0.120559
1194	0.105913
1206	0.117996
1218	0.139508
1230	0.167703
1242	0.193975
1254	0.200841
1266	0.192328
1278	0.186194
1290	0.189398
1302	0.174935
1314	0.145001
1326	0.127974
1338	0.130171
1350	0.149212
1362	0.195623
1374	0.308859
1386	0.399943
1398	0.328632
1410	0.230775
1422	0.159831
1434	0.119827
1446	0.143902
1458	0.180061
1470	0.15205
1482	0.084767
1494	0.0423835
1506	0.0266384
1518	0.0193152
1530	0.0156535
1542	0.0129073
1554	0.0104357
1566	0.0096118
1578	0.00924564
1590	0.00906256
1602	0.00933718
1614	0.00897102
1626	0.00851331
1638	0.0104357
1650	0.0131819
1662	0.00988643
1674	0.015562
1686	0.0215121
1698	0.00778098
1710	0.00494321
1722	0.00530938
1734	0.00457705
1746	0.00448551
1758	0.00576708
1770	0.00411934
1782	0.00247161
1794	0.00247161
1806	0.00265469
1818	0.00219698
1830	0.00238007
1842	0.00210544
1854	0.00219698
1866	0.00238007
1878	0.00265469
1890	0.00283777
1902	0.00274623
1914	0.00274623
1926	0.00302085
1938	0.00247161
1950	0.00283777
1962	0.00210544
1974	0.00210544
1986	0.00173928
1998	0.00173928
2010	0.00192236
2022	0.00210544
2034	0.0020139
2046	0.00183082
2058	0.00164774
2070	0.0015562
2082	0.00173928
2094	0.0015562
2106	0.00173928
2118	0.00164774
2130	0.00183082
2142	0.00219698
2154	0.0020139
2166	0.00173928
2178	0.0020139
2190	0.00146466
2202	0.00164774
2214	0.0020139
2226	0.00173928
2238	0.00137311
2250	0.00173928
2262	0.00210544
2274	0.00292931
2286	0.00292931
2298	0.00238007
2310	0.00173928
2322	0.00320393
2334	0.00485167
2346	0.005584
2358	0.00411934
2370	0.00604171
2382	0.00457705
2394	0.00448551
2406	0.00476013
2418	0.00530938
2430	0.00567554
2442	0.00530938
2454	0.0051263
2466	0.00448551
2478	0.00439397
2490	0.00384472
2502	0.00393626
2514	0.00384472
2526	0.00393626
2538	0.00430243
2550	0.0051263
2562	0.00595016
2574	0.0075979
2586	0.00897102
2598	0.0101611
2610	0.0115342
2622	0.013365
2634	0.0149212
2646	0.0164774
2658	0.0175759
2670	0.0186744
2682	0.018949
2694	0.0186744
2706	0.0183082
2718	0.0192236
2730	0.0219698
2742	0.0238007
2754	0.0242584
2766	0.0255399
2778	0.0281946
2790	0.0327717
2802	0.0395457
2814	0.0482421
2826	0.059227
2838	0.0767114
2850	0.104723
2862	0.158274
2874	0.274623
2886	0.439397
2898	0.509883
2910	0.443058
2922	0.397563
2934	0.440038
2946	0.443425
2958	0.426764
2970	0.703767
2982	0.91541
2994	0.559865
3006	0.180427
3018	0.0588609
3030	0.0341448
3042	0.0259061
3054	0.0215121
3066	0.0187659
3078	0.0171182
3090	0.0151043
3102	0.0136396
3114	0.0129073
3126	0.0115342
3138	0.0112595
3150	0.0115342
3162	0.0113511
3174	0.0119003
3186	0.0108934
3198	0.0103441
3210	0.00787253
3222	0.0051263
3234	0.0035701
3246	0.00247161
3258	0.00210544
3270	0.00183082
3282	0.00164774
3294	0.00219698
3306	0.00219698
3318	0.00274623
3330	0.00320393
3342	0.00366164
3354	0.00347856
3366	0.00393626
3378	0.00530938
3390	0.00503476
3402	0.00540092
3414	0.00659095
3426	0.00778098
3438	0.00878794
3450	0.00924564
3462	0.0116257
3474	0.0125411
3486	0.012358
3498	0.0149212
3510	0.015562
3522	0.0188574
3534	0.0236176
3546	0.0356094
3558	0.0772606
3570	0.161844
3582	0.242858
3594	0.231233
3606	0.143811
3618	0.08376
3630	0.0734159
3642	0.104814
3654	0.146191
3666	0.113694
3678	0.0464113
3690	0.0168435
3702	0.00997797
3714	0.00741482
3726	0.00457705
3738	0.00302085
3750	0.0020139
3762	0.00137311
3774	0.00137311
3786	0.00137311
3798	0.00137311
3810	0.0015562
3822	0.00137311
3834	0.00137311
3846	0.00137311
3858	0.00137311
3870	0.00137311
3882	0.00137311
3894	0.00137311
3906	0.00137311
3918	0.00137311
3930	0.00137311
3942	0.00137311
3954	0.00137311
3966	0.00137311
