Infrared Spectrum: Ethanol, 2-(4,6-dichloro-o-tolyl)-,
Formula: C 9 H 10 Cl 2 O 2
CAS: 56949-53-2
Origin: Sadtler Research Labs Under US-EPA Contract
1/CM	ABSORBANCE
450	0.0196247
462	0.00992962
474	0.00340109
486	0.00516028
498	0.0129007
510	0.0147772
522	0.0193901
534	0.00551211
546	0.00144644
558	0.00367474
570	0.0203284
582	0.0339718
594	0.00551211
606	0.00117279
618	0.000899139
630	0.00121188
642	0.00187646
654	0.00203284
666	0.00418295
678	0.00965597
690	0.030258
702	0.0548084
714	0.0242377
726	0.0128616
738	0.021032
750	0.0745113
762	0.0920249
774	0.0280297
786	0.0117279
798	0.0126661
810	0.0277951
822	0.0879593
834	0.174159
846	0.0960906
858	0.163761
870	0.105668
882	0.0905785
894	0.13964
906	0.124668
918	0.0586786
930	0.0225567
942	0.0181001
954	0.0197029
966	0.0242377
978	0.0349882
990	0.0612196
1002	0.122947
1014	0.219273
1026	0.303831
1038	0.201094
1050	0.125059
1062	0.107858
1074	0.147459
1086	0.145856
1098	0.0860046
1110	0.0472634
1122	0.0256841
1134	0.0220875
1146	0.0277951
1158	0.0620797
1170	0.231391
1182	0.314816
1194	0.0902266
1206	0.181861
1218	0.192768
1230	0.0749022
1242	0.105317
1254	0.224628
1266	0.2629
1278	0.122908
1290	0.0715793
1302	0.0421423
1314	0.032799
1326	0.03491
1338	0.0392103
1350	0.0488662
1362	0.123573
1374	0.11853
1386	0.0786942
1398	0.126583
1410	0.104456
1422	0.124159
1434	0.279398
1446	0.314816
1458	0.367044
1470	0.382603
1482	0.165207
1494	0.0768568
1506	0.0485926
1518	0.0343237
1530	0.029437
1542	0.0323299
1554	0.0515246
1566	0.0813916
1578	0.0716184
1590	0.0413995
1602	0.0189992
1614	0.00887411
1626	0.00484753
1638	0.00242377
1650	0.00140735
1662	0.00121188
1674	0.00175918
1686	0.00175918
1698	0.00328381
1710	0.0128616
1722	0.019742
1734	0.0132525
1746	0.00422204
1758	0.00324472
1770	0.00238467
1782	0.00172009
1794	0.000899139
1806	0.00105551
1818	0.000234558
1830	0.000312744
1842	0.000547302
1854	0.00152463
1866	0.001681
1878	0.00132916
1890	0.00175918
1902	0.0028147
1914	0.00308835
1926	0.00183737
1938	0.00211102
1950	0.00301016
1962	0.00430023
1974	0.00398749
1986	0.00234558
1998	0.00230649
2010	0.00304925
2022	0.00304925
2034	0.0022283
2046	0.00152463
2058	0.00121188
2070	0.00132916
2082	0.00148553
2094	0.00144644
2106	0.00140735
2118	0.00101642
2130	0.000820953
2142	0.000703674
2154	0.000899139
2166	0.0010946
2178	0.000664581
2190	0.000117279
2202	0.000351837
2214	0.000117279
2226	0.000195465
2238	0.000273651
2250	0.00039093
2262	0.000742767
2274	0.00129007
2286	0.00179828
2298	0.00230649
2310	0.00297107
2322	0.00250195
2334	0.00140735
2346	0.00265832
2358	0.00258014
2370	0.00265832
2382	0.00273651
2394	0.0011337
2406	0.0010946
2418	0.00160281
2430	0.00234558
2442	0.00195465
2454	0.00179828
2466	0.00191556
2478	0.00211102
2490	0.001681
2502	0.00187646
2514	0.00250195
2526	0.00250195
2538	0.00207193
2550	0.00144644
2562	0.000977325
2574	0.000703674
2586	0.000664581
2598	0.000586395
2610	0.000938232
2622	0.00140735
2634	0.00203284
2646	0.00258014
2658	0.00218921
2670	0.00258014
2682	0.00285379
2694	0.00367474
2706	0.00453479
2718	0.00590304
2730	0.00699765
2742	0.00789679
2754	0.00703674
2766	0.00656762
2778	0.00762313
2790	0.0089132
2802	0.0105551
2814	0.0127443
2826	0.0152854
2838	0.0179437
2850	0.0250977
2862	0.0429632
2874	0.0767787
2886	0.0972243
2898	0.0761923
2910	0.0702501
2922	0.094566
2934	0.15
2946	0.188976
2958	0.165207
2970	0.116263
2982	0.0696637
2994	0.0432369
3006	0.0258796
3018	0.01767
3030	0.0139171
3042	0.0127052
3054	0.0125879
3066	0.0146208
3078	0.010946
3090	0.0061376
3102	0.00371383
3114	0.0027756
3126	0.00207193
3138	0.00175918
3150	0.00148553
3162	0.00125098
3174	0.00136826
3186	0.000586395
3198	0.0010946
3210	0.00039093
3222	0.0010946
3234	0.000234558
3246	0.000508209
3258	0.00039093
3270	0.000195465
3282	0.00078186
3294	0.000508209
3306	0.000820953
3318	0.000860046
3330	0.000703674
3342	0.000860046
3354	0.000469116
3366	0.000430023
3378	7.8186e-05
3390	0.000195465
3402	0.000547302
3414	0.000586395
3426	0.000899139
3438	0.000156372
3450	0.00078186
3462	0.000234558
3474	0.000820953
3486	0.000664581
3498	0.00101642
3510	0.00152463
3522	0.001681
3534	0.00211102
3546	0.00199374
3558	0.00156372
3570	0.00433932
3582	0.00488663
3594	0.00492572
3606	0.00856137
3618	0.0166927
3630	0.0434323
3642	0.0474589
3654	0.0350273
3666	0.0310789
3678	0.0251759
3690	0.0126661
3702	0.00680218
3714	0.00453479
3726	0.00230649
3738	0.00172009
3750	0.000820953
3762	0.00246286
3774	0.00125098
3786	0.00140735
3798	7.8186e-05
3810	0.000547302
3822	7.8186e-05
3834	7.8186e-05
3846	0
3858	7.8186e-05
3870	7.8186e-05
3882	0.000117279
3894	0.000195465
3906	0.000312744
3918	0.00078186
3930	0.000156372
3942	0.000508209
3954	0.000703674
3966	0.00129007
