Infrared Spectrum: Ethanol, 2-(2,3,5-trimethylphenoxy)-,
Formula: C 11 H 16 O 2
CAS: 56949-56-5
Origin: Sadtler Research Labs Under US-EPA Contract
1/CM	ABSORBANCE
450	0.0140492
462	0.0107592
474	0.0188508
486	0.0209849
498	0.0108481
510	0.0112038
522	0.0147606
534	0.0190287
546	0.0136046
558	0.0128043
570	0.021963
582	0.0372571
594	0.0277427
606	0.0224076
618	0.0272981
630	0.0397468
642	0.0523733
654	0.0176949
666	0.00640217
678	0.00248973
690	0.000800271
702	0.00586865
714	0.0182284
726	0.0144049
738	0.00524622
750	0.0074692
762	0.00391244
774	0.000266757
786	0.0014227
798	0.00604649
810	0.0205403
822	0.0866071
834	0.156409
846	0.143871
858	0.101901
870	0.0668671
882	0.0741584
894	0.0983444
906	0.0763814
918	0.0602871
930	0.0469492
942	0.0357454
954	0.0508617
966	0.113105
978	0.109993
990	0.105102
1002	0.138447
1014	0.186107
1026	0.270047
1038	0.359233
1050	0.433124
1062	0.525511
1074	0.57664
1086	0.412406
1098	0.497146
1110	0.832282
1122	0.713486
1134	0.434458
1146	0.631325
1158	0.263467
1170	0.116662
1182	0.0879409
1194	0.10937
1206	0.140225
1218	0.111416
1230	0.0956768
1242	0.142893
1254	0.149117
1266	0.236613
1278	0.420943
1290	0.459356
1302	0.658623
1314	0.5248
1326	0.204158
1338	0.113905
1350	0.105369
1362	0.146272
1374	0.188597
1386	0.162544
1398	0.178905
1410	0.242482
1422	0.334513
1434	0.307838
1446	0.235635
1458	0.263823
1470	0.237325
1482	0.312728
1494	0.329889
1506	0.1637
1518	0.114439
1530	0.109637
1542	0.125287
1554	0.176504
1566	0.275026
1578	0.378439
1590	0.324643
1602	0.224787
1614	0.292899
1626	0.141648
1638	0.0425033
1650	0.0272092
1662	0.0225854
1674	0.0226743
1686	0.0221408
1698	0.0225854
1710	0.0247195
1722	0.018673
1734	0.0136935
1746	0.0144049
1758	0.0128933
1770	0.00880298
1782	0.00453487
1794	0.00337892
1806	0.00151162
1818	0
1830	0.000622433
1842	0.000711352
1854	0.00115595
1866	0.00213406
1878	0.00329
1890	0.00364568
1902	0.00293433
1914	0.00293433
1926	0.00329
1938	0.00444595
1950	0.00551298
1962	0.00586865
1974	0.00497946
1986	0.00337892
1998	0.00266757
2010	0.00204514
2022	0.0014227
2034	0.0018673
2046	0.00213406
2058	0.0018673
2070	0.00222297
2082	0.00248973
2094	0.00266757
2106	0.00391244
2118	0.00595757
2130	0.0074692
2142	0.00729136
2154	0.00577973
2166	0.00444595
2178	0.00355676
2190	0.00231189
2202	0.00151162
2214	0.00124487
2226	0.00115595
2238	0.00124487
2250	0.00115595
2262	0.000444595
2274	0.000533514
2286	8.8919e-05
2298	8.8919e-05
2310	0.000711352
2322	0.00257865
2334	0.00382352
2346	0.00720244
2358	0.00604649
2370	0.00693568
2382	0.00577973
2394	0.00453487
2406	0.00471271
2418	0.00542406
2430	0.0056019
2442	0.00524622
2454	0.0051573
2466	0.00480163
2478	0.00462379
2490	0.00489054
2502	0.00453487
2514	0.00551298
2526	0.00577973
2538	0.00444595
2550	0.0037346
2562	0.00355676
2574	0.00435703
2586	0.00497946
2598	0.00435703
2610	0.00320108
2622	0.00266757
2634	0.00293433
2646	0.00337892
2658	0.00462379
2670	0.00666892
2682	0.00880298
2694	0.0112927
2706	0.0150273
2718	0.0207181
2730	0.0304103
2742	0.0404581
2754	0.02961
2766	0.0259643
2778	0.0266757
2790	0.0287208
2802	0.0336114
2814	0.0409917
2826	0.0529068
2838	0.0749587
2850	0.122175
2862	0.234746
2874	0.416586
2886	0.437837
2898	0.355231
2910	0.37675
2922	0.587043
2934	0.822501
2946	0.672761
2958	0.529957
2970	0.401558
2982	0.285074
2994	0.200512
3006	0.20069
3018	0.235102
3030	0.197934
3042	0.151963
3054	0.144671
3066	0.124842
3078	0.0793157
3090	0.0445484
3102	0.0280095
3114	0.0189397
3126	0.0122708
3138	0.00826947
3150	0.00551298
3162	0.00391244
3174	0.00257865
3186	0.00195622
3198	0.0018673
3210	0.00106703
3222	0.000978109
3234	0.000533514
3246	0.000711352
3258	0.00133378
3270	0.000978109
3282	0.00115595
3294	0.00106703
3306	0.00115595
3318	0.000711352
3330	0.00133378
3342	0.00213406
3354	0.0014227
3366	0.00115595
3378	0
3390	0.00124487
3402	0.00115595
3414	0.0014227
3426	0.000978109
3438	0.0018673
3450	0.00231189
3462	0.00222297
3474	0.0018673
3486	0.00337892
3498	0.0037346
3510	0.0037346
3522	0.00400135
3534	0.00497946
3546	0.00675784
3558	0.00471271
3570	0.00631325
3582	0.00533514
3594	0.00995893
3606	0.0157387
3618	0.031833
3630	0.0770928
3642	0.123508
3654	0.0620655
3666	0.0559301
3678	0.0467714
3690	0.0289876
3702	0.0132489
3714	0.00906974
3726	0.0074692
3738	0.0074692
3750	0.00720244
3762	0.00569082
3774	0.00311216
3786	0.00320108
3798	0.00302325
3810	0.00115595
3822	0.00177838
3834	0.00284541
3846	0.00177838
3858	0.00115595
3870	0.000711352
3882	0.00177838
3894	0.00160054
3906	0.00115595
3918	0.00195622
3930	0.00284541
3942	0.000978109
3954	0.00168946
3966	0.00231189
