Infrared Spectrum: Hexadecanoic acid
Formula: C 16 H 32 O 2
CAS: 57-10-3
Origin: Sadtler Research Labs Under US-EPA Contract
1/CM	ABSORBANCE
450	0.0133027
462	0.0130017
474	0.0163725
486	0.0178171
498	0.0196831
510	0.0223918
522	0.022452
534	0.024318
546	0.0266053
558	0.0320227
570	0.0294946
582	0.0265451
594	0.0316615
606	0.0332867
618	0.0305179
630	0.0270868
642	0.020586
654	0.0114367
666	0.00963088
678	0.00872798
690	0.00969107
702	0.0110755
714	0.0154696
726	0.0160113
738	0.0131221
750	0.0111959
762	0.00740374
774	0.00529698
786	0.00306984
798	0.0016854
810	0.00150482
822	0.000541737
834	0.00132425
846	0.00294946
858	0.00300965
870	0.00246791
882	0.00415332
894	0.00331061
906	0.00264849
918	0.00306984
930	0.0017456
942	0.00252811
954	0.00294946
966	0.00288926
978	0.00397274
990	0.00565814
1002	0.00662123
1014	0.00872798
1026	0.0132425
1038	0.016854
1050	0.0228733
1062	0.0328052
1074	0.0469505
1086	0.0636842
1098	0.082344
1110	0.0987767
1122	0.098235
1134	0.0991981
1146	0.077348
1158	0.0612163
1170	0.050201
1182	0.0412924
1194	0.0344906
1206	0.0282305
1218	0.0240772
1230	0.0207064
1242	0.019021
1254	0.0199239
1266	0.0210676
1278	0.0208268
1290	0.0217899
1302	0.0214287
1314	0.0205258
1326	0.0196831
1338	0.0246189
1350	0.0335877
1362	0.038042
1374	0.0390051
1386	0.0361158
1398	0.0226928
1410	0.0142055
1422	0.0158308
1434	0.0213083
1446	0.0290732
1458	0.0469505
1470	0.0416536
1482	0.0170948
1494	0.00740374
1506	0.00553776
1518	0.00300965
1530	0.00246791
1542	0.00126405
1554	0.00186598
1566	0.00198637
1578	0.00162521
1590	0.00282907
1602	0.00252811
1614	0.00180579
1626	0.00162521
1638	0.00240772
1650	0.000421351
1662	0.00313004
1674	0.00306984
1686	0.00246791
1698	0.00632026
1710	0.0101124
1722	0.0181181
1734	0.0341896
1746	0.0595309
1758	0.104615
1770	0.182024
1782	0.215491
1794	0.11527
1806	0.0613969
1818	0.0276888
1830	0.00987165
1842	0.00595911
1854	0.00511641
1866	0.00300965
1878	0.00288926
1890	0.00246791
1902	0.00138444
1914	0.00180579
1926	0.00126405
1938	0.00132425
1950	0.00180579
1962	0.00138444
1974	0.000782509
1986	0.00150482
1998	0.000963088
2010	0.000541737
2022	0.00138444
2034	0.00114367
2046	0.00132425
2058	0.00138444
2070	0.00108347
2082	0.00150482
2094	0.00132425
2106	0.00102328
2118	0.00138444
2130	0.00156502
2142	0.00132425
2154	0.00156502
2166	0.0017456
2178	0.00150482
2190	0.00150482
2202	0.00126405
2214	0.00108347
2226	0.00138444
2238	0.000963088
2250	0.000902895
2262	0.00150482
2274	0.00138444
2286	0.00216695
2298	0.00355139
2310	0.00457467
2322	0.00313004
2334	0.00144463
2346	0.00240772
2358	0.00252811
2370	0.00204656
2382	0.00270868
2394	0.00108347
2406	0.000722316
2418	0.000902895
2430	0.000782509
2442	0.000541737
2454	0.000180579
2466	0.00060193
2478	0.000300965
2490	0.000361158
2502	0.000421351
2514	0.000300965
2526	0.000541737
2538	0.000842702
2550	0.000963088
2562	0.00114367
2574	0.00132425
2586	0.0016854
2598	0.00216695
2610	0.00228733
2622	0.0025883
2634	0.00361158
2646	0.00385235
2658	0.00445428
2670	0.00565814
2682	0.00589891
2694	0.00577853
2706	0.00595911
2718	0.00481544
2730	0.00523679
2742	0.00559795
2754	0.00571833
2766	0.00589891
2778	0.006862
2790	0.00896876
2802	0.0123396
2814	0.015891
2826	0.022452
2838	0.03431
2850	0.0784917
2862	0.218139
2874	0.164748
2886	0.109551
2898	0.107445
2910	0.175643
2922	0.340632
2934	0.60193
2946	0.368923
2958	0.18726
2970	0.147473
2982	0.0697035
2994	0.0357546
3006	0.0220306
3018	0.0151686
3030	0.0109551
3042	0.00824644
3054	0.00656104
3066	0.00626007
3078	0.00577853
3090	0.00397274
3102	0.00276888
3114	0.00204656
3126	0.00204656
3138	0.0017456
3150	0.00150482
3162	0.00198637
3174	0.00150482
3186	0.00150482
3198	0.000963088
3210	0.00126405
3222	0.00102328
3234	0.00060193
3246	0.000300965
3258	0.000722316
3270	0.00060193
3282	0.000180579
3294	0.000240772
3306	0.000120386
3318	0.000662123
3330	0.00114367
3342	0.00126405
3354	0.000902895
3366	0.00114367
3378	0.00102328
3390	0.00144463
3402	0.00138444
3414	0.00198637
3426	0.0016854
3438	0.00198637
3450	0.00180579
3462	0.00204656
3474	0.000782509
3486	0.0016854
3498	0.00192618
3510	0.000722316
3522	0.00240772
3534	0.00403293
3546	0.00626007
3558	0.013724
3570	0.0576649
3582	0.0676569
3594	0.013423
3606	0.00535718
3618	0.0043339
3630	0.00421351
3642	0.00276888
3654	0.00385235
3666	0.00246791
3678	0.00204656
3690	0.00276888
3702	0.00385235
3714	0.00325042
3726	0.00403293
3738	0.003431
3750	0.00222714
3762	0.00306984
3774	0.0025883
3786	0.00216695
3798	0.00361158
3810	0.00288926
3822	0.00180579
3834	0.00367177
3846	0.00246791
3858	0.00192618
3870	0.00210676
3882	0.00306984
3894	0.00385235
3906	0.00210676
3918	0.00379216
3930	0.00331061
3942	0.00355139
3954	0.00421351
3966	0.00240772
