Infrared Spectrum: Octadecanoic acid
Formula: C 18 H 36 O 2
CAS: 57-11-4
Origin: Sadtler Research Labs Under US-EPA Contract
1/CM	ABSORBANCE
450	0
462	0.0263874
474	0.0274868
486	0.0247671
498	0.0263295
510	0.0296279
522	0.0266767
534	0.0263874
546	0.0267346
558	0.0296858
570	0.031306
582	0.027429
594	0.031306
606	0.0344309
618	0.0325213
630	0.032637
642	0.0302644
654	0.02957
666	0.0280655
678	0.0276026
690	0.0266188
702	0.0290492
714	0.0333314
726	0.0320583
738	0.0311324
750	0.0272554
762	0.0250564
774	0.0244777
786	0.0230311
798	0.0218159
810	0.0215265
822	0.0213529
834	0.0217001
846	0.0217001
858	0.0220473
870	0.0230311
882	0.0230889
894	0.0225103
906	0.0225103
918	0.0219895
930	0.0218159
942	0.0215265
954	0.0227417
966	0.022626
978	0.022626
990	0.0240727
1002	0.0251143
1014	0.0272554
1026	0.0285863
1038	0.0324055
1050	0.038308
1062	0.0442683
1074	0.0548
1086	0.0692668
1098	0.0839071
1110	0.0957699
1122	0.0975059
1134	0.0964064
1146	0.0788727
1158	0.0664313
1170	0.0570569
1182	0.0503443
1194	0.0451941
1206	0.0399861
1218	0.0362826
1230	0.0333893
1242	0.0320005
1254	0.0328685
1266	0.0340258
1278	0.0332157
1290	0.0345466
1302	0.0347202
1314	0.0333893
1326	0.0335629
1338	0.0374399
1350	0.0454256
1362	0.0487819
1374	0.0494763
1386	0.0458885
1398	0.0356461
1410	0.0285863
1422	0.0295122
1434	0.0341415
1446	0.0413749
1458	0.0581563
1470	0.052659
1482	0.0295122
1494	0.0219316
1506	0.0211793
1518	0.018691
1530	0.0174758
1542	0.0178809
1554	0.0175916
1566	0.0167814
1578	0.016955
1590	0.016955
1602	0.0166657
1614	0.0170129
1626	0.0164342
1638	0.0176494
1650	0.0152769
1662	0.0170708
1674	0.0172444
1686	0.0179388
1698	0.0202534
1710	0.0228575
1722	0.0282391
1734	0.0407384
1746	0.0612233
1758	0.0939181
1770	0.156935
1782	0.184769
1794	0.105781
1806	0.0628436
1818	0.0362247
1830	0.0230311
1842	0.0193276
1854	0.0182281
1866	0.0168972
1878	0.0168972
1890	0.0166078
1902	0.0154505
1914	0.015682
1926	0.0154505
1938	0.0153926
1950	0.0155662
1962	0.0153926
1974	0.0149297
1986	0.0152769
1998	0.0152769
2010	0.0148718
2022	0.0155662
2034	0.0156241
2046	0.0153926
2058	0.015219
2070	0.0153926
2082	0.0151612
2094	0.0150454
2106	0.0147561
2118	0.0149297
2130	0.0148718
2142	0.014814
2154	0.0151033
2166	0.0151033
2178	0.014814
2190	0.0153926
2202	0.0150454
2214	0.0149297
2226	0.0147561
2238	0.0146982
2250	0.0146982
2262	0.0148718
2274	0.0144089
2286	0.0144668
2298	0.015682
2310	0.015682
2322	0.0167814
2334	0.0151612
2346	0.0153926
2358	0.0157977
2370	0.0138881
2382	0.0146982
2394	0.014351
2406	0.0140038
2418	0.0141774
2430	0.0142353
2442	0.0138881
2454	0.0137723
2466	0.0133673
2478	0.0133673
2490	0.013483
2502	0.0137723
2514	0.0140617
2526	0.0141774
2538	0.0146982
2550	0.0145825
2562	0.0149297
2574	0.015219
2586	0.0153926
2598	0.0154505
2610	0.0164342
2622	0.0162606
2634	0.0166657
2646	0.0172444
2658	0.0172444
2670	0.018286
2682	0.0183438
2694	0.0184017
2706	0.0177652
2718	0.0176494
2730	0.0173022
2742	0.0177652
2754	0.0179966
2766	0.0184017
2778	0.0192118
2790	0.0216423
2802	0.024362
2814	0.0276026
2826	0.0336207
2838	0.0449048
2850	0.0846016
2862	0.218564
2874	0.160002
2886	0.107922
2898	0.10879
2910	0.172907
2922	0.322088
2934	0.57867
2946	0.342052
2958	0.172096
2970	0.13402
2982	0.0706556
2994	0.0431109
3006	0.0318268
3018	0.026561
3030	0.0235519
3042	0.0208321
3054	0.0193854
3066	0.0182281
3078	0.0175916
3090	0.0170129
3102	0.0163764
3114	0.0159134
3126	0.0151033
3138	0.0158556
3150	0.0150454
3162	0.0151033
3174	0.0151033
3186	0.0145825
3198	0.0147561
3210	0.0144089
3222	0.0148718
3234	0.0142931
3246	0.0142353
3258	0.0141195
3270	0.0138302
3282	0.0133673
3294	0.0141195
3306	0.0135987
3318	0.0141195
3330	0.0137145
3342	0.0144668
3354	0.0134251
3366	0.0138302
3378	0.014351
3390	0.0138881
3402	0.0145825
3414	0.0145825
3426	0.0138302
3438	0.0145825
3450	0.0146404
3462	0.0145825
3474	0.0140038
3486	0.0145825
3498	0.0146982
3510	0.0148718
3522	0.0160292
3534	0.0162028
3546	0.0184017
3558	0.0237833
3570	0.0579249
3582	0.0662577
3594	0.0242463
3606	0.0170708
3618	0.0175916
3630	0.0172444
3642	0.0155084
3654	0.0155084
3666	0.0145246
3678	0.0164921
3690	0.0147561
3702	0.014814
3714	0.0162606
3726	0.0157398
3738	0.016955
3750	0.015219
3762	0.0145246
3774	0.0156241
3786	0.0153348
3798	0.0151612
3810	0.0153348
3822	0.0168393
3834	0.0179966
3846	0.0179966
3858	0.0168393
3870	0.0171286
3882	0.0184596
3894	0.015682
3906	0.0181702
3918	0.01655
3930	0.0161449
3942	0.014814
3954	0.0140038
3966	0.0163764
