Infrared Spectrum: Propylene Glycol
Formula: C 3 H 8 O 2
CAS: 57-55-6
Origin: Sadtler Research Labs Under US-EPA Contract
1/CM	ABSORBANCE
450	0.046711
462	0.0291819
474	0.0476074
486	0.0499977
498	0.0675268
510	0.0928244
522	0.0992982
534	0.0772873
546	0.0450178
558	0.0355561
570	0.033863
582	0.0353569
594	0.0284847
606	0.0326678
618	0.0321698
630	0.0337634
642	0.0380461
654	0.0375481
666	0.028186
678	0.0142424
690	0.00727058
702	0.00418307
714	0.0033863
726	0.00139436
738	0.000896373
750	0.00149395
762	0.00388428
774	0.012848
786	0.0246005
798	0.0440219
810	0.0629453
822	0.102386
834	0.10378
846	0.115035
858	0.0620489
870	0.0306759
882	0.0326678
894	0.0622481
906	0.125791
918	0.199493
930	0.226185
942	0.185848
954	0.139037
966	0.123998
978	0.169116
990	0.248594
1002	0.265725
1014	0.392113
1026	0.634433
1038	0.871474
1050	0.99597
1062	0.895576
1074	0.688813
1086	0.544596
1098	0.447191
1110	0.412929
1122	0.401575
1134	0.359346
1146	0.281561
1158	0.209054
1170	0.16314
1182	0.16055
1194	0.17549
1206	0.188438
1218	0.201186
1230	0.222301
1242	0.254769
1254	0.285445
1266	0.274689
1278	0.236543
1290	0.190828
1302	0.17788
1314	0.193218
1326	0.221504
1338	0.245208
1350	0.249391
1362	0.268812
1374	0.317316
1386	0.353569
1398	0.346498
1410	0.235945
1422	0.154674
1434	0.116429
1446	0.117325
1458	0.139336
1470	0.119716
1482	0.0820679
1494	0.040038
1506	0.0207162
1518	0.0119516
1530	0.006673
1542	0.00876454
1554	0.00577663
1566	0.00458146
1578	0.00428267
1590	0.00298791
1602	0.00229073
1614	0.00288831
1626	0.00129476
1638	0.00398388
1650	0.00229073
1662	0.00298791
1674	0.0034859
1686	0.00298791
1698	0.00219113
1710	0.000796776
1722	0.00248993
1734	0.0033863
1746	0.0033863
1758	0.00378469
1770	0.00298791
1782	0.00179275
1794	0.000796776
1806	0.000497985
1818	0.000597582
1830	0.00109557
1842	0.00189234
1854	0.00199194
1866	0.00149395
1878	0.00159355
1890	0.00129476
1902	0.00119516
1914	0.00119516
1926	0.000896373
1938	0.00119516
1950	0.00099597
1962	0.00139436
1974	0.00209154
1986	0.00248993
1998	0.00239033
2010	0.00149395
2022	0.00139436
2034	0.00169315
2046	0.00278872
2058	0.00388428
2070	0.00497985
2082	0.00517904
2094	0.00527864
2106	0.00368509
2118	0.00278872
2130	0.00179275
2142	0.00109557
2154	0.00139436
2166	0.00169315
2178	0.00199194
2190	0.00199194
2202	0.00129476
2214	0.00119516
2226	0.000796776
2238	0.000398388
2250	0.000298791
2262	0.000597582
2274	0.00149395
2286	0.00229073
2298	0.00288831
2310	0.00278872
2322	0.00298791
2334	0.00378469
2346	0.00358549
2358	0.00378469
2370	0.00488025
2382	0.00388428
2394	0.00388428
2406	0.00398388
2418	0.00448186
2430	0.00478066
2442	0.00497985
2454	0.00497985
2466	0.00358549
2478	0.0032867
2490	0.00278872
2502	0.00288831
2514	0.0031871
2526	0.00368509
2538	0.0033863
2550	0.00378469
2562	0.00418307
2574	0.00478066
2586	0.00577663
2598	0.00707139
2610	0.00846575
2622	0.0108561
2634	0.013346
2646	0.0147404
2658	0.0161347
2670	0.0169315
2682	0.0176287
2694	0.0192222
2706	0.0211146
2718	0.0237041
2730	0.0269908
2742	0.0316718
2754	0.0361537
2766	0.0414324
2778	0.0475078
2790	0.0545792
2802	0.061053
2814	0.0690207
2826	0.085753
2838	0.117325
2850	0.172701
2862	0.263434
2874	0.388428
2886	0.478763
2898	0.502865
2910	0.496591
2922	0.548082
2934	0.609235
2946	0.581746
2958	0.562026
2970	0.567603
2982	0.618597
2994	0.420299
3006	0.215727
3018	0.0573679
3030	0.0189234
3042	0.0113541
3054	0.0100593
3066	0.00976051
3078	0.0103581
3090	0.0100593
3102	0.00896373
3114	0.00697179
3126	0.00577663
3138	0.00488025
3150	0.00438227
3162	0.00567703
3174	0.0065734
3186	0.00717098
3198	0.00717098
3210	0.00527864
3222	0.0032867
3234	0.00149395
3246	0.000896373
3258	0.000796776
3270	0.000497985
3282	0.000398388
3294	0.000497985
3306	0.00099597
3318	0.00129476
3330	0.00149395
3342	0.00189234
3354	0.00268912
3366	0.00298791
3378	0.00298791
3390	0.00258952
3402	0.00248993
3414	0.00189234
3426	0.00258952
3438	0.00378469
3450	0.00448186
3462	0.00697179
3474	0.00956131
3486	0.0112545
3498	0.0119516
3510	0.01235
3522	0.0109557
3534	0.012848
3546	0.0144416
3558	0.0177283
3570	0.0260944
3582	0.0399384
3594	0.0766897
3606	0.147204
3618	0.22738
3630	0.267816
3642	0.267219
3654	0.245108
3666	0.223695
3678	0.203377
3690	0.156467
3702	0.0945176
3714	0.0428267
3726	0.0260944
3738	0.0226085
3750	0.0167323
3762	0.0164335
3774	0.0132464
3786	0.0114537
3798	0.0109557
3810	0.00547784
3822	0.00806736
3834	0.00717098
3846	0.00707139
3858	0.0100593
3870	0.00796776
3882	0.00547784
3894	0.00776857
3906	0.00497985
3918	0.00308751
3930	0.00358549
3942	0.00109557
3954	0.00209154
3966	0.00219113
