Infrared Spectrum: 2-Methyl-6-nitroaniline
Formula: C 7 H 8 N 2 O 2
CAS: 570-24-1
Origin: Sadtler Research Labs Under US-EPA Contract
1/CM	ABSORBANCE
450	0.14622
462	0.0915118
474	0.127605
486	0.0960589
498	0.116663
510	0.127747
522	0.114816
534	0.104016
546	0.122205
558	0.0963431
570	0.101885
582	0.0829858
594	0.0828437
606	0.0849752
618	0.0912276
630	0.110269
642	0.0872488
654	0.077444
666	0.0811385
678	0.0792912
690	0.084691
702	0.0782965
714	0.0871067
726	0.181318
738	0.427576
750	0.27212
762	0.116805
774	0.112827
786	0.160288
798	0.11439
810	0.0623815
822	0.0606763
834	0.0841226
846	0.0916539
858	0.0655076
870	0.067497
882	0.10899
894	0.179329
906	0.102595
918	0.0470348
930	0.0379404
942	0.0386509
954	0.0397877
966	0.0386509
978	0.0500188
990	0.0761651
1002	0.0794333
1014	0.0254357
1026	0.00113679
1038	0.0136415
1050	0.0231621
1062	0.0346722
1074	0.0711916
1086	0.113537
1098	0.127605
1110	0.0797175
1122	0.0312618
1134	0.0242989
1146	0.0289882
1158	0.0460401
1170	0.066076
1182	0.102027
1194	0.200928
1206	0.15773
1218	0.0657918
1230	0.0757388
1242	0.227074
1254	0.564417
1266	0.459264
1278	0.246684
1290	0.18615
1302	0.140394
1314	0.405693
1326	0.524345
1338	0.480579
1350	0.774297
1362	0.362495
1374	0.0912276
1386	0.0686338
1398	0.0565554
1410	0.0552765
1422	0.0693443
1434	0.0966273
1446	0.174498
1458	0.296987
1470	0.307929
1482	0.200502
1494	0.175634
1506	0.286329
1518	0.774013
1530	1.42099
1542	0.983751
1554	0.283345
1566	0.181887
1578	0.223806
1590	0.182739
1602	0.18615
1614	0.475747
1626	0.694154
1638	0.384946
1650	0.124763
1662	0.0633762
1674	0.0426297
1686	0.0362352
1698	0.0341038
1710	0.0264304
1722	0.0204623
1734	0.0169098
1746	0.015773
1758	0.0127889
1770	0.00952063
1782	0.012931
1794	0.0139257
1806	0.0146362
1818	0.0174782
1830	0.0169098
1842	0.0117942
1854	0.0139257
1866	0.0194676
1878	0.0163414
1890	0.0112258
1902	0.0134994
1914	0.0159151
1926	0.0117942
1938	0.00767335
1950	0.00667865
1962	0.00511556
1974	0.00611026
1986	0.00511556
1998	0.00468927
2010	0.00255778
2022	0.00355247
2034	0.00255778
2046	0.00312618
2058	0.00341038
2070	0.00298408
2082	0.00326828
2094	0.00269988
2106	0.00312618
2118	0.00255778
2130	0.00312618
2142	0.00341038
2154	0.00383667
2166	0.00412087
2178	0.00326828
2190	0.00412087
2202	0.00412087
2214	0.00426297
2226	0.00397877
2238	0.00454717
2250	0.00454717
2262	0.00397877
2274	0.00454717
2286	0.00568396
2298	0.00710495
2310	0.00937853
2322	0.00824174
2334	0.00852594
2346	0.00909434
2358	0.00866804
2370	0.00653655
2382	0.00611026
2394	0.00312618
2406	0.00341038
2418	0.00568396
2430	0.00511556
2442	0.00539976
2454	0.00554186
2466	0.00582606
2478	0.00397877
2490	0.00127889
2502	0.000142099
2514	0.000568396
2526	0.000994693
2538	0.00269988
2550	0.00412087
2562	0.00255778
2574	0.00355247
2586	0.00326828
2598	0.00284198
2610	0.00312618
2622	0.00269988
2634	0.00341038
2646	0.00227358
2658	0.00412087
2670	0.00568396
2682	0.00653655
2694	0.00781544
2706	0.00625236
2718	0.00539976
2730	0.00682075
2742	0.010089
2754	0.0126468
2766	0.00937853
2778	0.00682075
2790	0.00767335
2802	0.00952063
2814	0.00994693
2826	0.0110837
2838	0.0146362
2850	0.0218832
2862	0.0407824
2874	0.0697706
2886	0.0720442
2898	0.0568396
2910	0.055987
2922	0.0815648
2934	0.0869646
2946	0.0821332
2958	0.053145
2970	0.0362352
2982	0.0639446
2994	0.064655
3006	0.0305513
3018	0.0281356
3030	0.0471769
3042	0.0500188
3054	0.0366615
3066	0.0360931
3078	0.0535713
3090	0.0581185
3102	0.027283
3114	0.012931
3126	0.00653655
3138	0.00554186
3150	0.00568396
3162	0.00497346
3174	0.00454717
3186	0.00440507
3198	0.00483137
3210	0.00639445
3222	0.00539976
3234	0.00426297
3246	0.00227358
3258	0.00241568
3270	0.000426297
3282	0.000284198
3294	0
3306	0.000426297
3318	0.00269988
3330	0.00369457
3342	0.00667865
3354	0.00852594
3366	0.0119363
3378	0.0319723
3390	0.10558
3402	0.239011
3414	0.204196
3426	0.061671
3438	0.0177624
3450	0.0116521
3462	0.0126468
3474	0.0190413
3486	0.0318302
3498	0.0525766
3510	0.101317
3522	0.184871
3534	0.20647
3546	0.116521
3558	0.0456138
3570	0.02302
3582	0.0179045
3594	0.0110837
3606	0.00866804
3618	0.00653655
3630	0.00596816
3642	0.00923643
3654	0.00838384
3666	0.0107995
3678	0.0116521
3690	0.0156309
3702	0.0161993
3714	0.0137836
3726	0.0117942
3738	0.0120784
3750	0.010089
3762	0.0116521
3774	0.0113679
3786	0.0125047
3798	0.010089
3810	0.0117942
3822	0.00753125
3834	0.0132152
3846	0.00781544
3858	0.0132152
3870	0.0125047
3882	0.010089
3894	0.0116521
3906	0.00596816
3918	0.00554186
3930	0.00767335
3942	0.00738915
3954	0.00738915
3966	0.00383667
