Infrared Spectrum: Naphthalene, 1,5-dimethyl-
Formula: C 12 H 12
CAS: 571-61-9
Origin: Sadtler Research Labs Under US-EPA Contract
1/CM	ABSORBANCE
450	0.0126213
462	0.0147588
474	0.0264641
486	0.0354212
498	0.0198481
510	0.0142499
522	0.0547603
534	0.0208659
546	0.0348105
558	0.0127231
570	0.0262605
582	0.026057
594	0.0133338
606	0.0119088
618	0.0121124
630	0.0183213
642	0.0163874
654	0.0113999
666	0.0133338
678	0.0184231
690	0.0159802
702	0.0118071
714	0.0354212
726	0.0161838
738	0.0234106
750	0.0408158
762	0.0862119
774	0.436352
786	0.591982
798	0.140362
810	0.0286016
822	0.0219856
834	0.017507
846	0.015166
858	0.0198481
870	0.0391872
882	0.035523
894	0.0221891
906	0.015166
918	0.0157767
930	0.0136392
942	0.0134356
954	0.0169981
966	0.0225963
978	0.0235123
990	0.0205606
1002	0.0215784
1014	0.029823
1026	0.0306373
1038	0.0279909
1050	0.0266677
1062	0.0745066
1074	0.0581192
1086	0.0224945
1098	0.0154713
1110	0.0139445
1122	0.0124178
1134	0.0153695
1146	0.0153695
1158	0.0168963
1170	0.028398
1182	0.0226981
1194	0.0263623
1206	0.0352176
1218	0.0202552
1230	0.0157767
1242	0.0167945
1254	0.0231052
1266	0.0213749
1278	0.0143517
1290	0.0169981
1302	0.0164892
1314	0.0163874
1326	0.0211713
1338	0.0221891
1350	0.0212731
1362	0.0261587
1374	0.0344033
1386	0.0557782
1398	0.103719
1410	0.17904
1422	0.114915
1434	0.0947618
1446	0.117562
1458	0.119597
1470	0.0729798
1482	0.0475336
1494	0.0499764
1506	0.101581
1518	0.0944565
1530	0.0405104
1542	0.0247338
1554	0.0202552
1566	0.0222909
1578	0.036439
1590	0.0711477
1602	0.0913011
1614	0.045905
1626	0.0209677
1638	0.0156749
1650	0.0143517
1662	0.0187284
1674	0.0341998
1686	0.0374569
1698	0.0266677
1710	0.0179142
1722	0.0172017
1734	0.0194409
1746	0.0234106
1758	0.0237159
1770	0.0401033
1782	0.0354212
1794	0.0142499
1806	0.0106874
1818	0.0106874
1830	0.0152678
1842	0.0300266
1854	0.0309426
1866	0.0159802
1878	0.00916065
1890	0.00987314
1902	0.014657
1914	0.0372533
1926	0.0417319
1938	0.0143517
1950	0.0081428
1962	0.00692138
1974	0.00773566
1986	0.0068196
1998	0.00692138
2010	0.00804102
2022	0.0074303
2034	0.00600531
2046	0.00661603
2058	0.0068196
2070	0.00620888
2082	0.0061071
2094	0.00600531
2106	0.0061071
2118	0.00498746
2130	0.00559818
2142	0.00631067
2154	0.00763388
2166	0.00793923
2178	0.00763388
2190	0.00712495
2202	0.0061071
2214	0.00437676
2226	0.00498746
2238	0.00519104
2250	0.0061071
2262	0.00590353
2274	0.00437676
2286	0.00549639
2298	0.00793923
2310	0.00844816
2322	0.0074303
2334	0.00600531
2346	0.00671781
2358	0.00834637
2370	0.00437676
2382	0.00600531
2394	0.00569996
2406	0.00671781
2418	0.00519104
2430	0.00498746
2442	0.00427497
2454	0.00376604
2466	0.00427497
2478	0.00508925
2490	0.00417319
2502	0.00111964
2514	0.00183213
2526	0.00234105
2538	0.00040714
2550	0.00162856
2562	0.00386783
2574	0.00366426
2586	0.00335891
2598	0.00437676
2610	0.00539461
2622	0.00427497
2634	0.0040714
2646	0.00447854
2658	0.00376604
2670	0.00529282
2682	0.00519104
2694	0.00529282
2706	0.00651424
2718	0.00702317
2730	0.009466
2742	0.0166927
2754	0.0149624
2766	0.00865173
2778	0.00854994
2790	0.0107892
2802	0.0121124
2814	0.0127231
2826	0.0172017
2838	0.0216802
2850	0.0363372
2862	0.0571014
2874	0.101785
2886	0.11573
2898	0.100665
2910	0.123669
2922	0.165401
2934	0.220466
2946	0.216598
2958	0.233393
2970	0.207743
2982	0.229627
2994	0.133847
3006	0.0902833
3018	0.10494
3030	0.174663
3042	0.277262
3054	0.167029
3066	0.181483
3078	0.258534
3090	0.19899
3102	0.0930315
3114	0.0535389
3126	0.0243266
3138	0.0155731
3150	0.0118071
3162	0.00916065
3174	0.00783745
3186	0.00692138
3198	0.00712495
3210	0.00936422
3222	0.00763388
3234	0.00620888
3246	0.00620888
3258	0.00508925
3270	0.00569996
3282	0.00641246
3294	0.00620888
3306	0.00580175
3318	0.00529282
3330	0.00620888
3342	0.00559818
3354	0.00651424
3366	0.00559818
3378	0.00590353
3390	0.0061071
3402	0.00468211
3414	0.00478389
3426	0.00386783
3438	0.00447854
3450	0.00468211
3462	0.00427497
3474	0.00488568
3486	0.00417319
3498	0.00437676
3510	0.00437676
3522	0.00315533
3534	0.00366426
3546	0.00376604
3558	0.00264641
3570	0.00162856
3582	0.00325712
3594	0.0020357
3606	0.00101785
3618	0.00132321
3630	0.0020357
3642	0.00183213
3654	0.00142499
3666	0.00213749
3678	0.00234105
3690	0.00284998
3702	0.00162856
3714	0.0027482
3726	0.00254463
3738	0.00254463
3750	0.000508925
3762	0.00061071
3774	0.000916065
3786	0.00162856
3798	0.00193392
3810	0.00264641
3822	0.00631067
3834	0.00356248
3846	0.00447854
3858	0.00366426
3870	0.00427497
3882	0.00142499
3894	0.00346069
3906	0.00366426
3918	0.000101785
3930	0.0027482
3942	0.00722673
3954	0.00712495
3966	0.00458032
