Infrared Spectrum: Naphthalene, 1,4-dimethyl-
Formula: C 12 H 12
CAS: 571-58-4
Origin: Sadtler Research Labs Under US-EPA Contract
1/CM	ABSORBANCE
450	0.00647761
462	0.00477033
474	0.00994237
486	0.012905
498	0.00582482
510	0.0018077
522	0.00140599
534	0.00140599
546	0.00236006
558	0.0102939
570	0.00964109
582	0.00276177
594	0.00165706
606	0.00532268
618	0.00497119
630	0.00396691
642	0.0046699
654	0.00456947
666	0.00150642
678	0.00396691
690	0.020638
702	0.0178762
714	0.00527247
726	0.0136582
738	0.132113
750	0.50214
762	0.159932
774	0.0237512
786	0.0234499
798	0.0327395
810	0.120514
822	0.31218
834	0.09621
846	0.0104445
858	0.00647761
870	0.0082351
882	0.00813467
894	0.00808445
906	0.00492097
918	0.00416776
930	0.00617632
942	0.00708017
954	0.0053729
966	0.00331412
978	0.00351498
990	0.0133569
1002	0.0245546
1014	0.0377609
1026	0.0683915
1038	0.0243036
1050	0.00888788
1062	0.0053729
1074	0.00451926
1086	0.00411755
1098	0.00446905
1110	0.00301284
1122	0.00351498
1134	0.00587504
1146	0.0078836
1158	0.0164702
1170	0.0177255
1182	0.00477033
1194	0.00441883
1206	0.00883766
1218	0.0128548
1230	0.0075321
1242	0.00547333
1254	0.00542311
1266	0.0114488
1278	0.0154157
1290	0.00848617
1302	0.00582482
1314	0.00652782
1326	0.00903852
1338	0.0126539
1350	0.0140599
1362	0.0185792
1374	0.0261615
1386	0.0908371
1398	0.114136
1410	0.0419287
1422	0.0632696
1434	0.0546328
1446	0.0712537
1458	0.0812463
1470	0.074618
1482	0.033794
1494	0.0247555
1506	0.0349489
1518	0.0447407
1530	0.0233495
1542	0.00833552
1554	0.00949045
1566	0.0128548
1578	0.0155161
1590	0.0488582
1602	0.0789866
1614	0.029576
1626	0.0183783
1638	0.0207886
1650	0.0124531
1662	0.00426819
1674	0.00456947
1686	0.0113484
1698	0.0162191
1710	0.00763253
1722	0.00507161
1734	0.00567418
1746	0.00903852
1758	0.00482054
1770	0.00421798
1782	0.00632696
1794	0.0112981
1806	0.010796
1818	0.0123024
1830	0.0110973
1842	0.0158676
1854	0.0277683
1866	0.0110973
1878	0.00441883
1890	0.0078836
1902	0.00838574
1914	0.0128046
1926	0.00974152
1938	0.0131059
1950	0.0104445
1962	0.00341455
1974	0.00140599
1986	0.000954066
1998	0.000954066
2010	0.000903852
2022	0.000552354
2034	5.0214e-05
2046	0.000100428
2058	0.000552354
2070	0.000552354
2082	0.000602568
2094	0.00170728
2106	0.00170728
2118	0.00165706
2130	0.000602568
2142	0.00115492
2154	0.000702996
2166	0.00075321
2178	0.00120514
2190	0.00125535
2202	0.00120514
2214	0.000853638
2226	0.000853638
2238	0.000853638
2250	0.00150642
2262	0.00170728
2274	0.00140599
2286	0.00155663
2298	0.00220942
2310	0.00336434
2322	0.00441883
2334	0.00396691
2346	0.00311327
2358	0.00190813
2370	0.00451926
2382	0.00446905
2394	0.00316348
2406	0.00371584
2418	0.00311327
2430	0.00170728
2442	0.00195835
2454	0.00236006
2466	0.00241027
2478	0.00381626
2490	0.00291241
2502	0.00190813
2514	0.00296263
2526	0.0043184
2538	0.00296263
2550	0.00220942
2562	0.00160685
2574	0.00105449
2586	0.00115492
2598	0.0021592
2610	0.00271156
2622	0.00266134
2634	0.00266134
2646	0.00220942
2658	0.00225963
2670	0.00236006
2682	0.00135578
2694	0.00155663
2706	0.00266134
2718	0.00336434
2730	0.00642739
2742	0.0132063
2754	0.0114488
2766	0.00552354
2778	0.00557375
2790	0.00672868
2802	0.0112981
2814	0.0149136
2826	0.0169723
2838	0.0211401
2850	0.029576
2862	0.0559886
2874	0.117902
2886	0.107809
2898	0.0903852
2910	0.134172
2922	0.146123
2934	0.203919
2946	0.218933
2958	0.183683
2970	0.170979
2982	0.182829
2994	0.106554
3006	0.10334
3018	0.125384
3030	0.149035
3042	0.206078
3054	0.11956
3066	0.13372
3078	0.231487
3090	0.180871
3102	0.0676383
3114	0.0382631
3126	0.0208388
3138	0.0135076
3150	0.0093398
3162	0.00783338
3174	0.00677889
3186	0.00667846
3198	0.00587504
3210	0.00652782
3222	0.00607589
3234	0.00532268
3246	0.00492097
3258	0.0046699
3270	0.00522226
3282	0.00477033
3294	0.00311327
3306	0.00371584
3318	0.00346477
3330	0.00396691
3342	0.00451926
3354	0.00366562
3366	0.00492097
3378	0.00517204
3390	0.00346477
3402	0.00361541
3414	0.00311327
3426	0.0028622
3438	0.00291241
3450	0.00291241
3462	0.00301284
3474	0.00271156
3486	0.0032137
3498	0.0032137
3510	0.00366562
3522	0.00276177
3534	0.00306305
3546	0.00220942
3558	0.0025107
3570	0.00301284
3582	0.00246049
3594	0.00281198
3606	0.00225963
3618	0.00246049
3630	0.00195835
3642	0.00200856
3654	0.00220942
3666	0.00135578
3678	0.00130556
3690	0.00185792
3702	0.00130556
3714	0.00105449
3726	0.00160685
3738	0.000954066
3750	0.00115492
3762	0.00175749
3774	0.00225963
3786	0.00165706
3798	5.0214e-05
3810	0.000150642
3822	0.00075321
3834	0.000100428
3846	0.00150642
3858	0.00155663
3870	0.000803424
3882	0.000552354
3894	0.000702996
3906	0.0021592
3918	0.00165706
3930	0.00236006
3942	0.00125535
3954	0.00230984
3966	0.00241027
