Infrared Spectrum: Ketone, 4-methyl-2-pyridyl 2-thienyl
Formula: C 11 H 9 N O S
CAS: 57261-64-0
Origin: Sadtler Research Labs Under US-EPA Contract
1/CM	ABSORBANCE
450	0
462	0.0132236
474	0.0152097
486	0.0222135
498	0.0366914
510	0.0561348
522	0.0746373
534	0.0172481
546	0.0124395
558	0.0124918
570	0.0194433
582	0.0152097
594	0.0105057
606	0.0096694
618	0.0349144
630	0.02467
642	0.00663791
654	0.0128577
666	0.0763621
678	0.0306807
690	0.0301058
702	0.109238
714	0.434391
726	0.173945
738	0.0324055
750	0.0465176
762	0.0724421
774	0.122566
786	0.216594
798	0.153142
810	0.15586
822	0.222501
834	0.0717626
846	0.0585913
858	0.0950214
870	0.0501241
882	0.0216385
894	0.0249836
906	0.0293741
918	0.0349666
930	0.0474062
942	0.0328759
954	0.0481379
966	0.0404024
978	0.0254018
990	0.038573
1002	0.0486606
1014	0.0243042
1026	0.0363256
1038	0.109133
1050	0.246021
1062	0.0543054
1074	0.0360642
1086	0.0401933
1098	0.0338167
1110	0.0374232
1122	0.0309943
1134	0.0271266
1146	0.0191297
1158	0.0181366
1170	0.026813
1182	0.0652815
1194	0.175983
1206	0.168979
1218	0.149588
1230	0.290134
1242	0.0626681
1254	0.0361165
1266	0.0605775
1278	0.249575
1290	0.52267
1302	0.232327
1314	0.0948123
1326	0.0468835
1338	0.0395139
1350	0.226996
1362	0.269593
1374	0.0565006
1386	0.0547235
1398	0.10213
1410	0.316686
1422	0.407421
1434	0.108297
1446	0.0409773
1458	0.0415
1470	0.0481379
1482	0.0306807
1494	0.0620409
1506	0.208911
1518	0.166366
1530	0.0534169
1542	0.0403501
1554	0.0525806
1566	0.0637657
1578	0.0539395
1590	0.155233
1602	0.276858
1614	0.111067
1626	0.0764144
1638	0.0725989
1650	0.178596
1662	0.469933
1674	0.384162
1686	0.10929
1698	0.0554553
1710	0.0376845
1722	0.026813
1734	0.0206455
1746	0.0202796
1758	0.023102
1770	0.0198615
1782	0.0157324
1794	0.0181366
1806	0.0185548
1818	0.0198092
1830	0.0166732
1842	0.0110806
1854	0.0107147
1866	0.0110806
1878	0.0110806
1890	0.0100353
1902	0.0111329
1914	0.0123873
1926	0.0164641
1938	0.0132758
1950	0.00940806
1962	0.00904219
1974	0.00831045
1986	0.00883312
1998	0.00961713
2010	0.00977393
2022	0.00867632
2034	0.00851952
2046	0.00815365
2058	0.00836272
2070	0.00883312
2082	0.00872859
2094	0.00993073
2106	0.00888539
2118	0.00831045
2130	0.00851952
2142	0.00825819
2154	0.00956486
2166	0.0096694
2178	0.00878086
2190	0.00857179
2202	0.00914672
2214	0.00987846
2226	0.00987846
2238	0.00898992
2250	0.00878086
2262	0.00851952
2274	0.00893766
2286	0.0100353
2298	0.010767
2310	0.0121259
2322	0.0111329
2334	0.00841499
2346	0.0116033
2358	0.009983
2370	0.00857179
2382	0.0109761
2394	0.00919899
2406	0.00925126
2418	0.0101398
2430	0.009983
2442	0.0101921
2454	0.0112374
2466	0.0120214
2478	0.011551
2490	0.0117601
2502	0.00956486
2514	0.00898992
2526	0.00946033
2538	0.00972166
2550	0.00930353
2562	0.00836272
2574	0.00773552
2586	0.00773552
2598	0.00831045
2610	0.00904219
2622	0.00951259
2634	0.0100353
2646	0.00914672
2658	0.00846725
2670	0.00799685
2682	0.00778778
2694	0.00935579
2706	0.0096694
2718	0.00867632
2730	0.00804912
2742	0.00831045
2754	0.00794458
2766	0.00689924
2778	0.00606297
2790	0.00648111
2802	0.00878086
2814	0.0100353
2826	0.009983
2838	0.0112897
2850	0.0140598
2862	0.0200705
2874	0.0253495
2886	0.025245
2898	0.0248268
2910	0.0286946
2922	0.0404547
2934	0.0659087
2946	0.0513262
2958	0.0336599
2970	0.025454
2982	0.019966
2994	0.0249314
3006	0.0350189
3018	0.0459427
3030	0.0480856
3042	0.0482947
3054	0.0920945
3066	0.1003
3078	0.046204
3090	0.047563
3102	0.0265516
3114	0.0264994
3126	0.0163073
3138	0.00815365
3150	0.00778778
3162	0.00820592
3174	0.00742191
3186	0.00815365
3198	0.00867632
3210	0.00867632
3222	0.00825819
3234	0.00810138
3246	0.00872859
3258	0.00898992
3270	0.0096694
3282	0.0105057
3294	0.0122827
3306	0.0143212
3318	0.0151574
3330	0.0120214
3342	0.0100353
3354	0.00977393
3366	0.009983
3378	0.00935579
3390	0.00919899
3402	0.00914672
3414	0.00940806
3426	0.00914672
3438	0.00883312
3450	0.00836272
3462	0.00867632
3474	0.00883312
3486	0.00804912
3498	0.00862406
3510	0.00789232
3522	0.00878086
3534	0.00846725
3546	0.00857179
3558	0.00857179
3570	0.00872859
3582	0.00736965
3594	0.00731738
3606	0.00768325
3618	0.00757871
3630	0.00794458
3642	0.00679471
3654	0.00784005
3666	0.00742191
3678	0.00747418
3690	0.00815365
3702	0.00841499
3714	0.00757871
3726	0.00846725
3738	0.00972166
3750	0.00695151
3762	0.00799685
3774	0.00862406
3786	0.00836272
3798	0.00851952
3810	0.0060107
3822	0.00794458
3834	0.00987846
3846	0.00773552
3858	0.00883312
3870	0.00888539
3882	0.00825819
3894	0.00705604
3906	0.00846725
3918	0.00930353
3930	0.00851952
3942	0.0106625
3954	0.0105579
3966	0.0104011
