Infrared Spectrum: Phenol, 2,6-dinitro-
Formula: C 6 H 4 N 2 O 5
CAS: 573-56-8
Origin: Sadtler Research Labs Under US-EPA Contract
1/CM	ABSORBANCE
450	0.00264776
462	0.00341422
474	0.00229937
486	0.00034839
498	0.00118453
510	0.00836136
522	0.0112878
534	0.0151898
546	0.0129601
558	0.0153292
570	0.0214608
582	0.0276622
594	0.0330274
606	0.0218789
618	0.0222273
630	0.0272441
642	0.034839
654	0.0395771
666	0.0476598
678	0.0667515
690	0.0976886
702	0.132806
714	0.120891
726	0.115038
738	0.211751
750	0.137475
762	0.03895
774	0.0204157
786	0.0120543
798	0.0191615
810	0.0277318
822	0.0144233
834	0.0176982
846	0.0494017
858	0.0751129
870	0.0250841
882	0.0178376
894	0.0537217
906	0.176425
918	0.0782484
930	0.0158866
942	0.0069678
954	0.00627102
966	0.0069678
978	0.00752522
990	0.00752522
1002	0.00501682
1014	0.00627102
1026	0.008222
1038	0.00954589
1050	0.0134479
1062	0.0303099
1074	0.0480778
1086	0.0596444
1098	0.0399952
1110	0.0257112
1122	0.0314248
1134	0.0598534
1146	0.0850768
1158	0.0924627
1170	0.119428
1182	0.0924627
1194	0.057554
1206	0.0418068
1218	0.0331667
1230	0.042852
1242	0.063616
1254	0.117895
1266	0.284286
1278	0.318637
1290	0.176912
1302	0.19468
1314	0.292299
1326	0.330483
1338	0.387758
1350	0.46085
1362	0.36351
1374	0.159493
1386	0.106747
1398	0.0729529
1410	0.0516314
1422	0.0471023
1434	0.0611773
1446	0.144303
1458	0.294877
1470	0.246103
1482	0.111764
1494	0.0728832
1506	0.0751129
1518	0.110649
1530	0.198652
1542	0.389709
1554	0.683123
1566	0.493878
1578	0.212588
1590	0.229241
1602	0.206735
1614	0.176425
1626	0.291045
1638	0.259829
1650	0.0891878
1662	0.0323306
1674	0.0214608
1686	0.0151898
1698	0.0114272
1710	0.00884911
1722	0.00836136
1734	0.0115665
1746	0.0114969
1758	0.00947621
1770	0.00989428
1782	0.0091975
1794	0.00613166
1806	0.00404132
1818	0.00299615
1830	0.00320519
1842	0.00341422
1854	0.00452907
1866	0.00404132
1878	0.0034839
1890	0.00682844
1902	0.00752522
1914	0.00404132
1926	0.00452907
1938	0.00536521
1950	0.00320519
1962	0.000975492
1974	0.000557424
1986	0.000557424
1998	0.000557424
2010	0.000487746
2022	0.000557424
2034	0.00104517
2046	0.00146324
2058	0.000975492
2070	0.000487746
2082	0.000557424
2094	0.000487746
2106	6.9678e-05
2118	0.000418068
2130	6.9678e-05
2142	6.9678e-05
2154	6.9678e-05
2166	0.00069678
2178	0.000557424
2190	0.000487746
2202	6.9678e-05
2214	6.9678e-05
2226	6.9678e-05
2238	0.000557424
2250	0.00111485
2262	0.0012542
2274	0.00195098
2286	0.00264776
2298	0.00376261
2310	0.00578327
2322	0.00418068
2334	0.00209034
2346	0.00341422
2358	0.00306583
2370	0.00299615
2382	0.00404132
2394	0.00209034
2406	0.00209034
2418	0.00202066
2430	0.00243873
2442	0.00369293
2454	0.00466843
2466	0.00515617
2478	0.00487746
2490	0.00397165
2502	0.00341422
2514	0.00243873
2526	0.00292648
2538	0.00320519
2550	0.0034839
2562	0.0034839
2574	0.00362326
2586	0.00404132
2598	0.00432004
2610	0.00418068
2622	0.00418068
2634	0.00480778
2646	0.00432004
2658	0.00418068
2670	0.00432004
2682	0.00494714
2694	0.00648005
2706	0.00780394
2718	0.00891878
2730	0.00850072
2742	0.00815233
2754	0.00710716
2766	0.00724651
2778	0.00724651
2790	0.00773426
2802	0.00884911
2814	0.00933685
2826	0.00891878
2838	0.00933685
2850	0.0105214
2862	0.0124027
2874	0.0147717
2886	0.0160259
2898	0.0185343
2910	0.0206247
2922	0.018604
2934	0.0167924
2946	0.0146324
2958	0.0111485
2970	0.00877943
2982	0.00787361
2994	0.00738587
3006	0.0069678
3018	0.0069678
3030	0.00745555
3042	0.00940653
3054	0.00954589
3066	0.0110091
3078	0.0135175
3090	0.0193705
3102	0.0265473
3114	0.0235512
3126	0.0216002
3138	0.0264776
3150	0.0318428
3162	0.0386016
3174	0.0478688
3186	0.0574844
3198	0.0656367
3210	0.0723258
3222	0.0763671
3234	0.0764368
3246	0.0730922
3258	0.0672393
3270	0.0622225
3282	0.055603
3294	0.0519798
3306	0.0487746
3318	0.0445242
3330	0.0400649
3342	0.0363719
3354	0.0318428
3366	0.0294041
3378	0.0264776
3390	0.0230634
3402	0.0206944
3414	0.0193008
3426	0.0172801
3438	0.0156079
3450	0.0153292
3462	0.014075
3474	0.0133085
3486	0.0114272
3498	0.0110091
3510	0.010382
3522	0.00954589
3534	0.00808265
3546	0.00668909
3558	0.00599231
3570	0.00717683
3582	0.00557424
3594	0.00376261
3606	0.00229937
3618	0.00292648
3630	0.00362326
3642	0.00111485
3654	0.000487746
3666	0.00069678
3678	0.00111485
3690	0.00118453
3702	0.00069678
3714	0.00174195
3726	0.00139356
3738	0.00209034
3750	0.00174195
3762	0.00132388
3774	0.0012542
3786	0.00111485
3798	0.00202066
3810	0.00202066
3822	0.00243873
3834	0.0028568
3846	0.00209034
3858	0.00111485
3870	0.00160259
3882	0.0022297
3894	0.00118453
3906	0.0012542
3918	0.0012542
3930	0.00188131
3942	0.00397165
3954	0.000139356
3966	0.000487746
