Infrared Spectrum: Benzaldehyde, 4-(pentyloxy)-
Formula: C 12 H 16 O 2
CAS: 5736-91-4
Origin: Sadtler Research Labs Under US-EPA Contract
1/CM	ABSORBANCE
450	0.0423845
462	0.0117563
474	0.0102094
486	0.00990003
498	0.0301642
510	0.0561517
522	0.0470252
534	0.024286
546	0.0150047
558	0.00990003
570	0.00757971
582	0.0163969
594	0.0471798
606	0.0792003
618	0.134114
630	0.0323298
642	0.0578533
654	0.065433
666	0.0157782
678	0.00757971
690	0.00819846
702	0.00866253
714	0.0114469
726	0.0146954
738	0.0215016
750	0.0303188
762	0.0366611
774	0.0314017
786	0.0343407
798	0.0607924
810	0.107199
822	0.207591
834	0.269931
846	0.238684
858	0.191813
870	0.0512017
882	0.0301642
894	0.0315564
906	0.0399095
918	0.041147
930	0.0233579
942	0.0162422
954	0.0171704
966	0.0247501
978	0.0499642
990	0.117254
1002	0.172013
1014	0.159329
1026	0.183769
1038	0.19336
1050	0.166444
1062	0.0844596
1074	0.0827581
1086	0.0581627
1098	0.0618752
1110	0.108591
1122	0.0802831
1134	0.0669799
1146	0.129164
1158	0.996191
1170	0.322679
1182	0.084305
1194	0.135197
1206	0.410078
1218	0.46592
1230	0.539552
1242	0.876153
1254	1.27107
1266	0.680318
1278	0.238529
1290	0.234816
1302	0.472262
1314	0.307674
1326	0.13891
1338	0.0717752
1350	0.0660518
1362	0.0450142
1374	0.0538314
1386	0.165671
1398	0.111221
1410	0.0533674
1422	0.0852331
1434	0.0708471
1446	0.0592455
1458	0.0686815
1470	0.164279
1482	0.14386
1494	0.089255
1506	0.449678
1518	0.248893
1530	0.0457876
1542	0.0191813
1554	0.0385173
1566	0.089719
1578	0.351915
1590	0.464373
1602	1.25607
1614	0.639326
1626	0.127618
1638	0.0490361
1650	0.0309376
1662	0.0425392
1674	0.0570799
1686	0.0946691
1698	0.202332
1710	0.686351
1722	1.50589
1734	0.178355
1746	0.0399095
1758	0.0236673
1770	0.0173251
1782	0.0122204
1794	0.00757971
1806	0.0117563
1818	0.00959066
1830	0.00355782
1842	0.00525939
1854	0.0105188
1866	0.00742502
1878	0.0100547
1890	0.0122204
1902	0.0180985
1914	0.0100547
1926	0.0089719
1938	0.00990003
1950	0.00850784
1962	0.0105188
1974	0.0116016
1986	0.0128391
1998	0.01485
2010	0.021811
2022	0.0179438
2034	0.0140766
2046	0.0125297
2058	0.0125297
2070	0.0100547
2082	0.00866253
2094	0.00757971
2106	0.00680627
2118	0.00495002
2130	0.00340314
2142	0.00247501
2154	0.00201094
2166	0.00139219
2178	0.000464064
2190	0
2202	0.000464064
2214	0.00077344
2226	0.000928128
2238	0.000928128
2250	0.00154688
2262	0.00371251
2274	0.00402189
2286	0.00247501
2298	0.00185626
2310	0.00247501
2322	0.0038672
2334	0.00324845
2346	0.00247501
2358	0.00293907
2370	0.00464064
2382	0.00293907
2394	0.0038672
2406	0.00665158
2418	0.00881722
2430	0.00680627
2442	0.00680627
2454	0.00990003
2466	0.00928128
2478	0.00742502
2490	0.00850784
2502	0.0103641
2514	0.0128391
2526	0.0102094
2538	0.0111375
2550	0.0167063
2562	0.0198001
2574	0.0171704
2586	0.0163969
2598	0.0163969
2610	0.0151594
2622	0.012375
2634	0.0111375
2646	0.0108282
2658	0.0120657
2670	0.0191813
2682	0.0403736
2694	0.0592455
2706	0.0955972
2718	0.189493
2730	0.234198
2742	0.119264
2754	0.0632674
2766	0.0539861
2778	0.067908
2790	0.126844
2802	0.148965
2814	0.152986
2826	0.139374
2838	0.0827581
2850	0.0908019
2862	0.154379
2874	0.240385
2886	0.257091
2898	0.199548
2910	0.224916
2922	0.309685
2934	0.44117
2946	0.529188
2958	0.436839
2970	0.509697
2982	0.249512
2994	0.0959066
3006	0.0632674
3018	0.0515111
3030	0.0532127
3042	0.0631127
3054	0.0334126
3066	0.0318657
3078	0.0532127
3090	0.0357329
3102	0.0371251
3114	0.0252141
3126	0.0156235
3138	0.00881722
3150	0.00757971
3162	0.00788909
3174	0.0051047
3186	0.00495002
3198	0.00525939
3210	0.00464064
3222	0.00232032
3234	0.00201094
3246	0.00139219
3258	0.00139219
3270	0.00170157
3282	0.00170157
3294	0.00139219
3306	0.00154688
3318	0.00154688
3330	0.00185626
3342	0.00170157
3354	0.00139219
3366	0.00293907
3378	0.00309376
3390	0.00448595
3402	0.0100547
3414	0.0185626
3426	0.00990003
3438	0.00340314
3450	0.000618752
3462	0.00077344
3474	0.000618752
3486	0.00077344
3498	0.0012375
3510	0.000928128
3522	0.00154688
3534	0.00108282
3546	0.000928128
3558	0.000928128
3570	0.000928128
3582	0.00154688
3594	0.00201094
3606	0.0012375
3618	0.00154688
3630	0.00340314
3642	0.00742502
3654	0.00665158
3666	0.00309376
3678	0.00216563
3690	0.00309376
3702	0.00232032
3714	0.00216563
3726	0.00247501
3738	0.00185626
3750	0.0012375
3762	0.00185626
3774	0.000618752
3786	0.00170157
3798	0.00154688
3810	0.00185626
3822	0.00232032
3834	0.00154688
3846	0.00201094
3858	0.000928128
3870	0.00247501
3882	0.00309376
3894	0.00247501
3906	0.00340314
3918	0.00108282
3930	0.00247501
3942	0.00170157
3954	0.00309376
3966	0.00355782
