Infrared Spectrum: Benz-3,1-oxazine-2,4-dione, 1-pentyl-,
Formula: C 13 H 15 N O 3
CAS: 57384-48-2
Origin: Sadtler Research Labs Under US-EPA Contract
1/CM	ABSORBANCE
450	0.0183782
462	0.0106782
474	0.00552072
486	0.00631977
498	0.00370469
510	0.0060292
522	0.0119858
534	0.00370469
546	0.00174338
558	0.00908012
570	0.00762731
582	0.00370469
594	0.00348677
606	0.005666
618	0.00421318
630	0.00813579
642	0.0122037
654	0.0109688
666	0.0266592
678	0.0421318
690	0.0233904
702	0.0172159
714	0.0127848
726	0.0147461
738	0.0246979
750	0.128284
762	0.0601467
774	0.00908012
786	0.00762731
798	0.00392261
810	0.00399525
822	0.00472166
834	0.00617448
846	0.00573864
858	0.00515751
870	0.00348677
882	0.00341413
894	0.00392261
906	0.00472166
918	0.00508487
930	0.00675561
942	0.00661033
954	0.00944333
966	0.00958861
978	0.0107509
990	0.015182
1002	0.0260781
1014	0.0619628
1026	0.189884
1038	0.171796
1050	0.0540449
1062	0.0458365
1074	0.0343592
1086	0.0201216
1098	0.0155452
1110	0.0182329
1122	0.0297828
1134	0.0419865
1146	0.05281
1158	0.0415507
1170	0.0406063
1182	0.0505581
1194	0.0492506
1206	0.0212112
1218	0.0238262
1230	0.0469987
1242	0.0782344
1254	0.0967578
1266	0.0521562
1278	0.079324
1290	0.0804862
1302	0.0909465
1314	0.141868
1326	0.172232
1338	0.0807768
1350	0.0615996
1362	0.0965399
1374	0.0972663
1386	0.054626
1398	0.0260055
1410	0.0164169
1422	0.0157631
1434	0.0212838
1446	0.0357394
1458	0.0797598
1470	0.170271
1482	0.182329
1494	0.152038
1506	0.0669024
1518	0.0387903
1530	0.0244074
1542	0.0165621
1554	0.0137291
1566	0.018015
1578	0.0379186
1590	0.097121
1602	0.148115
1614	0.133805
1626	0.0644326
1638	0.0193225
1650	0.015182
1662	0.0152546
1674	0.0220829
1686	0.0326885
1698	0.0477978
1710	0.0841909
1722	0.125015
1734	0.147897
1746	0.160537
1758	0.462941
1770	0.531442
1782	0.163006
1794	0.181748
1806	0.409041
1818	0.138744
1830	0.0294922
1842	0.0127848
1854	0.00559336
1866	0.00435846
1878	0.00232451
1890	0.00181602
1902	0.0015981
1914	0.00246979
1926	0.00290564
1938	0.00326884
1950	0.00152546
1962	0.0012349
1974	0.00072641
1986	0.000799051
1998	0.000508487
2010	0.000217923
2022	0.000217923
2034	0.000363205
2046	0.000944333
2058	0.000653769
2070	0.00072641
2082	0.00116226
2094	0.00101697
2106	0.000217923
2118	0.000363205
2130	0.00101697
2142	0.00108961
2154	0.00130754
2166	0.00203395
2178	0.00210659
2190	0.00174338
2202	0.00188867
2214	0.00167074
2226	0.00167074
2238	0.00203395
2250	0.00246979
2262	0.0031962
2274	0.00493959
2286	0.00631977
2298	0.00820843
2310	0.0100245
2322	0.00900748
2334	0.00661033
2346	0.0106782
2358	0.00951597
2370	0.00581128
2382	0.00784523
2394	0.00254244
2406	0.00188867
2418	0.00217923
2430	0.00217923
2442	0.00210659
2454	0.00232451
2466	0.00232451
2478	0.00254244
2490	0.00217923
2502	0.00232451
2514	0.00276036
2526	0.00305092
2538	0.00276036
2550	0.00261508
2562	0.002833
2574	0.002833
2586	0.00312356
2598	0.00326884
2610	0.00334149
2622	0.00334149
2634	0.00377733
2646	0.00384997
2658	0.0044311
2670	0.00501223
2682	0.00493959
2694	0.00501223
2706	0.00493959
2718	0.00515751
2730	0.00501223
2742	0.00559336
2754	0.00595656
2766	0.0060292
2778	0.00617448
2790	0.00697354
2802	0.00777259
2814	0.00900748
2826	0.0108962
2838	0.0144556
2850	0.0219376
2862	0.0375554
2874	0.0477251
2886	0.0451827
2898	0.0367563
2910	0.0422771
2922	0.058476
2934	0.0892031
2946	0.0937795
2958	0.0724957
2970	0.0921088
2982	0.0459091
2994	0.0201216
3006	0.0156905
3018	0.0100971
3030	0.00900748
3042	0.00937069
3054	0.00987918
3066	0.0120584
3078	0.00958861
3090	0.015182
3102	0.0119131
3114	0.005666
3126	0.00370469
3138	0.00246979
3150	0.00232451
3162	0.00210659
3174	0.00210659
3186	0.00196131
3198	0.00167074
3210	0.00145282
3222	0.00145282
3234	0.0015981
3246	0.00167074
3258	0.00225187
3270	0.00174338
3282	0.00188867
3294	0.00152546
3306	0.00239715
3318	0.00217923
3330	0.00312356
3342	0.00305092
3354	0.00464902
3366	0.00711882
3378	0.00748202
3390	0.00559336
3402	0.00450374
3414	0.00341413
3426	0.00239715
3438	0.00217923
3450	0.00225187
3462	0.00225187
3474	0.00290564
3486	0.00239715
3498	0.00363205
3510	0.00312356
3522	0.0031962
3534	0.00290564
3546	0.00537543
3558	0.00653769
3570	0.00493959
3582	0.013148
3594	0.00980653
3606	0.00290564
3618	0.00138018
3630	0.00210659
3642	0.00196131
3654	0.00246979
3666	0.00276036
3678	0.00232451
3690	0.00348677
3702	0.00348677
3714	0.00370469
3726	0.00377733
3738	0.00414054
3750	0.00305092
3762	0.00377733
3774	0.00276036
3786	0.00261508
3798	0.00363205
3810	0.00326884
3822	0.00341413
3834	0.00334149
3846	0.00457638
3858	0.00276036
3870	0.00334149
3882	0.00428582
3894	0.0031962
3906	0.00363205
3918	0.00341413
3930	0.00464902
3942	0.00457638
3954	0.00261508
3966	0.00370469
