Infrared Spectrum: 1-Pentanol, 2-methyl-2-propyl-,
Formula: C 9 H 20 O
CAS: 57409-52-6
Origin: Sadtler Research Labs Under US-EPA Contract
1/CM	ABSORBANCE
450	0.0129446
462	0.00541868
474	0.00842906
486	0.00451557
498	0.00391349
510	0.00722491
522	0.00511765
534	0.00436505
546	0.00406401
558	0.00526817
570	0.00963322
582	0.00903114
594	0.0087301
606	0.00436505
618	0.00406401
630	0.00421453
642	0.00481661
654	0.00511765
666	0.00647232
678	0.00827855
690	0.0087301
702	0.0105363
714	0.0102353
726	0.0167076
738	0.0377803
750	0.0383823
762	0.0201695
774	0.0127941
786	0.0087301
798	0.00888062
810	0.00842906
822	0.00827855
834	0.00933218
846	0.0117405
858	0.0150519
870	0.0171592
882	0.0195675
894	0.0227284
906	0.0320605
918	0.0498218
930	0.0502733
942	0.0419948
954	0.0391349
966	0.0377803
978	0.035673
990	0.0383823
1002	0.0630675
1014	0.14495
1026	0.260849
1038	0.398725
1050	0.424915
1062	0.158346
1074	0.0782699
1086	0.0644221
1098	0.0522301
1110	0.0377803
1122	0.0335657
1134	0.0409412
1146	0.0528322
1158	0.059455
1170	0.0559931
1182	0.0508754
1194	0.0460588
1206	0.0422958
1218	0.0453062
1230	0.0501228
1242	0.0471124
1254	0.0457578
1266	0.0447041
1278	0.0433495
1290	0.0418443
1302	0.0421453
1314	0.0409412
1326	0.0415432
1338	0.0416938
1350	0.0465104
1362	0.0666799
1374	0.0999446
1386	0.124329
1398	0.0745069
1410	0.0383823
1422	0.0314585
1434	0.0389844
1446	0.0785709
1458	0.157894
1470	0.215242
1482	0.13637
1494	0.0403391
1506	0.0204706
1518	0.0153529
1530	0.0109879
1542	0.01159
1554	0.00677336
1566	0.0063218
1578	0.00451557
1590	0.00541868
1602	0.00481661
1614	0.00571972
1626	0.00466609
1638	0.00496713
1650	0.00421453
1662	0.0031609
1674	0.00436505
1686	0.00331142
1698	0.00361246
1710	0.00225779
1722	0.0024083
1734	0.0024083
1746	0.00210727
1758	0.00225779
1770	0.00150519
1782	0.00135467
1794	0.00105363
1806	0.000903114
1818	0.000752595
1830	0.000752595
1842	0.000301038
1854	0.000301038
1866	0.000301038
1878	0.000150519
1890	0.000602076
1902	0.000301038
1914	0.000451557
1926	0.000602076
1938	0.000752595
1950	0.000602076
1962	0.00105363
1974	0.000602076
1986	0.000301038
1998	0.000451557
2010	0.000451557
2022	0.00105363
2034	0.00165571
2046	0.0031609
2058	0.00406401
2070	0.00331142
2082	0.00285986
2094	0.00195675
2106	0.00105363
2118	0.00120415
2130	0.00105363
2142	0.000602076
2154	0.000752595
2166	0.000903114
2178	0.00105363
2190	0.00105363
2202	0.000903114
2214	0.00105363
2226	0.00105363
2238	0.00120415
2250	0.000903114
2262	0.00105363
2274	0.00120415
2286	0.00195675
2298	0.00331142
2310	0.00466609
2322	0.00541868
2334	0.0055692
2346	0.00511765
2358	0.0055692
2370	0.00541868
2382	0.00376298
2394	0.00270934
2406	0.00346194
2418	0.00346194
2430	0.0024083
2442	0.00135467
2454	0.00105363
2466	0.000752595
2478	0.000451557
2490	0.000752595
2502	0.00105363
2514	0.000752595
2526	0.00120415
2538	0.00135467
2550	0.0024083
2562	0.0024083
2574	0.00346194
2586	0.00391349
2598	0.0055692
2610	0.00662284
2622	0.00752595
2634	0.0087301
2646	0.00993425
2658	0.01159
2670	0.0112889
2682	0.0109879
2694	0.012192
2706	0.0141488
2718	0.0180623
2730	0.0261903
2742	0.0343183
2754	0.0308564
2766	0.0299533
2778	0.0326626
2790	0.035673
2802	0.0410917
2814	0.051327
2826	0.0674325
2838	0.0975363
2850	0.186493
2862	0.304199
2874	0.501529
2886	0.721739
2898	0.555415
2910	0.592744
2922	0.651747
2934	0.810846
2946	0.866989
2958	0.948872
2970	1.50519
2982	0.594701
2994	0.158045
3006	0.0850432
3018	0.0659273
3030	0.0576488
3042	0.0439515
3054	0.03191
3066	0.024083
3078	0.0192664
3090	0.0170086
3102	0.0152024
3114	0.0136972
3126	0.0130952
3138	0.0124931
3150	0.0120415
3162	0.0120415
3174	0.0112889
3186	0.0111384
3198	0.0109879
3210	0.0087301
3222	0.0063218
3234	0.00511765
3246	0.00406401
3258	0.00361246
3270	0.00376298
3282	0.00391349
3294	0.00346194
3306	0.0024083
3318	0.0031609
3330	0.00270934
3342	0.00301038
3354	0.00270934
3366	0.00210727
3378	0.0024083
3390	0.00165571
3402	0.00285986
3414	0.00270934
3426	0.0024083
3438	0.00301038
3450	0.00331142
3462	0.00255882
3474	0.00331142
3486	0.00285986
3498	0.00391349
3510	0.00331142
3522	0.00285986
3534	0.00285986
3546	0.00165571
3558	0.00150519
3570	0.00210727
3582	0.00301038
3594	0.00225779
3606	0.00421453
3618	0.00496713
3630	0.00511765
3642	0.0129446
3654	0.0322111
3666	0.0912145
3678	0.0927197
3690	0.0362751
3702	0.0138477
3714	0.00647232
3726	0.00466609
3738	0.00406401
3750	0.0024083
3762	0.00466609
3774	0.00526817
3786	0.00571972
3798	0.00541868
3810	0.00677336
3822	0.00361246
3834	0.00436505
3846	0.00511765
3858	0.00451557
3870	0.00361246
3882	0.00270934
3894	0.00541868
3906	0.00331142
3918	0.00496713
3930	0.00391349
3942	0.00602076
3954	0.00496713
3966	0.00526817
