Infrared Spectrum: 1H-Fluorene, dodecahydro-
Formula: C 13 H 22
CAS: 5744-03-6
Origin: Sadtler Research Labs Under US-EPA Contract
1/CM	ABSORBANCE
450	0.00920839
462	0.00855839
474	0
486	0.00455003
498	0.00465836
510	0.00758338
522	0.00379169
534	0.0057417
546	0.0104001
558	0.00520003
570	0.0050917
582	0.00812505
594	0.00715004
606	0.00650004
618	0.00801672
630	0.00563337
642	0.00465836
654	0.00465836
666	0.00368336
678	0.00487503
690	0.00563337
702	0.00303335
714	0.00411669
726	0.00465836
738	0.00335835
750	0.00455003
762	0.00487503
774	0.00715004
786	0.0050917
798	0.00747505
810	0.00975006
822	0.00715004
834	0.00682504
846	0.00920839
858	0.00682504
870	0.00498336
882	0.00650004
894	0.00866672
906	0.00834172
918	0.00736671
930	0.00617504
942	0.0050917
954	0.00487503
966	0.00595837
978	0.0047667
990	0.00682504
1002	0.00498336
1014	0.00563337
1026	0.00595837
1038	0.00487503
1050	0.00379169
1062	0.0050917
1074	0.0047667
1086	0.00400836
1098	0.00433336
1110	0.00563337
1122	0.00628337
1134	0.0060667
1146	0.00411669
1158	0.00325002
1170	0.00357502
1182	0.00455003
1194	0.0050917
1206	0.00617504
1218	0.00639171
1230	0.00563337
1242	0.00552503
1254	0.00693338
1266	0.00628337
1278	0.00639171
1290	0.00650004
1302	0.00801672
1314	0.00736671
1326	0.00790838
1338	0.00931672
1350	0.0105084
1362	0.0189584
1374	0.0136501
1386	0.00617504
1398	0.00433336
1410	0.00444169
1422	0.00530837
1434	0.00996673
1446	0.0456086
1458	0.0716088
1470	0.0537337
1482	0.0193918
1494	0.00563337
1506	0.00335835
1518	0.00270835
1530	0.00227501
1542	0.00227501
1554	0.00184168
1566	0.00195001
1578	0.00205835
1590	0.00162501
1602	0.00227501
1614	0.00195001
1626	0.00184168
1638	0.00195001
1650	0.00140834
1662	0.00173334
1674	0.00162501
1686	0.00184168
1698	0.00162501
1710	0.00216668
1722	0.00249168
1734	0.00249168
1746	0.00173334
1758	0.00173334
1770	0.00151668
1782	0.00130001
1794	0.00119167
1806	0.00130001
1818	0.00130001
1830	0.00140834
1842	0.000975006
1854	0.00108334
1866	0.000975006
1878	0.000866672
1890	0.000975006
1902	0.000866672
1914	0.00108334
1926	0.00130001
1938	0.00140834
1950	0.00119167
1962	0.000650004
1974	0.000650004
1986	0.000975006
1998	0.00108334
2010	0.000975006
2022	0.000758338
2034	0.000866672
2046	0.000866672
2058	0.000866672
2070	0.000758338
2082	0.000650004
2094	0.000866672
2106	0.000758338
2118	0.000650004
2130	0.000975006
2142	0.000975006
2154	0.00108334
2166	0.000975006
2178	0.000650004
2190	0.000866672
2202	0.00119167
2214	0.000975006
2226	0.00119167
2238	0.000975006
2250	0.000866672
2262	0.000866672
2274	0.000650004
2286	0.000975006
2298	0.00140834
2310	0.00216668
2322	0.00119167
2334	0.00140834
2346	0.00270835
2358	0.00205835
2370	0.00422503
2382	0.00368336
2394	0.00173334
2406	0.00162501
2418	0.00130001
2430	0.00108334
2442	0.00130001
2454	0.00130001
2466	0.00151668
2478	0.00162501
2490	0.00151668
2502	0.00130001
2514	0.00162501
2526	0.00162501
2538	0.00151668
2550	0.00184168
2562	0.00238335
2574	0.00260002
2586	0.00379169
2598	0.00390002
2610	0.00465836
2622	0.00563337
2634	0.00628337
2646	0.00834172
2658	0.0111584
2670	0.0130001
2682	0.0105084
2694	0.00790838
2706	0.00715004
2718	0.00736671
2730	0.00704171
2742	0.0060667
2754	0.00650004
2766	0.00715004
2778	0.00845005
2790	0.00953339
2802	0.0110501
2814	0.0147334
2826	0.0185251
2838	0.0226418
2850	0.0939256
2862	0.314927
2874	0.390436
2886	0.282102
2898	0.307885
2910	0.330527
2922	0.565503
2934	1.05106
2946	0.849555
2958	0.271268
2970	0.058392
2982	0.0237251
2994	0.0152751
3006	0.00899172
3018	0.00715004
3030	0.00639171
3042	0.0054167
3054	0.0050917
3066	0.0047667
3078	0.00433336
3090	0.00411669
3102	0.00346669
3114	0.00314169
3126	0.00325002
3138	0.00195001
3150	0.00184168
3162	0.00119167
3174	0.00119167
3186	0.00184168
3198	0.000975006
3210	0.00173334
3222	0.00173334
3234	0.00195001
3246	0.00184168
3258	0.00151668
3270	0.00162501
3282	0.00140834
3294	0.00195001
3306	0.00151668
3318	0.00162501
3330	0.00151668
3342	0.00216668
3354	0.00140834
3366	0.00130001
3378	0.00130001
3390	0.00173334
3402	0.00249168
3414	0.00151668
3426	0.00119167
3438	0.000866672
3450	0.000975006
3462	0.00130001
3474	0.00162501
3486	0.00151668
3498	0.00108334
3510	0.000975006
3522	0.00227501
3534	0.00108334
3546	0.00173334
3558	0.00108334
3570	0.00108334
3582	0.000758338
3594	0.00140834
3606	0.00140834
3618	0.000975006
3630	0.000866672
3642	0.000758338
3654	0.00173334
3666	0.00184168
3678	0.00119167
3690	0.00173334
3702	0.00140834
3714	0.00195001
3726	0.00140834
3738	0.00216668
3750	0.00195001
3762	0.00216668
3774	0.00108334
3786	0.00195001
3798	0.00238335
3810	0.00205835
3822	0.00173334
3834	0.00195001
3846	0.00108334
3858	0.00173334
3870	0.00151668
3882	0.00151668
3894	0.00151668
3906	0.00216668
3918	0.000975006
3930	0.000975006
3942	0.00314169
3954	0.00249168
3966	0.00205835
