Infrared Spectrum: Benzenemethanol, 3-iodo-
Formula: C 7 H 7 I O
CAS: 57455-06-8
Origin: Sadtler Research Labs Under US-EPA Contract
1/CM	ABSORBANCE
450	0.00683374
462	0.00927436
474	0.00162708
486	0.012637
498	0.0158369
510	0.0148607
522	0.0182775
534	0.00455582
546	0.0054236
558	0.00732186
570	0.00688797
582	0.0123658
594	0.0541275
606	0.0837404
618	0.0192538
630	0.00520666
642	0.0295044
654	0.251384
666	0.180226
678	0.109231
690	0.23571
702	0.149149
714	0.0449074
726	0.0196334
738	0.0244604
750	0.0551038
762	0.223452
774	0.492246
786	0.261363
798	0.0798896
810	0.0814082
822	0.126153
834	0.109665
846	0.0457209
858	0.0354161
870	0.0538563
882	0.0805405
894	0.0543987
906	0.0312399
918	0.0283654
930	0.0354703
942	0.0477277
954	0.0711034
966	0.125448
978	0.141447
990	0.219764
1002	0.365279
1014	0.384967
1026	0.505859
1038	0.504937
1050	0.350256
1062	0.423041
1074	0.223398
1086	0.11818
1098	0.0920927
1110	0.0558088
1122	0.0540733
1134	0.0628053
1146	0.0820048
1158	0.111726
1170	0.178599
1182	0.293525
1194	0.418431
1206	0.379869
1218	0.169867
1230	0.107387
1242	0.088947
1254	0.0810286
1266	0.0771778
1278	0.0722966
1290	0.0735983
1302	0.0765812
1314	0.068717
1326	0.0764728
1338	0.0836861
1350	0.105652
1362	0.180009
1374	0.288373
1386	0.266678
1398	0.200619
1410	0.203222
1422	0.298244
1434	0.183263
1446	0.0842827
1458	0.138627
1470	0.23571
1482	0.158532
1494	0.0396465
1506	0.0197419
1518	0.0103048
1530	0.0128539
1542	0.0303179
1554	0.117041
1566	0.396791
1578	0.265214
1590	0.17323
1602	0.0875369
1614	0.0149691
1626	0.00639985
1638	0.00379652
1650	0.00471853
1662	0.00764728
1674	0.0162166
1686	0.00878623
1698	0.00439312
1710	0.00450159
1722	0.0133963
1734	0.0161623
1746	0.0120404
1758	0.01242
1770	0.0130709
1782	0.00927436
1794	0.0105218
1806	0.00726762
1818	0.00238638
1830	0.00227791
1842	0.00385076
1854	0.0103048
1866	0.0235927
1878	0.0112269
1890	0.00200673
1902	0.000976248
1914	0.00227791
1926	0.010793
1938	0.016542
1950	0.00699644
1962	0.00200673
1974	0.00162708
1986	0.00233215
1998	0.00298298
2010	0.00374228
2022	0.00520666
2034	0.0054236
2046	0.00553207
2058	0.00498971
2070	0.00439312
2082	0.00276604
2094	0.00227791
2106	0.00124743
2118	0.000216944
2130	0.000216944
2142	0.000108472
2154	0.00108472
2166	0.00113896
2178	0.000922012
2190	0.00054236
2202	0.00054236
2214	0.000759304
2226	0.0013559
2238	0.00173555
2250	0.00168132
2262	0.00189826
2274	0.00238638
2286	0.00357958
2298	0.00526089
2310	0.00612867
2322	0.00498971
2334	0.00531513
2346	0.00894894
2358	0.00639985
2370	0.00520666
2382	0.00688797
2394	0.00564054
2406	0.00509818
2418	0.00395923
2430	0.00309145
2442	0.0027118
2454	0.00298298
2466	0.00368805
2478	0.00385076
2490	0.00395923
2502	0.00412194
2514	0.00390499
2526	0.00368805
2538	0.00390499
2550	0.00379652
2562	0.00385076
2574	0.00390499
2586	0.0040677
2598	0.0040677
2610	0.00379652
2622	0.00564054
2634	0.00564054
2646	0.00591172
2658	0.00629138
2670	0.00705068
2682	0.00639985
2694	0.00656256
2706	0.00786422
2718	0.0101421
2730	0.0109014
2742	0.0116607
2754	0.0137217
2766	0.0162166
2778	0.0189284
2790	0.0216402
2802	0.0242977
2814	0.0295586
2826	0.0386703
2838	0.0558088
2850	0.0812455
2862	0.112485
2874	0.172633
2886	0.234245
2898	0.193297
2910	0.167969
2922	0.169379
2934	0.182016
2946	0.16222
2958	0.140092
2970	0.0980587
2982	0.062968
2994	0.0433888
3006	0.0433888
3018	0.0514157
3030	0.0532598
3042	0.0655713
3054	0.0982214
3066	0.167481
3078	0.142749
3090	0.0855302
3102	0.0286366
3114	0.00900318
3126	0.00650832
3138	0.00515242
3150	0.00352534
3162	0.00309145
3174	0.00184402
3186	0.00206097
3198	0.00244062
3210	0.00227791
3222	0.0019525
3234	0.00184402
3246	0.0019525
3258	0.0021152
3270	0.00146437
3282	0.000759304
3294	0.00157284
3306	0.00141014
3318	0.00054236
3330	0.000922012
3342	0.000759304
3354	0.00081354
3366	0.00162708
3378	0.0019525
3390	0.0019525
3402	0.00222368
3414	0.00309145
3426	0.0033084
3438	0.00254909
3450	0.00238638
3462	0.00222368
3474	0.0034711
3486	0.0033084
3498	0.00254909
3510	0.0019525
3522	0.0021152
3534	0.00113896
3546	0.00151861
3558	0.0019525
3570	0.000922012
3582	0.00254909
3594	0.00526089
3606	0.00938283
3618	0.0174098
3630	0.0368805
3642	0.0860183
3654	0.142153
3666	0.13879
3678	0.0974079
3690	0.0559716
3702	0.0259248
3714	0.0110641
3726	0.00536936
3738	0.0046643
3750	0.00081354
3762	0.000976248
3774	0.00027118
3786	0
3798	0.00113896
3810	0.00081354
3822	0.00103048
3834	0.00282027
3846	0.0027118
3858	0.0033084
3870	0.00401346
3882	0.00493548
3894	0.00574902
3906	0.00444735
3918	0.00455582
3930	0.00390499
3942	0.00260333
3954	0.00124743
3966	0.00265756
