Infrared Spectrum: Naphthalene, 1,3-dimethyl-
Formula: C 12 H 12
CAS: 575-41-7
Origin: Sadtler Research Labs Under US-EPA Contract
1/CM	ABSORBANCE
450	0.00796224
462	0.0167482
474	0.0191506
486	0.011051
498	0.011257
510	0.020592
522	0.0672672
534	0.14991
546	0.0698755
558	0.00336336
570	0.00967824
582	0.0065208
594	0.00507936
606	0.0105706
618	0.0248477
630	0.0330845
642	0.0345946
654	0.00569712
666	0.005148
678	0.00761904
690	0.00816816
702	0.0114629
714	0.0234749
726	0.171257
738	0.583165
750	0.311008
762	0.123552
774	0.130965
786	0.0342514
798	0.0116002
810	0.0140712
822	0.0358301
834	0.159245
846	0.286229
858	0.379716
870	0.125268
882	0.0290347
894	0.0172973
906	0.0178464
918	0.0195624
930	0.0199056
942	0.0374088
954	0.0473616
966	0.0329472
978	0.0414586
990	0.0445474
1002	0.0338395
1014	0.0431746
1026	0.100489
1038	0.050519
1050	0.0225826
1062	0.0160618
1074	0.0153067
1086	0.0116688
1098	0.0113942
1110	0.0140026
1122	0.0202488
1134	0.0232003
1146	0.0183269
1158	0.0269755
1170	0.0236808
1182	0.0236122
1194	0.0137966
1206	0.021347
1218	0.0361046
1230	0.0158558
1242	0.0153754
1254	0.0155126
1266	0.0231317
1278	0.0320549
1290	0.0210725
1302	0.0133848
1314	0.0149635
1326	0.0184642
1338	0.0288288
1350	0.0364478
1362	0.0540197
1374	0.0918403
1386	0.124376
1398	0.124376
1410	0.146203
1422	0.106461
1434	0.0720034
1446	0.126572
1458	0.12616
1470	0.128837
1482	0.089232
1494	0.069601
1506	0.129867
1518	0.100283
1530	0.0479794
1542	0.0414586
1554	0.0387816
1566	0.0489403
1578	0.0742685
1590	0.105774
1602	0.190133
1614	0.147507
1626	0.121905
1638	0.107284
1650	0.0557357
1662	0.035075
1674	0.0322608
1686	0.0430373
1698	0.0229944
1710	0.0227885
1722	0.0339768
1734	0.0502445
1746	0.0439296
1758	0.0143458
1770	0.0214843
1782	0.0250536
1794	0.022308
1806	0.0294466
1818	0.0216902
1830	0.0146203
1842	0.00912912
1854	0.00741312
1866	0.00624624
1878	0.0092664
1890	0.0222394
1902	0.0238181
1914	0.0300643
1926	0.0242299
1938	0.0339768
1950	0.0151694
1962	0.00260832
1974	0.00157872
1986	0.0020592
1998	0.0020592
2010	0.0024024
2022	0.00356928
2034	0.00288288
2046	0.00350064
2058	0.00336336
2070	0.00391248
2082	0.00329472
2094	0.00212784
2106	0.00192192
2118	0.00219648
2130	0.00164736
2142	0.00151008
2154	0.00089232
2166	0.00048048
2178	0.00041184
2190	0.00192192
2202	0.00144144
2214	0.00130416
2226	0.00157872
2238	0.00247104
2250	0.00253968
2262	0.00302016
2274	0.00281424
2286	0.00295152
2298	0.00384384
2310	0.00322608
2322	0.00322608
2334	0.006864
2346	0.00906048
2358	0.00315744
2370	0.0106392
2382	0.00858
2394	0.0061776
2406	0.0061776
2418	0.00693264
2430	0.00569712
2442	0.00528528
2454	0.00535392
2466	0.0054912
2478	0.006864
2490	0.00624624
2502	0.00487344
2514	0.00555984
2526	0.00610896
2538	0.00555984
2550	0.00555984
2562	0.00528528
2574	0.0048048
2586	0.00542256
2598	0.00535392
2610	0.00391248
2622	0.00453024
2634	0.0048048
2646	0.00555984
2658	0.00507936
2670	0.00562848
2682	0.00528528
2694	0.00748176
2706	0.00830544
2718	0.0101587
2730	0.0185328
2742	0.0321922
2754	0.0218962
2766	0.0135907
2778	0.0136594
2790	0.0172973
2802	0.0194251
2814	0.0259459
2826	0.0332218
2838	0.0430373
2850	0.071317
2862	0.151557
2874	0.24175
2886	0.196516
2898	0.182171
2910	0.242711
2922	0.380609
2934	0.489815
2946	0.362968
2958	0.322677
2970	0.281012
2982	0.33915
2994	0.241681
3006	0.239691
3018	0.358644
3030	0.364135
3042	0.317597
3054	0.356242
3066	0.426254
3078	0.403946
3090	0.260763
3102	0.109893
3114	0.0457829
3126	0.0286229
3138	0.0166109
3150	0.0136594
3162	0.0105706
3174	0.0117374
3186	0.00906048
3198	0.00816816
3210	0.00473616
3222	0.00631488
3234	0.00734448
3246	0.00665808
3258	0.00425568
3270	0.00542256
3282	0.00425568
3294	0.00336336
3306	0.00350064
3318	0.00370656
3330	0.00260832
3342	0.0030888
3354	0.00192192
3366	0.00226512
3378	0.00439296
3390	0.00384384
3402	0.00439296
3414	0.00453024
3426	0.00404976
3438	0.00418704
3450	0.00453024
3462	0.00624624
3474	0.00425568
3486	0.00487344
3498	0.00521664
3510	0.00487344
3522	0.00432432
3534	0.00459888
3546	0.00473616
3558	0.00336336
3570	0.00267696
3582	0.00425568
3594	0.00260832
3606	0.00192192
3618	0.00130416
3630	0.00267696
3642	0.00356928
3654	0.00219648
3666	0.00157872
3678	0.00130416
3690	0.0027456
3702	0.00219648
3714	0.00363792
3726	0.00212784
3738	0.00199056
3750	0.00185328
3762	0.00164736
3774	0.00233376
3786	0.00253968
3798	0.00130416
3810	0.00233376
3822	0.00253968
3834	0.00054912
3846	0.00398112
3858	0.00288288
3870	0.0041184
3882	0.00590304
3894	0.00555984
3906	0.00590304
3918	0.00384384
3930	0.00521664
3942	0.00370656
3954	0.00391248
3966	0.00494208
