Infrared Spectrum: 1,6-Dihydroxynaphthalene
Formula: C 10 H 8 O 2
CAS: 575-44-0
Origin: Sadtler Research Labs Under US-EPA Contract
1/CM	ABSORBANCE
450	0.0957107
462	0.0252911
474	0.0271657
486	0.0250525
498	0.0132591
510	0.0369822
522	0.0234164
534	0.00627164
546	0.00916887
558	0.0224961
570	0.0237913
582	0.0294154
594	0.0170425
606	0.016429
618	0.0142816
630	0.0159518
642	0.0147929
654	0.0125092
666	0.00780547
678	0.0127819
690	0.0134977
702	0.0340509
714	0.0358233
726	0.053343
738	0.097824
750	0.0463556
762	0.0541952
774	0.11957
786	0.054536
798	0.0342895
810	0.0575355
822	0.0847694
834	0.100005
846	0.120968
858	0.0754301
870	0.0446514
882	0.0259728
894	0.0166335
906	0.0153383
918	0.0158836
930	0.0197011
942	0.0326534
954	0.0675906
966	0.021644
978	0.0119298
990	0.0125433
1002	0.0149292
1014	0.027677
1026	0.0493892
1038	0.0896095
1050	0.0602623
1062	0.0341532
1074	0.063773
1086	0.0584899
1098	0.0361642
1110	0.038107
1122	0.0663976
1134	0.15645
1146	0.240367
1158	0.277452
1170	0.264909
1182	0.340305
1194	0.268658
1206	0.224313
1218	0.186002
1230	0.100823
1242	0.0703855
1254	0.0813609
1266	0.205669
1278	0.214974
1290	0.074578
1302	0.0307106
1314	0.017656
1326	0.0197352
1338	0.0276429
1350	0.0551836
1362	0.117184
1374	0.139885
1386	0.162892
1398	0.0908365
1410	0.0270976
1422	0.0330965
1434	0.0603645
1446	0.0990169
1458	0.0967332
1470	0.0964606
1482	0.0453331
1494	0.0244389
1506	0.0490824
1518	0.0781569
1530	0.0503095
1542	0.0327898
1554	0.0286314
1566	0.0523886
1578	0.127682
1590	0.168175
1602	0.160813
1614	0.120422
1626	0.105152
1638	0.162892
1650	0.137874
1662	0.0315627
1674	0.0172811
1686	0.015645
1698	0.0131568
1710	0.00968014
1722	0.0114866
1734	0.00712377
1746	0.00937338
1758	0.0134295
1770	0.0143839
1782	0.00800998
1794	0.00712377
1806	0.00623756
1818	0.00391978
1830	0.00589671
1842	0.00095438
1854	0.00320399
1866	0.00497641
1878	0.00337442
1890	0.00780547
1902	0.00998691
1914	0.006817
1926	0.00395386
1938	0.00194285
1950	0.00020451
1962	0.00088621
1974	0.00126115
1986	0.00167017
1998	0.00081804
2010	0.00034085
2022	0.000579445
2034	0.0006817
2046	0.00034085
2058	0.000647615
2070	0.00074987
2082	0.000783955
2094	0.00122706
2106	0.00167017
2118	0.00153383
2130	0.00105663
2142	0.000852125
2154	0.00119298
2166	0.00139749
2178	0.00126115
2190	0.00109072
2202	0.00105663
2214	0.00129523
2226	0.00143157
2238	0.00102255
2250	0.00074987
2262	0.00109072
2274	0.00156791
2286	0.00245412
2298	0.00422654
2310	0.00651024
2322	0.00664658
2334	0.00732828
2346	0.0134636
2358	0.00974831
2370	0.0105664
2382	0.00685109
2394	0.00426063
2406	0.00497641
2418	0.00535135
2430	0.00562403
2442	0.00480599
2454	0.00422654
2466	0.00436288
2478	0.00405612
2490	0.00347667
2502	0.00391978
2514	0.00361301
2526	0.00422654
2538	0.00436288
2550	0.00391978
2562	0.00395386
2574	0.00391978
2586	0.00351076
2598	0.00323808
2610	0.00374935
2622	0.0036471
2634	0.00388569
2646	0.00398795
2658	0.00361301
2670	0.00344259
2682	0.00323808
2694	0.00320399
2706	0.00286314
2718	0.00334033
2730	0.0036471
2742	0.00453331
2754	0.00415837
2766	0.00391978
2778	0.00381752
2790	0.00361301
2802	0.00391978
2814	0.00306765
2826	0.00371527
2838	0.00463556
2850	0.00381752
2862	0.00449922
2874	0.00463556
2886	0.00514684
2898	0.00524909
2910	0.00521501
2922	0.00620347
2934	0.00760096
2946	0.00824857
2958	0.00838491
2970	0.0108049
2982	0.0116571
2994	0.0126115
3006	0.0175197
3018	0.032892
3030	0.0513661
3042	0.0498323
3054	0.0588307
3066	0.0701128
3078	0.0562403
3090	0.0309151
3102	0.0161563
3114	0.011214
3126	0.0077373
3138	0.00736236
3150	0.00654432
3162	0.006817
3174	0.00688517
3186	0.00715785
3198	0.00790772
3210	0.00644207
3222	0.00627164
3234	0.00651024
3246	0.0056922
3258	0.00572628
3270	0.0050105
3282	0.00518092
3294	0.00507867
3306	0.00589671
3318	0.00541952
3330	0.00555586
3342	0.00616939
3354	0.00579445
3366	0.00715785
3378	0.0070556
3390	0.00729419
3402	0.00736236
3414	0.00708968
3426	0.00657841
3438	0.00627164
3450	0.00538543
3462	0.00589671
3474	0.00599896
3486	0.00535135
3498	0.00698743
3510	0.00572628
3522	0.00845308
3534	0.00893027
3546	0.00671475
3558	0.00259046
3570	0.00620347
3582	0.00804406
3594	0.00620347
3606	0.00466965
3618	0.0074987
3630	0.0294154
3642	0.161972
3654	0.287916
3666	0.0739304
3678	0.00906661
3690	0.00678292
3702	0.00361301
3714	0.00252229
3726	6.817e-05
3738	6.817e-05
3750	0.00927112
3762	0.00180651
3774	0.00207919
3786	0.00289723
3798	0.00357893
3810	0.00524909
3822	0.00657841
3834	0.00875985
3846	0.0101232
3858	0.00872576
3870	0.00804406
3882	0.00916887
3894	0.00794181
3906	0.00899844
3918	0.0127819
3930	0.010021
3942	0.0111799
3954	0.0129182
3966	0.014452
