Infrared Spectrum: Phenol, 2,6-dimethyl-
Formula: C 8 H 10 O
CAS: 576-26-1
Origin: Sadtler Research Labs Under US-EPA Contract
1/CM	ABSORBANCE
450	0
462	0.0160265
474	0.035688
486	0.0460969
498	0.0430403
510	0.027179
522	0.0280877
534	0.0299052
546	0.0484927
558	0.0418012
570	0.0214789
582	0.0256094
594	0.0185875
606	0.0132178
618	0.0135482
630	0.0105742
642	0.010409
654	0.0179266
666	0.021231
678	0.0206528
690	0.0117308
702	0.011896
714	0.0319705
726	0.0682367
738	0.0719542
750	0.187279
762	0.361754
774	0.159274
786	0.0243702
798	0.0218093
810	0.034614
822	0.0651801
834	0.0836023
846	0.0541102
858	0.0159439
870	0.0101612
882	0.0114003
894	0.0347792
906	0.0574146
918	0.0446926
930	0.0211484
942	0.0213136
954	0.0263529
966	0.0306487
978	0.0379184
990	0.0434534
1002	0.0504753
1014	0.0631148
1026	0.0587364
1038	0.037588
1050	0.0280051
1062	0.0340357
1074	0.0665845
1086	0.111607
1098	0.125321
1110	0.0809588
1122	0.0298226
1134	0.0225528
1146	0.0349445
1158	0.0605539
1170	0.101198
1182	0.348784
1194	0.818758
1206	0.752917
1218	0.247255
1230	0.134408
1242	0.068815
1254	0.126395
1266	0.183149
1278	0.132343
1290	0.0650149
1302	0.0831893
1314	0.142917
1326	0.125486
1338	0.0493188
1350	0.0243702
1362	0.0242876
1374	0.0362662
1386	0.0480796
1398	0.0354401
1410	0.0262703
1422	0.0693932
1434	0.172492
1446	0.233128
1458	0.23288
1470	0.329535
1482	0.355393
1494	0.22875
1506	0.103594
1518	0.0530363
1530	0.0424621
1542	0.0412229
1554	0.0323835
1566	0.02974
1578	0.0393228
1590	0.0756717
1602	0.0869068
1614	0.0530363
1626	0.0345314
1638	0.03164
1650	0.0307313
1662	0.0228832
1674	0.0236267
1686	0.0207354
1698	0.0180918
1710	0.0154483
1722	0.0152004
1734	0.0152004
1746	0.01487
1758	0.0171005
1770	0.0210658
1782	0.0199093
1794	0.0155309
1806	0.013383
1818	0.0142091
1830	0.0217267
1842	0.0229659
1854	0.0160265
1866	0.0132178
1878	0.0132178
1890	0.0176788
1902	0.022718
1914	0.0216441
1926	0.0152004
1938	0.0124743
1950	0.0109047
1962	0.00991332
1974	0.00983071
1986	0.0103264
1998	0.0103264
2010	0.0109047
2022	0.0120612
2034	0.0125569
2046	0.0127221
2058	0.0119786
2070	0.0104916
2082	0.0104916
2094	0.0115655
2106	0.0116482
2118	0.0110699
2130	0.0104916
2142	0.0107394
2154	0.0106568
2166	0.00999593
2178	0.0097481
2190	0.0103264
2202	0.00983071
2214	0.00966549
2226	0.0101612
2238	0.00966549
2250	0.010409
2262	0.0117308
2274	0.0120612
2286	0.012309
2298	0.0127221
2310	0.0128047
2322	0.0133004
2334	0.013796
2346	0.012309
2358	0.0128047
2370	0.0133004
2382	0.0132178
2394	0.0128873
2406	0.0142091
2418	0.0158613
2430	0.0153656
2442	0.0138786
2454	0.0142917
2466	0.016357
2478	0.0166048
2490	0.0144569
2502	0.0119786
2514	0.0114829
2526	0.0114003
2538	0.0107394
2550	0.0109047
2562	0.0109873
2574	0.0114829
2586	0.012309
2598	0.0126395
2610	0.0120612
2622	0.0124743
2634	0.0135482
2646	0.0132178
2658	0.0124743
2670	0.0120612
2682	0.0117308
2694	0.0128873
2706	0.0135482
2718	0.0141265
2730	0.016357
2742	0.0232137
2754	0.0241224
2766	0.0171005
2778	0.0147048
2790	0.0153656
2802	0.0174309
2814	0.020818
2826	0.0257746
2838	0.0340357
2850	0.0571668
2862	0.120529
2874	0.15283
2886	0.12813
2898	0.120447
2910	0.150682
2922	0.212475
2934	0.255598
2946	0.197606
2958	0.13986
2970	0.134408
2982	0.153326
2994	0.119621
3006	0.0665019
3018	0.0800501
3030	0.15283
3042	0.186453
3054	0.168857
3066	0.161422
3078	0.119538
3090	0.067328
3102	0.0427099
3114	0.0291617
3126	0.018257
3138	0.01487
3150	0.0134656
3162	0.0126395
3174	0.0130525
3186	0.0126395
3198	0.0122264
3210	0.0114829
3222	0.0109047
3234	0.0106568
3246	0.0106568
3258	0.0101612
3270	0.0103264
3282	0.00983071
3294	0.0103264
3306	0.0112351
3318	0.0109873
3330	0.0111525
3342	0.0109873
3354	0.0120612
3366	0.0133004
3378	0.0134656
3390	0.0129699
3402	0.012309
3414	0.0119786
3426	0.0111525
3438	0.0132178
3450	0.011896
3462	0.0119786
3474	0.0114829
3486	0.0112351
3498	0.010409
3510	0.0112351
3522	0.0106568
3534	0.010822
3546	0.0110699
3558	0.0115655
3570	0.0124743
3582	0.0132178
3594	0.013383
3606	0.0161091
3618	0.0211484
3630	0.0547711
3642	0.183396
3654	0.308635
3666	0.218176
3678	0.0370923
3690	0.0156135
3702	0.0124743
3714	0.00966549
3726	0.00966549
3738	0.00966549
3750	0.00950026
3762	0.00966549
3774	0.00991332
3786	0.00966549
3798	0.00999593
3810	0.00958288
3822	0.00966549
3834	0.00966549
3846	0.0097481
3858	0.0105742
3870	0.0111525
3882	0.0097481
3894	0.0114829
3906	0.00950026
3918	0.00991332
3930	0.010822
3942	0.0116482
3954	0.0125569
3966	0.010822
