Infrared Spectrum: Benzene, 1-bromo-2,3-dimethyl-
Formula: C 8 H 9 Br
CAS: 576-23-8
Origin: Sadtler Research Labs Under US-EPA Contract
1/CM	ABSORBANCE
450	0.171611
462	0.0387218
474	0.0128644
486	0.0144081
498	0.0216765
510	0.0153086
522	0.01518
534	0.0149227
546	0.0124141
558	0.00746135
570	0.0160162
582	0.0232202
594	0.0552526
606	0.139321
618	0.0477912
630	0.0121569
642	0.0120282
654	0.0142795
666	0.0135719
678	0.0209047
690	0.081303
702	0.151028
714	0.0492707
726	0.0203901
738	0.0279801
750	0.114493
762	0.436939
774	0.465627
786	0.243652
798	0.0441892
810	0.0299097
822	0.0987343
834	0.151736
846	0.0201971
858	0.0192323
870	0.0180102
882	0.0176886
894	0.0205187
906	0.0183961
918	0.0179458
930	0.0196182
942	0.0279801
954	0.0454757
966	0.0701753
978	0.146847
990	0.260375
1002	0.329522
1014	0.190329
1026	0.124978
1038	0.0901794
1050	0.0726839
1062	0.0542234
1074	0.0654798
1086	0.0996348
1098	0.0533229
1110	0.0295238
1122	0.0329329
1134	0.0965473
1146	0.121311
1158	0.0503641
1170	0.0908227
1182	0.0573752
1194	0.0179458
1206	0.0180102
1218	0.0186534
1230	0.0169167
1242	0.02277
1254	0.0343479
1266	0.0360846
1278	0.0292665
1290	0.0233489
1302	0.0176242
1314	0.0179458
1326	0.0186534
1338	0.0209047
1350	0.0232202
1362	0.0257288
1374	0.0407158
1386	0.0805955
1398	0.0845834
1410	0.0515219
1422	0.0891503
1434	0.232395
1446	0.400855
1458	0.437261
1470	0.360846
1482	0.209111
1494	0.0954538
1506	0.0649009
1518	0.0558958
1530	0.0706899
1542	0.0867061
1554	0.161062
1566	0.249376
1578	0.199591
1590	0.102915
1602	0.0760286
1614	0.0316464
1626	0.0192966
1638	0.0187177
1650	0.034155
1662	0.0326756
1674	0.0124141
1686	0.0104845
1698	0.0103558
1710	0.0117709
1722	0.0133147
1734	0.011385
1746	0.0104202
1758	0.0107418
1770	0.0200041
1782	0.0237348
1794	0.0117066
1806	0.00829754
1818	0.00771864
1830	0.00926237
1842	0.0238635
1854	0.024571
1866	0.00752567
1878	0.00688245
1890	0.00829754
1902	0.0153086
1914	0.0311962
1926	0.0268223
1938	0.0096483
1950	0.00559601
1962	0.0052744
1974	0.00546737
1986	0.00553169
1998	0.00450254
2010	0.00450254
2022	0.00463118
2034	0.00630356
2046	0.00733271
2058	0.00623923
2070	0.00688245
2082	0.00566034
2094	0.00360203
2106	0.00360203
2118	0.0020583
2130	0.00192966
2142	0.00250856
2154	0.00250856
2166	0.00366635
2178	0.00257288
2190	0.00250856
2202	0.00392364
2214	0.0043739
2226	0.00308746
2238	0.00315178
2250	0.00385932
2262	0.00411661
2274	0.00360203
2286	0.00398796
2298	0.00514576
2310	0.00713974
2322	0.00688245
2334	0.00559601
2346	0.00212263
2358	0.00804025
2370	0.00173669
2382	0.00173669
2394	0.00533873
2406	0.00726839
2418	0.00713974
2430	0.00720406
2442	0.00617491
2454	0.00623923
2466	0.00713974
2478	0.00656084
2490	0.00636788
2502	0.00707542
2514	0.00887644
2526	0.00990559
2538	0.00939101
2550	0.0106775
2562	0.0101629
2574	0.00868347
2586	0.00759
2598	0.00681813
2610	0.00533873
2622	0.00611059
2634	0.00720406
2646	0.0109347
2658	0.00733271
2670	0.00765432
2682	0.0102915
2694	0.0106775
2706	0.0117066
2718	0.0128644
2730	0.0167237
2742	0.0251499
2754	0.0228986
2766	0.0167237
2778	0.016788
2790	0.0159519
2802	0.0161448
2814	0.0194896
2826	0.0248283
2838	0.0334474
2850	0.0512646
2862	0.0876709
2874	0.150578
2886	0.151864
2898	0.125685
2910	0.16267
2922	0.248669
2934	0.336661
2946	0.343479
2958	0.282309
2970	0.213099
2982	0.229694
2994	0.168138
3006	0.114879
3018	0.162992
3030	0.161255
3042	0.131153
3054	0.169424
3066	0.276778
3078	0.225513
3090	0.0884428
3102	0.0463118
3114	0.0338977
3126	0.0286876
3138	0.0216765
3150	0.0168524
3162	0.0127358
3174	0.0115136
3186	0.0105488
3198	0.0102272
3210	0.00771864
3222	0.00726839
3234	0.00501712
3246	0.00463118
3258	0.0064322
3270	0.00488847
3282	0.0064322
3294	0.0070111
3306	0.00746135
3318	0.00713974
3330	0.00681813
3342	0.00688245
3354	0.00797593
3366	0.00668949
3378	0.00611059
3390	0.00836186
3402	0.00984127
3414	0.00958398
3426	0.00887644
3438	0.00932669
3450	0.00874779
3462	0.0114493
3474	0.00919805
3486	0.0090694
3498	0.00759
3510	0.00681813
3522	0.00958398
3534	0.00861915
3546	0.00713974
3558	0.00816889
3570	0.00488847
3582	0.0108704
3594	0.00675381
3606	0.00649652
3618	0.00611059
3630	0.00591762
3642	0.00681813
3654	0.00726839
3666	0.00450254
3678	0.00771864
3690	0.00630356
3702	0.00392364
3714	0.00572466
3726	0.00739703
3738	0.00553169
3750	0.00649652
3762	0.00540305
3774	0.0064322
3786	0.00900508
3798	0.0122855
3810	0.0116423
3822	0.00900508
3834	0.0112564
3846	0.00939101
3858	0.0145368
3870	0.0105488
3882	0.0118352
3894	0.0120282
3906	0.0118352
3918	0.015373
3930	0.00623923
3942	0.0137006
3954	0.0106775
3966	0.0127358
