Infrared Spectrum: Benzene, 2-bromo-1,3,5-trimethyl-
Formula: C 9 H 11 Br
CAS: 576-83-0
Origin: Sadtler Research Labs Under US-EPA Contract
1/CM	ABSORBANCE
450	0
462	0.016319
474	0.0255637
486	0.0224285
498	0.0213835
510	0.0257245
522	0.0191326
534	0.0455806
546	0.0927689
558	0.0902768
570	0.0690542
582	0.042365
594	0.0649543
606	0.0188914
618	0.0265284
630	0.0172836
642	0.0217854
654	0.0168817
666	0.0162386
678	0.0203384
690	0.0455806
702	0.0713854
714	0.0348084
726	0.0219462
738	0.0221874
750	0.0234736
762	0.0213835
774	0.0389083
786	0.0411592
798	0.0254029
810	0.0229913
822	0.0254029
834	0.0913219
846	0.397604
858	0.192612
870	0.0398729
882	0.0266088
894	0.0285381
906	0.033281
918	0.0354515
930	0.0471883
942	0.0753245
954	0.0972707
966	0.0397926
978	0.0335222
990	0.0483942
1002	0.112062
1014	0.411994
1026	0.735157
1038	0.590055
1050	0.119619
1062	0.0603721
1074	0.0422042
1086	0.0422042
1098	0.0430885
1110	0.0309498
1122	0.0282165
1134	0.0281362
1146	0.0285381
1158	0.0316733
1170	0.0839261
1182	0.0962256
1194	0.0284577
1206	0.0266088
1218	0.027493
1230	0.0249206
1242	0.0269303
1254	0.030789
1266	0.0281362
1278	0.0277342
1290	0.0340045
1302	0.053941
1314	0.0360143
1326	0.0340045
1338	0.0364966
1350	0.0367378
1362	0.0421238
1374	0.0762088
1386	0.170666
1398	0.100808
1410	0.136018
1422	0.208208
1434	0.259255
1446	0.346316
1458	0.422444
1470	0.543028
1482	0.337955
1494	0.163029
1506	0.127979
1518	0.114072
1530	0.106837
1542	0.0947786
1554	0.101049
1566	0.115599
1578	0.129024
1590	0.139716
1602	0.0998431
1614	0.0439728
1626	0.0315125
1638	0.0239559
1650	0.0222678
1662	0.0200169
1674	0.0225089
1686	0.0229109
1698	0.0225893
1710	0.0406768
1722	0.0535391
1734	0.0299047
1746	0.0326379
1758	0.0216246
1770	0.0159974
1782	0.014872
1794	0.0146308
1806	0.0143896
1818	0.0135054
1830	0.0132642
1842	0.0131034
1854	0.0135054
1866	0.0143896
1878	0.0176856
1890	0.0210619
1902	0.0188914
1914	0.0183287
1926	0.0163994
1938	0.0155151
1950	0.0154347
1962	0.0139073
1974	0.0151935
1986	0.013425
1998	0.011978
2010	0.0113348
2022	0.0112545
2034	0.0118172
2046	0.0120584
2058	0.0118172
2070	0.0111741
2082	0.0111741
2094	0.0114152
2106	0.0111741
2118	0.0110133
2130	0.0111741
2142	0.0111741
2154	0.0109329
2166	0.011576
2178	0.0110133
2190	0.0112545
2202	0.0108525
2214	0.0104506
2226	0.0110937
2238	0.0114956
2250	0.0108525
2262	0.0108525
2274	0.010531
2286	0.0106917
2298	0.0113348
2310	0.0131034
2322	0.0139073
2334	0.0133446
2346	0.0118976
2358	0.0107721
2370	0.0123799
2382	0.0131034
2394	0.0151131
2406	0.0180875
2418	0.0203384
2430	0.0171229
2442	0.014872
2454	0.01447
2466	0.01447
2478	0.0155151
2490	0.0149524
2502	0.0138269
2514	0.0117368
2526	0.0122191
2538	0.0116564
2550	0.011978
2562	0.0116564
2574	0.0112545
2586	0.0113348
2598	0.0126211
2610	0.0129426
2622	0.0137465
2634	0.01447
2646	0.0126211
2658	0.0135054
2670	0.0132642
2682	0.0151131
2694	0.0139073
2706	0.0131034
2718	0.0150327
2730	0.0193737
2742	0.0445355
2754	0.045661
2766	0.0201776
2778	0.0176856
2790	0.0209815
2802	0.0250814
2814	0.0311909
2826	0.0398729
2838	0.058282
2850	0.0987981
2862	0.200973
2874	0.298324
2886	0.212468
2898	0.189798
2910	0.266409
2922	0.44849
2934	0.727279
2946	0.570923
2958	0.368825
2970	0.371799
2982	0.420595
2994	0.425258
3006	0.304031
3018	0.292777
3030	0.393263
3042	0.327424
3054	0.169862
3066	0.0942159
3078	0.0609349
3090	0.0490373
3102	0.0424454
3114	0.0377828
3126	0.029342
3138	0.0226697
3150	0.0172032
3162	0.017766
3174	0.0176052
3186	0.015917
3198	0.0151935
3210	0.0131838
3222	0.013023
3234	0.013023
3246	0.0126211
3258	0.0146308
3270	0.0128622
3282	0.0140681
3294	0.0118976
3306	0.0131838
3318	0.0139073
3330	0.0142289
3342	0.0133446
3354	0.014872
3366	0.0114152
3378	0.0122995
3390	0.0106917
3402	0.0106917
3414	0.0127819
3426	0.0107721
3438	0.0155151
3450	0.0118172
3462	0.0139877
3474	0.0131034
3486	0.0143896
3498	0.0139877
3510	0.013425
3522	0.0151131
3534	0.0146308
3546	0.013425
3558	0.0128622
3570	0.0127015
3582	0.0147112
3594	0.0133446
3606	0.0136661
3618	0.0138269
3630	0.0138269
3642	0.013425
3654	0.0118172
3666	0.0131838
3678	0.0118172
3690	0.011978
3702	0.0129426
3714	0.0129426
3726	0.0113348
3738	0.0111741
3750	0.0142289
3762	0.0118172
3774	0.0114152
3786	0.0116564
3798	0.0110133
3810	0.0127819
3822	0.0132642
3834	0.0140681
3846	0.0111741
3858	0.0114956
3870	0.0125407
3882	0.0153543
3894	0.0146308
3906	0.0124603
3918	0.0122995
3930	0.0155955
3942	0.0143896
3954	0.0201776
3966	0.0168013
