Infrared Spectrum: Phenol, 2,3-dichloro-
Formula: C 6 H 4 Cl 2 O
CAS: 576-24-9
Origin: Sadtler Research Labs Under US-EPA Contract
1/CM	ABSORBANCE
450	0
462	0.134677
474	0.0794912
486	0.0884174
498	0.107295
510	0.12943
522	0.142155
534	0.115075
546	0.0881158
558	0.125328
570	0.159344
582	0.188415
594	0.1275
606	0.104219
618	0.108562
630	0.113266
642	0.115437
654	0.111095
666	0.106752
678	0.119116
690	0.138597
702	0.204096
714	0.145593
726	0.118815
738	0.137451
750	0.137873
762	0.218028
774	0.441846
786	0.206207
798	0.0887793
810	0.0832909
822	0.0866683
834	0.0852812
846	0.0912521
858	0.0911917
870	0.0916742
882	0.107295
894	0.196436
906	0.374839
918	0.281597
930	0.114713
942	0.0964992
954	0.0957151
966	0.101083
978	0.0976451
990	0.0896839
1002	0.088538
1014	0.0913124
1026	0.115437
1038	0.218329
1050	0.244565
1062	0.137753
1074	0.0942677
1086	0.089503
1098	0.0890205
1110	0.0898046
1122	0.0954739
1134	0.0922774
1146	0.114231
1158	0.152951
1170	0.385273
1182	0.41953
1194	0.143603
1206	0.164411
1218	0.372969
1230	0.311753
1242	0.112241
1254	0.123459
1266	0.19131
1278	0.341125
1290	0.274299
1302	0.118212
1314	0.118453
1326	0.165617
1338	0.13522
1350	0.0934836
1362	0.0870302
1374	0.0888999
1386	0.0897443
1398	0.0876936
1410	0.0947502
1422	0.153313
1434	0.284371
1446	0.476766
1458	0.579659
1470	0.374779
1482	0.147161
1494	0.124363
1506	0.103737
1518	0.106451
1530	0.110431
1542	0.118332
1554	0.138476
1566	0.197763
1578	0.383042
1590	0.445887
1602	0.162903
1614	0.112723
1626	0.0989117
1638	0.0946898
1650	0.0958358
1662	0.0886586
1674	0.0887793
1686	0.0865477
1698	0.0872715
1710	0.0832306
1722	0.0849796
1734	0.0884777
1746	0.0912521
1758	0.0882968
1770	0.0837131
1782	0.0822053
1794	0.0835321
1806	0.0842559
1818	0.0852209
1830	0.0907092
1842	0.0873318
1854	0.0849796
1866	0.0832306
1878	0.0827481
1890	0.0834718
1902	0.0872715
1914	0.0934233
1926	0.0908902
1938	0.0839543
1950	0.0836527
1962	0.0825068
1974	0.0819037
1986	0.0821449
1998	0.0812403
2010	0.0800943
2022	0.0816021
2034	0.0823259
2046	0.0817831
2058	0.0824465
2070	0.0818434
2082	0.0820243
2094	0.0818434
2106	0.0813609
2118	0.0831702
2130	0.0835924
2142	0.0818434
2154	0.08118
2166	0.0817831
2178	0.0822656
2190	0.0824465
2202	0.0831099
2214	0.0823862
2226	0.0814815
2238	0.0823862
2250	0.0822053
2262	0.0821449
2274	0.0824465
2286	0.0815418
2298	0.0828084
2310	0.0849796
2322	0.0836527
2334	0.083894
2346	0.0863065
2358	0.0839543
2370	0.0870302
2382	0.0860049
2394	0.0841956
2406	0.0820846
2418	0.0806975
2430	0.080999
2442	0.0817831
2454	0.0827481
2466	0.0820846
2478	0.0834718
2490	0.0855224
2502	0.0880555
2514	0.0852812
2526	0.0837131
2538	0.0843765
2550	0.0836527
2562	0.0805768
2574	0.080215
2586	0.0809387
2598	0.0826878
2610	0.0829893
2622	0.0811196
2634	0.080034
2646	0.0801546
2658	0.0805165
2670	0.0819037
2682	0.0813609
2694	0.0799134
2706	0.079069
2718	0.0785865
2730	0.080215
2742	0.0793103
2754	0.078285
2766	0.0796722
2778	0.0794912
2790	0.0791897
2802	0.0797325
2814	0.0794309
2826	0.0791897
2838	0.0793706
2850	0.081964
2862	0.0824465
2874	0.0799134
2886	0.0791897
2898	0.0806975
2910	0.0804562
2922	0.0841352
2934	0.0857034
2946	0.0808784
2958	0.0764153
2970	0.0753297
2982	0.0799134
2994	0.0813006
3006	0.083894
3018	0.0876936
3030	0.0879349
3042	0.0878746
3054	0.0870302
3066	0.0942677
3078	0.112422
3090	0.112663
3102	0.0888999
3114	0.0836527
3126	0.0834115
3138	0.0840146
3150	0.0852209
3162	0.0855224
3174	0.0855224
3186	0.0850399
3198	0.0844368
3210	0.0827481
3222	0.0813609
3234	0.0832306
3246	0.0841352
3258	0.0833512
3270	0.0832306
3282	0.0827481
3294	0.0860049
3306	0.0835321
3318	0.0828084
3330	0.0828084
3342	0.0822053
3354	0.0827481
3366	0.0835321
3378	0.0872112
3390	0.0855224
3402	0.0806371
3414	0.080999
3426	0.0840146
3438	0.0861858
3450	0.0840146
3462	0.0858843
3474	0.0855224
3486	0.0845574
3498	0.0855827
3510	0.0876936
3522	0.0890205
3534	0.090468
3546	0.0976451
3558	0.17593
3570	0.414163
3582	0.339436
3594	0.119599
3606	0.0955342
3618	0.0915536
3630	0.0914933
3642	0.100118
3654	0.106089
3666	0.0939661
3678	0.0882968
3690	0.0876936
3702	0.0879349
3714	0.086789
3726	0.0890808
3738	0.106149
3750	0.107295
3762	0.0905283
3774	0.0885983
3786	0.0878143
3798	0.0878143
3810	0.0886586
3822	0.0890808
3834	0.0878746
3846	0.0907092
3858	0.0907092
3870	0.0854018
3882	0.0860652
3894	0.0896236
3906	0.0839543
3918	0.0798531
3930	0.0781644
3942	0.0825068
3954	0.0946898
3966	0.0906489
