Infrared Spectrum: p-Anisidine, 3-nitro-,
Formula: C 7 H 8 N 2 O 3
CAS: 577-72-0
Origin: Sadtler Research Labs Under US-EPA Contract
1/CM	ABSORBANCE
450	0.0237438
462	0.026382
474	0.0179242
486	0.0143549
498	0.00395729
510	0.00791459
522	0.00822496
534	0.00969925
546	0.0197089
558	0.0255284
570	0.022735
582	0.0221919
594	0.0228126
606	0.0251405
618	0.030572
630	0.0332102
642	0.0578851
654	0.105295
666	0.114994
678	0.109951
690	0.0805426
702	0.0605233
714	0.0488842
726	0.0440734
738	0.0501257
750	0.0463236
762	0.0492722
774	0.0453925
786	0.0290978
798	0.0687483
810	0.221608
822	0.186381
834	0.0443062
846	0.0246749
858	0.0549366
870	0.0439958
882	0.013579
894	0.00201744
906	0.000155188
918	0.00193985
930	0.0120271
942	0.0119495
954	0.00279338
966	0.00744902
978	0.018157
990	0.0408144
1002	0.0972253
1014	0.183199
1026	0.159068
1038	0.077982
1050	0.0320463
1062	0.0214159
1074	0.0447717
1086	0.0600578
1098	0.0311928
1110	0.0180018
1122	0.0173811
1134	0.0364692
1146	0.071852
1158	0.0606009
1170	0.0324343
1182	0.0502809
1194	0.0392626
1206	0.0502033
1218	0.123685
1230	0.295944
1242	0.257224
1254	0.229057
1266	0.389444
1278	0.356389
1290	0.223238
1302	0.171871
1314	0.128418
1326	0.0927248
1338	0.126789
1350	0.267699
1362	0.345216
1374	0.165586
1386	0.0628511
1398	0.0417456
1410	0.0381762
1422	0.0479531
1434	0.0969149
1446	0.128806
1458	0.100562
1470	0.110804
1482	0.124383
1494	0.259474
1506	0.55697
1518	0.614855
1530	0.63984
1542	0.727056
1554	0.723331
1566	0.374391
1578	0.206555
1590	0.120814
1602	0.0824048
1614	0.143859
1626	0.166982
1638	0.125857
1650	0.0561005
1662	0.0267699
1674	0.0183122
1686	0.0141997
1698	0.0134238
1710	0.0154412
1722	0.0149756
1734	0.0121823
1746	0.00946647
1758	0.00737143
1770	0.0065179
1782	0.00481083
1794	0.00481083
1806	0.00496602
1818	0.00411248
1830	0.00419008
1842	0.00473323
1854	0.00682827
1866	0.00659549
1878	0.00566436
1890	0.00411248
1902	0.00411248
1914	0.00341414
1926	0.00341414
1938	0.00465564
1950	0.00527639
1962	0.00597474
1974	0.00597474
1986	0.00605233
1998	0.00806978
2010	0.0103976
2022	0.0122599
2034	0.0127254
2046	0.0106304
2058	0.00814737
2070	0.00667308
2082	0.00496602
2094	0.0038797
2106	0.00294857
2118	0.00217263
2130	0.00108632
2142	0.00077594
2154	0.00077594
2166	0.0013191
2178	0.00116391
2190	0.00038797
2202	0.000232782
2214	0.00038797
2226	0.000698346
2238	0.00116391
2250	0.00116391
2262	0.00147429
2274	0.00225023
2286	0.00279338
2298	0.00349173
2310	0.00434526
2322	0.00372451
2334	0.00403489
2346	0.00496602
2358	0.00403489
2370	0.00434526
2382	0.00434526
2394	0.00193985
2406	0.00139669
2418	0.00108632
2430	0.00186226
2442	0.00186226
2454	0.000853534
2466	0.000698346
2478	0.000931128
2490	0.00147429
2502	0.00217263
2514	0.00279338
2526	0.00349173
2538	0.00349173
2550	0.00380211
2562	0.00450045
2574	0.00372451
2586	0.00325895
2598	0.00310376
2610	0.0026382
2622	0.00271579
2634	0.00318135
2646	0.00333654
2658	0.00349173
2670	0.00341414
2682	0.00318135
2694	0.00333654
2706	0.00356932
2718	0.00403489
2730	0.00395729
2742	0.00395729
2754	0.00465564
2766	0.00535399
2778	0.00566436
2790	0.0065179
2802	0.00838015
2814	0.0129582
2826	0.0209504
2838	0.0496602
2850	0.062308
2862	0.0361588
2874	0.0294857
2886	0.0316584
2898	0.0398833
2910	0.0488066
2922	0.0543158
2934	0.0713089
2946	0.090009
2958	0.0785251
2970	0.0618424
2982	0.043763
2994	0.0370899
3006	0.0499705
3018	0.0608337
3030	0.0417456
3042	0.0435302
3054	0.0404265
3066	0.0278562
3078	0.0235886
3090	0.0169155
3102	0.0109408
3114	0.00752662
3126	0.00527639
3138	0.00457805
3150	0.00333654
3162	0.00310376
3174	0.00294857
3186	0.00294857
3198	0.00395729
3210	0.00659549
3222	0.00845775
3234	0.00768181
3246	0.00744902
3258	0.00636271
3270	0.00481083
3282	0.00356932
3294	0.00411248
3306	0.00481083
3318	0.00566436
3330	0.00737143
3342	0.0105528
3354	0.0173035
3366	0.0254508
3378	0.0370899
3390	0.04128
3402	0.0447717
3414	0.0554797
3426	0.0419008
3438	0.0218815
3450	0.0214159
3462	0.0254508
3474	0.0301065
3486	0.0332878
3498	0.0332878
3510	0.0237438
3522	0.0109408
3534	0.00473323
3546	0.00372451
3558	0.00178466
3570	0.00217263
3582	0.0012415
3594	0.00217263
3606	0.0012415
3618	0.00116391
3630	0.0025606
3642	0.00100872
3654	0.00100872
3666	0.000620752
3678	0.00240541
3690	0.00147429
3702	0.0012415
3714	0.00170707
3726	0.00248301
3738	0.00287098
3750	0.0013191
3762	0.00116391
3774	0.00100872
3786	0.000620752
3798	0.00139669
3810	0.000698346
3822	0.00147429
3834	0.0013191
3846	0.00232782
3858	0.0025606
3870	0.00496602
3882	0.00364692
3894	0.00294857
3906	0.00240541
3918	0.00248301
3930	0.00225023
3942	0.00162947
3954	0.00372451
3966	0.00108632
