Infrared Spectrum: Benzaldehyde, 2,5-dimethyl-
Formula: C 9 H 10 O
CAS: 5779-94-2
Origin: Sadtler Research Labs Under US-EPA Contract
1/CM	ABSORBANCE
450	0.0197086
462	0.00990936
474	0
486	0.00627593
498	0.00968915
510	0.0186076
522	0.0303887
534	0.0301685
546	0.0153045
558	0.00715676
570	0.00638603
582	0.0107902
594	0.0120013
606	0.0129923
618	0.0187177
630	0.0313796
642	0.0336918
654	0.0193783
666	0.0411789
678	0.0551621
690	0.0115609
702	0.0106801
714	0.0155247
726	0.0195985
738	0.0287371
750	0.0249936
762	0.0484458
774	0.0894044
786	0.0978825
798	0.0895146
810	0.142585
822	0.103388
834	0.026425
846	0.00704666
858	0.00462437
870	0.0114508
882	0.0206996
894	0.0189379
906	0.0231218
918	0.0436012
930	0.0578046
942	0.0260946
954	0.00946894
966	0.00770728
978	0.01057
990	0.0178368
1002	0.0184975
1014	0.0127721
1026	0.0106801
1038	0.0150842
1050	0.0218006
1062	0.0195985
1074	0.012662
1086	0.0118912
1098	0.0226814
1110	0.0400779
1122	0.0450325
1134	0.0886337
1146	0.140603
1158	0.136969
1170	0.0633098
1182	0.017947
1194	0.032811
1206	0.0481154
1218	0.0322605
1230	0.0943591
1242	0.12728
1254	0.0425001
1266	0.0262048
1278	0.0770728
1290	0.144016
1302	0.065622
1314	0.0175065
1326	0.0153045
1338	0.015855
1350	0.0157449
1362	0.0167358
1374	0.0310493
1386	0.0771829
1398	0.0913863
1410	0.0801557
1422	0.0557126
1434	0.0443719
1446	0.0553823
1458	0.0643007
1470	0.053951
1482	0.0520792
1494	0.111425
1506	0.133666
1518	0.055052
1530	0.028627
1542	0.0290675
1554	0.0498771
1566	0.0892943
1578	0.0850003
1590	0.0491064
1602	0.0506478
1614	0.0641906
1626	0.0585753
1638	0.0301685
1650	0.0216905
1662	0.0247734
1674	0.0347929
1686	0.080486
1698	0.310824
1710	0.767315
1722	1.01989
1734	0.303226
1746	0.0499872
1758	0.0506478
1770	0.0330312
1782	0.020149
1794	0.0269755
1806	0.0177267
1818	0.00891842
1830	0.00803759
1842	0.00803759
1854	0.0081477
1866	0.00858811
1878	0.00770728
1890	0.00990936
1902	0.0150842
1914	0.0117811
1926	0.00693655
1938	0.00572541
1950	0.00429406
1962	0.00308291
1974	0.00253239
1986	0.00308291
1998	0.00352333
2010	0.00341322
2022	0.00341322
2034	0.00352333
2046	0.00209198
2058	0.0026425
2070	0.00253239
2082	0.00176166
2094	0.00209198
2106	0.00198187
2118	0.00187177
2130	0.00253239
2142	0.00242229
2154	0.0026425
2166	0.00231218
2178	0.00132125
2190	0.00143135
2202	0.00253239
2214	0.00231218
2226	0.00220208
2238	0.00165156
2250	0.000990936
2262	0.00143135
2274	0.00209198
2286	0.00187177
2298	0.00220208
2310	0.000990936
2322	0.000220208
2334	0.000990936
2346	0.00220208
2358	0.00231218
2370	0.00374354
2382	0.00440416
2394	0.00363343
2406	0.00330312
2418	0.0028627
2430	0.00308291
2442	0.00253239
2454	0.00231218
2466	0.00198187
2478	0.00220208
2490	0.00253239
2502	0.00319302
2514	0.00308291
2526	0.00308291
2538	0.0027526
2550	0.00253239
2562	0.0027526
2574	0.00341322
2586	0.00418395
2598	0.00429406
2610	0.00407385
2622	0.00528499
2634	0.00803759
2646	0.00990936
2658	0.0112306
2670	0.0154146
2682	0.0202591
2694	0.034903
2706	0.0897348
2718	0.231879
2730	0.183984
2742	0.0799355
2754	0.0873125
2766	0.0481154
2778	0.0363343
2790	0.0464639
2802	0.0591258
2814	0.0734394
2826	0.0927076
2838	0.112416
2850	0.108673
2862	0.0912762
2874	0.098433
2886	0.0946894
2898	0.0788345
2910	0.0760819
2922	0.102727
2934	0.20127
2946	0.19048
2958	0.0941389
2970	0.0852205
2982	0.100745
2994	0.103608
3006	0.10636
3018	0.120234
3030	0.117701
3042	0.0932581
3054	0.0943591
3066	0.0724484
3078	0.0409587
3090	0.0234522
3102	0.0166257
3114	0.0165156
3126	0.0142034
3138	0.0082578
3150	0.00506478
3162	0.00319302
3174	0.00374354
3186	0.00385364
3198	0.00297281
3210	0.0027526
3222	0.00209198
3234	0.00187177
3246	0.00143135
3258	0.00154146
3270	0.00187177
3282	0.00187177
3294	0.00143135
3306	0.00176166
3318	0.00165156
3330	0.00198187
3342	0.0027526
3354	0.00198187
3366	0.00198187
3378	0.00330312
3390	0.00781738
3402	0.0118912
3414	0.0128822
3426	0.0112306
3438	0.00352333
3450	0.00121114
3462	0.00187177
3474	0.00143135
3486	0.00176166
3498	0.00143135
3510	0.000880832
3522	0.00198187
3534	0.000880832
3546	0.000880832
3558	0.00165156
3570	0.00363343
3582	0.00473447
3594	0.00297281
3606	0.00176166
3618	0.000330312
3630	0.000660624
3642	0.000880832
3654	0.00242229
3666	0.00154146
3678	0.000440416
3690	0.00110104
3702	0.00121114
3714	0.00154146
3726	0.00165156
3738	0.00209198
3750	0.000770728
3762	0.00132125
3774	0.00055052
3786	0.00132125
3798	0.000880832
3810	0.00110104
3822	0.00055052
3834	0.00165156
3846	0.00110104
3858	0.00165156
3870	0.000220208
3882	0.000660624
3894	0.000220208
3906	0.000880832
3918	0.000330312
3930	0.000330312
3942	0.000660624
3954	0.00176166
3966	0.00132125
