Infrared Spectrum: Benzene, 1-bromo-2-methoxy-
Formula: C 7 H 7 Br O
CAS: 578-57-4
Origin: Sadtler Research Labs Under US-EPA Contract
1/CM	ABSORBANCE
450	0.0146138
462	0.0174886
474	0.00994216
486	0.0106609
498	0.0032342
510	0.00491119
522	0.0123379
534	0.0126972
546	0.0149731
558	0.0220404
570	0.0464766
582	0.0315035
594	0.00970258
606	0.00287484
618	0.00299463
630	0.00455183
642	0.0154523
654	0.117389
666	0.160871
678	0.0258736
690	0.00730688
702	0.0270714
714	0.068517
726	0.0985831
738	0.321263
750	0.588504
762	0.231305
774	0.0510284
786	0.0568979
798	0.0717512
810	0.0312639
822	0.0137753
834	0.0156918
846	0.0125774
858	0.00646839
870	0.0071871
882	0.00622882
894	0.00347377
906	0.00395291
918	0.0116191
930	0.0214415
942	0.0114994
954	0.0105411
966	0.0164105
978	0.0259933
990	0.0415654
1002	0.0795372
1014	0.203155
1026	0.499983
1038	0.608388
1050	0.396369
1062	0.576405
1074	0.221003
1086	0.0463568
1098	0.0285088
1110	0.0437215
1122	0.116311
1134	0.0778603
1146	0.0305452
1158	0.0543824
1170	0.0503097
1182	0.0583353
1194	0.0471953
1206	0.0309045
1218	0.0501899
1230	0.145299
1242	0.491837
1254	0.83011
1266	0.730329
1278	0.663848
1290	0.507649
1302	0.3899
1314	0.0848078
1326	0.0299463
1338	0.0204832
1350	0.0177282
1362	0.0212019
1374	0.0293473
1386	0.028988
1398	0.0238372
1410	0.0304254
1422	0.0856463
1434	0.278141
1446	0.31216
1458	0.303655
1470	0.537475
1482	1.19785
1494	0.666963
1506	0.119306
1518	0.0450392
1530	0.0252746
1542	0.0299463
1554	0.0459974
1566	0.114514
1578	0.244122
1590	0.357678
1602	0.214535
1614	0.0595331
1626	0.0192854
1638	0.0106609
1650	0.00946301
1662	0.00994216
1674	0.0165303
1686	0.0132961
1698	0.0113796
1710	0.00682775
1722	0.00706732
1734	0.0103015
1746	0.00970258
1758	0.016171
1770	0.0152127
1782	0.0105411
1794	0.0107807
1806	0.00910366
1818	0.00826516
1830	0.00754646
1842	0.00874431
1854	0.0105411
1866	0.00946301
1878	0.0135357
1890	0.0221602
1902	0.0134159
1914	0.0109004
1926	0.0186865
1938	0.0103015
1950	0.00203635
1962	0.00119785
1974	0.00107807
1986	0.00107807
1998	0.0023957
2010	0.00443204
2022	0.00838495
2034	0.0158116
2046	0.0214415
2058	0.0228789
2070	0.0225196
2082	0.0180875
2094	0.0154523
2106	0.00682775
2118	0.00503097
2130	0.00395291
2142	0.00287484
2154	0.00179678
2166	0.00071871
2178	0.000119785
2190	0
2202	0
2214	0.00047914
2226	0.000838495
2238	0.00119785
2250	0.00263527
2262	0.00515075
2274	0.0105411
2286	0.00994216
2298	0.00515075
2310	0.00622882
2322	0.00682775
2334	0.00395291
2346	0.00359355
2358	0.00311441
2370	0.00551011
2382	0.00551011
2394	0.00395291
2406	0.0023957
2418	0.00215613
2430	0.00191656
2442	0.00203635
2454	0.00215613
2466	0.00287484
2478	0.00311441
2490	0.00395291
2502	0.00634861
2514	0.00802559
2526	0.0105411
2538	0.0154523
2550	0.0183271
2562	0.014494
2574	0.0116191
2586	0.00826516
2598	0.00682775
2610	0.00598925
2622	0.00443204
2634	0.00407269
2646	0.00407269
2658	0.00287484
2670	0.00167699
2682	0.00215613
2694	0.00287484
2706	0.00383312
2718	0.00443204
2730	0.00551011
2742	0.00586946
2754	0.00574968
2766	0.00598925
2778	0.00694753
2790	0.00730688
2802	0.0095828
2814	0.0170095
2826	0.0356959
2838	0.115473
2850	0.177761
2862	0.0736678
2874	0.0543824
2886	0.065163
2898	0.0788185
2910	0.107088
2922	0.13392
2934	0.146976
2946	0.256939
2958	0.249153
2970	0.17297
2982	0.0872035
2994	0.075225
3006	0.159434
3018	0.199562
3030	0.0821725
3042	0.0565385
3054	0.0602519
3066	0.11679
3078	0.220285
3090	0.135117
3102	0.0601321
3114	0.0207228
3126	0.00994216
3138	0.00850474
3150	0.00874431
3162	0.00694753
3174	0.0056299
3186	0.00431226
3198	0.0032342
3210	0.00275506
3222	0.00215613
3234	0.00263527
3246	0.00143742
3258	0.00131764
3270	0.00155721
3282	0.00155721
3294	0.00167699
3306	0.00119785
3318	0.00143742
3330	0.00143742
3342	0.00167699
3354	0.00143742
3366	0.00155721
3378	0.00047914
3390	0.000838495
3402	0.00071871
3414	0.00047914
3426	0.00095828
3438	0.00095828
3450	0.000359355
3462	0.00047914
3474	0.000838495
3486	0.00119785
3498	0.00095828
3510	0.00107807
3522	0.00119785
3534	0.00107807
3546	0.000838495
3558	0.000838495
3570	0.00107807
3582	0.00095828
3594	0.00095828
3606	0.00155721
3618	0.00071871
3630	0.00155721
3642	0.00107807
3654	0.00107807
3666	0.00143742
3678	0.0023957
3690	0.000838495
3702	0.00167699
3714	0.00155721
3726	0.0023957
3738	0.00263527
3750	0.00155721
3762	0.00179678
3774	0.00191656
3786	0.000359355
3798	0.00179678
3810	0.00119785
3822	0.00155721
3834	0.00227592
3846	0.00179678
3858	0.00407269
3870	0.00443204
3882	0.00407269
3894	0.0023957
3906	0.00359355
3918	0.00131764
3930	0.00203635
3942	0.00299463
3954	0.00335398
3966	0.00227592
