Infrared Spectrum: Benzenamine, 2-ethyl-
Formula: C 8 H 11 N
CAS: 578-54-1
Origin: Sadtler Research Labs Under US-EPA Contract
1/CM	ABSORBANCE
450	0.241785
462	0.215398
474	0.169221
486	0.157844
498	0.12247
510	0.124573
522	0.110806
534	0.106313
546	0.101724
558	0.0941709
570	0.0921632
582	0.0930237
594	0.0991424
606	0.120558
618	0.132604
630	0.158131
642	0.192835
654	0.206985
666	0.1936
678	0.1588
690	0.137384
702	0.134229
714	0.139583
726	0.319321
738	0.694953
750	0.577837
762	0.252588
774	0.106504
786	0.0813599
798	0.0877654
810	0.0775357
822	0.0633861
834	0.0755279
846	0.0570762
858	0.0306892
870	0.0148188
882	0.0158704
894	0.0114726
906	0.00516267
918	0.0266738
930	0.0331749
942	0.0112814
954	0.0320277
966	0.0308804
978	0.0132891
990	0.0103253
1002	0.00611872
1014	0.0108034
1026	0.0312628
1038	0.0660631
1050	0.0751455
1062	0.0825071
1074	0.0856621
1086	0.0559289
1098	0.0295419
1110	0.0306892
1122	0.0175913
1134	0.0370947
1146	0.0853753
1158	0.0705565
1170	0.0228496
1182	0.012333
1194	0.00879566
1206	0.00391981
1218	0.00659675
1230	0.0285859
1242	0.0492366
1254	0.146371
1266	0.361578
1278	0.370661
1290	0.177634
1302	0.12008
1314	0.103445
1326	0.071895
1338	0.0305936
1350	0.0138627
1362	0.0173045
1374	0.030498
1386	0.0408233
1398	0.0249529
1410	0.0133847
1422	0.0230408
1434	0.03872
1446	0.174288
1458	0.351062
1470	0.267694
1482	0.212339
1494	0.50575
1506	0.510148
1518	0.165779
1530	0.0579366
1542	0.050097
1554	0.0389112
1566	0.0606136
1578	0.1414
1590	0.186143
1602	0.204403
1614	0.455367
1626	0.759869
1638	0.516363
1650	0.157653
1662	0.0673059
1674	0.0490454
1686	0.0407277
1698	0.0303068
1710	0.0149144
1722	0.0126199
1734	0.0250485
1746	0.0155836
1758	0.0190254
1770	0.0279167
1782	0.0174001
1794	0.0171133
1806	0.011377
1818	0.00468465
1830	0.00822203
1842	0.00917808
1854	0.00994292
1866	0.0124287
1878	0.0251441
1890	0.0307848
1902	0.0128111
1914	0.0213199
1926	0.0223716
1938	0.00363299
1950	0.00152968
1962	0.00267694
1974	0
1986	0.00239012
1998	0.00363299
2010	0.00210331
2022	0.00391981
2034	0.00353739
2046	0.00525828
2058	0.00391981
2070	0.00267694
2082	0.00583191
2094	0.00315497
2106	0.00535388
2118	0.00889127
2130	0.00277254
2142	0.00439783
2154	0.00525828
2166	0.00258134
2178	0.00391981
2190	0.00353739
2202	0.0038242
2214	0.00449344
2226	0.00659675
2238	0.00879566
2250	0.00439783
2262	0.00516267
2274	0.00583191
2286	0.0019121
2298	0.00850885
2310	0.0102297
2322	0.00640554
2334	0.015966
2346	0.0131935
2358	0.0115682
2370	0.00822203
2382	0.00659675
2394	0.00726598
2406	0.00544949
2418	0.0101341
2430	0.00917808
2442	0.00630993
2454	0.0108034
2466	0.00850885
2478	0.00554509
2490	0.00841324
2502	0.00688356
2514	0.00736159
2526	0.00994292
2538	0.00936929
2550	0.00841324
2562	0.00678796
2574	0.00736159
2586	0.00697916
2598	0.00984732
2610	0.0179737
2622	0.0151056
2634	0.0167309
2646	0.0158704
2658	0.00831764
2670	0.00831764
2682	0.0102297
2694	0.00908247
2706	0.00984732
2718	0.0096561
2730	0.0125243
2742	0.0153924
2754	0.015488
2766	0.0167309
2778	0.0181649
2790	0.0239013
2802	0.0254309
2814	0.0238056
2826	0.0327925
2838	0.0504794
2850	0.0821247
2862	0.141782
2874	0.250389
2886	0.329837
2898	0.255361
2910	0.198572
2922	0.215016
2934	0.282322
2946	0.363299
2958	0.365594
2970	0.620954
2982	0.576211
2994	0.172758
3006	0.123044
3018	0.237005
3030	0.335478
3042	0.266738
3054	0.193313
3066	0.252397
3078	0.253544
3090	0.175818
3102	0.087383
3114	0.0478025
3126	0.030976
3138	0.0188342
3150	0.0199814
3162	0.0195034
3174	0.0192166
3186	0.0179737
3198	0.0151056
3210	0.0163485
3222	0.0156792
3234	0.0134803
3246	0.011855
3258	0.007744
3270	0.0116638
3282	0.00850885
3294	0.00439783
3306	0.010899
3318	0.00219892
3330	0.00239012
3342	0.00908247
3354	0.00449344
3366	0.00736159
3378	0.0117594
3390	0.0216067
3402	0.0565982
3414	0.0709389
3426	0.0424486
3438	0.01501
3450	0.0142451
3462	0.0262914
3474	0.0365211
3486	0.0958918
3498	0.117403
3510	0.0472289
3522	0.0218935
3534	0.0169221
3546	0.0109946
3558	0.0124287
3570	0.0174957
3582	0.0100385
3594	0.0101341
3606	0.0119506
3618	0.0181649
3630	0.0153924
3642	0.0157748
3654	0.0189298
3666	0.0096561
3678	0.0250485
3690	0.019599
3702	0.00793522
3714	0.0207463
3726	0.0174001
3738	0.0245705
3750	0.0275342
3762	0.0199814
3774	0.0140539
3786	0.0101341
3798	0.0179737
3810	0.0134803
3822	0.0174957
3834	0.026387
3846	0.0210331
3858	0.0254309
3870	0.0326013
3882	0.0216067
3894	0.0223716
3906	0.0246661
3918	0.0214155
3930	0.0221804
3942	0.0252397
3954	0.00258134
3966	0.00458904
