Infrared Spectrum: Benzenamine, 2,6-diethyl-
Formula: C 10 H 15 N
CAS: 579-66-8
Origin: Sadtler Research Labs Under US-EPA Contract
1/CM	ABSORBANCE
450	0.0743063
462	0.0751239
474	0.0739429
486	0.0644049
498	0.0622247
510	0.055321
522	0.0633148
534	0.0577736
546	0.0406959
558	0.0469638
570	0.043421
582	0.0469638
594	0.0525958
606	0.0597721
618	0.0674934
630	0.0745788
642	0.079575
654	0.0773948
666	0.0757597
678	0.0701277
690	0.0614072
702	0.0522324
714	0.0523233
726	0.111278
738	0.301222
750	0.28687
762	0.13317
774	0.0929283
786	0.079575
798	0.0565927
810	0.0425127
822	0.0375165
834	0.0371532
846	0.0294318
858	0.0199846
870	0.00753964
882	0.00172594
894	0.000999229
906	0.00127175
918	0.00145342
930	0.00181678
942	0.00735796
954	0.0181678
966	0.0217105
978	0.0177136
990	0.0120816
1002	0.00735796
1014	0.00844803
1026	0.0157151
1038	0.0373348
1050	0.0823001
1062	0.101921
1074	0.0392424
1086	0.0257074
1098	0.0464187
1110	0.0726712
1122	0.0365173
1134	0.0176228
1146	0.015806
1158	0.00953809
1170	0.01299
1182	0.0037244
1194	0.00726712
1206	0.024799
1218	0.0277059
1230	0.0339738
1242	0.029886
1254	0.0463279
1266	0.118363
1278	0.151974
1290	0.0877505
1302	0.0545942
1314	0.0606805
1326	0.053595
1338	0.029886
1350	0.0278876
1362	0.0245265
1374	0.0367898
1386	0.0528683
1398	0.0237998
1410	0.0177136
1422	0.0250716
1434	0.0736704
1446	0.283145
1458	0.497707
1470	0.403598
1482	0.195122
1494	0.060953
1506	0.024799
1518	0.0172594
1530	0.0149884
1542	0.013535
1554	0.0161693
1566	0.0193487
1578	0.0255258
1590	0.0416043
1602	0.0839352
1614	0.210656
1626	0.392424
1638	0.267339
1650	0.0852978
1662	0.0380615
1674	0.026525
1686	0.0194395
1698	0.0143526
1710	0.00890222
1722	0.00517782
1734	0.00336104
1746	0.00308853
1758	0.00272517
1770	0.00281601
1782	0.00617705
1794	0.00944726
1806	0.00399692
1818	0.0020893
1830	0.00590453
1842	0.0216197
1854	0.0108098
1866	0.00218014
1878	0.0037244
1890	0.0136259
1902	0.0182586
1914	0.0058137
1926	0.00254349
1938	0.00245265
1950	0.00199846
1962	0.00145342
1974	0.000545034
1986	0.000817551
1998	0.00145342
2010	0.00154426
2022	0.00118091
2034	0.00109007
2046	0.000363356
2058	0.00145342
2070	0.00172594
2082	0.0020893
2094	0.0016351
2106	0.00190762
2118	0.00281601
2130	0.00236181
2142	0.000817551
2154	0.000272517
2166	0.000999229
2178	0.00118091
2190	0.000454195
2202	0.000817551
2214	0.000726712
2226	0.000635873
2238	0.0016351
2250	0.00281601
2262	0.00227098
2274	0.0020893
2286	0.00299769
2298	0.00390608
2310	0.0053595
2322	0.00599537
2334	0.00708544
2346	0.00635873
2358	0.0053595
2370	0.00426943
2382	0.00381524
2394	0.00172594
2406	0.00263433
2418	0.00281601
2430	0.00526866
2442	0.0058137
2454	0.00399692
2466	0.00390608
2478	0.00354272
2490	0.00390608
2502	0.00408776
2514	0.00426943
2526	0.00517782
2538	0.00572286
2550	0.00626789
2562	0.0058137
2574	0.00436027
2586	0.00472363
2598	0.00545034
2610	0.0069946
2622	0.00899306
2634	0.0119907
2646	0.0106282
2658	0.0074488
2670	0.00626789
2682	0.00726712
2694	0.00681293
2706	0.00635873
2718	0.00735796
2730	0.00935642
2742	0.0148068
2754	0.0128991
2766	0.0134442
2778	0.0169869
2790	0.0215288
2802	0.0240723
2814	0.0276151
2826	0.0347005
2838	0.0570469
2850	0.101467
2862	0.170414
2874	0.318936
2886	0.417042
2898	0.289595
2910	0.216742
2922	0.258528
2934	0.351274
2946	0.446201
2958	0.419585
2970	0.81964
2982	0.675115
2994	0.155335
3006	0.0766681
3018	0.122269
3030	0.178044
3042	0.143707
3054	0.143798
3066	0.136622
3078	0.128265
3090	0.088568
3102	0.0351547
3114	0.0160785
3126	0.0132625
3138	0.0151701
3150	0.0160785
3162	0.0151701
3174	0.0133533
3186	0.0118999
3198	0.0105373
3210	0.00999229
3222	0.00753964
3234	0.00545034
3246	0.00517782
3258	0.00526866
3270	0.00554118
3282	0.00436027
3294	0.00354272
3306	0.00263433
3318	0.00245265
3330	0.00299769
3342	0.00317936
3354	0.0016351
3366	0.00127175
3378	0.00181678
3390	0.00345188
3402	0.0116274
3414	0.0276151
3426	0.0280693
3438	0.013535
3450	0.0090839
3462	0.00881138
3474	0.0178953
3486	0.0505065
3498	0.0961077
3510	0.0644957
3522	0.0239815
3534	0.0108098
3546	0.0069946
3558	0.00663125
3570	0.00436027
3582	0.00363356
3594	0.00408776
3606	0.00454195
3618	0.0037244
3630	0.00317936
3642	0.00363356
3654	0.00499615
3666	0.00345188
3678	0.00481447
3690	0.00308853
3702	0.00445111
3714	0.00454195
3726	0.00490531
3738	0.00354272
3750	0.0037244
3762	0.00281601
3774	0.00408776
3786	0.00417859
3798	0.00381524
3810	0.0020893
3822	0.00281601
3834	0.00218014
3846	0.00454195
3858	0.00517782
3870	0.00445111
3882	0.00336104
3894	0.00363356
3906	0.00381524
3918	0.0037244
3930	0.00445111
3942	0.00190762
3954	0.00308853
3966	0.0037244
