Infrared Spectrum: Benzoic acid, 4-bromo-, ethyl ester
Formula: C 9 H 9 Br O 2
CAS: 5798-75-4
Origin: Sadtler Research Labs Under US-EPA Contract
1/CM	ABSORBANCE
450	0.0221118
462	0.0315272
474	0.0286741
486	0.0302433
498	0.0319552
510	0.0175468
522	0.0165482
534	0.00955802
546	0.00271048
558	0.00670488
570	0.00699019
582	0.00185454
594	0.00542097
606	0
618	0.00114126
630	0.00784614
642	0.00456502
654	0.00385174
666	0.00656222
678	0.0255356
690	0.0312419
702	0.0255356
714	0.0229678
726	0.0226825
738	0.0704726
750	0.123969
762	0.186167
774	0.0821704
786	0.0407999
798	0.019972
810	0.019116
822	0.0226825
834	0.0409426
846	0.108847
858	0.0764642
870	0.0292447
882	0.0228251
894	0.0202573
906	0.0116979
918	0.00713285
930	0.00527831
942	0.00542097
954	0.00656222
966	0.00756082
978	0.00741816
990	0.0139804
1002	0.034523
1014	0.395588
1026	0.112414
1038	0.029102
1050	0.0263915
1062	0.0619131
1074	0.22012
1086	0.228109
1098	0.61528
1110	0.839251
1122	0.336956
1134	0.0918711
1146	0.0620558
1158	0.0734684
1170	0.189876
1182	0.130531
1194	0.0560642
1206	0.0547803
1218	0.0871634
1230	0.189876
1242	0.17504
1254	0.441523
1266	1.20388
1278	1.32186
1290	0.405717
1302	0.203572
1314	0.151216
1326	0.0811718
1338	0.064053
1350	0.0803159
1362	0.0895886
1374	0.155496
1386	0.083597
1398	0.158635
1410	0.0806012
1422	0.0470768
1434	0.0572055
1446	0.0747523
1458	0.0825984
1470	0.110417
1482	0.169619
1494	0.102713
1506	0.0366628
1518	0.0335244
1530	0.069046
1542	0.0573481
1554	0.0365202
1566	0.0492167
1578	0.0800306
1590	0.287454
1602	0.170903
1614	0.0513565
1626	0.0258209
1638	0.0252503
1650	0.0282461
1662	0.0353789
1674	0.0482181
1686	0.0593453
1698	0.0761788
1710	0.11541
1722	0.210704
1734	0.548231
1746	0.955231
1758	0.301862
1770	0.0743243
1782	0.0419412
1794	0.0393733
1806	0.0259636
1818	0.0168335
1830	0.010414
1842	0.00684754
1854	0.00584894
1866	0.00613425
1878	0.00741816
1890	0.00855942
1902	0.00941536
1914	0.0129818
1926	0.014123
1938	0.00984333
1950	0.00827411
1962	0.00898739
1974	0.00913005
1986	0.00670488
1998	0.00470768
2010	0.0039944
2022	0.00385174
2034	0.00456502
2046	0.0039944
2058	0.00442237
2070	0.00456502
2082	0.00513565
2094	0.00556362
2106	0.00627691
2118	0.00770348
2130	0.00684754
2142	0.00513565
2154	0.00385174
2166	0.00370908
2178	0.00385174
2190	0.00427971
2202	0.00427971
2214	0.00427971
2226	0.00456502
2238	0.0039944
2250	0.0039944
2262	0.00427971
2274	0.00470768
2286	0.00485034
2298	0.00385174
2310	0.00171188
2322	0
2334	0.000713285
2346	0.00271048
2358	0.00342377
2370	0.00713285
2382	0.00756082
2394	0.00670488
2406	0.00627691
2418	0.00527831
2430	0.0039944
2442	0.00385174
2454	0.0039944
2466	0.00456502
2478	0.00427971
2490	0.00427971
2502	0.00456502
2514	0.00456502
2526	0.004993
2538	0.00684754
2550	0.00756082
2562	0.00570628
2574	0.00527831
2586	0.004993
2598	0.00485034
2610	0.00356642
2622	0.00271048
2634	0.00242517
2646	0.00213985
2658	0.00213985
2670	0.0019972
2682	0.00128391
2694	0.00142657
2706	0.00156923
2718	0.00185454
2730	0.00385174
2742	0.00342377
2754	0.00470768
2766	0.00470768
2778	0.00513565
2790	0.00370908
2802	0.00413705
2814	0.00442237
2826	0.00656222
2838	0.0108419
2850	0.0176895
2862	0.0239664
2874	0.0261062
2886	0.0366628
2898	0.0376614
2910	0.0500726
2922	0.0579187
2934	0.058632
2946	0.0915858
2958	0.0727551
2970	0.0833117
2982	0.14123
2994	0.15193
3006	0.0887327
3018	0.0567775
3030	0.0346657
3042	0.0275328
3054	0.0243943
3066	0.0225398
3078	0.0208279
3090	0.0225398
3102	0.0211132
3114	0.0118405
3126	0.00870208
3138	0.00770348
3150	0.00713285
3162	0.00513565
3174	0.00442237
3186	0.00456502
3198	0.00370908
3210	0.00342377
3222	0.0029958
3234	0.00242517
3246	0.00242517
3258	0.00171188
3270	0.000998599
3282	0.000998599
3294	0.00128391
3306	0.000570628
3318	0.000855942
3330	0.00156923
3342	0.00185454
3354	0.00128391
3366	0.00156923
3378	0.00156923
3390	0.00171188
3402	0.00213985
3414	0.00171188
3426	0.00228251
3438	0.0029958
3450	0.004993
3462	0.00784614
3474	0.00641957
3486	0.00213985
3498	0.000998599
3510	0.000142657
3522	0.00156923
3534	0.00171188
3546	0.00128391
3558	0.000998599
3570	0.00156923
3582	0.00114126
3594	0.00128391
3606	0.00142657
3618	0.000998599
3630	0.00114126
3642	0
3654	0.000570628
3666	0.00114126
3678	0
3690	0.00128391
3702	0.000142657
3714	0.000855942
3726	0.00142657
3738	0.000142657
3750	0
3762	0.000142657
3774	0.00128391
3786	0.00185454
3798	0.000998599
3810	0.00128391
3822	0
3834	0
3846	0.000427971
3858	0.000427971
3870	0.000998599
3882	0.00228251
3894	0.00156923
3906	0.00142657
3918	0
3930	0.00114126
3942	0
3954	0.00114126
3966	0.00342377
