Infrared Spectrum: 2-Indolinone, 1-valeryl-,
Formula: C 13 H 15 N O 2
CAS: 57989-34-1
Origin: Sadtler Research Labs Under US-EPA Contract
1/CM	ABSORBANCE
450	0.0199325
462	0.0137414
474	0.000302008
486	0.00588916
498	0.00785221
510	0.0113253
522	0.0122313
534	0.00845622
546	0.00634217
558	0.0131373
570	0.0351839
582	0.0412241
594	0.0401671
606	0.0376
618	0.0969446
630	0.0844112
642	0.0507373
654	0.0279357
666	0.0311068
678	0.0335229
690	0.0122313
702	0.0107213
714	0.0418281
726	0.0265767
738	0.0585896
750	0.289173
762	0.161121
774	0.0354859
786	0.0117783
798	0.00966426
810	0.0102683
822	0.0152514
834	0.0176675
846	0.0200835
858	0.0232546
870	0.0262747
882	0.0212916
894	0.0179695
906	0.0246137
918	0.0175165
930	0.0128353
942	0.0164594
954	0.0332209
966	0.0126843
978	0.00785221
990	0.00815422
1002	0.0138924
1014	0.0194795
1026	0.0531534
1038	0.0440932
1050	0.0511904
1062	0.125937
1074	0.308954
1086	0.20763
1098	0.0824482
1110	0.0995116
1122	0.112045
1134	0.229677
1146	0.299592
1158	0.307746
1170	0.328887
1182	0.181658
1194	0.191473
1206	0.145417
1218	0.0723309
1230	0.122162
1242	0.24961
1254	0.446972
1266	0.77601
1278	0.470377
1290	0.175618
1302	0.205063
1314	0.169879
1326	0.294609
1338	0.380077
1350	0.303065
1362	0.240096
1374	0.226204
1386	0.14738
1398	0.103287
1410	0.0825992
1422	0.0564755
1434	0.0860723
1446	0.0869783
1458	0.206573
1470	0.435043
1482	0.33689
1494	0.1128
1506	0.0430361
1518	0.0247647
1530	0.0179695
1542	0.0173655
1554	0.0129863
1566	0.0120803
1578	0.0151004
1590	0.0295968
1602	0.107364
1614	0.120501
1626	0.0401671
1638	0.0243116
1650	0.0241606
1662	0.0259727
1674	0.0397141
1686	0.0523984
1698	0.0735389
1710	0.164896
1722	0.527155
1734	0.535309
1746	0.297025
1758	0.620173
1770	1.51004
1782	0.522927
1794	0.200231
1806	0.104797
1818	0.0531534
1830	0.0333719
1842	0.0237076
1854	0.0172145
1866	0.0175165
1878	0.0170635
1890	0.0134394
1902	0.0117783
1914	0.00573815
1926	0.00664418
1938	0.00694618
1950	0.00860723
1962	0.00256707
1974	0.00181205
1986	0.00226506
1998	0.0039261
2010	0.00302008
2022	0.00166104
2034	0.00120803
2046	0.000453012
2058	0
2070	0.000453012
2082	0.00120803
2094	0.00135904
2106	0.00271807
2118	0.00407711
2130	0.00407711
2142	0.00286908
2154	0.00151004
2166	0.00151004
2178	0.00166104
2190	0.000453012
2202	0
2214	0.000302008
2226	0.000604016
2238	0.00151004
2250	0.00241606
2262	0.00271807
2274	0.00151004
2286	0.00120803
2298	0.00166104
2310	0.00286908
2322	0.00407711
2334	0.00286908
2346	0.0039261
2358	0.00241606
2370	0.00241606
2382	0.00271807
2394	0.00271807
2406	0.0037751
2418	0.00317108
2430	0.00211406
2442	0.00181205
2454	0.000906024
2466	0.000906024
2478	0.00151004
2490	0.00196305
2502	0.00181205
2514	0.00120803
2526	0.000906024
2538	0.00151004
2550	0.00241606
2562	0.00407711
2574	0.00483213
2586	0.00332209
2598	0.00226506
2610	0.00196305
2622	0.00105703
2634	0.00135904
2646	0.00135904
2658	0.00120803
2670	0.00166104
2682	0.00166104
2694	0.00166104
2706	0.00166104
2718	0.00211406
2730	0.00241606
2742	0.00422811
2754	0.00437912
2766	0.00453012
2778	0.00498313
2790	0.00830522
2802	0.00860723
2814	0.00906024
2826	0.0116273
2838	0.0166104
2850	0.0243116
2862	0.0465092
2874	0.0992096
2886	0.123823
2898	0.0788241
2910	0.0801831
2922	0.118991
2934	0.194946
2946	0.239794
2958	0.221221
2970	0.298837
2982	0.1353
2994	0.0533044
3006	0.0327679
3018	0.0250667
3030	0.0288418
3042	0.0576835
3054	0.0602506
3066	0.0712739
3078	0.0653847
3090	0.0643277
3102	0.0144964
3114	0.00845622
3126	0.0101173
3138	0.00875823
3150	0.00498313
3162	0.00468112
3174	0.00407711
3186	0.0036241
3198	0.00332209
3210	0.00256707
3222	0.00226506
3234	0.00151004
3246	0.00120803
3258	0.00105703
3270	0.00135904
3282	0.00135904
3294	0.00105703
3306	0.000906024
3318	0.00120803
3330	0.00135904
3342	0.00151004
3354	0.00151004
3366	0.00196305
3378	0.00196305
3390	0.00151004
3402	0.00226506
3414	0.00302008
3426	0.00543614
3438	0.00694618
3450	0.00407711
3462	0.00317108
3474	0.00453012
3486	0.00483213
3498	0.00498313
3510	0.00921124
3522	0.0122313
3534	0.00634217
3546	0.00226506
3558	0.00120803
3570	0.00120803
3582	0.00135904
3594	0.00151004
3606	0
3618	0.000906024
3630	0.00166104
3642	0.000906024
3654	0.00075502
3666	0
3678	0.00166104
3690	0.000453012
3702	0.00196305
3714	0.00120803
3726	0.00105703
3738	0.00196305
3750	0.00105703
3762	0.00120803
3774	0.000906024
3786	0.000604016
3798	0.00166104
3810	0.00105703
3822	0.00181205
3834	0.00105703
3846	0.00181205
3858	0.00181205
3870	0.0037751
3882	0.00151004
3894	0.00105703
3906	0.00151004
3918	0.00256707
3930	0.000906024
3942	0.00151004
3954	0.00196305
3966	0.00075502
