Infrared Spectrum: Caffeine
Formula: C 8 H 10 N 4 O 2
CAS: 58-08-2
Origin: Sadtler Research Labs Under US-EPA Contract
1/CM	ABSORBANCE
450	0.00448884
462	0.0179554
474	0.0508735
486	0.037407
498	0.00598512
510	0.00673326
522	0.0010474
534	0.0101747
546	0.00568586
558	0.00568586
570	0.00613475
582	0.00314219
594	0.0074814
606	0.0290278
618	0.0131673
630	0.00493772
642	0.00688289
654	0.00314219
666	0.00553624
678	0.00433921
690	0.00329182
702	0.00583549
714	0.00463847
726	0.00613475
738	0.0312723
750	0.0454869
762	0.0418958
774	0.023342
786	0.006434
798	0.006434
810	0.0122695
822	0.0218457
834	0.0365092
846	0.0131673
858	0.00359107
870	0.00389033
882	0.00433921
894	0.00284293
906	0.00568586
918	0.00807991
930	0.0131673
942	0.006434
954	0.00763103
966	0.0270827
978	0.0614971
990	0.0219953
1002	0.016908
1014	0.074814
1026	0.125388
1038	0.0459358
1050	0.018105
1062	0.0167583
1074	0.0146635
1086	0.0125688
1098	0.0100251
1110	0.00987545
1122	0.00987545
1134	0.0121199
1146	0.0149628
1158	0.0113717
1170	0.0166087
1182	0.0347137
1194	0.0525194
1206	0.0484795
1218	0.0588038
1230	0.126735
1242	0.147234
1254	0.0495269
1266	0.037407
1278	0.061946
1290	0.0605993
1302	0.0216961
1314	0.0285789
1326	0.0667341
1338	0.0749636
1350	0.0956123
1362	0.115962
1374	0.0734673
1386	0.0751133
1398	0.0752629
1410	0.11282
1422	0.118356
1434	0.0932182
1446	0.104889
1458	0.19287
1470	0.203195
1482	0.205589
1494	0.110874
1506	0.0632926
1518	0.0668837
1530	0.108031
1542	0.186586
1554	0.198407
1566	0.0815473
1578	0.0483298
1590	0.0604497
1602	0.14095
1614	0.125089
1626	0.0348633
1638	0.0312723
1650	0.0790036
1662	0.149927
1674	0.496615
1686	1.49628
1698	0.608088
1710	0.389781
1722	0.763103
1734	0.430929
1746	0.0966597
1758	0.0459358
1770	0.0378559
1782	0.0231923
1794	0.0106236
1806	0.0145139
1818	0.0125688
1830	0.00703252
1842	0.00807991
1854	0.00703252
1866	0.00628438
1878	0.00523698
1890	0.00239405
1902	0.00284293
1914	0.0037407
1926	0.00119702
1938	0.00209479
1950	0.00403996
1962	0.00209479
1974	0.00254368
1986	0.00314219
1998	0.00149628
2010	0.00239405
2022	0.00194516
2034	0.00164591
2046	0.00254368
2058	0.00134665
2070	0.00074814
2082	0.00164591
2094	0.00074814
2106	0.00119702
2118	0.00134665
2130	0.000897768
2142	0.000897768
2154	0.00149628
2166	0.00164591
2178	0.00194516
2190	0.00194516
2202	0.0010474
2214	0.00194516
2226	0.00149628
2238	0.00209479
2250	0.00329182
2262	0.00194516
2274	0.00149628
2286	0.00209479
2298	0.0010474
2310	0.00074814
2322	0.00149628
2334	0.000149628
2346	0.00119702
2358	0.00134665
2370	0
2382	0.00164591
2394	0.00284293
2406	0.00149628
2418	0.00209479
2430	0.00149628
2442	0.00074814
2454	0.00134665
2466	0.00149628
2478	0.00119702
2490	0.00209479
2502	0.00119702
2514	0.00134665
2526	0.00239405
2538	0.00194516
2550	0.00254368
2562	0.00284293
2574	0.0026933
2586	0.00344144
2598	0.0026933
2610	0.00224442
2622	0.00254368
2634	0.00194516
2646	0.00209479
2658	0.00254368
2670	0.00314219
2682	0.00224442
2694	0.00254368
2706	0.00224442
2718	0.00239405
2730	0.0026933
2742	0.00329182
2754	0.00359107
2766	0.00389033
2778	0.0037407
2790	0.00389033
2802	0.00508735
2814	0.00673326
2826	0.00807991
2838	0.00837917
2850	0.0085288
2862	0.0110725
2874	0.0142147
2886	0.0176561
2898	0.0240901
2910	0.0267834
2922	0.0281301
2934	0.0378559
2946	0.0591031
2958	0.0893279
2970	0.0848391
2982	0.0472824
2994	0.0281301
3006	0.0197509
3018	0.0137658
3030	0.010474
3042	0.00867842
3054	0.00763103
3066	0.00807991
3078	0.00822954
3090	0.00733177
3102	0.00763103
3114	0.00688289
3126	0.00703252
3138	0.0047881
3150	0.00344144
3162	0.00239405
3174	0.00314219
3186	0.00164591
3198	0.00224442
3210	0.00164591
3222	0.00224442
3234	0.0026933
3246	0.00344144
3258	0.00164591
3270	0.00314219
3282	0.00284293
3294	0.0026933
3306	0.00314219
3318	0.00164591
3330	0.00224442
3342	0.00254368
3354	0.00164591
3366	0.00314219
3378	0.00389033
3390	0.00867842
3402	0.0101747
3414	0.00433921
3426	0.0026933
3438	0.00389033
3450	0.00239405
3462	0.00284293
3474	0.00224442
3486	0.0026933
3498	0.00239405
3510	0.00329182
3522	0.0026933
3534	0.00209479
3546	0.00389033
3558	0.00359107
3570	0.00284293
3582	0.00344144
3594	0.00284293
3606	0.00314219
3618	0.00403996
3630	0.00314219
3642	0.00329182
3654	0.00389033
3666	0.00314219
3678	0.00448884
3690	0.00463847
3702	0.00344144
3714	0.0037407
3726	0.00493772
3738	0.00448884
3750	0.00359107
3762	0.0037407
3774	0.00344144
3786	0.00389033
3798	0.00403996
3810	0.00329182
3822	0.00553624
3834	0.00359107
3846	0.00463847
3858	0.00389033
3870	0.00254368
3882	0.0026933
3894	0.00598512
3906	0.00224442
3918	0.00628438
3930	0.00508735
3942	0.0037407
3954	0.00807991
3966	0.00508735
