Infrared Spectrum: Menadione
Formula: C 11 H 8 O 2
CAS: 58-27-5
Origin: Sadtler Research Labs Under US-EPA Contract
1/CM	ABSORBANCE
450	0.0341132
462	0.0204059
474	0.0113504
486	0.0164364
498	0.0186072
510	0.0293994
522	0.0303918
534	0.0319424
546	0.0186072
558	0.015506
570	0.0220185
582	0.0189173
594	0.0191034
606	0.0146377
618	0.0222046
630	0.0194135
642	0.0246856
654	0.028407
666	0.0472003
678	0.0425485
690	0.0648151
702	0.0424864
714	0.0200338
726	0.0168705
738	0.0126529
750	0.0186072
762	0.0633885
774	0.155184
786	0.056876
798	0.0260501
810	0.0209021
822	0.0194755
834	0.0126529
846	0.0112263
858	0.0131491
870	0.0144516
882	0.0244375
894	0.0493711
906	0.0293374
918	0.0211502
930	0.0790806
942	0.0959511
954	0.0261741
966	0.0191034
978	0.012901
990	0.0151959
1002	0.0213363
1014	0.0376486
1026	0.0459598
1038	0.0297095
1050	0.0197857
1062	0.0182971
1074	0.0225147
1086	0.0289032
1098	0.0277868
1110	0.0227008
1122	0.0187312
1134	0.0143275
1146	0.0252438
1158	0.0473863
1170	0.0229489
1182	0.0177389
1194	0.0187933
1206	0.0187312
1218	0.0293374
1230	0.0528444
1242	0.0514799
1254	0.165666
1266	0.261927
1278	0.0565659
1290	0.194321
1302	0.290706
1314	0.17621
1326	0.0945866
1338	0.0660556
1350	0.106185
1362	0.0424864
1374	0.0266083
1386	0.0383929
1398	0.0240033
1410	0.0174287
1422	0.0209021
1434	0.0274766
1446	0.031136
1458	0.0275387
1470	0.0228869
1482	0.0158161
1494	0.0112884
1506	0.0140794
1518	0.0142035
1530	0.0176768
1542	0.0182351
1554	0.0191034
1566	0.0282209
1578	0.041432
1590	0.0656834
1602	0.0915474
1614	0.0709555
1626	0.105565
1638	0.0734984
1650	0.0504255
1662	0.113442
1674	0.452217
1686	0.605726
1698	0.111333
1710	0.0391992
1722	0.02574
1734	0.0200958
1746	0.0169326
1758	0.0105441
1770	0.00942765
1782	0.00868336
1794	0.0122187
1806	0.00787705
1818	0.0048999
1830	0.00583026
1842	0.0048999
1854	0.00533406
1866	0.0075049
1878	0.00707074
1890	0.00558216
1902	0.00434168
1914	0.00341132
1926	0.00434168
1938	0.00533406
1950	0.00527204
1962	0.00725681
1974	0.00707074
1986	0.00626442
1998	0.00403156
2010	0.00347334
2022	0.00322525
2034	0.00372144
2046	0.0028531
2058	0.00260501
2070	0.00291513
2082	0.00347334
2094	0.0031012
2106	0.00322525
2118	0.00303918
2130	0.00322525
2142	0.0033493
2154	0.00266703
2166	0.00235691
2178	0.00241894
2190	0.0028531
2202	0.00260501
2214	0.00279108
2226	0.00204679
2238	0.00266703
2250	0.00272906
2262	0.0033493
2274	0.00378346
2286	0.00570621
2298	0.00855931
2310	0.0125909
2322	0.0104821
2334	0.00756693
2346	0.0105441
2358	0.00824919
2370	0.00638847
2382	0.00663657
2394	0.00186072
2406	0.00235691
2418	0.00229489
2430	0.00198477
2442	0.00198477
2454	0.0017987
2466	0.00161262
2478	0.00173667
2490	0.00204679
2502	0.00167465
2514	0.00161262
2526	0.00210882
2538	0.00260501
2550	0.00248096
2562	0.00223286
2574	0.00260501
2586	0.00266703
2598	0.00322525
2610	0.00396954
2622	0.00365942
2634	0.00322525
2646	0.00328727
2658	0.00297715
2670	0.00266703
2682	0.00297715
2694	0.00328727
2706	0.0031012
2718	0.00328727
2730	0.00372144
2742	0.00347334
2754	0.00421763
2766	0.0033493
2778	0.00384549
2790	0.00396954
2802	0.00322525
2814	0.00359739
2826	0.00384549
2838	0.00514799
2850	0.00738086
2862	0.00843526
2874	0.0080011
2886	0.00917955
2898	0.00973777
2910	0.00893146
2922	0.0106061
2934	0.0269184
2946	0.020716
2958	0.0115365
2970	0.0169326
2982	0.0145756
2994	0.0183591
3006	0.0150718
3018	0.0127149
3030	0.0127149
3042	0.0227008
3054	0.0191034
3066	0.0201578
3078	0.0519761
3090	0.0343613
3102	0.00806312
3114	0.00589228
3126	0.00558216
3138	0.00496192
3150	0.0059543
3162	0.00663657
3174	0.00539609
3186	0.00496192
3198	0.00477585
3210	0.00452775
3222	0.0048999
3234	0.00514799
3246	0.0059543
3258	0.00638847
3270	0.00651252
3282	0.00676062
3294	0.00731883
3306	0.00818717
3318	0.00849729
3330	0.0120947
3342	0.018111
3354	0.0135833
3366	0.00707074
3378	0.00638847
3390	0.00694669
3402	0.00632645
3414	0.00719478
3426	0.00452775
3438	0.00651252
3450	0.0064505
3462	0.00415561
3474	0.00669859
3486	0.00502394
3498	0.00651252
3510	0.00527204
3522	0.00552014
3534	0.00676062
3546	0.00427966
3558	0.00657454
3570	0.00458978
3582	0.00824919
3594	0.00378346
3606	0.00707074
3618	0.00986182
3630	0.00390751
3642	0.00651252
3654	0.00093036
3666	0.00731883
3678	0.01042
3690	0.00409358
3702	0.0075049
3714	0.007753
3726	0.0107302
3738	0.0126529
3750	0
3762	0.0116605
3774	0.010358
3786	0.00874538
3798	0.00403156
3810	0.012839
3822	0.00787705
3834	0.00911753
3846	0.00862134
3858	0.00961372
3870	0.0137073
3882	0.00589228
3894	0.015444
3906	0.00893146
3918	0.007753
3930	0.00831122
3942	0.0120947
3954	0.0104821
3966	0.01042
