Infrared Spectrum: Phenol, 2,3,4,6-tetrachloro-
Formula: C 6 H 2 Cl 4 O
CAS: 58-90-2
Origin: Sadtler Research Labs Under US-EPA Contract
1/CM	ABSORBANCE
450	0.21647
462	0.0271587
474	0.0661279
486	0.0516927
498	0.0263599
510	0.0224801
522	0.0303538
534	0.0253899
546	0.0428491
558	0.0354888
570	0.0559149
582	0.0211678
594	0.0225371
606	0.0168886
618	0.0320084
630	0.0605364
642	0.0518068
654	0.0265881
666	0.0208825
678	0.0175732
690	0.0269875
702	0.0479841
714	0.0700648
726	0.0355459
738	0.0767403
750	0.212477
762	0.171567
774	0.076398
786	0.0438761
798	0.0401674
810	0.0720047
822	0.166604
834	0.0454166
846	0.0215101
858	0.0504946
870	0.0612211
882	0.0232788
894	0.0175162
906	0.0156904
918	0.0154622
930	0.0204831
942	0.0353177
954	0.0240206
966	0.022423
978	0.0243629
990	0.0281857
1002	0.0166033
1014	0.0182579
1026	0.0197984
1038	0.0202549
1050	0.0174021
1062	0.019342
1074	0.0189426
1086	0.0205972
1098	0.0252758
1110	0.0427349
1122	0.102815
1134	0.0507798
1146	0.039768
1158	0.0740587
1170	0.127977
1182	0.0976228
1194	0.269647
1206	0.270103
1218	0.0864398
1230	0.0435908
1242	0.0379422
1254	0.0534615
1266	0.0716053
1278	0.20717
1290	0.252073
1302	0.0690948
1314	0.12598
1326	0.0350894
1338	0.0427349
1350	0.0449031
1362	0.0851276
1374	0.251218
1386	0.316718
1398	0.141556
1410	0.11183
1422	0.118049
1434	0.269989
1446	0.57056
1458	0.170084
1470	0.0572272
1482	0.0511222
1494	0.0403386
1506	0.0350894
1518	0.0258464
1530	0.027558
1542	0.0486688
1554	0.0649868
1566	0.0363447
1578	0.0245911
1590	0.018315
1602	0.0135793
1614	0.0140358
1626	0.0148346
1638	0.0123241
1650	0.0150057
1662	0.0111259
1674	0.0131799
1686	0.0147775
1698	0.0150628
1710	0.0151769
1722	0.0150057
1734	0.0172309
1746	0.0133511
1758	0.0108406
1770	0.0104983
1782	0.00958541
1794	0.00969952
1806	0.00736022
1818	0.00833018
1830	0.0085584
1842	0.00884368
1854	0.00639027
1866	0.0076455
1878	0.00656144
1890	0.00838723
1902	0.00758845
1914	0.00667555
1926	0.00701789
1938	0.00690378
1950	0.00639027
1962	0.00593382
1974	0.00576266
1986	0.0062191
1998	0.00553443
2010	0.00690378
2022	0.00639027
2034	0.00627616
2046	0.00593382
2058	0.00536326
2070	0.0066185
2082	0.0062191
2094	0.00553443
2106	0.00564854
2118	0.00604794
2130	0.00639027
2142	0.00770256
2154	0.00833018
2166	0.00969952
2178	0.00884368
2190	0.0100419
2202	0.0080449
2214	0.00547738
2226	0.00513504
2238	0.00604794
2250	0.0051921
2262	0.00593382
2274	0.0062191
2286	0.00445037
2298	0.00673261
2310	0.0066185
2322	0.00701789
2334	0.00542032
2346	0.00581971
2358	0.00827312
2370	0.00587677
2382	0.00678966
2394	0.00753139
2406	0.00599088
2418	0.00536326
2430	0.00559149
2442	0.00542032
2454	0.00542032
2466	0.00576266
2478	0.00496387
2490	0.00507798
2502	0.00342336
2514	0.00211107
2526	0.00313808
2538	0.000399392
2550	0.00273869
2562	0.00633322
2574	0.00610499
2586	0.00513504
2598	0.00502093
2610	0.00633322
2622	0.00547738
2634	0.00547738
2646	0.00559149
2658	0.00616205
2670	0.00576266
2682	0.0066185
2694	0.00724611
2706	0.00758845
2718	0.00747434
2730	0.00833018
2742	0.00821606
2754	0.00604794
2766	0.00604794
2778	0.00559149
2790	0.00610499
2802	0.00690378
2814	0.00559149
2826	0.00696083
2838	0.00696083
2850	0.0066185
2862	0.00787373
2874	0.00678966
2886	0.0062191
2898	0.00604794
2910	0.00736022
2922	0.00770256
2934	0.00981363
2946	0.00724611
2958	0.00718906
2970	0.00770256
2982	0.00524915
2994	0.00673261
3006	0.00656144
3018	0.00507798
3030	0.0051921
3042	0.00610499
3054	0.00502093
3066	0.00593382
3078	0.00673261
3090	0.00867251
3102	0.00627616
3114	0.00593382
3126	0.00724611
3138	0.00775962
3150	0.00821606
3162	0.00833018
3174	0.00787373
3186	0.00684672
3198	0.00667555
3210	0.00758845
3222	0.00833018
3234	0.00827312
3246	0.00958541
3258	0.0121529
3270	0.0110689
3282	0.0116394
3294	0.0104983
3306	0.0113541
3318	0.00992774
3330	0.0108406
3342	0.0120388
3354	0.0124382
3366	0.0133511
3378	0.01124
3390	0.00359453
3402	0.00650438
3414	0.0106124
3426	0.00878662
3438	0.0108406
3450	0.0106124
3462	0.00878662
3474	0.0103842
3486	0.00587677
3498	0.0103271
3510	0.00770256
3522	0.00975658
3534	0.0130658
3546	0.027501
3558	0.243857
3570	0.340054
3582	0.0681249
3594	0.0127235
3606	0.00775962
3618	0.00496387
3630	0.0051921
3642	0.00890074
3654	0.00245341
3666	0.00815901
3678	0.00616205
3690	0.00576266
3702	0.00867251
3714	0.0062191
3726	0.0124953
3738	0.0393116
3750	0.0281286
3762	0.00793078
3774	0.0099848
3786	0.00969952
3798	0.00861546
3810	0.00330925
3822	0.00884368
3834	0.0105554
3846	0.0136364
3858	0.0104983
3870	0.00644733
3882	0.0104983
3894	0.0121529
3906	0.00701789
3918	0.0150628
3930	0
3942	0.0099848
3954	0.00981363
3966	0.015234
