Infrared Spectrum: [1,1'-Biphenyl]-3-ol
Formula: C 12 H 10 O
CAS: 580-51-8
Origin: Sadtler Research Labs Under US-EPA Contract
1/CM	ABSORBANCE
450	0.00862225
462	0.018546
474	0.00719877
486	0.00748346
498	0.0168378
510	0.0221657
522	0.0303812
534	0.0318454
546	0.0191967
558	0.0265175
570	0.0196441
582	0.0165531
594	0.0225724
606	0.0259888
618	0.0416878
630	0.0145602
642	0.0102898
654	0.0131367
666	0.0233858
678	0.0484798
690	0.154794
702	0.169964
714	0.0888661
726	0.0569394
738	0.059827
750	0.18969
762	0.193065
774	0.084311
786	0.0585256
798	0.0250127
810	0.0146822
822	0.0190747
834	0.0326995
846	0.0357905
858	0.043518
870	0.0808539
882	0.16606
894	0.0448601
906	0.0168785
918	0.0166751
930	0.0125673
942	0.00935433
954	0.00943567
966	0.00870359
978	0.00508387
990	0.0142348
1002	0.0271682
1014	0.015577
1026	0.0200508
1038	0.0175699
1050	0.0193187
1062	0.0238332
1074	0.0422165
1086	0.0449008
1098	0.0275749
1110	0.0217183
1122	0.0235892
1134	0.0411184
1146	0.0989932
1158	0.22975
1170	0.324392
1182	0.39158
1194	0.229506
1206	0.12124
1218	0.0913471
1230	0.0380274
1242	0.0342043
1254	0.0713369
1266	0.0799592
1278	0.0870766
1290	0.123884
1302	0.191886
1314	0.10847
1326	0.037824
1338	0.0206609
1350	0.012486
1362	0.00980171
1374	0.0102084
1386	0.0112252
1398	0.0135028
1410	0.0297305
1422	0.0747126
1434	0.0956582
1446	0.0621046
1458	0.0714589
1470	0.134052
1482	0.202867
1494	0.1103
1506	0.0416064
1518	0.0555973
1530	0.0318454
1542	0.0305032
1554	0.0549058
1566	0.0939907
1578	0.148205
1590	0.249679
1602	0.277946
1614	0.20669
1626	0.100376
1638	0.0279003
1650	0.0117132
1662	0.012364
1674	0.0120386
1686	0.00935433
1698	0.00988305
1710	0.00886628
1722	0.0121606
1734	0.0183019
1746	0.0209456
1758	0.0142755
1770	0.00996439
1782	0.00711742
1794	0.0109405
1806	0.00858158
1818	0.00662937
1830	0.00671071
1842	0.00723944
1854	0.00536857
1866	0.00662937
1878	0.00951701
1890	0.00972037
1902	0.00622266
1914	0.00756481
1926	0.00959836
1938	0.00980171
1950	0.0096797
1962	0.00679206
1974	0.00138281
1986	0.000772749
1998	0.000447381
2010	0.000650736
2022	0.00117946
2034	0.0015455
2046	0.00211489
2058	0.00244026
2070	0.00215556
2082	0.00203355
2094	0.00215556
2106	0.00142348
2118	0.000650736
2130	0.000162684
2142	0.000488052
2154	0.00040671
2166	0.000691407
2178	0.00183019
2190	0.00183019
2202	0.000935433
2214	0.000650736
2226	0.00081342
2238	0.000894762
2250	0.00105745
2262	0.0015455
2274	0.00162684
2286	0.00305032
2298	0.00488052
2310	0.00789017
2322	0.00793084
2334	0.00471784
2346	0.0068734
2358	0.00626333
2370	0.006304
2382	0.00711742
2394	0.00475851
2406	0.00329435
2418	0.0025216
2430	0.00276563
2442	0.00256227
2454	0.00256227
2466	0.00353838
2478	0.00414844
2490	0.00374173
2502	0.00366039
2514	0.00313167
2526	0.00231825
2538	0.00105745
2550	0.000772749
2562	0.000894762
2574	0.000976104
2586	0.0015455
2598	0.00215556
2610	0.00231825
2622	0.00239959
2634	0.0015455
2646	0.00158617
2658	0.00150483
2670	0.000935433
2682	0.00081342
2694	0.000854091
2706	0.000569394
2718	0.000447381
2730	0.000691407
2742	0.00122013
2754	0.00146416
2766	0.00183019
2778	0.00227758
2790	0.0022369
2802	0.00199288
2814	0.00166751
2826	0.00191154
2838	0.0025216
2850	0.0037824
2862	0.00500253
2874	0.00496186
2886	0.00483985
2898	0.00577528
2910	0.00675139
2922	0.0078495
2934	0.0117539
2946	0.00870359
2958	0.00618199
2970	0.00634468
2982	0.0068734
2994	0.00980171
3006	0.0192781
3018	0.0429486
3030	0.0887848
3042	0.123803
3054	0.103996
3066	0.146416
3078	0.146497
3090	0.0849617
3102	0.0498626
3114	0.0271682
3126	0.0141942
3138	0.00837823
3150	0.00650736
3162	0.00536857
3174	0.00422978
3186	0.00345703
3198	0.00321301
3210	0.00349771
3222	0.00357905
3234	0.0040671
3246	0.00370106
3258	0.00427045
3270	0.00394509
3282	0.0037824
3294	0.00402643
3306	0.00410777
3318	0.00439247
3330	0.00463649
3342	0.00642602
3354	0.00618199
3366	0.006304
3378	0.00634468
3390	0.00585662
3402	0.00475851
3414	0.00581595
3426	0.00544991
3438	0.0053279
3450	0.00447381
3462	0.00374173
3474	0.00471784
3486	0.00325368
3498	0.00374173
3510	0.00427045
3522	0.00305032
3534	0.00341636
3546	0.00166751
3558	0.0025216
3570	0.00138281
3582	0.00601931
3594	0.00414844
3606	0.00601931
3618	0.00634468
3630	0.0133808
3642	0.111967
3654	0.250411
3666	0.0542551
3678	0.003091
3690	0.00276563
3702	0.00500253
3714	0.000772749
3726	0.00207422
3738	0.0015455
3750	0
3762	0.00439247
3774	0.00585662
3786	0.00459582
3798	0.00463649
3810	0.00455515
3822	0.00268429
3834	0.00284697
3846	0.00439247
3858	0.00333502
3870	0.00382307
3882	0.00203355
3894	0.00573461
3906	0.00268429
3918	0.00622266
3930	0.00744279
3942	0.00540924
3954	0.00874426
3966	0.00707675
