Infrared Spectrum: Benzoic acid, 2-(acetyloxy)-, methyl ester
Formula: C 10 H 10 O 4
CAS: 580-02-9
Origin: Sadtler Research Labs Under US-EPA Contract
1/CM	ABSORBANCE
450	0
462	0.00795962
474	0.0141219
486	0.0170747
498	0.0278587
510	0.0338926
522	0.0355615
534	0.0451901
546	0.0396697
558	0.0324804
570	0.0291425
582	0.0359467
594	0.0449334
606	0.0331223
618	0.0285006
630	0.0263181
642	0.0396697
654	0.0476294
666	0.0457036
678	0.0563593
690	0.0504537
702	0.111178
714	0.071765
726	0.0331223
738	0.0668865
750	0.144557
762	0.0557174
774	0.0349196
786	0.0410819
798	0.0468591
810	0.056616
822	0.0517375
834	0.0658595
846	0.0424941
858	0.0396697
870	0.048528
882	0.0374873
894	0.0634202
906	0.148023
918	0.0921776
930	0.0328655
942	0.0332507
954	0.0445482
966	0.0509673
978	0.0526362
990	0.0492983
1002	0.088968
1014	0.103218
1026	0.0658595
1038	0.0957722
1050	0.0894816
1062	0.0928195
1074	0.245336
1086	0.432644
1098	0.190132
1110	0.107327
1122	0.177423
1134	0.224795
1146	0.134158
1158	0.211444
1170	0.248931
1182	0.602235
1194	1.2788
1206	0.886856
1218	0.327628
1230	0.215167
1242	0.305675
1254	0.544977
1266	0.469104
1278	0.365501
1290	0.496963
1302	0.481814
1314	0.168693
1326	0.0897383
1338	0.0643189
1350	0.0632918
1362	0.122475
1374	0.209133
1386	0.103475
1398	0.0557174
1410	0.0499402
1422	0.0548187
1434	0.125171
1446	0.185896
1458	0.150591
1470	0.0752313
1482	0.13005
1494	0.121063
1506	0.0492983
1518	0.0327372
1530	0.0292709
1542	0.0267032
1554	0.0305547
1566	0.0412103
1578	0.0612377
1590	0.0632918
1602	0.0984682
1614	0.109252
1626	0.0451901
1638	0.0285006
1650	0.0263181
1662	0.0310682
1674	0.0371021
1686	0.0617513
1698	0.10232
1710	0.102833
1722	0.122861
1734	0.285134
1746	0.747434
1758	0.362805
1770	0.215808
1782	0.35523
1794	0.496578
1806	0.200274
1818	0.106685
1830	0.050197
1842	0.0309398
1854	0.0268316
1866	0.0223383
1878	0.0193855
1890	0.018872
1902	0.0187436
1914	0.020541
1926	0.0252911
1938	0.0225951
1950	0.0211829
1962	0.0179733
1974	0.0139935
1986	0.0152773
1998	0.0168179
2010	0.0174598
2022	0.0187436
2034	0.0181017
2046	0.0172031
2058	0.0170747
2070	0.0156625
2082	0.0160476
2094	0.017845
2106	0.0169463
2118	0.0154057
2130	0.0141219
2142	0.0127097
2154	0.012453
2166	0.0129665
2178	0.0106556
2190	0.00937181
2202	0.00885829
2214	0.00924343
2226	0.00962858
2238	0.00911505
2250	0.00885829
2262	0.00911505
2274	0.00962858
2286	0.00962858
2298	0.00950019
2310	0.0101421
2322	0.0100137
2334	0.00834477
2346	0.00847315
2358	0.00950019
2370	0.00834477
2382	0.00911505
2394	0.00898667
2406	0.0100137
2418	0.00885829
2430	0.00795962
2442	0.00731772
2454	0.00654743
2466	0.00629067
2478	0.00577715
2490	0.00590553
2502	0.00603391
2514	0.00603391
2526	0.00577715
2538	0.00629067
2550	0.00641905
2562	0.00590553
2574	0.00590553
2586	0.00552038
2598	0.00500686
2610	0.00487848
2622	0.00423657
2634	0.00372305
2646	0.00372305
2658	0.00359467
2670	0.00359467
2682	0.00397981
2694	0.00410819
2706	0.00397981
2718	0.00372305
2730	0.00372305
2742	0.00423657
2754	0.00436495
2766	0.00449334
2778	0.00500686
2790	0.00487848
2802	0.00487848
2814	0.00513524
2826	0.00654743
2838	0.0114259
2850	0.0243924
2862	0.0147638
2874	0.0105272
2886	0.0130949
2898	0.0175882
2910	0.0216964
2922	0.0229802
2934	0.0219532
2946	0.0380008
2958	0.114516
2970	0.0829341
2982	0.0261897
2994	0.0305547
3006	0.0388994
3018	0.0347913
3030	0.0400549
3042	0.0382575
3054	0.0314533
3066	0.0369737
3078	0.0535349
3090	0.0548187
3102	0.0240072
3114	0.015149
3126	0.010784
3138	0.00821638
3150	0.00821638
3162	0.00834477
3174	0.00718934
3186	0.00693257
3198	0.00654743
3210	0.00731772
3222	0.00898667
3234	0.0111691
3246	0.01348
3258	0.0152773
3270	0.015149
3282	0.0128381
3294	0.0118111
3306	0.010784
3318	0.00975696
3330	0.00911505
3342	0.00847315
3354	0.00847315
3366	0.00795962
3378	0.00706095
3390	0.00693257
3402	0.00654743
3414	0.00616229
3426	0.00603391
3438	0.00641905
3450	0.00616229
3462	0.00783124
3474	0.00962858
3486	0.00885829
3498	0.00718934
3510	0.00641905
3522	0.00577715
3534	0.00629067
3546	0.00718934
3558	0.0100137
3570	0.0101421
3582	0.0100137
3594	0.00731772
3606	0.00654743
3618	0.00372305
3630	0.00359467
3642	0.00372305
3654	0.00359467
3666	0.00436495
3678	0.00410819
3690	0.00500686
3702	0.00436495
3714	0.00449334
3726	0.00320952
3738	0.00449334
3750	0.00449334
3762	0.00423657
3774	0.00410819
3786	0.00320952
3798	0.00423657
3810	0.00372305
3822	0.00359467
3834	0.00359467
3846	0.00359467
3858	0.00372305
3870	0.00410819
3882	0.00320952
3894	0.00513524
3906	0.00462172
3918	0.00359467
3930	0.00423657
3942	0.00462172
3954	0.005392
3966	0.00513524
