Infrared Spectrum: Cyclohexanepropionic acid, 4-oxo-, ethyl ester
Formula: C 11 H 18 O 3
CAS: 58012-66-1
Origin: Sadtler Research Labs Under US-EPA Contract
1/CM	ABSORBANCE
450	0.00813894
462	0.00067264
474	0.00692819
486	0.00948422
498	0.0135873
510	0.0110313
522	0.00813894
534	0.00248877
546	0.00107622
558	0.00100896
570	0.00181613
582	0.00269056
594	0.00531386
606	0.00322867
618	0.00228698
630	0.00221971
642	0.00511206
654	0.00329594
666	0.000807168
678	0.00269056
690	0.00289235
702	0.00309414
714	0.00228698
726	0.0057847
738	0.012242
750	0.0170851
762	0.00948422
774	0.00733178
786	0.00780262
798	0.00639008
810	0.0059865
822	0.0059865
834	0.00652461
846	0.0108968
858	0.0164124
870	0.0123766
882	0.0103587
894	0.0131165
906	0.0139236
918	0.0182285
930	0.0242823
942	0.020381
954	0.015538
966	0.012242
978	0.0147308
990	0.0168833
1002	0.0240805
1014	0.0356499
1026	0.0599995
1038	0.0955149
1050	0.0800442
1062	0.0549547
1074	0.0477574
1086	0.0618156
1098	0.104865
1110	0.113609
1122	0.0865688
1134	0.0964566
1146	0.164931
1158	0.260177
1170	0.3115
1182	0.28493
1194	0.252375
1206	0.194998
1218	0.159887
1230	0.157129
1242	0.173205
1254	0.169438
1266	0.133788
1278	0.0860979
1290	0.0655824
1302	0.0782953
1314	0.0992144
1326	0.107017
1338	0.0755375
1350	0.0665914
1362	0.0521296
1374	0.0869051
1386	0.0558964
1398	0.0343719
1410	0.031076
1422	0.0517933
1434	0.0736541
1446	0.0696855
1458	0.0653806
1470	0.0503135
1482	0.0257621
1494	0.0129147
1506	0.0057847
1518	0.00289235
1530	0.0026233
1542	0.00033632
1554	0.00302688
1566	0.00376678
1578	0.00491027
1590	0.0043049
1602	0.0043049
1614	0.00457395
1626	0.00396858
1638	0.00470848
1650	0.00712998
1662	0.0124438
1674	0.0149999
1686	0.0225334
1698	0.0362553
1710	0.0653806
1722	0.164999
1734	0.620712
1746	0.492238
1758	0.445893
1770	0.196075
1782	0.0702236
1794	0.0327576
1806	0.0215917
1818	0.0152017
1830	0.00834074
1842	0.0057847
1854	0.00497754
1866	0.00390131
1878	0.00423763
1890	0.00390131
1902	0.00417037
1914	0.00322867
1926	0.00289235
1938	0.00309414
1950	0.0026233
1962	0.00322867
1974	0.00295962
1986	0.00282509
1998	0.00295962
2010	0.00302688
2022	0.00289235
2034	0.00302688
2046	0.00282509
2058	0.00309414
2070	0.00316141
2082	0.0026233
2094	0.0024215
2106	0.00181613
2118	0.00147981
2130	0.00127802
2142	0.000941696
2154	0.00147981
2166	0.00127802
2178	0.00127802
2190	0.00107622
2202	0.00121075
2214	0.00127802
2226	0.00134528
2238	0.00107622
2250	0.00154707
2262	0.00121075
2274	0.00107622
2286	0.00100896
2298	0.000941696
2310	0.00107622
2322	0.000605376
2334	0
2346	0.000403584
2358	0
2370	0
2382	0.000403584
2394	0.000807168
2406	0.000807168
2418	0.000605376
2430	0.000874432
2442	0.000874432
2454	0.00067264
2466	0.000874432
2478	0.000470848
2490	0.000201792
2502	0.000201792
2514	0.00033632
2526	0.000269056
2538	0.000470848
2550	0.00067264
2562	0.00100896
2574	0.00067264
2586	0.000739904
2598	0.000739904
2610	0.00147981
2622	0.00188339
2634	0.00201792
2646	0.0016816
2658	0.00248877
2670	0.00275782
2682	0.00295962
2694	0.00295962
2706	0.00282509
2718	0.00329594
2730	0.00343046
2742	0.00329594
2754	0.00316141
2766	0.00390131
2778	0.00470848
2790	0.0057847
2802	0.00692819
2814	0.00894611
2826	0.0133183
2838	0.0227352
2850	0.0340356
2862	0.0809859
2874	0.108362
2886	0.078228
2898	0.079237
2910	0.115425
2922	0.15686
2934	0.243765
2946	0.256141
2958	0.160223
2970	0.174752
2982	0.152487
2994	0.108497
3006	0.0556946
3018	0.0298652
3030	0.0170178
3042	0.0102914
3054	0.0074663
3066	0.00612102
3078	0.00531386
3090	0.00423763
3102	0.0043049
3114	0.00356499
3126	0.00329594
3138	0.00329594
3150	0.00235424
3162	0.00255603
3174	0.00195066
3186	0.00201792
3198	0.00174886
3210	0.00208518
3222	0.00141254
3234	0.00100896
3246	0.00141254
3258	0.00107622
3270	0.000874432
3282	0.00114349
3294	0.00181613
3306	0.00067264
3318	0.00147981
3330	0.00181613
3342	0.00127802
3354	0.00201792
3366	0.00195066
3378	0.00154707
3390	0.00147981
3402	0.00201792
3414	0.00282509
3426	0.00221971
3438	0.00437216
3450	0.00726451
3462	0.00531386
3474	0.00376678
3486	0.00457395
3498	0.00275782
3510	0.00147981
3522	0.00107622
3534	0.000807168
3546	0.000941696
3558	0.000739904
3570	0.00295962
3582	0.00208518
3594	0.00141254
3606	0
3618	0.00127802
3630	0.0026233
3642	0.00141254
3654	0.00174886
3666	0
3678	0.00269056
3690	0.00127802
3702	0.00127802
3714	0.00114349
3726	0.00201792
3738	0.00289235
3750	0.00033632
3762	0.00114349
3774	0.00127802
3786	0.00161434
3798	0.00235424
3810	0.00121075
3822	0.00147981
3834	0.00295962
3846	0.00188339
3858	0.00181613
3870	0.00275782
3882	0.00134528
3894	0.00147981
3906	0.00208518
3918	0.00147981
3930	0.00269056
3942	0.00282509
3954	0.00141254
3966	0.00302688
