Infrared Spectrum: (1,1'-Biphenyl)-2,2'-dicarboxylic acid, dimethyl ester
Formula: C 16 H 14 O 4
CAS: 5807-64-7
Origin: Sadtler Research Labs Under US-EPA Contract
1/CM	ABSORBANCE
450	0.0113426
462	0.00723298
474	0.0124111
486	0.0211236
498	0.0106851
510	0.0133153
522	0.0158632
534	0.00649325
546	0.0171783
558	0.0242469
570	0.0287676
582	0.0128221
594	0.0146304
606	0.0166852
618	0.0135618
630	0.00961658
642	0.0101097
654	0.0156167
666	0.0184934
678	0.0402746
690	0.0233428
702	0.0579461
714	0.0996179
726	0.0482473
738	0.0565488
750	0.143262
762	0.19751
774	0.0452883
786	0.0265483
798	0.0213702
810	0.0341101
822	0.0443842
834	0.0385485
846	0.0166852
858	0.0105207
870	0.0110961
882	0.0120002
894	0.0108495
906	0.0139728
918	0.0116714
930	0.0133975
942	0.0147125
954	0.0292607
966	0.0474254
978	0.0272059
990	0.0146304
1002	0.0376444
1014	0.0260552
1026	0.0226853
1038	0.0601653
1050	0.130276
1062	0.066001
1074	0.124687
1086	0.247565
1098	0.183373
1110	0.139399
1122	0.263264
1134	0.328525
1146	0.122139
1158	0.0658366
1170	0.0574529
1182	0.0614804
1194	0.0908233
1206	0.0616448
1218	0.0738915
1230	0.147865
1242	0.331156
1254	0.551186
1266	0.437431
1278	0.504583
1290	0.705791
1302	0.296635
1314	0.106111
1326	0.0603297
1338	0.0369047
1350	0.0258908
1362	0.0205483
1374	0.0206304
1386	0.0198085
1398	0.0190688
1410	0.0235894
1422	0.0350142
1434	0.145235
1446	0.169235
1458	0.0531789
1470	0.049398
1482	0.0427404
1494	0.0249867
1506	0.0198907
1518	0.0171783
1530	0.0132331
1542	0.00895904
1554	0.0138084
1566	0.0258086
1578	0.0384663
1590	0.0435623
1602	0.0567954
1614	0.0232606
1626	0.0204661
1638	0.0211236
1650	0.0164386
1662	0.0182468
1674	0.0182468
1686	0.0252333
1698	0.0505487
1710	0.0871246
1722	0.169646
1734	0.596475
1746	0.724778
1758	0.344306
1770	0.122303
1782	0.0490692
1794	0.0210414
1806	0.0149591
1818	0.0159454
1830	0.0139728
1842	0.0101097
1854	0.0113426
1866	0.00830149
1878	0.00715079
1890	0.00641105
1902	0.00994535
1914	0.0112604
1926	0.0188222
1938	0.014466
1950	0.0120002
1962	0.0133153
1974	0.00567132
1986	0.00501377
1998	0.00476719
2010	0.00509597
2022	0.0059179
2034	0.00600009
2046	0.00715079
2058	0.00756176
2070	0.00780834
2082	0.00739737
2094	0.00756176
2106	0.0070686
2118	0.00534255
2130	0.00402746
2142	0.00328772
2154	0.00271237
2166	0.00271237
2178	0.0023014
2190	0.00254798
2202	0.0023014
2214	0.00279456
2226	0.00312333
2238	0.00304114
2250	0.00345211
2262	0.00295895
2274	0.00304114
2286	0.00254798
2298	0.00254798
2310	0.00263018
2322	0.00361649
2334	0.00312333
2346	0.00271237
2358	0.00279456
2370	0.00246579
2382	0.00295895
2394	0.00271237
2406	0.00279456
2418	0.0023836
2430	0.00106851
2442	0.00164386
2454	0.00106851
2466	0.00156167
2478	0.00172605
2490	0.00180825
2502	0.00172605
2514	0.00156167
2526	0.00197263
2538	0.0023014
2550	0.00304114
2562	0.00312333
2574	0.00304114
2586	0.0023836
2598	0.00221921
2610	0.0023014
2622	0.00164386
2634	0.00172605
2646	0.00147947
2658	0.00197263
2670	0.00172605
2682	0.000986316
2694	0.00139728
2706	0.00147947
2718	0.00197263
2730	0.00197263
2742	0.00189044
2754	0.00205483
2766	0.0023014
2778	0.00221921
2790	0.00254798
2802	0.00271237
2814	0.00386307
2826	0.00632886
2838	0.0146304
2850	0.0292607
2862	0.0126577
2874	0.0127399
2886	0.0141372
2898	0.0219455
2910	0.0248223
2922	0.0268771
2934	0.0257264
2946	0.0478363
2958	0.1634
2970	0.0661654
2982	0.0301648
2994	0.0364937
3006	0.0392883
3018	0.0409321
3030	0.0558912
3042	0.0385485
3054	0.0390417
3066	0.0907411
3078	0.105618
3090	0.0348498
3102	0.0203839
3114	0.014466
3126	0.0094522
3138	0.00969877
3150	0.00830149
3162	0.00460281
3174	0.00476719
3186	0.00345211
3198	0.00361649
3210	0.00295895
3222	0.00213702
3234	0.00180825
3246	0.00246579
3258	0.00221921
3270	0.00197263
3282	0.00131509
3294	0.00213702
3306	0.00271237
3318	0.00197263
3330	0.00197263
3342	0.00394526
3354	0.00205483
3366	0.00279456
3378	0.000739737
3390	0.00205483
3402	0.0023014
3414	0.00345211
3426	0.00189044
3438	0.00386307
3450	0.00427404
3462	0.00887684
3474	0.0059179
3486	0.00484939
3498	0.00419184
3510	0.00287675
3522	0.00254798
3534	0.00221921
3546	0.00345211
3558	0.00246579
3570	0.00378088
3582	0.00345211
3594	0.00156167
3606	0.00410965
3618	0.00460281
3630	0.00189044
3642	0.0023836
3654	0.00287675
3666	0.0023836
3678	0.00386307
3690	0.00336991
3702	0.00369869
3714	0.00279456
3726	0.00312333
3738	0.00394526
3750	0.00205483
3762	0.00632886
3774	0.00304114
3786	0.00336991
3798	0.00271237
3810	0.00443842
3822	0.000657544
3834	0.00295895
3846	0.00147947
3858	0.000575351
3870	0.000739737
3882	0.00189044
3894	0.00336991
3906	0.00279456
3918	0.000986316
3930	0.000739737
3942	0.00369869
3954	0.00336991
3966	0.00673983
