Infrared Spectrum: Naphthalene, 2-nitro-
Formula: C 10 H 7 N O 2
CAS: 581-89-5
Origin: Sadtler Research Labs Under US-EPA Contract
1/CM	ABSORBANCE
450	0.119391
462	0.0499161
474	0.0814818
486	0.0552022
498	0.0169911
510	0.016538
522	0.00490854
534	0.0147256
546	0.0219752
558	0.00400235
570	0.0126112
582	0.00468199
594	0.0622252
606	0.0302819
618	0.00558818
630	0.0094395
642	0.00302064
654	0.00959053
666	0.00936398
678	0.00490854
690	0.00626783
702	0.00505957
714	0.00906192
726	0.0135929
738	0.0363232
750	0.169911
762	0.268082
774	0.108592
786	0.0407031
798	0.247919
810	0.198758
822	0.0697768
834	0.0208424
846	0.0178973
858	0.0671337
870	0.0481792
882	0.0508978
894	0.0835207
906	0.0787632
918	0.0342087
930	0.0137439
942	0.0174442
954	0.0215976
966	0.0137439
978	0.00672092
990	0.011705
1002	0.0126867
1014	0.0172932
1026	0.0151032
1038	0.00604128
1050	0.00732505
1062	0.0102702
1074	0.0533898
1086	0.0966605
1098	0.0167646
1110	0.00437993
1122	0.00883537
1134	0.0261285
1146	0.0306595
1158	0.0334536
1170	0.00702299
1182	0.00891089
1194	0.0185014
1206	0.0254489
1218	0.0157073
1230	0.033076
1242	0.0301309
1254	0.021371
1266	0.0280164
1278	0.0189545
1290	0.0121581
1302	0.0200117
1314	0.0561084
1326	0.182975
1338	0.453927
1350	0.75516
1362	0.389436
1374	0.166211
1386	0.0608659
1398	0.0319433
1410	0.0362477
1422	0.0350394
1434	0.0351149
1446	0.0438748
1458	0.0337557
1470	0.0289226
1482	0.0397969
1494	0.0885803
1506	0.171195
1518	0.175801
1530	0.234553
1542	0.43535
1554	0.536239
1566	0.226775
1578	0.0899396
1590	0.102475
1602	0.138647
1614	0.0912233
1626	0.047273
1638	0.0400235
1650	0.0131398
1662	0.011705
1674	0.0169911
1686	0.0169911
1698	0.0107233
1710	0.0105722
1722	0.00672092
1734	0.00951502
1746	0.00505957
1758	0.0107233
1770	0.0135174
1782	0.00694747
1794	0.0098926
1806	0.0125357
1818	0.0136684
1830	0.0089864
1842	0.00626783
1854	0.0033227
1866	0.00249203
1878	0.0033227
1890	0.00249203
1902	0.00875986
1914	0.0129132
1926	0.012007
1938	0.0089864
1950	0.0123846
1962	0.00740057
1974	0.00166135
1986	0.000981708
1998	0.000528612
2010	0.00113274
2022	0.000981708
2034	0.00181238
2046	0.00128377
2058	0.000830676
2070	0.000906192
2082	0.000906192
2094	0.00173687
2106	0.000830676
2118	0.000830676
2130	0.00037758
2142	7.5516e-05
2154	0.000679644
2166	0.000830676
2178	0.000830676
2190	0.000453096
2202	0.00075516
2214	0.0014348
2226	0.00181238
2238	0.00135929
2250	0.00113274
2262	0.00075516
2274	0.00279409
2286	0.00490854
2298	0.00460648
2310	0.00505957
2322	0.0033227
2334	0.00370028
2346	0.0042289
2358	0.00490854
2370	0.00249203
2382	0.00211445
2394	0.00218996
2406	0.00271858
2418	0.0042289
2430	0.00558818
2442	0.00453096
2454	0.00286961
2466	0.00226548
2478	0.00256754
2490	0.00279409
2502	0.00256754
2514	0.0033227
2526	0.00271858
2538	0.00226548
2550	0.00256754
2562	0.00241651
2574	0.00286961
2586	0.00317167
2598	0.00226548
2610	0.00271858
2622	0.00256754
2634	0.00249203
2646	0.00302064
2658	0.00370028
2670	0.00354925
2682	0.00498406
2694	0.00536164
2706	0.00468199
2718	0.00437993
2730	0.00354925
2742	0.00339822
2754	0.00347374
2766	0.0037758
2778	0.00407786
2790	0.0042289
2802	0.00498406
2814	0.00475751
2826	0.0052106
2838	0.00687196
2850	0.00928847
2862	0.0107233
2874	0.0113274
2886	0.0126112
2898	0.0132153
2910	0.0104967
2922	0.00838228
2934	0.00936398
2946	0.0104967
2958	0.0114029
2970	0.0109498
2982	0.0106478
2994	0.00996811
3006	0.0098926
3018	0.0135174
3030	0.0220507
3042	0.0312636
3054	0.054296
3066	0.132229
3078	0.121128
3090	0.059129
3102	0.0231079
3114	0.00838228
3126	0.00558818
3138	0.00445544
3150	0.00354925
3162	0.00475751
3174	0.00430441
3186	0.00551267
3198	0.00370028
3210	0.00362477
3222	0.00362477
3234	0.00385132
3246	0.00317167
3258	0.00309616
3270	0.00279409
3282	0.00317167
3294	0.00241651
3306	0.00362477
3318	0.00249203
3330	0.00151032
3342	0.00279409
3354	0.00203893
3366	0.00294512
3378	0.00256754
3390	0.00181238
3402	0.00302064
3414	0.00347374
3426	0.00309616
3438	0.002341
3450	0.002341
3462	0.002341
3474	0.00309616
3486	0.00354925
3498	0.00211445
3510	0.00196342
3522	0.00302064
3534	0.00362477
3546	0.00271858
3558	0.00203893
3570	0.00211445
3582	0.00105722
3594	0.00203893
3606	0.00226548
3618	0.00347374
3630	0.00309616
3642	0.00226548
3654	0.00271858
3666	0.00264306
3678	0.00589025
3690	0.00317167
3702	0.00211445
3714	0.00317167
3726	0.0033227
3738	0.00362477
3750	0.00264306
3762	0.000830676
3774	0.00181238
3786	0.00226548
3798	0.00196342
3810	0.00226548
3822	0.00483302
3834	0.00105722
3846	0.00370028
3858	0.00437993
3870	0.00558818
3882	0.00573922
3894	0.00166135
3906	0.00400235
3918	0.00505957
3930	0.00536164
3942	0.0033227
3954	0.00679644
3966	0.00354925
