Infrared Spectrum: Benzophenone, 2,3'-difluoro-,
Formula: C 13 H 8 F 2 O
CAS: 58139-11-0
Origin: Sadtler Research Labs Under US-EPA Contract
1/CM	ABSORBANCE
450	0.043932
462	0.0294734
474	0.000714987
486	0.0322539
498	0.0245479
510	0.0488574
522	0.0677649
534	0.042502
546	0.0417076
558	0.0182719
570	0.0157297
582	0.0224824
594	0.0212907
606	0.0270106
618	0.0328894
630	0.105977
642	0.0955699
654	0.0262956
666	0.0442498
678	0.0626805
690	0.0718165
702	0.0580728
714	0.0819057
726	0.0605356
738	0.0797608
750	0.320473
762	0.241427
774	0.0773775
786	0.0593439
798	0.107645
810	0.142759
822	0.0771392
834	0.054339
846	0.188598
858	0.167228
870	0.182242
882	0.0904061
894	0.0877845
906	0.046633
918	0.0311417
930	0.0317772
942	0.0375765
954	0.0398804
966	0.109949
978	0.0695126
990	0.0506846
1002	0.0301089
1014	0.0288378
1026	0.0267723
1038	0.0294734
1050	0.0242301
1062	0.0237535
1074	0.0405954
1086	0.0359082
1098	0.0663349
1110	0.0601384
1122	0.110029
1134	0.0703865
1146	0.0430581
1158	0.0670499
1170	0.0324127
1182	0.0382915
1194	0.0962849
1206	0.173027
1218	0.141488
1230	0.260096
1242	0.177635
1254	0.186135
1266	0.344862
1278	0.347881
1290	0.541404
1302	0.714193
1314	0.200117
1326	0.0677649
1338	0.0426609
1350	0.0338427
1362	0.0293939
1374	0.0268517
1386	0.0293145
1398	0.0283612
1410	0.0382915
1422	0.0653021
1434	0.140535
1446	0.306809
1458	0.331992
1470	0.127506
1482	0.264863
1494	0.201626
1506	0.0827796
1518	0.0505257
1530	0.0386887
1542	0.0430581
1554	0.0417076
1566	0.0664938
1578	0.137278
1590	0.311893
1602	0.218468
1614	0.262797
1626	0.0744381
1638	0.0445675
1650	0.0444881
1662	0.0591056
1674	0.114795
1686	0.393163
1698	0.388
1710	0.121786
1722	0.0650638
1734	0.0484602
1746	0.0279639
1758	0.0293939
1770	0.0269312
1782	0.0219263
1794	0.0282023
1806	0.0246273
1818	0.0210524
1830	0.0185102
1842	0.0165241
1854	0.0158092
1866	0.0158886
1878	0.0187485
1890	0.016683
1902	0.0135053
1914	0.0203374
1926	0.0171597
1938	0.018828
1950	0.0224029
1962	0.0131875
1974	0.0135053
1986	0.0119165
1998	0.0117576
2010	0.0123931
2022	0.0102481
2034	0.0120753
2046	0.0112809
2058	0.0116781
2070	0.0138231
2082	0.0117576
2094	0.0109631
2106	0.0108042
2118	0.00913595
2130	0.010407
2142	0.00873873
2154	0.0096126
2166	0.0101687
2178	0.00857984
2190	0.0100098
2202	0.00937427
2214	0.00778541
2226	0.00977149
2238	0.00818263
2250	0.00969205
2262	0.00977149
2274	0.00865929
2286	0.00969205
2298	0.00921539
2310	0.0103276
2322	0.0130287
2334	0.00945372
2346	0.011837
2358	0.00857984
2370	0.0110426
2382	0.00929483
2394	0.0073882
2406	0.00889762
2418	0.00913595
2430	0.00834152
2442	0.00834152
2454	0.00746764
2466	0.00786486
2478	0.0079443
2490	0.0051638
2502	0.00707043
2514	0.00611711
2526	0.00556101
2538	0.0068321
2550	0.00428992
2562	0.00619655
2574	0.00659377
2586	0.00619655
2598	0.00691154
2610	0.00500491
2622	0.00579934
2634	0.00500491
2646	0.00198608
2658	0.00540212
2670	0.00301883
2682	0.00341605
2694	0.00524324
2706	0.00198608
2718	0.00405159
2730	0.00389271
2742	0.00301883
2754	0.00548157
2766	0.00230385
2778	0.0022244
2790	0.00285995
2802	0.00206552
2814	0.00452825
2826	0.0022244
2838	0.00230385
2850	0.0057199
2862	0.00341605
2874	0.00651433
2886	0.00524324
2898	0.00436937
2910	0.00691154
2922	0.00285995
2934	0.00444881
2946	0.0057199
2958	0.00325716
2970	0.00587878
2982	0.00349549
2994	0.00421048
3006	0.00722931
3018	0.00730876
3030	0.0107248
3042	0.020973
3054	0.030665
3066	0.0346371
3078	0.0625216
3090	0.0806346
3102	0.0235151
3114	0.00913595
3126	0.00786486
3138	0.00285995
3150	0.00413104
3162	0.00659377
3174	0.00270106
3186	0.00548157
3198	0.00333661
3210	0.00301883
3222	0.00611711
3234	0.0011122
3246	0.00428992
3258	0.00413104
3270	0.00158886
3282	0.00500491
3294	0.00293939
3306	0.00389271
3318	0.0051638
3330	0.00254218
3342	0.00730876
3354	0.00770597
3366	0.00826207
3378	0.00945372
3390	0.00452825
3402	0.00635544
3414	0.00460769
3426	0.00285995
3438	0.00643488
3450	0.0027805
3462	0.00500491
3474	0.00611711
3486	0.00190663
3498	0.00699098
3510	0.00182719
3522	0.00333661
3534	0.00540212
3546	0.00301883
3558	0.00667321
3570	0.00635544
3582	0.00349549
3594	0.00770597
3606	0.00436937
3618	0.00714987
3630	0.010407
3642	0.00484602
3654	0.00834152
3666	0.00635544
3678	0.0100098
3690	0.0119165
3702	0.00428992
3714	0.0100893
3726	0.00945372
3738	0.010407
3750	0.013982
3762	0.00826207
3774	0.00897706
3786	0.00969205
3798	0.00857984
3810	0.0142203
3822	0.0127109
3834	0.0117576
3846	0.0134259
3858	0.00857984
3870	0.0141409
3882	0.0135053
3894	0.00985093
3906	0.0147764
3918	0.00945372
3930	0.011837
3942	0.0140614
3954	0
3966	0.000635544
