Infrared Spectrum: 2-(4-Chloro-3,5-xylyloxy)-ethanol
Formula: C 10 H 13 Cl O 2
CAS: 5825-79-6
Origin: Sadtler Research Labs Under US-EPA Contract
1/CM	ABSORBANCE
450	0.0132987
462	0.000554112
474	0.00517171
486	0.00434054
498	0.0067417
510	0.00563347
522	0.00517171
534	0.00258586
546	0.00554112
558	0.00729581
570	0.00350938
582	0.00498701
594	0.0129293
606	0.0177316
618	0.0248427
630	0.028075
642	0.0381414
654	0.0479307
666	0.0716652
678	0.0872726
690	0.033062
702	0.0323232
714	0.0124675
726	0.00489466
738	0.00129293
750	0
762	0.00092352
774	0.00240115
786	0.00434054
798	0.00701875
810	0.0108052
822	0.0242886
834	0.049593
846	0.074251
858	0.149148
870	0.119873
882	0.0736045
894	0.0757286
906	0.0573506
918	0.0321385
930	0.028075
942	0.0302915
954	0.037772
966	0.036479
978	0.0420202
990	0.0531948
1002	0.0815468
1014	0.125322
1026	0.230234
1038	0.587266
1050	0.555774
1062	0.315936
1074	0.289893
1086	0.235682
1098	0.166972
1110	0.0972467
1122	0.0657546
1134	0.0719422
1146	0.155521
1158	0.633535
1170	0.852778
1182	0.285922
1194	0.13585
1206	0.0883809
1218	0.0696334
1230	0.0626147
1242	0.0795151
1254	0.0796074
1266	0.0872726
1278	0.0945684
1290	0.135111
1302	0.31335
1314	0.712311
1326	0.482077
1338	0.167711
1350	0.115717
1362	0.0944761
1374	0.11544
1386	0.103988
1398	0.0962308
1410	0.158014
1422	0.267359
1434	0.212317
1446	0.217951
1458	0.330066
1470	0.418447
1482	0.267636
1494	0.0894891
1506	0.0612294
1518	0.0555959
1530	0.0548571
1542	0.0614141
1554	0.0794227
1566	0.117472
1578	0.231619
1590	0.396467
1602	0.350753
1614	0.141668
1626	0.0406349
1638	0.019671
1650	0.013391
1662	0.014684
1674	0.0136681
1686	0.0121905
1698	0.0130216
1710	0.0192092
1722	0.0175469
1734	0.0132987
1746	0.0121905
1758	0.0128369
1770	0.0112669
1782	0.00646464
1794	0.00175469
1806	0.00221645
1818	0.00184704
1830	0.00110822
1842	0.00138528
1854	0.00175469
1866	0.000646464
1878	0.00147763
1890	0.00166234
1902	0.00175469
1914	0.00110822
1926	0.00147763
1938	0.00267821
1950	0.00295526
1962	0.00350938
1974	0.00286291
1986	0.00221645
1998	0.0021241
2010	0.00138528
2022	0.00120058
2034	0.00166234
2046	0.00120058
2058	0.000738816
2070	0.00120058
2082	0.0023088
2094	0.00258586
2106	0.00304762
2118	0.00424819
2130	0.0044329
2142	0.00304762
2154	0.00277056
2166	0.00313997
2178	0.00313997
2190	0.00221645
2202	0.000646464
2214	0
2226	9.2352e-05
2238	0.00046176
2250	0.00120058
2262	0.00175469
2274	0.0024935
2286	0.00304762
2298	0.00350938
2310	0.00489466
2322	0.00600288
2334	0.00683405
2346	0.00775757
2358	0.00387878
2370	0.00572582
2382	0.0044329
2394	0.0021241
2406	0.00258586
2418	0.00277056
2430	0.00295526
2442	0.00360173
2454	0.00489466
2466	0.00627994
2478	0.00655699
2490	0.00572582
2502	0.00350938
2514	0.0023088
2526	0.00240115
2538	0.0024935
2550	0.00295526
2562	0.00295526
2574	0.00277056
2586	0.00313997
2598	0.00258586
2610	0.00267821
2622	0.00341702
2634	0.00397114
2646	0.00406349
2658	0.00434054
2670	0.00572582
2682	0.0067417
2694	0.00775757
2706	0.00831168
2718	0.0100664
2730	0.0134834
2742	0.0168081
2754	0.0176392
2766	0.0126522
2778	0.0132063
2790	0.0152381
2802	0.0178239
2814	0.0214257
2826	0.0275209
2838	0.0386031
2850	0.0625223
2862	0.116271
2874	0.164294
2886	0.183042
2898	0.158014
2910	0.172329
2922	0.25249
2934	0.383723
2946	0.351953
2958	0.277425
2970	0.264404
2982	0.185812
2994	0.122921
3006	0.0617835
3018	0.041189
3030	0.0354632
3042	0.0394343
3054	0.0520865
3066	0.0536565
3078	0.0403578
3090	0.0208716
3102	0.0125599
3114	0.00997402
3126	0.00701875
3138	0.00507936
3150	0.00341702
3162	0.0021241
3174	0.00193939
3186	0.00156998
3198	0.00184704
3210	0.00129293
3222	0.00120058
3234	0.000554112
3246	0.000738816
3258	0.000646464
3270	0.00101587
3282	0.00110822
3294	0.00120058
3306	0.00120058
3318	0.000738816
3330	0.00129293
3342	0.00101587
3354	0.00092352
3366	0.00101587
3378	0.000277056
3390	0.00046176
3402	0.000646464
3414	0.00092352
3426	0.00147763
3438	0.00166234
3450	0.00129293
3462	0.00120058
3474	0.00175469
3486	0.00221645
3498	0.00267821
3510	0.00147763
3522	0.00147763
3534	0.00203174
3546	0.00313997
3558	0.00258586
3570	0.00369408
3582	0.0023088
3594	0.00452525
3606	0.0069264
3618	0.0143146
3630	0.0310303
3642	0.0712957
3654	0.0450678
3666	0.0386031
3678	0.0340779
3690	0.0188398
3702	0.00748051
3714	0.0044329
3726	0.00369408
3738	0.00397114
3750	0.00258586
3762	0.00258586
3774	0.00138528
3786	0.00120058
3798	0.00129293
3810	0
3822	0.000646464
3834	0.00147763
3846	0.000738816
3858	0
3870	0.000277056
3882	0
3894	0.000831168
3906	9.2352e-05
3918	0
3930	0.000554112
3942	0
3954	0.000277056
3966	0.00120058
