Infrared Spectrum: Benzene, 1,2-dibromo-
Formula: C 6 H 4 Br 2
CAS: 583-53-9
Origin: Sadtler Research Labs Under US-EPA Contract
1/CM	ABSORBANCE
450	0
462	0.0162792
474	0.0197618
486	0.0133635
498	0.0123916
510	0.0112577
522	0.0126346
534	0.0140924
546	0.0122296
558	0.0132015
570	0.0162792
582	0.0157123
594	0.0153883
606	0.0143354
618	0.0160362
630	0.0328014
642	0.114359
654	0.0549119
666	0.0149833
678	0.0159552
690	0.0443021
702	0.132177
714	0.109581
726	0.0388757
738	0.346156
750	0.419209
762	0.0669796
774	0.018304
786	0.0165222
798	0.0204097
810	0.0255122
822	0.0161172
834	0.0166841
846	0.0166032
858	0.0205717
870	0.0158742
882	0.0144164
894	0.0164412
906	0.0161982
918	0.0156313
930	0.01798
942	0.0276989
954	0.0205717
966	0.0155503
978	0.0230824
990	0.0391187
1002	0.0844736
1014	0.370615
1026	0.235927
1038	0.0839877
1050	0.0200048
1062	0.0242163
1074	0.0264031
1086	0.0274559
1098	0.0960553
1110	0.26233
1122	0.0483516
1134	0.0208957
1146	0.0210577
1158	0.0162792
1170	0.0147404
1182	0.0143354
1194	0.0136875
1206	0.0127966
1218	0.0123916
1230	0.0154693
1242	0.0258361
1254	0.0601763
1266	0.0280229
1278	0.0151453
1290	0.0133635
1302	0.0114197
1314	0.0126346
1326	0.0131205
1338	0.0156313
1350	0.0253502
1362	0.017737
1374	0.0155503
1386	0.0247832
1398	0.036122
1410	0.0281039
1422	0.110229
1434	0.209443
1446	0.426013
1458	0.312787
1470	0.0742687
1482	0.0786423
1494	0.036365
1506	0.0161982
1518	0.0148214
1530	0.0120677
1542	0.0157123
1554	0.0352311
1566	0.100267
1578	0.0968652
1590	0.027294
1602	0.027294
1614	0.0172511
1626	0.0189519
1638	0.0146594
1650	0.0128776
1662	0.0146594
1674	0.0189519
1686	0.0225155
1698	0.0161982
1710	0.0156313
1722	0.0130396
1734	0.0125536
1746	0.0134445
1758	0.0129586
1770	0.0128776
1782	0.0224345
1794	0.0253502
1806	0.0149023
1818	0.0189519
1830	0.0187899
1842	0.0113387
1854	0.0119057
1866	0.0136065
1878	0.017656
1890	0.0143354
1902	0.0209767
1914	0.0303716
1926	0.0153883
1938	0.0195188
1950	0.0242163
1962	0.0123916
1974	0.0115007
1986	0.0117437
1998	0.0113387
2010	0.0107718
2022	0.0113387
2034	0.0119867
2046	0.0110148
2058	0.0110148
2070	0.0106098
2082	0.0108528
2094	0.0114197
2106	0.0110148
2118	0.0111768
2130	0.0115007
2142	0.0114197
2154	0.0111768
2166	0.0106098
2178	0.0106098
2190	0.0105288
2202	0.0104478
2214	0.0105288
2226	0.0107718
2238	0.0112577
2250	0.0112577
2262	0.0114197
2274	0.0121487
2286	0.0127156
2298	0.0115817
2310	0.0101239
2322	0.0112577
2334	0.0105288
2346	0.0101239
2358	0.0115007
2370	0.0105288
2382	0.0102859
2394	0.0113387
2406	0.0115007
2418	0.0127966
2430	0.0122296
2442	0.0113387
2454	0.0111768
2466	0.0113387
2478	0.0106908
2490	0.0107718
2502	0.0111768
2514	0.0136875
2526	0.0159552
2538	0.0133635
2550	0.0120677
2562	0.0125536
2574	0.0136875
2586	0.0154693
2598	0.0123916
2610	0.0112577
2622	0.0110958
2634	0.0108528
2646	0.0108528
2658	0.0109338
2670	0.0108528
2682	0.0112577
2694	0.0120677
2706	0.0119057
2718	0.0108528
2730	0.0109338
2742	0.0109338
2754	0.0106098
2766	0.0106908
2778	0.0102049
2790	0.0105288
2802	0.0106908
2814	0.0110958
2826	0.0111768
2838	0.0105288
2850	0.0105288
2862	0.0110148
2874	0.0109338
2886	0.0101239
2898	0.0101239
2910	0.0105288
2922	0.0106098
2934	0.0110958
2946	0.0111768
2958	0.0114197
2970	0.0126346
2982	0.0149833
2994	0.0151453
3006	0.0146594
3018	0.0136875
3030	0.0123916
3042	0.0139305
3054	0.0228395
3066	0.103183
3078	0.141491
3090	0.0485136
3102	0.018385
3114	0.0136065
3126	0.018385
3138	0.0238923
3150	0.0132015
3162	0.0106098
3174	0.0110148
3186	0.0107718
3198	0.0106908
3210	0.0110958
3222	0.0105288
3234	0.0108528
3246	0.0106098
3258	0.0107718
3270	0.0107718
3282	0.0113387
3294	0.0106908
3306	0.0107718
3318	0.0106908
3330	0.0112577
3342	0.0102859
3354	0.0106908
3366	0.0104478
3378	0.0105288
3390	0.0105288
3402	0.0109338
3414	0.0105288
3426	0.0106908
3438	0.0109338
3450	0.0104478
3462	0.0107718
3474	0.0110958
3486	0.0106908
3498	0.0110148
3510	0.0113387
3522	0.0107718
3534	0.0112577
3546	0.0115007
3558	0.0107718
3570	0.0106098
3582	0.0102049
3594	0.0113387
3606	0.0113387
3618	0.0112577
3630	0.0119867
3642	0.0109338
3654	0.0110958
3666	0.0107718
3678	0.0125536
3690	0.0115007
3702	0.0121487
3714	0.0127966
3726	0.0137685
3738	0.0136875
3750	0.0118247
3762	0.0127156
3774	0.0143354
3786	0.0115817
3798	0.0116627
3810	0.0106098
3822	0.0128776
3834	0.0112577
3846	0.0122296
3858	0.0119057
3870	0.0110148
3882	0.0104478
3894	0.0112577
3906	0.0117437
3918	0.0116627
3930	0.0108528
3942	0.0106098
3954	0.0112577
3966	0.0110958
