Infrared Spectrum: Phenol, 2,5-dichloro-
Formula: C 6 H 4 Cl 2 O
CAS: 583-78-8
Origin: Sadtler Research Labs Under US-EPA Contract
1/CM	ABSORBANCE
450	0
462	0.0140456
474	0.0056582
486	0.00761083
498	0.00517004
510	0.00687859
522	0.00355024
534	0.00840963
546	0.00840963
558	0.0138903
570	0.0321297
582	0.0660123
594	0.0203251
606	0.0133578
618	0.00661232
630	0.0056582
642	0.00763302
654	0.0107617
666	0.00588009
678	0.010917
690	0.0104066
702	0.0147335
714	0.0135353
726	0.00940814
738	0.00803242
750	0.00756645
762	0.00652357
774	0.014201
786	0.0388086
798	0.0585124
810	0.025362
822	0.00727799
834	0.0076552
846	0.0146226
858	0.0346814
870	0.0249848
882	0.0188163
894	0.0430467
906	0.112986
918	0.0458647
930	0.010562
942	0.00505909
954	0.00421591
966	0.00532536
978	0.00539193
990	0.00563601
1002	0.00619073
1014	0.00721143
1026	0.0136462
1038	0.021013
1050	0.056471
1062	0.0304877
1074	0.042381
1086	0.115405
1098	0.0386532
1110	0.0195485
1122	0.0271593
1134	0.0340601
1146	0.0148666
1158	0.0192822
1170	0.0323294
1182	0.0755979
1194	0.130782
1206	0.0905755
1218	0.019371
1230	0.015022
1242	0.0271815
1254	0.0350142
1266	0.0246298
1278	0.0269374
1290	0.0598659
1302	0.126389
1314	0.0838079
1326	0.0166639
1338	0.00783272
1350	0.00559163
1362	0.00696735
1374	0.00885341
1386	0.0102957
1398	0.0127809
1410	0.0136019
1422	0.0160648
1434	0.028646
1446	0.055761
1458	0.0484608
1470	0.142564
1482	0.21226
1494	0.0535864
1506	0.0169968
1518	0.016908
1530	0.00987411
1542	0.00869809
1554	0.0151551
1566	0.0422257
1578	0.0905533
1590	0.119954
1602	0.0684753
1614	0.0164199
1626	0.00730018
1638	0.00465969
1650	0.00678983
1662	0.00607979
1674	0.00517004
1686	0.00430467
1698	0.00545849
1710	0.00703391
1722	0.0080768
1734	0.00654576
1746	0.00550287
1758	0.00536974
1770	0.00470407
1782	0.00477064
1794	0.00559163
1806	0.00461531
1818	0.00417153
1830	0.0042381
1842	0.00459312
1854	0.00607979
1866	0.00632387
1878	0.00419372
1890	0.00374994
1902	0.00348367
1914	0.00359462
1926	0.003639
1938	0.00372775
1950	0.00377213
1962	0.00377213
1974	0.00390526
1986	0.00392745
1998	0.00381651
2010	0.00377213
2022	0.00326178
2034	0.00359462
2046	0.00341711
2058	0.00366118
2070	0.00374994
2082	0.00370556
2094	0.00392745
2106	0.00406059
2118	0.00386089
2130	0.00388308
2142	0.00390526
2154	0.00392745
2166	0.00434904
2178	0.00468188
2190	0.00452656
2202	0.00419372
2214	0.00426029
2226	0.00368337
2238	0.00392745
2250	0.00372775
2262	0.0040384
2274	0.00452656
2286	0.00494815
2298	0.00563601
2310	0.00614635
2322	0.0066567
2334	0.00674546
2346	0.00716705
2358	0.00654576
2370	0.00505909
2382	0.00559163
2394	0.00441561
2406	0.0040384
2418	0.00388308
2430	0.00414934
2442	0.00412715
2454	0.00432686
2466	0.00548068
2478	0.00639043
2490	0.00563601
2502	0.00525879
2514	0.00485939
2526	0.00497034
2538	0.00514785
2550	0.00514785
2562	0.0048372
2574	0.00474845
2586	0.00421591
2598	0.00399402
2610	0.00401621
2622	0.0042381
2634	0.00457093
2646	0.00394964
2658	0.00497034
2670	0.00492596
2682	0.00470407
2694	0.00445999
2706	0.0046375
2718	0.00528098
2730	0.00539193
2742	0.00534755
2754	0.00488158
2766	0.0048372
2778	0.00497034
2790	0.00434904
2802	0.00494815
2814	0.00430467
2826	0.00417153
2838	0.00448218
2850	0.00490377
2862	0.00517004
2874	0.00454874
2886	0.00450437
2898	0.0046375
2910	0.00450437
2922	0.00459312
2934	0.00437123
2946	0.00401621
2958	0.00399402
2970	0.00428248
2982	0.00452656
2994	0.00441561
3006	0.00479282
3018	0.00556944
3030	0.0060576
3042	0.00701172
3054	0.00718924
3066	0.00718924
3078	0.00834306
3090	0.00832088
3102	0.00714486
3114	0.00590227
3126	0.00492596
3138	0.00448218
3150	0.00445999
3162	0.00528098
3174	0.00497034
3186	0.00461531
3198	0.00477064
3210	0.00417153
3222	0.00457093
3234	0.00470407
3246	0.00468188
3258	0.00441561
3270	0.00470407
3282	0.00450437
3294	0.00445999
3306	0.00554725
3318	0.00494815
3330	0.00381651
3342	0.00410497
3354	0.00448218
3366	0.00472626
3378	0.00417153
3390	0.00374994
3402	0.00434904
3414	0.00372775
3426	0.00421591
3438	0.0040384
3450	0.00379432
3462	0.00428248
3474	0.00468188
3486	0.00532536
3498	0.00445999
3510	0.00374994
3522	0.00521442
3534	0.00596884
3546	0.00834306
3558	0.0164642
3570	0.135175
3582	0.138814
3594	0.0151551
3606	0.00710048
3618	0.00623511
3630	0.0066567
3642	0.0094747
3654	0.0107839
3666	0.00736675
3678	0.00481501
3690	0.00561382
3702	0.00419372
3714	0.00574695
3726	0.00663451
3738	0.00694516
3750	0.00355024
3762	0.00490377
3774	0.00432686
3786	0.0044378
3798	0.00556944
3810	0.00361681
3822	0.00494815
3834	0.00563601
3846	0.00639043
3858	0.00568038
3870	0.0052366
3882	0.00656794
3894	0.00530317
3906	0.0072558
3918	0.0054363
3930	0.0058579
3942	0.00568038
3954	0.00399402
3966	0.00616854
