Infrared Spectrum: Fenipentol
Formula: C 11 H 16 O
CAS: 583-03-9
Origin: Sadtler Research Labs Under US-EPA Contract
1/CM	ABSORBANCE
450	0.0192667
462	0.00203152
474	0.00353878
486	0.00360431
498	0.00865036
510	0.0125168
522	0.021757
534	0.0361087
546	0.0629117
558	0.0359121
570	0.00845376
582	0.00439071
594	0.0059635
606	0.0147449
618	0.0166454
630	0.0214948
642	0.00393198
654	0.0136309
666	0.0268685
678	0.0404339
690	0.165143
702	0.330024
714	0.103214
726	0.0648777
738	0.0870278
750	0.137292
762	0.133622
774	0.0603559
786	0.0219536
798	0.0061601
810	0.00583244
822	0.00491498
834	0.00308005
846	0.00314558
858	0.0065533
870	0.0105508
882	0.016842
894	0.028769
906	0.0450867
918	0.0319146
930	0.0157279
942	0.0237229
954	0.0275894
966	0.0389266
978	0.0574724
990	0.0870278
1002	0.145483
1014	0.190439
1026	0.228645
1038	0.220453
1050	0.150071
1062	0.100528
1074	0.0836201
1086	0.0514434
1098	0.0508536
1110	0.0631083
1122	0.0509847
1134	0.0283758
1146	0.0245093
1158	0.0358466
1170	0.0570137
1182	0.0767391
1194	0.0732659
1206	0.0769357
1218	0.0671713
1230	0.0638947
1242	0.06455
1254	0.0738557
1266	0.09037
1278	0.0980374
1290	0.0931879
1302	0.0951539
1314	0.0825716
1326	0.0795571
1338	0.0758217
1350	0.0827026
1362	0.0971854
1374	0.118877
1386	0.119336
1398	0.0680888
1410	0.0407615
1422	0.0341427
1434	0.0440382
1446	0.0903045
1458	0.134539
1470	0.0944331
1482	0.0537371
1494	0.0760183
1506	0.0306039
1518	0.00969888
1530	0.00904355
1542	0.00792949
1554	0.00380091
1566	0.00308005
1578	0.0063567
1590	0.0143517
1602	0.0321112
1614	0.0149415
1626	0.00294898
1638	0.00137619
1650	0.00065533
1662	0.00222812
1674	0.00209706
1686	0.00530817
1698	0.0230676
1710	0.0225434
1722	0.00681543
1734	0.00609457
1746	0.00701203
1758	0.00491498
1770	0.00321112
1782	0.00308005
1794	0.0106163
1806	0.0138275
1818	0.00484944
1830	0.000851929
1842	0.000131066
1854	0.00203152
1866	0.00661883
1878	0.0102887
1890	0.00976442
1902	0.00353878
1914	0.00183492
1926	0.00425964
1938	0.0117304
1950	0.0152037
1962	0.0112717
1974	0.00294898
1986	0.00170386
1998	0.00150726
2010	0.00131066
2022	0.00183492
2034	0.00176939
2046	0.00157279
2058	0.000917462
2070	0.000458731
2082	0.000524264
2094	0.000327665
2106	0.000327665
2118	0.000131066
2130	0
2142	0.000196599
2154	0.000196599
2166	0.000262132
2178	0.00065533
2190	0.000524264
2202	0.000589797
2214	0.000589797
2226	0.000917462
2238	0.00117959
2250	0.00124513
2262	0.00117959
2274	0.00117959
2286	0.00170386
2298	0.00170386
2310	0.00334218
2322	0.00380091
2334	0.00340772
2346	0.00347325
2358	0.00183492
2370	0.00235919
2382	0.00340772
2394	0.00262132
2406	0.00229365
2418	0.00216259
2430	0.00190046
2442	0.00203152
2454	0.00209706
2466	0.00209706
2478	0.00183492
2490	0.00216259
2502	0.00203152
2514	0.00235919
2526	0.00255579
2538	0.00301452
2550	0.00386645
2562	0.00432518
2574	0.00511157
2586	0.00563584
2598	0.00622564
2610	0.00648777
2622	0.00642223
2634	0.00727416
2646	0.00727416
2658	0.00760183
2670	0.00838822
2682	0.00904355
2694	0.00891249
2706	0.00917462
2718	0.00963335
2730	0.0108785
2742	0.0134998
2754	0.0133687
2766	0.0132377
2778	0.0154003
2790	0.0186769
2802	0.0240506
2814	0.0301452
2826	0.0389266
2838	0.0560962
2850	0.100134
2862	0.211934
2874	0.343721
2886	0.333039
2898	0.226744
2910	0.248763
2922	0.369868
2934	0.552705
2946	0.627937
2958	0.430421
2970	0.558341
2982	0.234412
2994	0.0865691
3006	0.0683509
3018	0.0801469
3030	0.161408
3042	0.173925
3054	0.104263
3066	0.153478
3078	0.190439
3090	0.112192
3102	0.0703824
3114	0.0391232
3126	0.0182182
3138	0.00924015
3150	0.00740523
3162	0.0071431
3174	0.00688096
3186	0.00511157
3198	0.00393198
3210	0.00314558
3222	0.00183492
3234	0.00183492
3246	0.00117959
3258	0.000720863
3270	0.000589797
3282	0.000786396
3294	0.000393198
3306	0.000720863
3318	0.000917462
3330	0.000786396
3342	0.00163832
3354	0.00183492
3366	0.00242472
3378	0.00301452
3390	0.00288345
3402	0.00321112
3414	0.00262132
3426	0.00268685
3438	0.00255579
3450	0.00262132
3462	0.00242472
3474	0.00203152
3486	0.00176939
3498	0.00176939
3510	0.00157279
3522	0.00137619
3534	0.00104853
3546	0.000982995
3558	0.00117959
3570	0.00137619
3582	0.00235919
3594	0.00275239
3606	0.00314558
3618	0.00688096
3630	0.018939
3642	0.0838167
3654	0.0945641
3666	0.032832
3678	0.00924015
3690	0.00550477
3702	0.00353878
3714	0.00262132
3726	0.00209706
3738	0.00131066
3750	0.000720863
3762	0.00268685
3774	0.00203152
3786	0.00176939
3798	0.00157279
3810	0.00235919
3822	0.00209706
3834	0.00308005
3846	0.00249025
3858	0.00353878
3870	0.00281792
3882	0.00327665
3894	0.00288345
3906	0.00268685
3918	0.00268685
3930	0.00216259
3942	0.00196599
3954	0.00190046
3966	0.000982995
