Infrared Spectrum: Benzene, 1-bromo-2-iodo-
Formula: C 6 H 4 Br I
CAS: 583-55-1
Origin: Sadtler Research Labs Under US-EPA Contract
1/CM	ABSORBANCE
450	0.032276
462	0.0290684
474	0.0191117
486	0.000133648
498	0.00888759
510	0.00654875
522	0.00968948
534	0.0263955
546	0.0302044
558	0.0229875
570	0.0231211
582	0.0213837
594	0.0244576
606	0.0114937
618	0.013298
630	0.0668908
642	0.112732
654	0.0218514
666	0.0219183
678	0.0364859
690	0.112064
702	0.105983
714	0.0334788
726	0.0405622
738	0.40649
750	0.407693
762	0.0348153
774	0.0175079
786	0.0114937
798	0.0207154
810	0.012897
822	0.0166392
834	0.0138326
846	0.020114
858	0.0174411
870	0.0150354
882	0.0138326
894	0.0111596
906	0.0107587
918	0.0149018
930	0.0108923
942	0.0229206
954	0.0141667
966	0.0234552
978	0.0339466
990	0.0413641
1002	0.368133
1014	0.22239
1026	0.0807902
1038	0.0864703
1050	0.0309395
1062	0.01557
1074	0.0195794
1086	0.0686282
1098	0.14728
1110	0.0721699
1122	0.0287343
1134	0.0207154
1146	0.0166392
1158	0.015169
1170	0.0136321
1182	0.00781841
1194	0.00815253
1206	0.0100904
1218	0.0146345
1230	0.0211832
1242	0.0191785
1254	0.0726377
1266	0.0241903
1278	0.0126966
1290	0.00995678
1302	0.0143003
1314	0.0102909
1326	0.0100236
1338	0.0223192
1350	0.0169733
1362	0.0138326
1374	0.0194458
1386	0.0259945
1398	0.0255268
1410	0.0411636
1422	0.171136
1434	0.265893
1446	0.296699
1458	0.174143
1470	0.0864034
1482	0.021651
1494	0.0215842
1506	0.0159041
1518	0.0153695
1530	0.0116942
1542	0.0233216
1554	0.0593397
1566	0.108923
1578	0.0446384
1590	0.035684
1602	0.0366864
1614	0.0136989
1626	0.011761
1638	0.0142335
1650	0.0154363
1662	0.0119615
1674	0.0175747
1686	0.0243908
1698	0.0149686
1710	0.0136989
1722	0.0137657
1734	0.0128302
1746	0.00948901
1758	0.0102909
1770	0.0116274
1782	0.018978
1794	0.0240566
1806	0.0135653
1818	0.0160378
1830	0.0167728
1842	0.00902124
1854	0.0102909
1866	0.0120951
1878	0.0153695
1890	0.0127634
1902	0.0187107
1914	0.0292021
1926	0.015169
1938	0.0183766
1950	0.0233884
1962	0.012162
1974	0.0110928
1986	0.0109591
1998	0.0104245
2010	0.0122288
2022	0.0105582
2034	0.00955583
2046	0.0100236
2058	0.00988995
2070	0.00962266
2082	0.00962266
2094	0.0101572
2106	0.00955583
2118	0.00962266
2130	0.00955583
2142	0.00902124
2154	0.0080857
2166	0.00868712
2178	0.00828618
2190	0.008353
2202	0.0086203
2214	0.00841982
2226	0.00962266
2238	0.00968948
2250	0.0100904
2262	0.0101572
2274	0.00962266
2286	0.00915489
2298	0.00461086
2310	6.6824e-05
2322	0.00227202
2334	0.00601416
2346	0.00681605
2358	0.00354167
2370	0.00988995
2382	0.00788523
2394	0.00948901
2406	0.0097563
2418	0.011761
2430	0.0100904
2442	0.00935536
2454	0.00948901
2466	0.00848665
2478	0.00841982
2490	0.00902124
2502	0.010625
2514	0.0122288
2526	0.0104914
2538	0.00908806
2550	0.0100904
2562	0.011761
2574	0.0112264
2586	0.00781841
2598	0.00828618
2610	0.00748429
2622	0.00748429
2634	0.00708334
2646	0.00681605
2658	0.00775158
2670	0.00815253
2682	0.00882077
2694	0.00948901
2706	0.008353
2718	0.0080857
2730	0.00828618
2742	0.00781841
2754	0.00674922
2766	0.00795206
2778	0.00775158
2790	0.00775158
2802	0.00728382
2814	0.00801888
2826	0.00788523
2838	0.00735064
2850	0.00828618
2862	0.00721699
2874	0.0069497
2886	0.0066824
2898	0.00574686
2910	0.0064151
2922	0.00701652
2934	0.00755111
2946	0.00788523
2958	0.00781841
2970	0.00962266
2982	0.00968948
2994	0.00795206
3006	0.00708334
3018	0.00761794
3030	0.00708334
3042	0.00962266
3054	0.0354167
3066	0.139261
3078	0.100102
3090	0.0392925
3102	0.0119615
3114	0.0169733
3126	0.0263955
3138	0.013298
3150	0.00681605
3162	0.00634828
3174	0.00628146
3186	0.00601416
3198	0.00601416
3210	0.00594734
3222	0.00654875
3234	0.00601416
3246	0.00534592
3258	0.00534592
3270	0.00521227
3282	0.00507862
3294	0.00441038
3306	0.00494498
3318	0.00400944
3330	0.00568004
3342	0.00407626
3354	0.00507862
3366	0.00481133
3378	0.00467768
3390	0.00387579
3402	0.00387579
3414	0.00367532
3426	0.00521227
3438	0.0052791
3450	0.00454403
3462	0.0047445
3474	0.00454403
3486	0.00434356
3498	0.00461086
3510	0.00407626
3522	0.0036085
3534	0.00374214
3546	0.00300708
3558	0.00320755
3570	0.00233884
3582	0.00273978
3594	0.00314073
3606	0.0016706
3618	0.00106918
3630	0.00514545
3642	0.00160378
3654	0.0066824
3666	0.00160378
3678	0.00374214
3690	0.00414309
3702	0.00414309
3714	0.00494498
3726	0.00314073
3738	0.00227202
3750	0.00855347
3762	0.00126966
3774	0.0019379
3786	0.0019379
3798	0.00220519
3810	0.000400944
3822	0.00400944
3834	0.00300708
3846	0.00173742
3858	0.00634828
3870	0.00267296
3882	0.00153695
3894	0.00066824
3906	0.00407626
3918	0.0036085
3930	0.000200472
3942	0.00120283
3954	0.00427674
3966	6.6824e-05
