Infrared Spectrum: Benzene, 1-bromo-2-ethoxy-
Formula: C 8 H 9 Br O
CAS: 583-19-7
Origin: Sadtler Research Labs Under US-EPA Contract
1/CM	ABSORBANCE
450	0.0234561
462	0.0241419
474	0.0122081
486	0.0126196
498	0.0112479
510	0.00987624
522	0.0116594
534	0.0157745
546	0.0131683
558	0.0108364
570	0.0111108
582	0.0246906
594	0.0364872
606	0.0159117
618	0.00054868
630	0.00192038
642	0.0185179
654	0.111931
666	0.144577
678	0.0547308
690	0.0152259
702	0.0271597
714	0.0850454
726	0.0883375
738	0.358425
750	0.672956
762	0.165701
774	0.0430714
786	0.03635
798	0.0430714
810	0.0401908
822	0.0187923
834	0.0113851
846	0.012071
858	0.012071
870	0.0119338
882	0.0172834
894	0.0422484
906	0.103015
918	0.126059
930	0.118789
942	0.0430714
954	0.0127568
966	0.00919039
978	0.012071
990	0.0203012
1002	0.042797
1014	0.114674
1026	0.454581
1038	0.770072
1050	0.713284
1062	0.628513
1074	0.170365
1086	0.141285
1098	0.168308
1110	0.163507
1122	0.230857
1134	0.191626
1146	0.0511644
1158	0.0784612
1170	0.0477352
1182	0.0200268
1194	0.0194781
1206	0.0364872
1218	0.110559
1230	0.409452
1242	1.00024
1254	0.999558
1266	0.77501
1278	0.771856
1290	0.554441
1302	0.368164
1314	0.150064
1326	0.0407395
1338	0.0246906
1350	0.0212613
1362	0.0481467
1374	0.082302
1386	0.214122
1398	0.288331
1410	0.107541
1422	0.0658416
1434	0.149515
1446	0.338261
1458	0.238676
1470	0.96115
1482	1.27664
1494	0.398205
1506	0.122081
1518	0.046775
1530	0.0297659
1542	0.0345668
1554	0.0423855
1566	0.103152
1578	0.256371
1590	0.462263
1602	0.191764
1614	0.0259251
1626	0.0174206
1638	0.0131683
1650	0.0144028
1662	0.00905322
1674	0.0165976
1686	0.0141285
1698	0.0119338
1710	0.00480095
1722	0.00713284
1734	0.0113851
1746	0.00891605
1758	0.0119338
1770	0.012071
1782	0.00713284
1794	0.00877888
1806	0.00534963
1818	0.00315491
1830	0.00562397
1842	0.00768152
1854	0.00905322
1866	0.00740718
1878	0.0101506
1890	0.0234561
1902	0.0135798
1914	0.0105621
1926	0.0223587
1938	0.015363
1950	0.00603548
1962	0.00521246
1974	0.00466378
1986	0.00370359
1998	0.00356642
2010	0.00425227
2022	0.00589831
2034	0.0068585
2046	0.0108364
2058	0.012894
2070	0.01454
2082	0.013717
2094	0.00919039
2106	0.00507529
2118	0.00329208
2130	0.00288057
2142	0.00246906
2154	0.00233189
2166	0.00233189
2178	0.00164604
2190	0.00068585
2202	0.00096019
2214	0.00054868
2226	0
2238	0.00068585
2250	0.00219472
2262	0.00246906
2274	0.00219472
2286	0.00342925
2298	0.00480095
2310	0.00507529
2322	0.00425227
2334	0.00205755
2346	0.00041151
2358	0.00192038
2370	0.0013717
2382	0.00466378
2394	0.00617265
2406	0.00644699
2418	0.00589831
2430	0.00534963
2442	0.00493812
2454	0.00452661
2466	0.00603548
2478	0.0082302
2490	0.00919039
2502	0.0101506
2514	0.0117966
2526	0.0157745
2538	0.0198896
2550	0.019341
2562	0.0149515
2574	0.0111108
2586	0.0068585
2598	0.0054868
2610	0.00603548
2622	0.0054868
2634	0.00384076
2646	0.0027434
2658	0.00260623
2670	0.00288057
2682	0.00329208
2694	0.00397793
2706	0.00480095
2718	0.00781869
2730	0.0139913
2742	0.0149515
2754	0.0144028
2766	0.0134427
2778	0.0144028
2790	0.0138542
2802	0.0134427
2814	0.0171462
2826	0.0242791
2838	0.0279827
2850	0.0375846
2862	0.0559654
2874	0.0969792
2886	0.189295
2898	0.198896
2910	0.178458
2922	0.208224
2934	0.216317
2946	0.247318
2958	0.171874
2970	0.152259
2982	0.299305
2994	0.459794
3006	0.178733
3018	0.0877888
3030	0.0785984
3042	0.0593946
3054	0.0577486
3066	0.138405
3078	0.265973
3090	0.132643
3102	0.0628239
3114	0.0168719
3126	0.0096019
3138	0.0096019
3150	0.00946473
3162	0.00713284
3174	0.00562397
3186	0.00466378
3198	0.00397793
3210	0.00438944
3222	0.00438944
3234	0.00329208
3246	0.00192038
3258	0.00123453
3270	0.00123453
3282	0.0013717
3294	0.00123453
3306	0.00123453
3318	0.00123453
3330	0.00109736
3342	0.00164604
3354	0.00205755
3366	0.00205755
3378	0.00123453
3390	0.00123453
3402	0.00123453
3414	0.00054868
3426	0.00096019
3438	0.00123453
3450	0.00123453
3462	0.00164604
3474	0.0013717
3486	0.0013717
3498	0.0013717
3510	0.00082302
3522	0.00150887
3534	0.00096019
3546	0.00068585
3558	0.00123453
3570	0.00027434
3582	0.00205755
3594	0.00096019
3606	0.00096019
3618	0.00054868
3630	0.00054868
3642	0.0013717
3654	0.0013717
3666	0.00164604
3678	0.00246906
3690	0.00288057
3702	0.0013717
3714	0.00260623
3726	0.00192038
3738	0.00219472
3750	0.00356642
3762	0.00288057
3774	0.00178321
3786	0.00178321
3798	0.00192038
3810	0.00178321
3822	0.00219472
3834	0.0013717
3846	0.00192038
3858	0.00192038
3870	0.00315491
3882	0.00178321
3894	0.00096019
3906	0.00041151
3918	0.00027434
3930	0.00109736
3942	0.00096019
3954	0.00082302
3966	0.00123453
