Infrared Spectrum: Benzenamine, 2-bromo-4-methyl-
Formula: C 7 H 8 Br N
CAS: 583-68-6
Origin: Sadtler Research Labs Under US-EPA Contract
1/CM	ABSORBANCE
450	0.0409571
462	0.0399148
474	0.0247091
486	0.0175968
498	0.0175968
510	0.0163093
522	0.0166158
534	0.0361134
546	0.0710618
558	0.0343353
570	0.0203559
582	0.00956483
594	0.0113429
606	0.0127531
618	0.0194975
630	0.0475176
642	0.0765186
654	0.0808105
666	0.122074
678	0.141633
690	0.0897009
702	0.103619
714	0.0808718
726	0.0534036
738	0.0413863
750	0.0413863
762	0.0567758
774	0.0465979
786	0.0328025
798	0.11441
810	0.160824
822	0.0690384
834	0.0268551
846	0.0238508
858	0.0554883
870	0.0778675
882	0.0419381
894	0.00496635
906	0.00110363
918	0.0014102
930	0.00374009
942	0.0033109
954	0.00435322
966	0.00931958
978	0.0210917
990	0.0355615
1002	0.0163093
1014	0.00600867
1026	0.0177195
1038	0.0868805
1050	0.0624166
1062	0.0258741
1074	0.0334769
1086	0.029185
1098	0.017229
1110	0.0137954
1122	0.0135502
1134	0.0161866
1146	0.0381367
1158	0.061313
1170	0.0157574
1182	0.00545686
1194	0.0186392
1206	0.0453103
1218	0.0332316
1230	0.0120173
1242	0.0163706
1254	0.0413863
1266	0.0434096
1278	0.0380141
1290	0.163154
1302	0.18351
1314	0.0863287
1326	0.00981008
1338	0.00226858
1350	0.00711231
1362	0.00515029
1374	0.0056408
1386	0.00962614
1398	0.0183326
1410	0.0380141
1422	0.0371557
1434	0.019988
1446	0.0142859
1458	0.0163093
1470	0.0342127
1482	0.0671377
1494	0.244148
1506	0.61313
1518	0.27223
1530	0.0450651
1542	0.0331703
1554	0.0374009
1566	0.0451877
1578	0.049173
1590	0.0608225
1602	0.109996
1614	0.186269
1626	0.351385
1638	0.223854
1650	0.061313
1662	0.0255675
1674	0.0114042
1686	0.00656049
1698	0.00318828
1710	0.00588605
1722	0.0118334
1734	0.0144699
1746	0.00839988
1758	0.00680574
1770	0.00312696
1782	0.000735756
1794	0.00275909
1806	0.0047211
1818	0.00196202
1830	0.000245252
1842	0.000429191
1854	0.00588605
1866	0.0125079
1878	0.00600867
1890	0.00147151
1902	0.00165545
1914	0.00232989
1926	0.00257515
1938	0.00312696
1950	0.00380141
1962	0.00410797
1974	0.00349484
1986	0.00288171
1998	0.00263646
2010	0.00202333
2022	0.000674443
2034	0.00165545
2046	0.00257515
2058	0.00380141
2070	0.00257515
2082	0.00208464
2094	0.00214596
2106	0.00153283
2118	0.000919695
2130	0.000735756
2142	0.00183939
2154	0.00214596
2166	0.00239121
2178	0.0019007
2190	0.00196202
2202	0.00122626
2214	0.00104232
2226	0.00104232
2238	0.00153283
2250	0.00153283
2262	0.00104232
2274	0.00110363
2286	0.00165545
2298	0.00220727
2310	0.00312696
2322	0.00349484
2334	0.00410797
2346	0.00374009
2358	0.00392403
2370	0.00159414
2382	0.00275909
2394	0.00202333
2406	0.000919695
2418	0.000919695
2430	0.00104232
2442	0.000735756
2454	0.000551817
2466	0.00110363
2478	0.00122626
2490	0.00116495
2502	0.00116495
2514	0.00177808
2526	0.00177808
2538	0.00263646
2550	0.00380141
2562	0.00392403
2574	0.00294302
2586	0.00343353
2598	0.00576342
2610	0.00404666
2622	0.00269777
2634	0.00220727
2646	0.00239121
2658	0.00306565
2670	0.0033109
2682	0.00232989
2694	0.00202333
2706	0.00251383
2718	0.00288171
2730	0.00337222
2742	0.007051
2754	0.00723493
2766	0.00318828
2778	0.00257515
2790	0.00361747
2802	0.00465979
2814	0.0047211
2826	0.00521161
2838	0.00809332
2850	0.0155122
2862	0.0353163
2874	0.0658502
2886	0.0626006
2898	0.0509511
2910	0.0527905
2922	0.082466
2934	0.127041
2946	0.0837536
2958	0.0388111
2970	0.0256288
2982	0.0296142
2994	0.0448811
3006	0.0572663
3018	0.0722267
3030	0.100983
3042	0.0766412
3054	0.0753537
3066	0.0518095
3078	0.0312696
3090	0.0199267
3102	0.0104845
3114	0.00741887
3126	0.00392403
3138	0.00355615
3150	0.00202333
3162	0.00159414
3174	0.00306565
3186	0.00429191
3198	0.00484373
3210	0.00508898
3222	0.00349484
3234	0.00343353
3246	0.00177808
3258	0.00128757
3270	0.00104232
3282	0.00116495
3294	0.000919695
3306	0
3318	0
3330	0.00104232
3342	0.00177808
3354	0.00177808
3366	0.00349484
3378	0.00870645
3390	0.0290624
3402	0.0716136
3414	0.0695903
3426	0.0273456
3438	0.00570211
3450	0.00545686
3462	0.00974877
3474	0.0235442
3486	0.0559175
3498	0.0690998
3510	0.0617422
3522	0.0330477
3534	0.00870645
3546	0.00263646
3558	0.0014102
3570	0.00196202
3582	0.00196202
3594	0.00128757
3606	0.00232989
3618	0.0028204
3630	0.00288171
3642	0.000367878
3654	0.00134889
3666	0.00288171
3678	0.00306565
3690	0.000981008
3702	0.00134889
3714	0.00294302
3726	0.0028204
3738	0.0028204
3750	0.00275909
3762	0.00251383
3774	0.000183939
3786	0.000551817
3798	0.00202333
3810	0.00306565
3822	0.0042306
3834	0.0056408
3846	0.00748019
3858	0.00600867
3870	0.00367878
3882	0.0033109
3894	0.00294302
3906	0.00398535
3918	0.00447585
3930	0.00606999
3942	0.00729625
3954	0.007051
3966	0.00380141
