Infrared Spectrum: Benzoic acid, p-benzylthio-, ethyl ester
Formula: C 16 H 16 O 2 S
CAS: 58324-80-4
Origin: Sadtler Research Labs Under US-EPA Contract
1/CM	ABSORBANCE
450	0
462	0.0156298
474	0.0214806
486	0.0162567
498	0.0157134
510	0.0128716
522	0.0129134
534	0.010197
546	0.010991
558	0.010991
570	0.0134149
582	0.0113672
594	0.00915223
606	0.0123701
618	0.0122866
630	0.0136239
642	0.0121194
654	0.0143343
666	0.0173851
678	0.0291283
690	0.0542447
702	0.0604298
714	0.0344776
726	0.026788
738	0.0226507
750	0.0329313
762	0.0603462
774	0.0292537
786	0.0176358
798	0.015797
810	0.0186388
822	0.0188477
834	0.0212716
846	0.0328477
858	0.023403
870	0.015588
882	0.0136239
894	0.0131224
906	0.0131224
918	0.0135403
930	0.0108657
942	0.0103642
954	0.0109492
966	0.0117433
978	0.0125373
990	0.0141671
1002	0.0205194
1014	0.0549134
1026	0.0576716
1038	0.0249074
1050	0.0193492
1062	0.0240298
1074	0.036191
1086	0.0714208
1098	0.158764
1110	0.276406
1122	0.110036
1134	0.0403701
1146	0.0269134
1158	0.0292537
1170	0.0481432
1182	0.0834148
1194	0.0344776
1206	0.0275821
1218	0.035188
1230	0.0626029
1242	0.0654865
1254	0.117391
1266	0.364585
1278	0.373695
1290	0.0820775
1302	0.0434208
1314	0.0373612
1326	0.0234448
1338	0.0192657
1350	0.0196418
1362	0.0272477
1374	0.0414985
1386	0.026788
1398	0.0392
1410	0.0254089
1422	0.0220656
1434	0.0208119
1446	0.0261612
1458	0.028
1470	0.0279582
1482	0.0291283
1494	0.0406209
1506	0.018597
1518	0.0119522
1530	0.0114089
1542	0.0118269
1554	0.0157552
1566	0.0201851
1578	0.0241552
1590	0.0654029
1602	0.065779
1614	0.0235283
1626	0.0143761
1638	0.0124119
1650	0.0129134
1662	0.0142925
1674	0.0154209
1686	0.0179701
1698	0.0238627
1710	0.0405791
1722	0.0768119
1734	0.197671
1746	0.178824
1758	0.0472238
1770	0.0214806
1782	0.0166328
1794	0.0167582
1806	0.0142925
1818	0.010991
1830	0.00952835
1842	0.00890148
1854	0.00898507
1866	0.00923581
1878	0.00998805
1890	0.0103224
1902	0.00965372
1914	0.0102806
1926	0.0107821
1938	0.0113672
1950	0.0109492
1962	0.0105731
1974	0.00931939
1986	0.00877611
1998	0.00823283
2010	0.00798208
2022	0.0083582
2034	0.0083582
2046	0.00823283
2058	0.00794029
2070	0.00802387
2082	0.00819104
2094	0.00819104
2106	0.00852536
2118	0.0088179
2130	0.00856715
2142	0.00785671
2154	0.00752238
2166	0.00777313
2178	0.00768954
2190	0.00764775
2202	0.00748059
2214	0.00773133
2226	0.00794029
2238	0.00819104
2250	0.00839999
2262	0.00844178
2274	0.00819104
2286	0.00952835
2298	0.0100298
2310	0.0108657
2322	0.0106567
2334	0.0108657
2346	0.0102388
2358	0.0106567
2370	0.0105313
2382	0.0109492
2394	0.00890148
2406	0.00865074
2418	0.00823283
2430	0.00819104
2442	0.00806566
2454	0.00831641
2466	0.00814924
2478	0.00873432
2490	0.00831641
2502	0.00844178
2514	0.00844178
2526	0.00839999
2538	0.00911044
2550	0.00965372
2562	0.00848357
2574	0.00860895
2586	0.00894327
2598	0.00869253
2610	0.00902686
2622	0.00906865
2634	0.00911044
2646	0.0088179
2658	0.00856715
2670	0.00898507
2682	0.00911044
2694	0.00869253
2706	0.0097373
2718	0.010197
2730	0.0102388
2742	0.010197
2754	0.0101134
2766	0.00977909
2778	0.0100716
2790	0.0109075
2802	0.0115343
2814	0.0122448
2826	0.012203
2838	0.0124955
2850	0.014
2862	0.015588
2874	0.015797
2886	0.0183045
2898	0.0184298
2910	0.0227761
2922	0.0288358
2934	0.0323462
2946	0.0357313
2958	0.029588
2970	0.0329731
2982	0.0456776
2994	0.0412477
3006	0.0283761
3018	0.0250328
3030	0.0303821
3042	0.0323044
3054	0.0223582
3066	0.0294209
3078	0.0354806
3090	0.0278746
3102	0.0196
3114	0.0149612
3126	0.0112836
3138	0.0102388
3150	0.0097373
3162	0.00944477
3174	0.00936118
3186	0.00885969
3198	0.00902686
3210	0.00944477
3222	0.00919402
3234	0.00869253
3246	0.00906865
3258	0.00877611
3270	0.00894327
3282	0.00885969
3294	0.00848357
3306	0.00944477
3318	0.00865074
3330	0.00944477
3342	0.00906865
3354	0.00957014
3366	0.00902686
3378	0.00877611
3390	0.00915223
3402	0.00827462
3414	0.0088179
3426	0.00844178
3438	0.00865074
3450	0.00906865
3462	0.00948656
3474	0.00856715
3486	0.00869253
3498	0.00806566
3510	0.00839999
3522	0.00852536
3534	0.00869253
3546	0.00961193
3558	0.00906865
3570	0.00810745
3582	0.00936118
3594	0.00986268
3606	0.00848357
3618	0.00877611
3630	0.00931939
3642	0.00936118
3654	0.0097373
3666	0.00827462
3678	0.00965372
3690	0.00877611
3702	0.00923581
3714	0.00957014
3726	0.00998805
3738	0.0097373
3750	0.00931939
3762	0.00865074
3774	0.0101552
3786	0.00814924
3798	0.0092776
3810	0.00873432
3822	0.00994626
3834	0.00936118
3846	0.0074388
3858	0.00798208
3870	0.00806566
3882	0.00781492
3894	0.0088179
3906	0.0108657
3918	0.00806566
3930	0.00894327
3942	0.00814924
3954	0.00844178
3966	0.00865074
