Infrared Spectrum: Benzene, 2,4-diisocyanato-1-methyl-
Formula: C 9 H 6 N 2 O 2
CAS: 584-84-9
Origin: Sadtler Research Labs Under US-EPA Contract
1/CM	ABSORBANCE
450	0.00506868
462	0.00617963
474	0.00263849
486	0.00194415
498	0.00486038
510	0.00555472
522	0.00590189
534	0.00583246
546	0.00569359
558	0.0065268
570	0.0122204
582	0.0113872
594	0.0176362
606	0.0154143
618	0.0141645
630	0.012637
642	0.013123
654	0.00992906
666	0.00763774
678	0.00826265
690	0.00777661
702	0.00979019
714	0.00736
726	0.0071517
738	0.00791548
750	0.00756831
762	0.00701283
774	0.00451321
786	0.00666566
798	0.0106928
810	0.0186083
822	0.00985963
834	0.00520755
846	0.00881812
858	0.0130536
870	0.0154143
882	0.0136091
894	0.0222189
906	0.0177057
918	0.00687397
930	0.00687397
942	0.00597132
954	0.00555472
966	0.00548529
978	0.00617963
990	0.00874868
1002	0.00819321
1014	0.00631849
1026	0.0065268
1038	0.00624906
1050	0.00569359
1062	0.00833208
1074	0.0187472
1086	0.0099985
1098	0.0065268
1110	0.00770717
1122	0.0120815
1134	0.00979019
1146	0.00798491
1158	0.00944302
1170	0.00860982
1182	0.00777661
1194	0.00729057
1206	0.00729057
1218	0.00611019
1230	0.00534642
1242	0.00499925
1254	0.00562415
1266	0.00763774
1278	0.00576302
1290	0.00597132
1302	0.00555472
1314	0.00506868
1326	0.00541585
1338	0.00451321
1350	0.00479095
1362	0.00444378
1374	0.00534642
1386	0.00638793
1398	0.00631849
1410	0.00583246
1422	0.00520755
1434	0.00624906
1446	0.00819321
1458	0.00854038
1470	0.00951246
1482	0.01104
1494	0.0131925
1506	0.0186777
1518	0.03312
1530	0.0377027
1542	0.0200664
1554	0.0132619
1566	0.0186083
1578	0.0263155
1590	0.0225661
1602	0.0232604
1614	0.0443683
1626	0.0349253
1638	0.00833208
1650	0.00416604
1662	0.00402717
1674	0.00319396
1686	0.00291623
1698	0.0030551
1710	0.00298566
1722	0.00354113
1734	0.00298566
1746	0.00291623
1758	0.00284679
1770	0.00284679
1782	0.00312453
1794	0.00277736
1806	0.00284679
1818	0.00312453
1830	0.0030551
1842	0.00263849
1854	0.00263849
1866	0.00361057
1878	0.00354113
1890	0.00312453
1902	0.00291623
1914	0.00298566
1926	0.00256906
1938	0.00243019
1950	0.00277736
1962	0.00236076
1974	0.00284679
1986	0.00222189
1998	0.00229132
2010	0.00270793
2022	0.00277736
2034	0.00319396
2046	0.00319396
2058	0.00368
2070	0.00354113
2082	0.00409661
2094	0.00444378
2106	0.00458264
2118	0.00638793
2130	0.00930416
2142	0.0123593
2154	0.0163864
2166	0.0190943
2178	0.0220106
2190	0.0279819
2202	0.038883
2214	0.0586717
2226	0.0883895
2238	0.129078
2250	0.188583
2262	0.376679
2274	0.69434
2286	0.475415
2298	0.22448
2310	0.102137
2322	0.0677676
2334	0.0529087
2346	0.0444378
2358	0.0428408
2370	0.0386747
2382	0.0286762
2394	0.0183306
2406	0.01104
2418	0.00749887
2430	0.00617963
2442	0.00472151
2454	0.00409661
2466	0.00298566
2478	0.00249962
2490	0.00166642
2502	0.00194415
2514	0.00152755
2526	0.00138868
2538	0.00180528
2550	0.00138868
2562	0.00131925
2574	0.00180528
2586	0.00131925
2598	0.00131925
2610	0.00124981
2622	0.00069434
2634	0.000763774
2646	0.000972076
2658	0.00111094
2670	0.00104151
2682	0.00159698
2694	0.00173585
2706	0.00152755
2718	0.000972076
2730	0.000902642
2742	0.000833208
2754	0.00104151
2766	0.000902642
2778	0.000277736
2790	0.000833208
2802	0.000763774
2814	0.000833208
2826	0.000833208
2838	0.000902642
2850	0.000902642
2862	0.00187472
2874	0.00256906
2886	0.00243019
2898	0.00291623
2910	0.0030551
2922	0.00291623
2934	0.00638793
2946	0.00548529
2958	0.00416604
2970	0.00409661
2982	0.00458264
2994	0.00465208
3006	0.00312453
3018	0.00319396
3030	0.00312453
3042	0.0030551
3054	0.00277736
3066	0.00368
3078	0.00340227
3090	0.00187472
3102	0.00180528
3114	0.000833208
3126	0.000972076
3138	0.000902642
3150	0.00104151
3162	0.00194415
3174	0.00256906
3186	0.00194415
3198	0.00104151
3210	0.00111094
3222	0.00104151
3234	0.000833208
3246	0.00118038
3258	0.000555472
3270	0.00124981
3282	0.00124981
3294	0.000972076
3306	0.00111094
3318	0.00131925
3330	0.00124981
3342	0.00138868
3354	0.00145811
3366	0.00145811
3378	0.00194415
3390	0.00194415
3402	0.00236076
3414	0.00236076
3426	0.00201359
3438	0.00249962
3450	0.00194415
3462	0.00152755
3474	0.00159698
3486	0.00166642
3498	0.00173585
3510	0.00138868
3522	0.00145811
3534	0.00118038
3546	0.00118038
3558	0.00138868
3570	0.00124981
3582	0.00131925
3594	0.00138868
3606	0.00131925
3618	0.00152755
3630	0.000763774
3642	0.00229132
3654	0.00194415
3666	0.00256906
3678	0.00215245
3690	0.00201359
3702	0.00354113
3714	0.00298566
3726	0.00243019
3738	0.00263849
3750	0.00208302
3762	0.00361057
3774	0.00374944
3786	0.00381887
3798	0.00402717
3810	0.00416604
3822	0.00319396
3834	0.00312453
3846	0.00333283
3858	0.00236076
3870	0.00277736
3882	0.00243019
3894	0.00243019
3906	0.00270793
3918	0.00243019
3930	0.00243019
3942	0.00249962
3954	0
3966	0.000208302
