Infrared Spectrum: Benzene, 1-bromo-2,4-dinitro-
Formula: C 6 H 3 Br N 2 O 4
CAS: 584-48-5
Origin: Sadtler Research Labs Under US-EPA Contract
1/CM	ABSORBANCE
450	0.0092899
462	0.015607
474	0.0300993
486	0.046914
498	0.0167218
510	0.00854671
522	0.00789642
534	0.00111479
546	0.00185798
558	0.00204378
570	0.00380886
582	0.00287987
594	0.00185798
606	0.00157928
618	0.00195088
630	0
642	0.00306567
654	0.0199733
666	0.0255472
678	0.00603843
690	0.00836091
702	0.010126
714	0.0109621
726	0.0751553
738	0.210881
750	0.0689311
762	0.0209952
774	0.00585264
786	0.00297277
798	0.00445915
810	0.0089183
822	0.0528595
834	0.221471
846	0.0345584
858	0.00798931
870	0.00771062
882	0.0126343
894	0.0341868
906	0.125228
918	0.110364
930	0.0097544
942	0.00306567
954	0.00213668
966	0.00148638
978	0.00176508
990	0.00195088
1002	0.00353016
1014	0.00882541
1026	0.0466353
1038	0.200197
1050	0.0547175
1062	0.0130059
1074	0.00808221
1086	0.0135633
1098	0.0143064
1110	0.00529524
1122	0.00659583
1134	0.0130059
1146	0.0173721
1158	0.0175579
1170	0.00668873
1182	0.00650293
1194	0.00845381
1206	0.00631713
1218	0.00520234
1230	0.00845381
1242	0.0460779
1254	0.0356732
1266	0.016536
1278	0.0205307
1290	0.0261046
1302	0.0382744
1314	0.0751553
1326	0.143993
1338	0.391291
1350	0.920165
1362	0.323753
1374	0.0732044
1386	0.06345
1398	0.0635429
1410	0.0368809
1422	0.0280555
1434	0.0314928
1446	0.0365093
1458	0.0796144
1470	0.0751553
1482	0.0353945
1494	0.0588051
1506	0.0997735
1518	0.10256
1530	0.185334
1542	0.560367
1554	0.92899
1566	0.529246
1578	0.235963
1590	0.331185
1602	0.427986
1614	0.142972
1626	0.0371596
1638	0.0287987
1650	0.0261975
1662	0.0147709
1674	0.0117982
1686	0.0096615
1698	0.0104047
1710	0.00585264
1722	0.00408756
1734	0.00603843
1746	0.00436625
1758	0.00232248
1770	0.00362306
1782	0.00371596
1794	0.00826801
1806	0.00668873
1818	0.00501655
1830	0.00371596
1842	0.00195088
1854	0.000650293
1866	0.00148638
1878	0.00092899
1890	0.00148638
1902	0.00130059
1914	0.00380886
1926	0.00696743
1938	0.00315857
1950	0.000464495
1962	0.000557394
1974	0.000371596
1986	0
1998	0.000464495
2010	0.000464495
2022	0.000557394
2034	0.000185798
2046	0.000371596
2058	0.000557394
2070	0.00092899
2082	0.000557394
2094	0.000743192
2106	0.000464495
2118	0.000371596
2130	0.000185798
2142	0
2154	9.2899e-05
2166	0.000185798
2178	0.000185798
2190	0.000371596
2202	0.000185798
2214	9.2899e-05
2226	0.000464495
2238	0.000557394
2250	0.00139349
2262	0.00213668
2274	0.00241537
2286	0.00297277
2298	0.00390176
2310	0.00501655
2322	0.00529524
2334	0.00418046
2346	0.00427335
2358	0.00315857
2370	0.00260117
2382	0.00380886
2394	0.00148638
2406	0.000650293
2418	0.000650293
2430	0.00167218
2442	0.00213668
2454	0.00232248
2466	0.00269407
2478	0.00269407
2490	0.00260117
2502	0.00269407
2514	0.00250827
2526	0.00204378
2538	0.00222958
2550	0.00185798
2562	0.00195088
2574	0.00269407
2586	0.00325147
2598	0.00278697
2610	0.00195088
2622	0.00195088
2634	0.00241537
2646	0.00241537
2658	0.00325147
2670	0.00483075
2682	0.00706032
2694	0.0091041
2706	0.00715322
2718	0.00464495
2730	0.00436625
2742	0.00436625
2754	0.00371596
2766	0.00278697
2778	0.00241537
2790	0.00278697
2802	0.00297277
2814	0.00353016
2826	0.00455205
2838	0.00603843
2850	0.00715322
2862	0.0089183
2874	0.0121698
2886	0.0177437
2898	0.0195088
2910	0.0148638
2922	0.0096615
2934	0.0094757
2946	0.0092899
2958	0.00678163
2970	0.00473785
2982	0.00408756
2994	0.00353016
3006	0.00325147
3018	0.00315857
3030	0.00418046
3042	0.00455205
3054	0.00325147
3066	0.00315857
3078	0.0091041
3090	0.0288916
3102	0.0457992
3114	0.027591
3126	0.00464495
3138	0.00250827
3150	0.00222958
3162	0.00176508
3174	0.00130059
3186	0.000557394
3198	0.00111479
3210	0.00120769
3222	0.000650293
3234	0.00092899
3246	0.00092899
3258	0.000836091
3270	0.00111479
3282	0.000650293
3294	0.000557394
3306	0.000185798
3318	0.000464495
3330	0.000278697
3342	0.000650293
3354	0.000464495
3366	0.000464495
3378	0.000836091
3390	0.000278697
3402	0.00092899
3414	0.00092899
3426	0.00111479
3438	0.000557394
3450	0.000650293
3462	0.00139349
3474	0.00092899
3486	0.000557394
3498	0.000464495
3510	0.00111479
3522	0.00130059
3534	0.00130059
3546	0.00111479
3558	0.000743192
3570	0.00176508
3582	0.00130059
3594	0.00167218
3606	0.00092899
3618	0.00120769
3630	0.00232248
3642	0.00092899
3654	0.000836091
3666	0.00120769
3678	0.00213668
3690	0.00102189
3702	0.00092899
3714	0.00167218
3726	0.00120769
3738	0.00139349
3750	0.00157928
3762	0.00111479
3774	0.00148638
3786	0.00102189
3798	0.000743192
3810	0.00092899
3822	0.00130059
3834	0.00241537
3846	0.00102189
3858	0.00176508
3870	0.00092899
3882	0.00111479
3894	0.00120769
3906	0.00092899
3918	0.00306567
3930	0.00157928
3942	0.00148638
3954	0.00102189
3966	0.00111479
