Infrared Spectrum: 1,2-Butanediol
Formula: C 4 H 10 O 2
CAS: 584-03-2
Origin: Sadtler Research Labs Under US-EPA Contract
1/CM	ABSORBANCE
450	0
462	0.0338988
474	0.0461208
486	0.0566517
498	0.0186789
510	0.0443528
522	0.0598802
534	0.0683357
546	0.0499642
558	0.0352055
570	0.0322077
582	0.0428155
594	0.0359742
606	0.037281
618	0.0351287
630	0.0406632
642	0.0474276
654	0.0504254
666	0.0561905
678	0.0503485
690	0.0391258
702	0.0348212
714	0.0338988
726	0.0294404
738	0.0309009
750	0.0357436
762	0.0435073
774	0.0507329
786	0.0522702
798	0.0425849
810	0.0431229
822	0.0637236
834	0.0885519
846	0.109306
858	0.114149
870	0.0996978
882	0.0970843
894	0.123681
906	0.154889
918	0.158041
930	0.142283
942	0.129061
954	0.17057
966	0.236907
978	0.276648
990	0.29402
1002	0.275802
1014	0.285949
1026	0.368198
1038	0.549914
1050	0.720099
1062	0.746773
1074	0.572743
1086	0.357974
1098	0.280568
1110	0.284412
1122	0.282644
1134	0.232218
1146	0.170647
1158	0.136979
1170	0.136441
1182	0.149431
1194	0.158963
1206	0.168572
1218	0.191171
1230	0.21746
1242	0.212463
1254	0.200318
1266	0.182561
1278	0.167034
1290	0.167342
1302	0.177411
1314	0.171877
1326	0.177411
1338	0.187942
1350	0.19855
1362	0.224762
1374	0.243441
1386	0.248207
1398	0.231988
1410	0.176258
1422	0.12837
1434	0.119837
1446	0.223225
1458	0.296787
1470	0.223302
1482	0.176105
1494	0.141207
1506	0.086169
1518	0.0808651
1530	0.0741776
1542	0.0408169
1554	0.0316696
1566	0.0278262
1578	0.0279031
1590	0.0261351
1602	0.024444
1614	0.0248284
1626	0.0219842
1638	0.0238291
1650	0.0224455
1662	0.0218305
1674	0.0223686
1686	0.0232141
1698	0.022138
1710	0.0194476
1722	0.0202932
1734	0.0214462
1746	0.0198319
1758	0.0202932
1770	0.0201394
1782	0.0196013
1794	0.0190633
1806	0.0185252
1818	0.0189095
1830	0.0189864
1842	0.0196013
1854	0.019217
1866	0.0189095
1878	0.0187558
1890	0.0197551
1902	0.0188327
1914	0.0192939
1926	0.0196013
1938	0.0191401
1950	0.0192939
1962	0.0196013
1974	0.019217
1986	0.0201394
1998	0.0200625
2010	0.0202932
2022	0.0208312
2034	0.022138
2046	0.0229067
2058	0.0229835
2070	0.0235985
2082	0.0251358
2094	0.0239828
2106	0.0218305
2118	0.0215999
2130	0.0206775
2142	0.0198319
2154	0.0199857
2166	0.0192939
2178	0.0190633
2190	0.019217
2202	0.0195245
2214	0.0192939
2226	0.0196782
2238	0.0191401
2250	0.0188327
2262	0.0196013
2274	0.0192939
2286	0.0204469
2298	0.021523
2310	0.0227529
2322	0.0235985
2334	0.0215999
2346	0.0193707
2358	0.0261351
2370	0.0185252
2382	0.0185252
2394	0.021523
2406	0.0227529
2418	0.0220611
2430	0.0229835
2442	0.022138
2454	0.0208312
2466	0.0206006
2478	0.0200625
2490	0.0192939
2502	0.0202932
2514	0.0199857
2526	0.0204469
2538	0.0202163
2550	0.0208312
2562	0.0212924
2574	0.022138
2586	0.0225992
2598	0.0229067
2610	0.0237522
2622	0.0239828
2634	0.0252896
2646	0.0249821
2658	0.0289792
2670	0.0329764
2682	0.0337451
2694	0.0365892
2706	0.0388183
2718	0.039587
2730	0.0417393
2742	0.0459671
2754	0.0501948
2766	0.0528852
2778	0.0575741
2790	0.0619556
2802	0.0681819
2814	0.0759456
2826	0.0929334
2838	0.12591
2850	0.184944
2862	0.277955
2874	0.413473
2886	0.52693
2898	0.494722
2910	0.438532
2922	0.519858
2934	0.686354
2946	0.727325
2958	0.665446
2970	0.685509
2982	0.571514
2994	0.310931
3006	0.116301
3018	0.0598802
3030	0.0456596
3042	0.0399714
3054	0.0386646
3066	0.0375116
3078	0.0360511
3090	0.0322846
3102	0.0297479
3114	0.029133
3126	0.0262889
3138	0.0243672
3150	0.0245978
3162	0.0247515
3174	0.0246746
3186	0.0261351
3198	0.0229835
3210	0.0220611
3222	0.0206775
3234	0.0209081
3246	0.0202163
3258	0.0202932
3270	0.0204469
3282	0.022138
3294	0.020985
3306	0.0192939
3318	0.0202163
3330	0.0186021
3342	0.0194476
3354	0.0199088
3366	0.0202932
3378	0.0196782
3390	0.0206006
3402	0.0206775
3414	0.0216768
3426	0.0211387
3438	0.0205238
3450	0.0213693
3462	0.0208312
3474	0.0219074
3486	0.0236753
3498	0.0249821
3510	0.0258276
3522	0.0277493
3534	0.0278262
3546	0.0283643
3558	0.0324383
3570	0.0372041
3582	0.0455059
3594	0.0738701
3606	0.125449
3618	0.19463
3630	0.226453
3642	0.205468
3654	0.178487
3666	0.165727
3678	0.156734
3690	0.118377
3702	0.0730246
3714	0.0451215
3726	0.0325152
3738	0.030286
3750	0.0253664
3762	0.0227529
3774	0.0223686
3786	0.0224455
3798	0.020985
3810	0.0210618
3822	0.0225992
3834	0.0187558
3846	0.0196013
3858	0.0224455
3870	0.0225223
3882	0.0208312
3894	0.0225223
3906	0.0214462
3918	0.0239828
3930	0.0206006
3942	0.0214462
3954	0.0217536
3966	0.0206006
