Infrared Spectrum: Benzene, (1-bromoethyl)-
Formula: C 8 H 9 Br
CAS: 585-71-7
Origin: Sadtler Research Labs Under US-EPA Contract
1/CM	ABSORBANCE
450	0.0231729
462	0.0307374
474	0.0328682
486	0.0432561
498	0.0473046
510	0.0457065
522	0.0448542
534	0.0125187
546	0.054656
558	0.125293
570	0.15374
582	0.110537
594	0.307533
606	0.263798
618	0.093757
630	0.129289
642	0.053857
654	0.0557747
666	0.0604093
678	0.168017
690	0.488548
702	0.315098
714	0.0847009
726	0.057799
738	0.0734074
750	0.17409
762	0.299063
774	0.139943
786	0.0739401
798	0.0298318
810	0.0116131
822	0.0163542
834	0.00564673
846	0.0139037
858	0.0103878
870	0.0118794
882	0.00548691
894	0.0169402
906	0.0339336
918	0.0318561
930	0.0302047
942	0.0207757
954	0.0542831
966	0.0875775
978	0.0627
990	0.0380355
1002	0.0374495
1014	0.0562542
1026	0.146549
1038	0.118315
1050	0.212658
1062	0.0720224
1074	0.0650439
1086	0.0694654
1098	0.0478374
1110	0.0482635
1122	0.0212019
1134	0.0203495
1146	0.0283402
1158	0.048743
1170	0.100416
1182	0.234339
1194	0.159973
1206	0.19673
1218	0.235458
1230	0.0785747
1242	0.0380888
1254	0.0287131
1266	0.019657
1278	0.0357981
1290	0.040699
1302	0.0514065
1314	0.0340934
1326	0.0340934
1338	0.0246645
1350	0.0309505
1362	0.0205093
1374	0.064085
1386	0.108992
1398	0.0295654
1410	0.018272
1422	0.0256766
1434	0.0530579
1446	0.147934
1458	0.200725
1470	0.0861392
1482	0.0498084
1494	0.126678
1506	0.0782018
1518	0.0166738
1530	0.015129
1542	0.000213084
1554	0.00708504
1566	0.0125187
1578	0.0169402
1590	0.0362776
1602	0.0559345
1614	0.0347327
1626	0.0129449
1638	0.00932243
1650	0.0111336
1662	0.0165673
1674	0.0166206
1686	0.00372897
1698	0.0033028
1710	0.013371
1722	0.0112935
1734	0.0109738
1746	0.0179523
1758	0.0108673
1770	0.00857663
1782	0.0154486
1794	0.031643
1806	0.0228533
1818	0.0167804
1830	0.00799065
1842	0.00804392
1854	0.0105477
1866	0.0194439
1878	0.0223738
1890	0.0196037
1902	0.00910934
1914	0.00655233
1926	0.0125187
1938	0.024771
1950	0.0280205
1962	0.0262093
1974	0.0100149
1986	0.00772429
1998	0.00628598
2010	0.00522056
2022	0.00479439
2034	0.0049542
2046	0.00346262
2058	0.0033028
2070	0.00229065
2082	0.00213084
2094	0.00394205
2106	0.00351589
2118	0.0053271
2130	0.00479439
2142	0.0057
2154	0.00607289
2166	0.00548691
2178	0.00468785
2190	0.00436822
2202	0.00458131
2214	0.00474112
2226	0.00447476
2238	0.00378224
2250	0.00340934
2262	0.00277009
2274	0.00303645
2286	0.00458131
2298	0.00298318
2310	0.0053271
2322	0.00575327
2334	0.00671215
2346	0.0124121
2358	0.00564673
2370	0.0138505
2382	0.00751121
2394	0.00601962
2406	0.00639252
2418	0.00522056
2430	0.00585981
2442	0.0057
2454	0.00511402
2466	0.00596635
2478	0.00628598
2490	0.00649906
2502	0.00788411
2514	0.00585981
2526	0.0073514
2538	0.00671215
2550	0.00554018
2562	0.00708504
2574	0.00538037
2586	0.00783084
2598	0.00633925
2610	0.00777757
2622	0.00772429
2634	0.00905607
2646	0.00953551
2658	0.00873644
2670	0.0093757
2682	0.00793738
2694	0.00953551
2706	0.00831028
2718	0.0110804
2730	0.0106542
2742	0.0112935
2754	0.0124654
2766	0.00878972
2778	0.0119327
2790	0.00948224
2802	0.0127318
2814	0.0135308
2826	0.0164607
2838	0.0175794
2850	0.0169934
2862	0.0272215
2874	0.0598233
2886	0.0563074
2898	0.0374495
2910	0.0422439
2922	0.0730878
2934	0.156244
2946	0.0888028
2958	0.0354252
2970	0.0802261
2982	0.228639
2994	0.276956
3006	0.199713
3018	0.084328
3030	0.166099
3042	0.263212
3054	0.158481
3066	0.181761
3078	0.297945
3090	0.175794
3102	0.129502
3114	0.0763373
3126	0.0348392
3138	0.0131047
3150	0.0118794
3162	0.0119327
3174	0.0115598
3186	0.0121991
3198	0.00974859
3210	0.0140635
3222	0.0109738
3234	0.0122523
3246	0.00990841
3258	0.0129981
3270	0.00942897
3282	0.00793738
3294	0.0101215
3306	0.00500747
3318	0.0104411
3330	0.00410187
3342	0.00852336
3354	0.00506075
3366	0.00410187
3378	0.00777757
3390	0.00617944
3402	0.00847009
3414	0.00692523
3426	0.00884299
3438	0.00543364
3450	0.00926915
3462	0.0069785
3474	0.0093757
3486	0.00719158
3498	0.00511402
3510	0.0086299
3522	0.0012785
3534	0.00756448
3546	0.00383551
3558	0.0073514
3570	0.00559345
3582	0.00681869
3594	0.00910934
3606	0.00410187
3618	0.00617944
3630	0.000958878
3642	0.00884299
3654	0.00617944
3666	0.00793738
3678	0.00298318
3690	0.00213084
3702	0.00415514
3714	0.000266355
3726	0.00436822
3738	0.000319626
3750	0.000319626
3762	0.0012785
3774	0.00271682
3786	0.0036757
3798	0.000479439
3810	0.00298318
3822	0.000958878
3834	0.00585981
3846	0.00468785
3858	0.00458131
3870	0.000639252
3882	0.00303645
3894	0.00591308
3906	0.0040486
3918	0.00479439
3930	0.000319626
3942	0.00554018
3954	0
3966	0.000319626
