Infrared Spectrum: Pyridine, 2,6-bis(1,1-dimethylethyl)-
Formula: C 13 H 21 N
CAS: 585-48-8
Origin: Sadtler Research Labs Under US-EPA Contract
1/CM	ABSORBANCE
450	0.00378864
462	0.00934531
474	0.0127551
486	0.0137654
498	0.00745099
510	0.0107345
522	0.00454637
534	0.00568296
546	0.0274045
558	0.0188169
570	0.00454637
582	0.00340978
594	0.000378864
606	0.00126288
618	0.00189432
630	0.00189432
642	0.00151546
654	0.0063144
666	0.0126288
678	0.00378864
690	0.00366235
702	0.00290462
714	0.0031572
726	0.00442008
738	0.0501363
750	0.16127
762	0.0354869
774	0.00820872
786	0.00568296
798	0.0135128
810	0.0832238
822	0.0678167
834	0.0117448
846	0.00239947
858	0.00151546
870	0.00492523
882	0.0553141
894	0.0453374
906	0.00656698
918	0.00795614
930	0.014902
942	0.0136391
954	0.00303091
966	0.00138917
978	0.00429379
990	0.018438
1002	0.0125025
1014	0.00517781
1026	0.00479894
1038	0.00467266
1050	0.00442008
1062	0.00378864
1074	0.00644069
1086	0.0188169
1098	0.0585976
1110	0.037255
1122	0.0142705
1134	0.0445797
1146	0.152935
1158	0.108987
1170	0.063144
1182	0.0170489
1194	0.0292988
1206	0.0579662
1218	0.0618811
1230	0.0708476
1242	0.12894
1254	0.0690795
1266	0.0274045
1278	0.0347292
1290	0.013134
1302	0.00669326
1314	0.00442008
1326	0.00492523
1338	0.0122499
1350	0.0567033
1362	0.195241
1374	0.129698
1386	0.0563244
1398	0.0932005
1410	0.05001
1422	0.0395281
1434	0.116059
1446	0.25889
1458	0.300692
1470	0.185643
1482	0.308522
1494	0.126793
1506	0.0291725
1518	0.00985046
1530	0.0103556
1542	0.0188169
1554	0.0424328
1566	0.170236
1578	0.699636
1590	0.296524
1602	0.0823398
1614	0.0266468
1626	0.013134
1638	0.0084613
1650	0.0073247
1662	0.00707213
1674	0.00745099
1686	0.00681955
1698	0.00795614
1710	0.00707213
1722	0.00340978
1734	0.00328349
1746	0.00265205
1758	0.0031572
1770	0.00366235
1782	0.00707213
1794	0.00303091
1806	0.000505152
1818	0.00063144
1830	0.000757728
1842	0.000378864
1854	0.000884016
1866	0.00757728
1878	0.0053041
1890	0.000757728
1902	0.000757728
1914	0.00138917
1926	0.000884016
1938	0.00189432
1950	0.0073247
1962	0.00896645
1974	0.00202061
1986	0.000378864
1998	0
2010	0
2022	0.000505152
2034	0.0010103
2046	0.000884016
2058	0.000884016
2070	0.000126288
2082	0.000378864
2094	0.000378864
2106	0.000378864
2118	0.000505152
2130	0.000884016
2142	0.000757728
2154	0.000884016
2166	0.000884016
2178	0.00138917
2190	0.00189432
2202	0.00126288
2214	0.00113659
2226	0.000884016
2238	0.00138917
2250	0.00239947
2262	0.000884016
2274	0.000505152
2286	0.00113659
2298	0.00176803
2310	0.00113659
2322	0.00189432
2334	0.00303091
2346	0.00328349
2358	0.00378864
2370	0.00328349
2382	0.00328349
2394	0.00277834
2406	0.00202061
2418	0.00151546
2430	0.00126288
2442	0.00164174
2454	0.00151546
2466	0.00126288
2478	0.00164174
2490	0.00113659
2502	0.0010103
2514	0.00126288
2526	0.00126288
2538	0.00151546
2550	0.00290462
2562	0.00479894
2574	0.00454637
2586	0.00353606
2598	0.00391493
2610	0.00391493
2622	0.00366235
2634	0.00454637
2646	0.00505152
2658	0.00517781
2670	0.00555667
2682	0.00580925
2694	0.00555667
2706	0.00858758
2718	0.0116185
2730	0.00997675
2742	0.0103556
2754	0.00972418
2766	0.0084613
2778	0.0111133
2790	0.0123762
2802	0.014018
2814	0.0193221
2826	0.0210901
2838	0.0271519
2850	0.0501363
2862	0.138033
2874	0.269246
2886	0.252955
2898	0.245883
2910	0.375707
2922	0.357521
2934	0.358532
2946	0.401091
2958	0.942614
2970	1.20592
2982	0.639144
2994	0.262174
3006	0.0748888
3018	0.0400333
3030	0.0252576
3042	0.0257628
3054	0.0457163
3066	0.0707213
3078	0.085497
3090	0.0992624
3102	0.0343503
3114	0.0114922
3126	0.00871387
3138	0.00884016
3150	0.0132602
3162	0.0145231
3174	0.013134
3186	0.013134
3198	0.0118711
3210	0.0118711
3222	0.0117448
3234	0.0111133
3246	0.00934531
3258	0.00782986
3270	0.00681955
3282	0.00606182
3294	0.00467266
3306	0.00366235
3318	0.00366235
3330	0.00340978
3342	0.00265205
3354	0.00328349
3366	0.00265205
3378	0.00303091
3390	0.00176803
3402	0.00189432
3414	0.00239947
3426	0.00277834
3438	0.00239947
3450	0.00202061
3462	0.00277834
3474	0.00227318
3486	0.00176803
3498	0.00202061
3510	0.00265205
3522	0.00189432
3534	0.00202061
3546	0.00126288
3558	0.00176803
3570	0.00063144
3582	0.00138917
3594	0.00126288
3606	0.00063144
3618	0.00202061
3630	0.0021469
3642	0.00277834
3654	0.00126288
3666	0.00189432
3678	0.00126288
3690	0.00151546
3702	0.00189432
3714	0.00227318
3726	0.00303091
3738	0.0021469
3750	0.00227318
3762	0.00227318
3774	0.0021469
3786	0.0021469
3798	0.00252576
3810	0.00303091
3822	0.0031572
3834	0.00151546
3846	0.00429379
3858	0.00252576
3870	0.00265205
3882	0.00239947
3894	0.00391493
3906	0.00328349
3918	0.00202061
3930	0.00113659
3942	0.00189432
3954	0.00378864
3966	0.00252576
