Infrared Spectrum: Ethanone, 1-(3-methylphenyl)-
Formula: C 9 H 10 O
CAS: 585-74-0
Origin: Sadtler Research Labs Under US-EPA Contract
1/CM	ABSORBANCE
450	0.00694537
462	0.0230244
474	0.0164596
486	0.0083725
498	0.00275912
510	0.0083725
522	0.0169353
534	0.0135102
546	0.00371054
558	0.00884821
570	0.0149373
582	0.103039
594	0.176774
606	0.0867695
618	0.0170304
630	0.00799193
642	0.00580366
654	0.0116073
666	0.0146519
678	0.0570852
690	0.170019
702	0.115027
714	0.0233098
726	0.00970448
738	0.0171256
750	0.0217875
762	0.0359637
774	0.122828
786	0.165833
798	0.0834395
810	0.0198847
822	0.0083725
834	0.0101802
846	0.0283523
858	0.0378665
870	0.0186478
882	0.018743
894	0.0190284
906	0.0239758
918	0.0273058
930	0.0215021
942	0.0454779
954	0.0887675
966	0.0653626
978	0.0256883
990	0.0210264
1002	0.0221681
1014	0.021407
1026	0.0238806
1038	0.0267349
1050	0.0265446
1062	0.0254981
1074	0.0496641
1086	0.0729739
1098	0.0510913
1110	0.0535649
1122	0.0259738
1134	0.0189333
1146	0.0261641
1158	0.0456682
1170	0.0747816
1182	0.185337
1194	0.355165
1206	0.15061
1218	0.0548969
1230	0.0644111
1242	0.0736399
1254	0.132343
1266	0.62984
1278	0.886438
1290	0.259928
1302	0.106749
1314	0.0500447
1326	0.0380568
1338	0.0446216
1350	0.156413
1362	0.314635
1374	0.148802
1386	0.0692634
1398	0.0552775
1410	0.0664091
1422	0.117215
1434	0.165833
1446	0.125397
1458	0.0592735
1470	0.0553726
1482	0.0675508
1494	0.0545164
1506	0.0293037
1518	0.0262592
1530	0.0266398
1542	0.0271155
1554	0.0297794
1566	0.0343463
1578	0.0685022
1590	0.113219
1602	0.0959983
1614	0.0789679
1626	0.0400548
1638	0.0235952
1650	0.0303503
1662	0.0601297
1674	0.068978
1686	0.140049
1698	0.652294
1710	0.900804
1722	0.256217
1734	0.0886723
1746	0.1175
1758	0.0701197
1770	0.0313017
1782	0.0195041
1794	0.0170304
1806	0.0156033
1818	0.0109413
1830	0.00704051
1842	0.00608909
1854	0.0102753
1866	0.0133199
1878	0.0117976
1890	0.0113219
1902	0.00922877
1914	0.00437653
1926	0.00504253
1938	0.00913363
1950	0.0106559
1962	0.00865792
1974	0.00618423
1986	0.00342511
1998	0.00352025
2010	0.00304454
2022	0.00218827
2034	0.00237855
2046	0.00409111
2058	0.00199798
2070	0.000570852
2082	0.00323483
2094	0.0029494
2106	0.00123685
2118	0.000665994
2130	0.000761136
2142	0.00142713
2154	0.00152227
2166	0.00142713
2178	0.00161741
2190	0.00199798
2202	0.00228341
2214	0.0029494
2226	0.00332997
2238	0.00390082
2250	0.0029494
2262	0.00304454
2274	0.00304454
2286	0.00247369
2298	0.00190284
2310	0.00218827
2322	0.00218827
2334	0.0029494
2346	0.00447167
2358	0.00199798
2370	0.00561338
2382	0.00523281
2394	0.00332997
2406	0.00323483
2418	0.00371054
2430	0.00371054
2442	0.00437653
2454	0.00447167
2466	0.00485224
2478	0.00399596
2490	0.00399596
2502	0.00313969
2514	0.00323483
2526	0.00380568
2538	0.0047571
2550	0.00608909
2562	0.00580366
2574	0.00513767
2586	0.00390082
2598	0.00409111
2610	0.00342511
2622	0.00323483
2634	0.00342511
2646	0.00171256
2658	0.00532795
2670	0.00637451
2682	0.00275912
2694	0.00161741
2706	0.00313969
2718	0.00352025
2730	0.00390082
2742	0.00646966
2754	0.00646966
2766	0.00485224
2778	0.00428139
2790	0.00466196
2802	0.00494738
2814	0.00675508
2826	0.00960934
2838	0.0138907
2850	0.0206458
2862	0.0347268
2874	0.06032
2886	0.0648868
2898	0.0535649
2910	0.06032
2922	0.0940954
2934	0.142047
2946	0.11693
2958	0.0793484
2970	0.0705954
2982	0.0678362
2994	0.0743059
3006	0.0952371
3018	0.11398
3030	0.12064
3042	0.124921
3054	0.119974
3066	0.118262
3078	0.100851
3090	0.062984
3102	0.0445265
3114	0.0297794
3126	0.0146519
3138	0.00932392
3150	0.00846764
3162	0.00618423
3174	0.00694537
3186	0.00875306
3198	0.00713565
3210	0.0058988
3222	0.00523281
3234	0.00599395
3246	0.00570852
3258	0.00523281
3270	0.00580366
3282	0.0047571
3294	0.00542309
3306	0.00513767
3318	0.00532795
3330	0.00742108
3342	0.00713565
3354	0.0058988
3366	0.00713565
3378	0.0126539
3390	0.0212167
3402	0.0184575
3414	0.0083725
3426	0.00599395
3438	0.00618423
3450	0.00561338
3462	0.00637451
3474	0.00352025
3486	0.00570852
3498	0.00513767
3510	0.00646966
3522	0.00428139
3534	0.00390082
3546	0.00285426
3558	0.00199798
3570	0.00399596
3582	0.00399596
3594	0.00418625
3606	0.00332997
3618	0.00266398
3630	0.00409111
3642	0.00428139
3654	0.00266398
3666	0.00437653
3678	0.00428139
3690	0.00418625
3702	0.00532795
3714	0.00627937
3726	0.00704051
3738	0.00599395
3750	0.00665994
3762	0.00542309
3774	0.0047571
3786	0.00694537
3798	0.00494738
3810	0.0047571
3822	0.00561338
3834	0.0047571
3846	0.00570852
3858	0.00523281
3870	0.00675508
3882	0.00627937
3894	0.00466196
3906	0.00627937
3918	0.00865792
3930	0.00865792
3942	0.00780164
3954	0.0058988
3966	0.00704051
