Infrared Spectrum: Phenol, m-tert-butyl-
Formula: C 10 H 14 O
CAS: 585-34-2
Origin: Sadtler Research Labs Under US-EPA Contract
1/CM	ABSORBANCE
450	0.0916194
462	0.0860198
474	0.0845901
486	0.0646936
498	0.0412228
510	0.0274024
522	0.0187051
534	0.0274024
546	0.0444396
558	0.018586
570	0.01942
582	0.01942
594	0.0156075
606	0.00822073
618	0.0072676
630	0.00512306
642	0.00345509
654	0.00786331
666	0.0103653
678	0.0571877
690	0.183596
702	0.243048
714	0.0900706
726	0.0147735
738	0.0127481
750	0.0258536
762	0.0948362
774	0.216598
786	0.158934
798	0.0537326
810	0.0420568
822	0.0333595
834	0.0282364
846	0.0551623
858	0.0685061
870	0.07351
882	0.0719612
894	0.0800628
906	0.271165
918	0.349083
930	0.134272
942	0.0495627
954	0.018586
966	0.0150118
978	0.0148926
990	0.016084
1002	0.026211
1014	0.0191817
1026	0.0183477
1038	0.0125098
1050	0.016918
1062	0.0284747
1074	0.0589748
1086	0.0763694
1098	0.0805393
1110	0.114137
1122	0.0880452
1134	0.0682678
1146	0.192055
1158	0.403411
1170	0.436294
1182	0.626682
1194	0.796934
1206	0.423308
1218	0.178235
1230	0.178354
1242	0.150713
1254	0.112231
1266	0.198251
1278	0.516
1290	0.577715
1302	0.305835
1314	0.135344
1326	0.0492052
1338	0.0327638
1350	0.0525412
1362	0.127123
1374	0.157504
1386	0.0801819
1398	0.0808967
1410	0.0806585
1422	0.125336
1434	0.20671
1446	0.288202
1458	0.263421
1470	0.236376
1482	0.313341
1494	0.293206
1506	0.154288
1518	0.0599279
1530	0.0438439
1542	0.0500392
1554	0.072676
1566	0.148331
1578	0.310839
1590	0.526484
1602	0.624775
1614	0.490146
1626	0.224104
1638	0.0536134
1650	0.0271641
1662	0.0166797
1674	0.0165606
1686	0.017752
1698	0.0196583
1710	0.0164415
1722	0.0183477
1734	0.0229942
1746	0.021088
1758	0.0166797
1770	0.0128672
1782	0.00893557
1794	0.00869729
1806	0.00869729
1818	0.0122715
1830	0.0138204
1842	0.0121524
1854	0.00500392
1866	0.00369337
1878	0.00285938
1890	0.00571877
1902	0.0107227
1914	0.017752
1926	0.0137012
1938	0.00536134
1950	0.0020254
1962	0.00154883
1974	0.00178712
1986	0.0020254
1998	0.00226368
2010	0.00178712
2022	0.00154883
2034	0.00131055
2046	0.0020254
2058	0.00131055
2070	0.00274024
2082	0.00321681
2094	0.00416994
2106	0.00381251
2118	0.0026211
2130	0.00250196
2142	0.00321681
2154	0.00345509
2166	0.00416994
2178	0.00476564
2190	0.00571877
2202	0.00405079
2214	0.00178712
2226	0.000714846
2238	0.000595705
2250	0.000595705
2262	0.00154883
2274	0.00285938
2286	0.00369337
2298	0.00369337
2310	0.00309767
2322	0.00548049
2334	0.00655276
2346	0.00738674
2358	0.00941214
2370	0.00679104
2382	0.00798245
2394	0.0100078
2406	0.00917386
2418	0.0106035
2430	0.00953128
2442	0.0072676
2454	0.00750588
2466	0.00833987
2478	0.00702932
2490	0.00607619
2502	0.00631447
2514	0.00607619
2526	0.0046465
2538	0.00345509
2550	0.00285938
2562	0.00393165
2574	0.00416994
2586	0.00500392
2598	0.00536134
2610	0.0046465
2622	0.00452736
2634	0.00452736
2646	0.0052422
2658	0.00595705
2670	0.00619533
2682	0.00536134
2694	0.00488478
2706	0.00619533
2718	0.00917386
2730	0.0115567
2742	0.0110801
2754	0.0126289
2766	0.0115567
2778	0.0102461
2790	0.0120332
2802	0.0120332
2814	0.0156075
2826	0.0193008
2838	0.026211
2850	0.0424142
2862	0.0990062
2874	0.201467
2886	0.234946
2898	0.226844
2910	0.277479
2922	0.299759
2934	0.284747
2946	0.356112
2958	0.733909
2970	1.19141
2982	0.677317
2994	0.192294
3006	0.0724377
3018	0.0780374
3030	0.099721
3042	0.13451
3054	0.151666
3066	0.113661
3078	0.115209
3090	0.098887
3102	0.0681487
3114	0.0374103
3126	0.0193008
3138	0.0122715
3150	0.00976956
3162	0.0106035
3174	0.0120332
3186	0.0125098
3198	0.0115567
3210	0.0111993
3222	0.0108418
3234	0.0122715
3246	0.0110801
3258	0.0104844
3270	0.00869729
3282	0.00845901
3294	0.00810159
3306	0.00738674
3318	0.00548049
3330	0.0072676
3342	0.00953128
3354	0.0113184
3366	0.0115567
3378	0.0111993
3390	0.0098887
3402	0.009293
3414	0.00750588
3426	0.00881643
3438	0.00738674
3450	0.00595705
3462	0.00571877
3474	0.00583791
3486	0.00416994
3498	0.00440822
3510	0.0046465
3522	0.00357423
3534	0.00440822
3546	0.00154883
3558	0.00285938
3570	0.00131055
3582	0.00583791
3594	0.00488478
3606	0.00548049
3618	0.0106035
3630	0.0457501
3642	0.23852
3654	0.469654
3666	0.152143
3678	0.0114375
3690	0.0026211
3702	0.00309767
3714	0.00142969
3726	0.0026211
3738	0.000595705
3750	0.000595705
3762	0.00393165
3774	0.00583791
3786	0.00512306
3798	0.00583791
3810	0.00333595
3822	0.0026211
3834	0.00571877
3846	0.00393165
3858	0.00416994
3870	0.00226368
3882	0
3894	0.00321681
3906	0.000714846
3918	0.00631447
3930	0.00786331
3942	0.0066719
3954	0.00416994
3966	0.00691018
