Infrared Spectrum: Cyclohexanol, 2-propyl-,
Formula: C 9 H 18 O
CAS: 5857-86-3
Origin: Sadtler Research Labs Under US-EPA Contract
1/CM	ABSORBANCE
450	0.00413088
462	0.0051636
474	0.00262152
486	0.00270096
498	0.00349536
510	0.00571968
522	0.0047664
534	0.00508416
546	0.00270096
558	0.00579912
570	0.0047664
582	0.00174768
594	0.001986
606	0.00222432
618	0.00047664
630	0.00063552
642	0.00349536
654	0.00254208
666	0.0023832
678	0.00150936
690	0.00190656
702	0.00135048
714	0.00127104
726	0.0047664
738	0.00786456
750	0.00564024
762	0.00230376
774	0.00349536
786	0.0047664
798	0.00667296
810	0.00857952
822	0.00691128
834	0.0114394
846	0.015173
858	0.0132665
870	0.0129487
882	0.0134254
894	0.0140609
906	0.0139814
918	0.0142992
930	0.0148553
942	0.0170796
954	0.0278834
966	0.0558463
978	0.0745942
990	0.035033
1002	0.0194628
1014	0.02979
1026	0.0428182
1038	0.060851
1050	0.0904822
1062	0.0870662
1074	0.0495706
1086	0.0328882
1098	0.0264535
1110	0.0235937
1122	0.0280423
1134	0.0328882
1146	0.0300283
1158	0.0250236
1170	0.0247058
1182	0.0352714
1194	0.0375751
1206	0.0334442
1218	0.0380518
1230	0.0366218
1242	0.0309816
1254	0.0309816
1266	0.030505
1278	0.0247853
1290	0.0196217
1302	0.0186684
1314	0.0210516
1326	0.0256591
1338	0.0256591
1350	0.0259769
1362	0.0282806
1374	0.0359863
1386	0.0412294
1398	0.0257386
1410	0.0144581
1422	0.0117571
1434	0.0210516
1446	0.0579912
1458	0.0795989
1470	0.0549725
1482	0.0202572
1494	0.00722904
1506	0.00484584
1518	0.00413088
1530	0.0027804
1542	0.00206544
1554	0.00214488
1566	0.00206544
1578	0.00095328
1590	0.00103272
1602	0.0011916
1614	0.00127104
1626	0.0011916
1638	0.00055608
1650	0.0007944
1662	0.00087384
1674	0.0003972
1686	0.00087384
1698	0.0003972
1710	0.00015888
1722	0.00230376
1734	0.00150936
1746	0.00111216
1758	0.00063552
1770	0.00023832
1782	0.00071496
1794	0.00015888
1806	0.00031776
1818	0.0007944
1830	0.00047664
1842	0.00023832
1854	0.00031776
1866	0.00031776
1878	0.0003972
1890	0.00063552
1902	0.00055608
1914	0.00031776
1926	0.00047664
1938	0.00031776
1950	0.0003972
1962	0.00103272
1974	0.00047664
1986	0.00055608
1998	0.00055608
2010	0.00047664
2022	0.00055608
2034	0.00103272
2046	0.0011916
2058	0.00095328
2070	0.00103272
2082	0.00055608
2094	0.00071496
2106	0.00111216
2118	0.00111216
2130	0.00111216
2142	0.00103272
2154	0.00111216
2166	0.0011916
2178	0.00127104
2190	0.0011916
2202	0.00150936
2214	0.0011916
2226	0.00111216
2238	0.00111216
2250	0.00166824
2262	0.0015888
2274	0.00150936
2286	0.00111216
2298	0.00055608
2310	0.00047664
2322	0.0007944
2334	0.0011916
2346	0.00142992
2358	0.0015888
2370	0.00182712
2382	0.00135048
2394	0.00230376
2406	0.00222432
2418	0.00214488
2430	0.00166824
2442	0.00142992
2454	0.0015888
2466	0.00214488
2478	0.00214488
2490	0.00206544
2502	0.00214488
2514	0.00206544
2526	0.00214488
2538	0.0023832
2550	0.00254208
2562	0.00301872
2574	0.00309816
2586	0.00365424
2598	0.00460752
2610	0.00500472
2622	0.00508416
2634	0.00548136
2646	0.00667296
2658	0.00937392
2670	0.011916
2682	0.0104066
2694	0.00722904
2706	0.007944
2718	0.00738792
2730	0.00842064
2742	0.00937392
2754	0.00929448
2766	0.00897672
2778	0.0108038
2790	0.0134254
2802	0.0158086
2814	0.0180329
2826	0.0228787
2838	0.0399583
2850	0.108833
2862	0.261358
2874	0.312596
2886	0.242848
2898	0.190179
2910	0.236096
2922	0.386555
2934	0.70789
2946	0.699787
2958	0.31347
2970	0.264456
2982	0.104861
2994	0.0309816
3006	0.0176357
3018	0.0144581
3030	0.0123926
3042	0.00985056
3054	0.0071496
3066	0.0047664
3078	0.00452808
3090	0.00421032
3102	0.00373368
3114	0.0031776
3126	0.00293928
3138	0.0031776
3150	0.00262152
3162	0.00222432
3174	0.0015888
3186	0.00174768
3198	0.00190656
3210	0.0015888
3222	0.0015888
3234	0.00095328
3246	0.0015888
3258	0.0011916
3270	0.00063552
3282	0.00015888
3294	0.00063552
3306	0.00055608
3318	0.00095328
3330	0.00015888
3342	0.00047664
3354	0.0003972
3366	0.00055608
3378	0.00103272
3390	0.00055608
3402	0.00103272
3414	0.00047664
3426	0.00103272
3438	0.00095328
3450	0.00206544
3462	0.00150936
3474	0.00103272
3486	0.00150936
3498	0.0003972
3510	7.944e-05
3522	0.00103272
3534	0.00103272
3546	0.00103272
3558	7.944e-05
3570	0.0011916
3582	0.0011916
3594	0.0023832
3606	0.00174768
3618	0.00381312
3630	0.00707016
3642	0.014617
3654	0.0332059
3666	0.0254208
3678	0.00786456
3690	0.00270096
3702	0.0023832
3714	0.0015888
3726	0.001986
3738	0.00206544
3750	0.00182712
3762	0.00182712
3774	0.00174768
3786	0.00222432
3798	0.00230376
3810	0.00222432
3822	0.00135048
3834	0.0023832
3846	0.00190656
3858	0.00135048
3870	0.00142992
3882	0.0007944
3894	0.00023832
3906	0.0007944
3918	0.00135048
3930	0
3942	0.00023832
3954	0.00015888
3966	0
