Infrared Spectrum: Benzenethiol, 2,5-dichloro-
Formula: C 6 H 4 Cl 2 S
CAS: 5858-18-4
Origin: Sadtler Research Labs Under US-EPA Contract
1/CM	ABSORBANCE
450	0.0144779
462	0.00791955
474	0.00470223
486	0.00123743
498	0.00482598
510	0.0116318
522	0.00668212
534	0.0322969
546	0.0814229
558	0.24266
570	0.297973
582	0.0272235
594	0.0228925
606	0.00989944
618	0.00358855
630	0.00272235
642	0.00408352
654	0.00358855
666	0.0211601
678	0.039474
690	0.021655
702	0.00816704
714	0.0100232
726	0.0080433
738	0.0080433
750	0.00841452
762	0.0117556
774	0.0227687
786	0.048136
798	0.215684
810	0.631337
822	0.215437
834	0.0483835
846	0.0473936
858	0.103573
870	0.139211
882	0.0610053
894	0.0190564
906	0.016829
918	0.0201701
930	0.0247486
942	0.0363804
954	0.0251198
966	0.0185615
978	0.0197989
990	0.0167053
1002	0.0149729
1014	0.0194277
1026	0.0994894
1038	0.496333
1050	0.235235
1062	0.0365042
1074	0.0595204
1086	0.228801
1098	0.615126
1110	0.473441
1122	0.272606
1134	0.136984
1146	0.148244
1158	0.0362567
1170	0.0160866
1182	0.00767207
1194	0.00903324
1206	0.00928073
1218	0.00903324
1230	0.026481
1242	0.0717709
1254	0.105182
1266	0.0251198
1278	0.00742458
1290	0.00569218
1302	0.00730084
1314	0.00631089
1326	0.00853827
1338	0.0131168
1350	0.0556844
1362	0.128569
1374	0.177447
1386	0.100479
1398	0.0449187
1410	0.119783
1422	0.102088
1434	0.0660788
1446	0.391894
1458	1.23743
1470	0.183635
1482	0.0916936
1494	0.0686774
1506	0.012993
1518	0.00494972
1530	0.00853827
1542	0.0274709
1554	0.113844
1566	0.288692
1578	0.294756
1590	0.0744933
1602	0.030812
1614	0.0277184
1626	0.0136117
1638	0.0100232
1650	0.00494972
1662	0.013983
1674	0.00544469
1686	0.00160866
1698	0.000989944
1710	0.0141067
1722	0.0147254
1734	0.0174478
1746	0.0176952
1758	0.00655838
1770	0.00334106
1782	0.0034648
1794	0.00136117
1806	0.00507346
1818	0.00680586
1830	0.000989944
1842	0.00235112
1854	0.00717709
1866	0.0159628
1878	0.0273472
1890	0.0110131
1902	0.00420726
1914	0.00284609
1926	0.00247486
1938	0.00284609
1950	0.0034648
1962	0.00358855
1974	0.00210363
1986	0.00185615
1998	0.00111369
2010	0.00210363
2022	0.00160866
2034	0.00235112
2046	0.00136117
2058	0.00160866
2070	0.00148492
2082	0.00111369
2094	0.00123743
2106	0.00148492
2118	0.00210363
2130	0.00284609
2142	0.00148492
2154	0.00111369
2166	0.00123743
2178	0.00136117
2190	0.00136117
2202	0.000742458
2214	0.000618715
2226	0.000618715
2238	0.00148492
2250	0.00185615
2262	0.00222737
2274	0.00408352
2286	0.00519721
2298	0.00358855
2310	0.00334106
2322	0.00272235
2334	0.00334106
2346	0.00494972
2358	0.00470223
2370	0.00334106
2382	0.00457849
2394	0.00321732
2406	0.00309357
2418	0.00160866
2430	0.00123743
2442	0.000742458
2454	0.00136117
2466	0.00148492
2478	0.00185615
2490	0.00247486
2502	0.00445475
2514	0.00494972
2526	0.00371229
2538	0.00197989
2550	0.00222737
2562	0.00272235
2574	0.00519721
2586	0.0138592
2598	0.0382366
2610	0.0314307
2622	0.00742458
2634	0.00569218
2646	0.00519721
2658	0.00507346
2670	0.00494972
2682	0.00420726
2694	0.00482598
2706	0.00507346
2718	0.00383603
2730	0.00222737
2742	0.00235112
2754	0.00235112
2766	0.00309357
2778	0.00507346
2790	0.00816704
2802	0.0105182
2814	0.0089095
2826	0.00680586
2838	0.00655838
2850	0.00655838
2862	0.0089095
2874	0.0089095
2886	0.00680586
2898	0.00532095
2910	0.00470223
2922	0.00445475
2934	0.00532095
2946	0.00569218
2958	0.00470223
2970	0.00420726
2982	0.00383603
2994	0.00309357
3006	0.00296983
3018	0.00358855
3030	0.00296983
3042	0.0025986
3054	0.00408352
3066	0.00791955
3078	0.012498
3090	0.012498
3102	0.00581592
3114	0.00296983
3126	0.00148492
3138	0.000989944
3150	0.00136117
3162	0.00185615
3174	0.0017324
3186	0.00111369
3198	0.00136117
3210	0.0017324
3222	0.00160866
3234	0.00148492
3246	0.00123743
3258	0.0017324
3270	0.00136117
3282	0.00160866
3294	0.00160866
3306	0.00136117
3318	0.00160866
3330	0.00136117
3342	0.00197989
3354	0.00136117
3366	0.00136117
3378	0.00111369
3390	0.00160866
3402	0.00111369
3414	0.00210363
3426	0.00185615
3438	0.0017324
3450	0.0017324
3462	0.00197989
3474	0.00235112
3486	0.00383603
3498	0.0111369
3510	0.0152204
3522	0.00631089
3534	0.00296983
3546	0.00185615
3558	0.000866201
3570	0.0017324
3582	0.00111369
3594	0.00148492
3606	0.00111369
3618	0.00148492
3630	0.00334106
3642	0.00247486
3654	0.00148492
3666	0.000989944
3678	0.00296983
3690	0.00284609
3702	0.00185615
3714	0.00247486
3726	0.0017324
3738	0.00296983
3750	0.00185615
3762	0.00470223
3774	0.0034648
3786	0.00197989
3798	0.000618715
3810	0.000866201
3822	0.000989944
3834	0.00210363
3846	0.00247486
3858	0.00235112
3870	0.00309357
3882	0.00395978
3894	0.004331
3906	0.00408352
3918	0.00358855
3930	0.00284609
3942	0.00284609
3954	0.000866201
3966	0.00197989
