Infrared Spectrum: 4-Chloro-meta-benzenedithiol
Formula: C 6 H 5 Cl S 2
CAS: 58593-78-5
Origin: Sadtler Research Labs Under US-EPA Contract
1/CM	ABSORBANCE
450	0.0125799
462	0.00861449
474	0.00888797
486	0.00540115
498	0.00663179
510	0.00786243
522	0.0128534
534	0.0328171
546	0.0609168
558	0.110826
570	0.0343212
582	0.00950329
594	0.014084
606	0.00786243
618	0.00123064
630	0.000820428
642	0.00259802
654	0.0028715
666	0.0263221
678	0.0477899
690	0.0103921
702	0.010939
714	0.00670016
726	0.0059481
738	0.00512767
750	0.0077257
762	0.0131268
774	0.0293303
786	0.0783509
798	0.260281
810	0.283048
822	0.0758896
834	0.0279629
846	0.0253649
858	0.0394489
870	0.049841
882	0.0343212
894	0.0142891
906	0.0131268
918	0.024271
930	0.026117
942	0.0225618
954	0.0108023
966	0.0068369
978	0.00663179
990	0.00690527
1002	0.00813591
1014	0.0170239
1026	0.12368
1038	0.322702
1050	0.0934604
1062	0.0268006
1074	0.0371927
1086	0.0464226
1098	0.0979044
1110	0.295149
1122	0.287287
1134	0.129149
1146	0.179742
1158	0.0661812
1170	0.0149044
1182	0.00868286
1194	0.0068369
1206	0.00738385
1218	0.0139473
1230	0.024271
1242	0.0301507
1254	0.0618739
1266	0.0462174
1278	0.0206474
1290	0.0142208
1302	0.00943492
1314	0.00697364
1326	0.0077257
1338	0.017981
1350	0.0580453
1362	0.130106
1374	0.147267
1386	0.0756845
1398	0.0397224
1410	0.0596861
1422	0.0545585
1434	0.0582504
1446	0.252829
1458	0.68369
1470	0.163334
1482	0.0693262
1494	0.0317916
1506	0.00847776
1518	0.0028715
1530	0.0079308
1542	0.038902
1554	0.095785
1566	0.164086
1578	0.104605
1590	0.0335692
1602	0.017981
1614	0.0114176
1626	0.00492257
1638	0.00540115
1650	0
1662	0.00471746
1674	0.000615321
1686	0.00355519
1698	0.00587973
1710	0.0127166
1722	0.0148361
1734	0.0214679
1746	0.0259802
1758	0.0157249
1770	0.00957166
1782	0.0097084
1794	0.0108023
1806	0.0112125
1818	0.0105288
1830	0.00430725
1842	0.00376029
1854	0.00581136
1866	0.0113493
1878	0.0185964
1890	0.0107339
1902	0.0039654
1914	0.00184596
1926	0.00232455
1938	0.00266639
1950	0.0028715
1962	0.00239291
1974	0.0019827
1986	0.00191433
1998	0.00164086
2010	0.00218781
2022	0.00177759
2034	0.00177759
2046	0.00150412
2058	0.00170922
2070	0.00184596
2082	0.00143575
2094	0.00116227
2106	0.00143575
2118	0.00136738
2130	0.00184596
2142	0.00123064
2154	0.00068369
2166	0.00123064
2178	0.00150412
2190	0.0010939
2202	0.0010939
2214	0.000820428
2226	0.0010939
2238	0.00157249
2250	0.00259802
2262	0.00362356
2274	0.0059481
2286	0.00717874
2298	0.00868286
2310	0.00820428
2322	0.00704201
2334	0.00546952
2346	0.0077257
2358	0.00834102
2370	0.00704201
2382	0.00820428
2394	0.00430725
2406	0.00444399
2418	0.00348682
2430	0.00252965
2442	0.00239291
2454	0.00280313
2466	0.00314497
2478	0.00362356
2490	0.00417051
2502	0.00546952
2514	0.0059481
2526	0.00505931
2538	0.00417051
2550	0.00423888
2562	0.00546952
2574	0.00806754
2586	0.0149728
2598	0.0293303
2610	0.0209893
2622	0.00601647
2634	0.00471746
2646	0.00430725
2658	0.0039654
2670	0.00369193
2682	0.00321334
2694	0.00348682
2706	0.00403377
2718	0.00369193
2730	0.00293987
2742	0.00232455
2754	0.00266639
2766	0.00300824
2778	0.00505931
2790	0.00635832
2802	0.00642669
2814	0.00335008
2826	0.00314497
2838	0.00211944
2850	0.00136738
2862	0.00341845
2874	0.00369193
2886	0.00437562
2898	0.00259802
2910	0.00246128
2922	0.00499094
2934	0.00847776
2946	0.0101186
2958	0.00998187
2970	0.0131952
2982	0.012785
2994	0.0088196
3006	0.0077257
3018	0.00670016
3030	0.00676853
3042	0.010939
3054	0.0216046
3066	0.0227669
3078	0.0248863
3090	0.0226301
3102	0.00902471
3114	0.00451235
3126	0.00335008
3138	0.00273476
3150	0.00259802
3162	0.00246128
3174	0.00211944
3186	0.00177759
3198	0.00177759
3210	0.00177759
3222	0.00191433
3234	0.00184596
3246	0.00184596
3258	0.00184596
3270	0.00177759
3282	0.00239291
3294	0.00157249
3306	0.0010939
3318	0.00164086
3330	0.0019827
3342	0.00157249
3354	0.00150412
3366	0.00129901
3378	0.00150412
3390	0.00150412
3402	0.00143575
3414	0.00116227
3426	0.00123064
3438	0.00136738
3450	0.00116227
3462	0.00164086
3474	0.00259802
3486	0.00471746
3498	0.0110758
3510	0.0113493
3522	0.00505931
3534	0.00273476
3546	0.00410214
3558	0.00184596
3570	0.00581136
3582	0.00430725
3594	0.00430725
3606	0.00300824
3618	0.00423888
3630	0.00738385
3642	0.00376029
3654	0.00362356
3666	0.00335008
3678	0.00560626
3690	0.00451235
3702	0.00464909
3714	0.00444399
3726	0.00546952
3738	0.00711038
3750	0.00492257
3762	0.00505931
3774	0.00540115
3786	0.0028715
3798	0.00430725
3810	0.00341845
3822	0.00567463
3834	0.00423888
3846	0.00567463
3858	0.0059481
3870	0.00752059
3882	0.00458072
3894	0.0048542
3906	0.00587973
3918	0.00731548
3930	0.00526441
3942	0.00540115
3954	0.00560626
3966	0.00656342
