Infrared Spectrum: Naphthalene, 1-chloro-2-methyl-,
Formula: C 11 H 9 Cl
CAS: 5859-45-0
Origin: Sadtler Research Labs Under US-EPA Contract
1/CM	ABSORBANCE
450	0.00235885
462	0
474	0.0325993
486	0.029863
498	0.0472714
510	0.0272211
522	0.0334485
534	0.10294
546	0.048781
558	0.0274098
570	0.0199559
582	0.0220317
594	0.0187293
606	0.0219845
618	0.0210881
630	0.0422234
642	0.0475072
654	0.09275
666	0.0439218
678	0.0215127
690	0.0162289
702	0.0247207
714	0.0507625
726	0.0867585
738	0.224185
750	0.125727
762	0.130492
774	0.130256
786	0.0543479
798	0.252303
810	0.313491
822	0.118886
834	0.0738792
846	0.0396759
858	0.0499604
870	0.0366565
882	0.0344392
894	0.0752473
906	0.0681708
918	0.0412327
930	0.027174
942	0.0347694
954	0.044771
966	0.0561878
978	0.117612
990	0.096477
1002	0.0737848
1014	0.0737848
1026	0.0931274
1038	0.0970431
1050	0.0482149
1062	0.0328824
1074	0.026655
1086	0.0158515
1098	0.0178801
1110	0.0174555
1122	0.0210409
1134	0.0484036
1146	0.0848714
1158	0.0299102
1170	0.0222675
1182	0.0200974
1194	0.0217958
1206	0.0264191
1218	0.0704824
1230	0.0846827
1242	0.0346279
1254	0.0641135
1266	0.0718034
1278	0.0339203
1290	0.0178801
1302	0.0232583
1314	0.0350053
1326	0.0946842
1338	0.125255
1350	0.11615
1362	0.0894476
1374	0.0633115
1386	0.0423649
1398	0.0308066
1410	0.0251925
1422	0.0284006
1434	0.0374114
1446	0.0440161
1458	0.0445351
1470	0.0430254
1482	0.0363263
1494	0.065576
1506	0.137662
1518	0.0513286
1530	0.0227865
1542	0.0344864
1554	0.0571313
1566	0.0792574
1578	0.0428839
1590	0.0448653
1602	0.0587354
1614	0.0342033
1626	0.0391569
1638	0.0295328
1650	0.0167478
1662	0.0165591
1674	0.0146249
1686	0.0195785
1698	0.0197672
1710	0.0150495
1722	0.0144833
1734	0.0174083
1746	0.0305235
1758	0.0150023
1770	0.0115584
1782	0.0131624
1794	0.0113225
1806	0.0171253
1818	0.0184462
1830	0.0196256
1842	0.0134454
1854	0.0082088
1866	0.00707655
1878	0.00952975
1890	0.0182575
1902	0.022928
1914	0.0200502
1926	0.0175498
1938	0.0172668
1950	0.0195785
1962	0.00721808
1974	0.00537818
1986	0.00518947
1998	0.00490641
2010	0.0041044
2022	0.00438746
2034	0.00481205
2046	0.00495358
2058	0.005331
2070	0.00500076
2082	0.00476488
2094	0.00528382
2106	0.00528382
2118	0.00537818
2130	0.00495358
2142	0.00476488
2154	0.00424593
2166	0.00419875
2178	0.00401005
2190	0.00424593
2202	0.00391569
2214	0.00363263
2226	0.00363263
2238	0.0034911
2250	0.00386851
2262	0.00438746
2274	0.00467052
2286	0.00613301
2298	0.00556689
2310	0.00396287
2322	0.00301933
2334	0.00301933
2346	0.00311368
2358	0.0028778
2370	0.00278344
2382	0.00334957
2394	0.00551971
2406	0.00542535
2418	0.00551971
2430	0.00528382
2442	0.00542535
2454	0.00542535
2466	0.00580277
2478	0.00566124
2490	0.00665196
2502	0.00561406
2514	0.00580277
2526	0.00556689
2538	0.00542535
2550	0.00476488
2562	0.00476488
2574	0.00481205
2586	0.00547253
2598	0.00561406
2610	0.00556689
2622	0.00481205
2634	0.00462335
2646	0.00424593
2658	0.00429311
2670	0.00476488
2682	0.00462335
2694	0.00566124
2706	0.00570842
2718	0.00589712
2730	0.00726526
2742	0.00929387
2754	0.0102846
2766	0.00750114
2778	0.00618019
2790	0.0063689
2802	0.0071709
2814	0.00839751
2826	0.0102846
2838	0.012785
2850	0.0188236
2862	0.0344392
2874	0.0484036
2886	0.0430254
2898	0.0404779
2910	0.043167
2922	0.0627454
2934	0.130586
2946	0.104261
2958	0.0635002
2970	0.0633587
2982	0.064774
2994	0.0594902
3006	0.0511399
3018	0.0695389
3030	0.0741622
3042	0.103931
3054	0.242962
3066	0.302829
3078	0.175168
3090	0.0992604
3102	0.0416101
3114	0.0284477
3126	0.0178801
3138	0.0109922
3150	0.00901081
3162	0.00858621
3174	0.00768985
3186	0.00797291
3198	0.00773703
3210	0.00726526
3222	0.00674631
3234	0.00740679
3246	0.00665196
3258	0.005331
3270	0.00754832
3282	0.00651043
3294	0.00792574
3306	0.00627454
3318	0.00627454
3330	0.00651043
3342	0.00613301
3354	0.00646325
3366	0.00750114
3378	0.00702937
3390	0.00669913
3402	0.00674631
3414	0.00669913
3426	0.00816162
3438	0.00816162
3450	0.00806727
3462	0.00764267
3474	0.0077842
3486	0.00622736
3498	0.00816162
3510	0.00726526
3522	0.00707655
3534	0.00839751
3546	0.00669913
3558	0.00618019
3570	0.00896363
3582	0.00768985
3594	0.00806727
3606	0.00750114
3618	0.00674631
3630	0.00849186
3642	0.00509512
3654	0.0069822
3666	0.00877492
3678	0.00259473
3690	0.00688784
3702	0.00797291
3714	0.00721808
3726	0.005331
3738	0.0065576
3750	0.00768985
3762	0.0069822
3774	0.00735961
3786	0.00665196
3798	0.00669913
3810	0.0102846
3822	0.0028778
3834	0.0105676
3846	0.0101431
3858	0.0030665
3870	0.00561406
3882	0.0077842
3894	0.00429311
3906	0.0063689
3918	0.011464
3930	0.00886928
3942	0.00731243
3954	0.0107092
3966	0.0108507
