Infrared Spectrum: Cyclohexene, 1-methyl-4-(1-methylethylidene)-
Formula: C 10 H 16
CAS: 586-62-9
Origin: Sadtler Research Labs Under US-EPA Contract
1/CM	ABSORBANCE
450	0.0219885
462	0.00599686
474	0.00410896
486	0.00910635
498	0.00866213
510	0.00422001
522	0.00533054
534	0.00555265
546	0.00832897
558	0.00977266
570	0.00577476
582	0.00433107
594	0.00422001
606	0.00777371
618	0.0056637
630	0.00499739
642	0.0056637
654	0.0054416
666	0.0035537
678	0.00633002
690	0.0054416
702	0.00610791
714	0.0138816
726	0.0253201
738	0.0228769
750	0.0205448
762	0.0284296
774	0.0344264
786	0.0571923
798	0.0667429
810	0.0399791
822	0.0233211
834	0.0149922
846	0.0111053
858	0.0122158
870	0.0178795
882	0.0242096
894	0.0296512
906	0.0387575
918	0.0479749
930	0.0475307
942	0.044088
954	0.0408675
966	0.0285406
978	0.0191011
990	0.0196564
1002	0.0197674
1014	0.0240985
1026	0.0269859
1038	0.0403122
1050	0.0527502
1062	0.0366475
1074	0.0263196
1086	0.0305396
1098	0.0402012
1110	0.0719623
1122	0.0756271
1134	0.041978
1146	0.0563039
1158	0.0695192
1170	0.0661876
1182	0.0617455
1194	0.0441991
1206	0.0761824
1218	0.0794029
1230	0.0788476
1242	0.0347596
1254	0.037647
1266	0.0475307
1278	0.0304285
1290	0.0352038
1302	0.0436438
1314	0.0385354
1326	0.0429775
1338	0.0339822
1350	0.0329827
1362	0.0568591
1374	0.127933
1386	0.144702
1398	0.0626339
1410	0.0505291
1422	0.0878429
1434	0.151698
1446	0.195342
1458	0.170688
1470	0.104723
1482	0.0596355
1494	0.0415338
1506	0.0380912
1518	0.037758
1530	0.0313169
1542	0.0324275
1554	0.0279854
1566	0.0258753
1578	0.0228769
1590	0.0213222
1602	0.0198785
1614	0.018768
1626	0.0155474
1638	0.0173243
1650	0.0132153
1662	0.0116606
1674	0.0171022
1686	0.018768
1698	0.0149922
1710	0.0113274
1722	0.0121048
1734	0.0102169
1746	0.00810687
1758	0.0073295
1770	0.00688529
1782	0.00521949
1794	0.00422001
1806	0.00333159
1818	0.00211001
1830	0.00233211
1842	0.00299843
1854	0.00222106
1866	0.00310948
1878	0.00299843
1890	0.00299843
1902	0.00344264
1914	0.00388685
1926	0.00322054
1938	0.00322054
1950	0.00288738
1962	0.00233211
1974	0.00233211
1986	0.00155474
1998	0.000999477
2010	0.00122158
2022	0.00166579
2034	0.00111053
2046	0.000444212
2058	0.000555265
2070	0.000555265
2082	0.000333159
2094	0.000777371
2106	0.000666318
2118	0.000444212
2130	0.000666318
2142	0.000888424
2154	0.000888424
2166	0.000555265
2178	0.000444212
2190	0.000555265
2202	0.000222106
2214	0.000333159
2226	0.000777371
2238	0.000999477
2250	0.00155474
2262	0.000777371
2274	0.000444212
2286	0.00122158
2298	0.00166579
2310	0.00288738
2322	0.00344264
2334	0.00322054
2346	0.00488633
2358	0.00488633
2370	0.0054416
2382	0.00455317
2394	0.00322054
2406	0.00333159
2418	0.00366475
2430	0.0037758
2442	0.00422001
2454	0.00466423
2466	0.0054416
2478	0.00488633
2490	0.00388685
2502	0.00344264
2514	0.00399791
2526	0.00521949
2538	0.00577476
2550	0.00499739
2562	0.00433107
2574	0.00533054
2586	0.00721844
2598	0.0073295
2610	0.0073295
2622	0.00777371
2634	0.0073295
2646	0.00799582
2658	0.00910635
2670	0.00888424
2682	0.0092174
2694	0.0115495
2706	0.0135485
2718	0.0202116
2730	0.0393128
2742	0.0531944
2754	0.0380912
2766	0.0316501
2778	0.0347596
2790	0.0436438
2802	0.0706297
2814	0.160916
2826	0.255755
2838	0.37336
2850	0.523615
2862	0.64433
2874	0.736948
2886	0.663764
2898	0.752495
2910	0.972047
2922	1.11053
2934	0.906415
2946	0.531278
2958	0.423667
2970	0.647217
2982	0.622119
2994	0.419891
3006	0.364587
3018	0.337823
3030	0.273079
3042	0.18346
3054	0.132486
3066	0.0876208
3078	0.0575255
3090	0.0435328
3102	0.0352038
3114	0.0255422
3126	0.0179906
3138	0.0144369
3150	0.0113274
3162	0.00977266
3174	0.00844003
3186	0.00710739
3198	0.00577476
3210	0.00510844
3222	0.00433107
3234	0.00344264
3246	0.00322054
3258	0.00288738
3270	0.00277633
3282	0.00288738
3294	0.00255422
3306	0.0037758
3318	0.00399791
3330	0.00388685
3342	0.00310948
3354	0.00299843
3366	0.00255422
3378	0.00199895
3390	0.00177685
3402	0.00199895
3414	0.00133264
3426	0.00122158
3438	0.00144369
3450	0.0018879
3462	0.00155474
3474	0.00144369
3486	0.00177685
3498	0.00177685
3510	0.00111053
3522	0.00122158
3534	0.000777371
3546	0.00199895
3558	0.00211001
3570	0.00233211
3582	0.000999477
3594	0.00211001
3606	0.00255422
3618	0.00222106
3630	0.00166579
3642	0.00299843
3654	0.00433107
3666	0.000999477
3678	0.00322054
3690	0.00366475
3702	0.00144369
3714	0.00155474
3726	0.000111053
3738	0.00444212
3750	0
3762	0.00133264
3774	0.00266527
3786	0.00155474
3798	0.00322054
3810	0.000777371
3822	0.00211001
3834	0.00199895
3846	0.00222106
3858	0.00299843
3870	0.00333159
3882	0.00155474
3894	0.00433107
3906	0.00233211
3918	0.00333159
3930	0.00521949
3942	0.00288738
3954	0.00388685
3966	0.00299843
