Infrared Spectrum: Benzoic acid, 3-methoxy-
Formula: C 8 H 8 O 3
CAS: 586-38-9
Origin: Sadtler Research Labs Under US-EPA Contract
1/CM	ABSORBANCE
450	0
462	0.0129774
474	0.0086516
486	0.013396
498	0.00893069
510	0.026513
522	0.0420021
534	0.0531655
546	0.0482815
558	0.0587472
570	0.0953072
582	0.151682
594	0.181963
606	0.116378
618	0.0634916
630	0.230663
642	0.159915
654	0.0203731
666	0.00404672
678	0.0320947
690	0.0396299
702	0.0279084
714	0.134658
726	0.194801
738	0.0817716
750	0.213918
762	0.306434
774	0.121541
786	0.0362809
798	0.0255362
810	0.0226058
822	0.0140937
834	0.0113029
846	0.0136751
858	0.0227453
870	0.0549795
882	0.107726
894	0.0941909
906	0.0362809
918	0.0142333
930	0.00851206
942	0.00907023
954	0.00851206
966	0.00795389
978	0.011582
990	0.0238617
1002	0.0323737
1014	0.0450721
1026	0.110099
1038	0.260944
1050	0.36881
1062	0.353739
1074	0.266525
1086	0.334203
1098	0.283828
1110	0.108564
1122	0.0782831
1134	0.119029
1146	0.287317
1158	0.465373
1170	0.421138
1182	0.319691
1194	0.243082
1206	0.125448
1218	0.0944699
1230	0.171078
1242	0.479885
1254	0.592356
1266	0.287736
1278	0.225081
1290	0.258013
1302	0.221872
1314	0.236524
1326	0.308388
1338	0.374252
1350	0.252431
1362	0.203871
1374	0.128658
1386	0.0580495
1398	0.0471652
1410	0.0468861
1422	0.110796
1434	0.248524
1446	0.186428
1458	0.205266
1470	0.186149
1482	0.220197
1494	0.212802
1506	0.0770272
1518	0.0320947
1530	0.0241408
1542	0.0294434
1554	0.0330715
1566	0.0579099
1578	0.156566
1590	0.266525
1602	0.279782
1614	0.159915
1626	0.0484211
1638	0.0258153
1650	0.0277689
1662	0.0209313
1674	0.0246989
1686	0.0325133
1698	0.0526073
1710	0.0806553
1722	0.0934931
1734	0.107726
1746	0.36546
1758	1.28267
1770	0.925582
1782	0.138426
1794	0.0662825
1806	0.0639102
1818	0.0493979
1830	0.0192568
1842	0.00781435
1854	0.00516305
1866	0.0086516
1878	0.00837252
1890	0.00516305
1902	0.00251176
1914	0.00460489
1926	0.00669802
1938	0.00823298
1950	0.0053026
1962	0.0043258
1974	0.00460489
1986	0.00195359
1998	0.00111634
2010	0.0016745
2022	0.00362809
2034	0.00572122
2046	0.00669802
2058	0.00544214
2070	0.00516305
2082	0.00460489
2094	0.0043258
2106	0.00418626
2118	0.00446534
2130	0.00502351
2142	0.00488397
2154	0.00306992
2166	0.00209313
2178	0.00209313
2190	0.00181405
2202	0.00153496
2214	0.0016745
2226	0.00125588
2238	0.00125588
2250	0.000418626
2262	0.000139542
2274	0.000139542
2286	0.000279084
2298	0.000418626
2310	0.000139542
2322	0.00153496
2334	0.00251176
2346	0.000139542
2358	0.00334901
2370	0.000139542
2382	0.000418626
2394	0.00279084
2406	0.00279084
2418	0.00320947
2430	0.00334901
2442	0.00348855
2454	0.00404672
2466	0.00488397
2478	0.00627939
2490	0.00823298
2502	0.00809344
2514	0.00669802
2526	0.00669802
2538	0.00669802
2550	0.00627939
2562	0.00627939
2574	0.00627939
2586	0.00641893
2598	0.00627939
2610	0.00600031
2622	0.00586076
2634	0.0053026
2646	0.00502351
2658	0.00446534
2670	0.00390718
2682	0.00376763
2694	0.00418626
2706	0.0043258
2718	0.00418626
2730	0.00418626
2742	0.00460489
2754	0.00502351
2766	0.00572122
2778	0.00641893
2790	0.00739573
2802	0.00934931
2814	0.0121402
2826	0.0206522
2838	0.0509328
2850	0.0707478
2862	0.038095
2874	0.0291643
2886	0.0320947
2898	0.0387927
2910	0.0491188
2922	0.0618171
2934	0.0704687
2946	0.103959
2958	0.113448
2970	0.0800971
2982	0.0467466
2994	0.0445139
3006	0.0883301
3018	0.0873533
3030	0.0348855
3042	0.0336296
3054	0.0337692
3066	0.0346064
3078	0.0503747
3090	0.0478629
3102	0.0263734
3114	0.0168846
3126	0.0114424
3138	0.00809344
3150	0.0069771
3162	0.00586076
3174	0.00572122
3186	0.00572122
3198	0.0053026
3210	0.00474443
3222	0.00488397
3234	0.00390718
3246	0.00348855
3258	0.00376763
3270	0.00334901
3282	0.00334901
3294	0.00237221
3306	0.00306992
3318	0.00306992
3330	0.00320947
3342	0.00348855
3354	0.00362809
3366	0.00279084
3378	0.0026513
3390	0.0016745
3402	0.0016745
3414	0.000418626
3426	0.00153496
3438	0.0016745
3450	0.00111634
3462	0.000976794
3474	0.000976794
3486	0.00237221
3498	0.00572122
3510	0.00544214
3522	0.000976794
3534	0.000418626
3546	0.00195359
3558	0.00739573
3570	0.0747945
3582	0.442767
3594	0.2375
3606	0.0069771
3618	0.00279084
3630	0.00418626
3642	0.00181405
3654	0.000837252
3666	0.00209313
3678	0.00153496
3690	0.00293038
3702	0.00237221
3714	0.00125588
3726	0.00348855
3738	0.00306992
3750	0.00306992
3762	0.00139542
3774	0.00111634
3786	0.00125588
3798	0.00334901
3810	0.0026513
3822	0.0016745
3834	0.00251176
3846	0.000418626
3858	0.000418626
3870	0.0026513
3882	0.00348855
3894	0.00293038
3906	0.00223267
3918	0.00181405
3930	0.00306992
3942	0.0026513
3954	0.00125588
3966	0.000837252
