Infrared Spectrum: 3-Methylbenzyl alcohol
Formula: C 8 H 10 O
CAS: 587-03-1
Origin: Sadtler Research Labs Under US-EPA Contract
1/CM	ABSORBANCE
450	0
462	0.0413295
474	0.0480419
486	0.0443021
498	0.0501036
510	0.0523091
522	0.0546584
534	0.047946
546	0.0403705
558	0.0424802
570	0.0405144
582	0.0420966
594	0.0555215
606	0.0786314
618	0.0789671
630	0.0458843
642	0.0373979
654	0.0426719
666	0.0455008
678	0.0689463
690	0.142687
702	0.180229
714	0.121447
726	0.119529
738	0.14916
750	0.137317
762	0.1774
774	0.273724
786	0.260443
798	0.124036
810	0.0591174
822	0.0475145
834	0.0462199
846	0.0476583
858	0.0569598
870	0.0870699
882	0.121495
894	0.110563
906	0.0838096
918	0.0650148
930	0.0677477
942	0.0743163
954	0.0910015
966	0.128016
978	0.17553
990	0.229661
1002	0.288203
1014	0.38328
1026	0.47457
1038	0.433624
1050	0.302012
1062	0.21686
1074	0.148872
1086	0.105577
1098	0.0871658
1110	0.0742204
1122	0.0739327
1134	0.0849603
1146	0.132715
1158	0.172606
1170	0.133434
1182	0.122262
1194	0.117659
1206	0.110707
1218	0.106152
1230	0.105337
1242	0.123029
1254	0.129646
1266	0.105433
1278	0.0897549
1290	0.0863507
1302	0.087885
1314	0.0911453
1326	0.0926796
1338	0.0940701
1350	0.107255
1362	0.15453
1374	0.249607
1386	0.298608
1398	0.214175
1410	0.150167
1422	0.125187
1434	0.128016
1446	0.134153
1458	0.127872
1470	0.134824
1482	0.14705
1494	0.145133
1506	0.102796
1518	0.0770972
1530	0.0712957
1542	0.0644874
1554	0.0558571
1566	0.0548023
1578	0.0658778
1590	0.086159
1602	0.126817
1614	0.150694
1626	0.0884604
1638	0.044398
1650	0.0400829
1662	0.039939
1674	0.0420486
1686	0.040802
1698	0.0371102
1710	0.0351444
1722	0.036439
1734	0.0381171
1746	0.0410897
1758	0.0437747
1770	0.0435829
1782	0.0431035
1794	0.0400349
1806	0.036439
1818	0.0348567
1830	0.0358157
1842	0.0398911
1854	0.0466994
1866	0.0465076
1878	0.0380212
1890	0.0347608
1902	0.0338499
1914	0.0355759
1926	0.0419527
1938	0.0456446
1950	0.0386445
1962	0.0326512
1974	0.0323156
1986	0.0323635
1998	0.0338499
2010	0.0353841
2022	0.0367266
2034	0.037254
2046	0.0361513
2058	0.0356239
2070	0.0338019
2082	0.0326033
2094	0.03198
2106	0.03198
2118	0.0315964
2130	0.0308772
2142	0.0308772
2154	0.0308293
2166	0.0306854
2178	0.0304457
2190	0.030206
2202	0.0314526
2214	0.031117
2226	0.0306375
2238	0.0306375
2250	0.0306375
2262	0.0311649
2274	0.0320759
2286	0.0325553
2298	0.0329868
2310	0.0324115
2322	0.0306375
2334	0.0320759
2346	0.0345211
2358	0.0317882
2370	0.0368705
2382	0.0369184
2394	0.0338978
2406	0.0341855
2418	0.0345691
2430	0.0342334
2442	0.0333704
2454	0.0341376
2466	0.0342334
2478	0.0348088
2490	0.034617
2502	0.0342334
2514	0.0345691
2526	0.033754
2538	0.0341855
2550	0.0341376
2562	0.0336581
2574	0.0332745
2586	0.034665
2598	0.0352883
2610	0.03548
2622	0.034665
2634	0.0348088
2646	0.0342814
2658	0.0340896
2670	0.0345691
2682	0.0349526
2694	0.0372061
2706	0.039987
2718	0.0425281
2730	0.0453569
2742	0.0522132
2754	0.0519735
2766	0.0480898
2778	0.0483296
2790	0.0523091
2802	0.0555694
2814	0.0625695
2826	0.0752752
2838	0.0972345
2850	0.13142
2862	0.189339
2874	0.286957
2886	0.336006
2898	0.293334
2910	0.280196
2922	0.334423
2934	0.384239
2946	0.32656
2958	0.23973
2970	0.178023
2982	0.143502
2994	0.143406
3006	0.168147
3018	0.225154
3030	0.311361
3042	0.295875
3054	0.229757
3066	0.222421
3078	0.163016
3090	0.0902823
3102	0.0741725
3114	0.0659257
3126	0.0496721
3138	0.0384527
3150	0.0350006
3162	0.0343293
3174	0.033706
3186	0.0338499
3198	0.0333225
3210	0.0321238
3222	0.0315485
3234	0.03198
3246	0.032891
3258	0.0313087
3270	0.031069
3282	0.0330827
3294	0.0324594
3306	0.0314526
3318	0.0320759
3330	0.032843
3342	0.0340417
3354	0.0323635
3366	0.0327471
3378	0.0325074
3390	0.0343773
3402	0.0344252
3414	0.0342814
3426	0.0333704
3438	0.0340417
3450	0.0335143
3462	0.0348088
3474	0.0334663
3486	0.0335622
3498	0.0329389
3510	0.0326512
3522	0.0342334
3534	0.0335143
3546	0.0322197
3558	0.032843
3570	0.031117
3582	0.0321238
3594	0.0338499
3606	0.0361992
3618	0.0405623
3630	0.0611791
3642	0.0987208
3654	0.134249
3666	0.116892
3678	0.0828027
3690	0.0605558
3702	0.0431993
3714	0.0354321
3726	0.0326512
3738	0.031117
3750	0.0309731
3762	0.0304457
3774	0.0330348
3786	0.0340417
3798	0.0324594
3810	0.0309252
3822	0.031932
3834	0.0306854
3846	0.0336101
3858	0.0333225
3870	0.0345211
3882	0.0343293
3894	0.0373979
3906	0.0370143
3918	0.0360074
3930	0.0313567
3942	0.0354321
3954	0.0304937
3966	0.0309252
