Infrared Spectrum: Phenol, 2,5-bis(1,1-dimethylethyl)-
Formula: C 14 H 22 O
CAS: 5875-45-6
Origin: Sadtler Research Labs Under US-EPA Contract
1/CM	ABSORBANCE
450	0.0183191
462	0.0110984
474	0.00976127
486	0.0147088
498	0.0234003
510	0.0208597
522	0.0135053
534	0.0113659
546	0.0135053
558	0.0128367
570	0.0385102
582	0.0286152
594	0.0092264
606	0.00481378
618	0.00508121
630	0.00989498
642	0.0355685
654	0.0734101
666	0.0252723
678	0.00387776
690	0.00601722
702	0.0135053
714	0.0101624
726	0.0025406
738	0.00187202
750	0.00106973
762	0.000802296
774	0.00173831
786	0.00601722
798	0.0238014
810	0.0964092
822	0.0708695
834	0.0426554
846	0.0553584
858	0.037173
870	0.0260746
882	0.0208597
894	0.0109647
906	0.0128367
918	0.0393125
930	0.177307
942	0.109112
954	0.0250049
966	0.0135053
978	0.00936012
990	0.00842411
1002	0.0105636
1014	0.0243363
1026	0.0283478
1038	0.0148425
1050	0.0196563
1062	0.0574979
1074	0.0722066
1086	0.0255398
1098	0.0189877
1110	0.0275455
1122	0.0738112
1134	0.16768
1146	0.268101
1158	0.203248
1170	0.169686
1182	0.266095
1194	0.276792
1206	0.2562
1218	0.131443
1230	0.112589
1242	0.0865143
1254	0.117002
1266	0.196696
1278	0.161663
1290	0.160459
1302	0.196429
1314	0.161796
1326	0.0624454
1338	0.0367719
1350	0.0584339
1362	0.150163
1374	0.182389
1386	0.154442
1398	0.289361
1410	0.273583
1422	0.166209
1434	0.0711369
1446	0.0637825
1458	0.0842411
1470	0.115531
1482	0.153773
1494	0.154175
1506	0.119141
1518	0.100421
1530	0.054155
1542	0.036237
1554	0.0727415
1566	0.0898572
1578	0.0540213
1590	0.0381091
1602	0.0585676
1614	0.128902
1626	0.0927989
1638	0.0361033
1650	0.0123019
1662	0.00989498
1674	0.00855782
1686	0.00909269
1698	0.00842411
1710	0.00695323
1722	0.00534864
1734	0.00574979
1746	0.0124356
1758	0.011767
1770	0.00561607
1782	0.00494749
1794	0.00347662
1806	0.00347662
1818	0.00347662
1830	0.00240689
1842	0.00307547
1854	0.00387776
1866	0.00534864
1878	0.00855782
1890	0.00655208
1902	0.0033429
1914	0.00173831
1926	0.00173831
1938	0.00187202
1950	0.00160459
1962	0.00106973
1974	0.000802296
1986	0.00066858
1998	0.000802296
2010	0.00133716
2022	0.000802296
2034	0.00066858
2046	0.000267432
2058	0.000133716
2070	0.000133716
2082	0.000267432
2094	0.000401148
2106	0.000936012
2118	0.00066858
2130	0.000936012
2142	0.00106973
2154	0.00120344
2166	0.00120344
2178	0.00173831
2190	0.00173831
2202	0.00187202
2214	0.00120344
2226	0.00160459
2238	0.00106973
2250	0.000401148
2262	0.000401148
2274	0.00106973
2286	0.00227317
2298	0.00307547
2310	0.00374405
2322	0.00508121
2334	0.00615094
2346	0.00521492
2358	0.0058835
2370	0.00695323
2382	0.00628465
2394	0.00481378
2406	0.00361033
2418	0.0033429
2430	0.00320918
2442	0.00294175
2454	0.00361033
2466	0.00361033
2478	0.00294175
2490	0.0025406
2502	0.0025406
2514	0.00294175
2526	0.0025406
2538	0.00213946
2550	0.00267432
2562	0.00374405
2574	0.00374405
2586	0.00307547
2598	0.00307547
2610	0.00294175
2622	0.00294175
2634	0.00374405
2646	0.00468006
2658	0.00548236
2670	0.00574979
2682	0.00521492
2694	0.00574979
2706	0.00735438
2718	0.0121682
2730	0.0123019
2742	0.00976127
2754	0.0109647
2766	0.0104298
2778	0.0101624
2790	0.0147088
2802	0.0151099
2814	0.0211271
2826	0.0256735
2838	0.0298187
2850	0.0457309
2862	0.109781
2874	0.261014
2886	0.307012
2898	0.281205
2910	0.348999
2922	0.40663
2934	0.364242
2946	0.429897
2958	0.893089
2970	1.33716
2982	0.557328
2994	0.186534
3006	0.132513
3018	0.0810319
3030	0.0587013
3042	0.0530853
3054	0.0517481
3066	0.0437251
3078	0.0395799
3090	0.0542887
3102	0.0458646
3114	0.0248712
3126	0.0168482
3138	0.0139065
3150	0.011767
3162	0.0113659
3174	0.00989498
3186	0.0112321
3198	0.0110984
3210	0.0100287
3222	0.00869154
3234	0.00802296
3246	0.00708695
3258	0.00681952
3270	0.00788924
3282	0.00762181
3294	0.00601722
3306	0.00494749
3318	0.0041452
3330	0.00508121
3342	0.00561607
3354	0.00561607
3366	0.00534864
3378	0.00574979
3390	0.00508121
3402	0.00494749
3414	0.00468006
3426	0.00481378
3438	0.00454634
3450	0.00347662
3462	0.00320918
3474	0.00320918
3486	0.00240689
3498	0.00213946
3510	0.00240689
3522	0.00187202
3534	0.00147088
3546	0.00066858
3558	0.00213946
3570	0.00187202
3582	0.000936012
3594	0.00267432
3606	0.00347662
3618	0.00735438
3630	0.0472017
3642	0.177842
3654	0.0988161
3666	0.0827702
3678	0.0861131
3690	0.0346324
3702	0.0135053
3714	0.00454634
3726	0.00227317
3738	0.000936012
3750	0.00120344
3762	0.00133716
3774	0.00173831
3786	0.00240689
3798	0.00120344
3810	0.00454634
3822	0.00066858
3834	0.000936012
3846	0.00427891
3858	0.00347662
3870	0.00106973
3882	0.00294175
3894	0.0041452
3906	0.00320918
3918	0.00454634
3930	0.00320918
3942	0.00227317
3954	0.00307547
3966	0.00280804
