Infrared Spectrum: Acetamide, N-(phenylmethyl)-
Formula: C 9 H 11 N O
CAS: 588-46-5
Origin: Sadtler Research Labs Under US-EPA Contract
1/CM	ABSORBANCE
450	0
462	0.0489417
474	0.0455749
486	0.0657757
498	0.0693889
510	0.054772
522	0.0359672
534	0.0471352
546	0.0451643
558	0.0309581
570	0.0456571
582	0.079982
594	0.0465603
606	0.0495987
618	0.0492702
630	0.0493523
642	0.0463961
654	0.0415512
666	0.0478742
678	0.0734126
690	0.118659
702	0.159061
714	0.10979
726	0.105028
738	0.171378
750	0.120548
762	0.0653651
774	0.0482027
786	0.0444253
798	0.046314
810	0.054033
822	0.0520622
834	0.0587137
846	0.0591242
858	0.0538688
870	0.0483669
882	0.0482848
894	0.0445895
906	0.0450822
918	0.0432757
930	0.0448359
942	0.0428651
954	0.0451643
966	0.049106
978	0.0468888
990	0.0419618
1002	0.0418797
1014	0.049106
1026	0.0725093
1038	0.0649545
1050	0.0518979
1062	0.0553469
1074	0.0716881
1086	0.0897539
1098	0.0817885
1110	0.061095
1122	0.0464782
1134	0.0388413
1146	0.0394983
1158	0.0416333
1170	0.0465603
1182	0.0534582
1194	0.0607666
1206	0.0802283
1218	0.137546
1230	0.22886
1242	0.321734
1254	0.285931
1266	0.191743
1278	0.125967
1290	0.0981298
1302	0.0892612
1314	0.0882758
1326	0.0795714
1338	0.0695531
1350	0.0943524
1362	0.136314
1374	0.153969
1386	0.111925
1398	0.0867156
1410	0.0849911
1422	0.105192
1434	0.139517
1446	0.194125
1458	0.248322
1470	0.324526
1482	0.468067
1494	0.60627
1506	0.486215
1518	0.243477
1530	0.127774
1542	0.0883579
1554	0.0687319
1566	0.05896
1578	0.0590421
1590	0.0592064
1602	0.0676644
1614	0.0596169
1626	0.0495166
1638	0.0564965
1650	0.0658578
1662	0.0679929
1674	0.0902466
1686	0.141159
1698	0.279608
1710	0.637803
1722	0.705385
1734	0.343495
1746	0.158814
1758	0.0866334
1770	0.0627374
1782	0.0536224
1794	0.0541972
1806	0.049106
1818	0.0408121
1830	0.038595
1842	0.0363778
1854	0.0386771
1866	0.0399089
1878	0.0384308
1890	0.0372811
1902	0.0353924
1914	0.0351461
1926	0.0371169
1938	0.0395804
1950	0.0408943
1962	0.0386771
1974	0.0348176
1986	0.0340786
1998	0.0332574
2010	0.0326004
2022	0.0324362
2034	0.0324362
2046	0.0326826
2058	0.0329289
2070	0.0326004
2082	0.0321077
2094	0.032272
2106	0.0323541
2118	0.0319435
2130	0.0318614
2142	0.0314508
2154	0.0317793
2166	0.0323541
2178	0.0325183
2190	0.0323541
2202	0.0325183
2214	0.0321077
2226	0.0321077
2238	0.0321899
2250	0.0317793
2262	0.0320256
2274	0.0325183
2286	0.0330932
2298	0.0343249
2310	0.0364599
2322	0.0372811
2334	0.0369526
2346	0.0384308
2358	0.0373632
2370	0.035064
2382	0.0340786
2394	0.0312866
2406	0.0307118
2418	0.0312045
2430	0.0307118
2442	0.0307939
2454	0.0305475
2466	0.0303012
2478	0.0301369
2490	0.0302191
2502	0.0292337
2514	0.0300548
2526	0.0298085
2538	0.0298906
2550	0.0298085
2562	0.0304654
2574	0.0307939
2586	0.0304654
2598	0.0310402
2610	0.0310402
2622	0.0304654
2634	0.0306296
2646	0.0307939
2658	0.0314508
2670	0.0313687
2682	0.0320256
2694	0.0328468
2706	0.0325183
2718	0.0330932
2730	0.0324362
2742	0.0326826
2754	0.0320256
2766	0.0316972
2778	0.0323541
2790	0.0338322
2802	0.0345713
2814	0.0348997
2826	0.0355567
2838	0.0374454
2850	0.0414691
2862	0.0477921
2874	0.0534582
2886	0.0578925
2898	0.0637228
2910	0.0724272
2922	0.087044
2934	0.101086
2946	0.0944346
2958	0.0756298
2970	0.0648724
2982	0.0569892
2994	0.0541151
3006	0.0592064
3018	0.0776006
3030	0.113404
3042	0.12605
3054	0.0936955
3066	0.112993
3078	0.128185
3090	0.0852374
3102	0.0676644
3114	0.0528833
3126	0.0401552
3138	0.0343249
3150	0.0331753
3162	0.0332574
3174	0.0330932
3186	0.0325183
3198	0.0319435
3210	0.0326826
3222	0.031615
3234	0.0316972
3246	0.0320256
3258	0.031615
3270	0.031615
3282	0.0320256
3294	0.0320256
3306	0.0325183
3318	0.0310402
3330	0.0318614
3342	0.0314508
3354	0.0321899
3366	0.0333395
3378	0.0323541
3390	0.0342428
3402	0.0369526
3414	0.0423724
3426	0.0440968
3438	0.043522
3450	0.0513231
3462	0.0642155
3474	0.0738232
3486	0.0586315
3498	0.0433578
3510	0.0354745
3522	0.033011
3534	0.0326826
3546	0.032272
3558	0.0303012
3570	0.0326826
3582	0.0316972
3594	0.0319435
3606	0.031615
3618	0.0320256
3630	0.034407
3642	0.0303833
3654	0.0355567
3666	0.0318614
3678	0.0323541
3690	0.0331753
3702	0.0319435
3714	0.0319435
3726	0.0306296
3738	0.0323541
3750	0.0381023
3762	0.0306296
3774	0.0309581
3786	0.0298906
3798	0.0313687
3810	0.0307118
3822	0.033668
3834	0.0344891
3846	0.0344891
3858	0.0340786
3870	0.0331753
3882	0.0342428
3894	0.0331753
3906	0.0333395
3918	0.0331753
3930	0.0317793
3942	0.0339964
3954	0.033668
3966	0.0325183
