Infrared Spectrum: Benzene, 1-bromo-4-ethoxy-
Formula: C 8 H 9 Br O
CAS: 588-96-5
Origin: Sadtler Research Labs Under US-EPA Contract
1/CM	ABSORBANCE
450	0
462	0.0101346
474	0.0165704
486	0.017828
498	0.026631
510	0.0292201
522	0.0270009
534	0.0126497
546	0.00303297
558	0.00850712
570	0.0112442
582	0.0123538
594	0.0271488
606	0.0287023
618	0.0370615
630	0.0477878
642	0.0622869
654	0.0150169
666	0.0082852
678	0.0110962
690	0.0106524
702	0.00998662
714	0.0114661
726	0.00776737
738	0.0109483
750	0.00969072
762	0.00983867
774	0.0143512
786	0.0214527
798	0.0379492
810	0.0690926
822	0.114957
834	0.0790793
846	0.0309215
858	0.014869
870	0.0109483
882	0.0151649
894	0.0196773
906	0.0252255
918	0.0301078
930	0.0269269
942	0.0166444
954	0.0111702
966	0.0100606
978	0.0131676
990	0.0182718
1002	0.0777477
1014	0.0574786
1026	0.0452727
1038	0.102455
1050	0.138851
1062	0.0929126
1074	0.147506
1086	0.0575525
1098	0.05918
1110	0.0553333
1122	0.0517825
1134	0.0271488
1146	0.0204911
1158	0.0339545
1170	0.14144
1182	0.0359519
1194	0.0301078
1206	0.0479358
1218	0.097647
1230	0.343022
1242	0.73975
1254	0.264978
1266	0.134265
1278	0.200916
1290	0.137667
1302	0.0987566
1314	0.0574786
1326	0.0270748
1338	0.020565
1350	0.0190116
1362	0.020713
1374	0.0251515
1386	0.0451247
1398	0.0891399
1410	0.0329928
1422	0.0233761
1434	0.0273707
1446	0.0341025
1458	0.0388369
1470	0.0795971
1482	0.368691
1494	0.505471
1506	0.102012
1518	0.0369875
1530	0.0246337
1542	0.0155347
1554	0.0163485
1566	0.0221185
1578	0.061991
1590	0.0967593
1602	0.0800409
1614	0.0202691
1626	0.0156087
1638	0.0144251
1650	0.0115401
1662	0.00909892
1674	0.00865507
1686	0.00865507
1698	0.00850712
1710	0.00850712
1722	0.00954277
1734	0.00850712
1746	0.0113922
1758	0.00932085
1770	0.00843315
1782	0.0082852
1794	0.00724955
1806	0.0073975
1818	0.00880302
1830	0.00813725
1842	0.00961675
1854	0.0112442
1866	0.0136114
1878	0.0130196
1890	0.00880302
1902	0.00872905
1914	0.00821122
1926	0.00776737
1938	0.0076934
1950	0.00776737
1962	0.00902495
1974	0.00850712
1986	0.00673172
1998	0.00784135
2010	0.00843315
2022	0.00843315
2034	0.00843315
2046	0.00939482
2058	0.00909892
2070	0.00835917
2082	0.00843315
2094	0.0071016
2106	0.00613992
2118	0.005918
2130	0.00547415
2142	0.005918
2154	0.00584402
2166	0.00569608
2178	0.00584402
2190	0.0053262
2202	0.00547415
2214	0.00547415
2226	0.00569608
2238	0.00577005
2250	0.0053262
2262	0.00569608
2274	0.0068057
2286	0.0071016
2298	0.00569608
2310	0.00347682
2322	0.00362477
2334	0.00303297
2346	0.00303297
2358	0.00303297
2370	0.00466042
2382	0.00695365
2394	0.00584402
2406	0.00643582
2418	0.00732352
2430	0.0065098
2442	0.00606595
2454	0.0062139
2466	0.0076934
2478	0.00843315
2490	0.00717558
2502	0.0073975
2514	0.008877
2526	0.0100606
2538	0.00895097
2550	0.00673172
2562	0.00665775
2574	0.00673172
2586	0.00636185
2598	0.00687968
2610	0.00643582
2622	0.00643582
2634	0.00673172
2646	0.00643582
2658	0.00673172
2670	0.00554812
2682	0.00665775
2694	0.00702762
2706	0.00702762
2718	0.00717558
2730	0.00776737
2742	0.00983867
2754	0.00880302
2766	0.00761942
2778	0.00954277
2790	0.00998662
2802	0.0102825
2814	0.0105784
2826	0.0125018
2838	0.0144991
2850	0.0157567
2862	0.0197513
2874	0.0331408
2886	0.0505249
2898	0.0537798
2910	0.0595499
2922	0.056295
2934	0.0512647
2946	0.0689447
2958	0.0471221
2970	0.0460864
2982	0.0864768
2994	0.114365
3006	0.0514866
3018	0.0221925
3030	0.0159786
3042	0.0226363
3054	0.0188636
3066	0.014647
3078	0.0209349
3090	0.0212308
3102	0.0250035
3114	0.0139813
3126	0.0076934
3138	0.00687968
3150	0.00673172
3162	0.00813725
3174	0.0053262
3186	0.00517825
3198	0.0076934
3210	0.00695365
3222	0.00599198
3234	0.00436452
3246	0.00577005
3258	0.00724955
3270	0.0041426
3282	0.00421658
3294	0.0047344
3306	0.00643582
3318	0.0053262
3330	0.00303297
3342	0.005918
3354	0.005918
3366	0.0047344
3378	0.00421658
3390	0.00517825
3402	0.0062139
3414	0.0053262
3426	0.00436452
3438	0.00540018
3450	0.0056221
3462	0.0050303
3474	0.0044385
3486	0.00510428
3498	0.00480838
3510	0.00451248
3522	0.00569608
3534	0.00488235
3546	0.00488235
3558	0.00525222
3570	0.00540018
3582	0.0065098
3594	0.0041426
3606	0.00466042
3618	0.0068057
3630	0.00569608
3642	0.00554812
3654	0.00480838
3666	0.0073975
3678	0.00754545
3690	0.0050303
3702	0.00599198
3714	0.0079893
3726	0.008877
3738	0.00732352
3750	0.005918
3762	0.00969072
3774	0.00924687
3786	0.0085811
3798	0.0085811
3810	0.00939482
3822	0.00961675
3834	0.0085811
3846	0.0082852
3858	0.0101346
3870	0.0091729
3882	0.0113182
3894	0.00932085
3906	0.00717558
3918	0.00880302
3930	0.0108743
3942	0.0113182
3954	0.0026631
3966	0.00303297
