Infrared Spectrum: Cyclohexanone, 4-methyl-
Formula: C 7 H 12 O
CAS: 589-92-4
Origin: Sadtler Research Labs Under US-EPA Contract
1/CM	ABSORBANCE
450	0.016843
462	0.0090432
474	0.0203472
486	0.0322164
498	0.0415987
510	0.0503028
522	0.0305208
534	0.0165038
546	0.017069
558	0.0090432
570	0.0176342
582	0.0157126
594	0.0100606
606	0.0118692
618	0.0096084
630	0.0137909
642	0.0137909
654	0.0119822
666	0.0102866
678	0.0179734
690	0.014017
702	0.0107388
714	0.0132257
726	0.0205733
738	0.0347033
750	0.0383206
762	0.0289382
774	0.014243
786	0.0135648
798	0.016956
810	0.0202342
822	0.0122083
834	0.0107388
846	0.00938232
858	0.0101736
870	0.0131126
882	0.0228341
894	0.0289382
906	0.0291643
918	0.0202342
930	0.0150343
942	0.0192168
954	0.0270166
966	0.025321
978	0.0188777
990	0.0319903
1002	0.0517723
1014	0.0482681
1026	0.0214776
1038	0.0161647
1050	0.0237384
1062	0.0321034
1074	0.0341381
1086	0.0305208
1098	0.0357206
1110	0.0709891
1122	0.101397
1134	0.0834235
1146	0.0434074
1158	0.04239
1170	0.0770933
1182	0.104562
1194	0.0898668
1206	0.0429552
1218	0.0335729
1230	0.042277
1242	0.056633
1254	0.0526766
1266	0.0299556
1278	0.0233993
1290	0.0314251
1302	0.0489463
1314	0.0709891
1326	0.0928058
1338	0.0789019
1350	0.039564
1362	0.0259992
1374	0.0400162
1386	0.0602503
1398	0.0401292
1410	0.042277
1422	0.0908842
1434	0.124796
1446	0.12197
1458	0.130674
1470	0.10004
1482	0.048042
1494	0.0211385
1506	0.0149213
1518	0.0117562
1530	0.0102866
1542	0.0122083
1554	0.0096084
1566	0.00746064
1578	0.0090432
1590	0.00859104
1602	0.0106258
1614	0.0107388
1626	0.0127735
1638	0.0157126
1650	0.0239645
1662	0.0315382
1674	0.0384336
1686	0.0501898
1698	0.067711
1710	0.112814
1722	0.530045
1734	1.1304
1746	0.787098
1758	0.176682
1770	0.0711022
1782	0.0386597
1794	0.0301817
1806	0.0288252
1818	0.0257731
1830	0.0161647
1842	0.00881712
1854	0.00768672
1866	0.008478
1878	0.00757368
1890	0.0073476
1902	0.00712152
1914	0.0073476
1926	0.00723456
1938	0.00712152
1950	0.00587808
1962	0.00542592
1974	0.0045216
1986	0.00486072
1998	0.00497376
2010	0.00463464
2022	0.00429552
2034	0.00418248
2046	0.00531288
2058	0.00542592
2070	0.00610416
2082	0.00644328
2094	0.00542592
2106	0.00474768
2118	0.00531288
2130	0.00531288
2142	0.00463464
2154	0.00463464
2166	0.00486072
2178	0.0050868
2190	0.0050868
2202	0.0050868
2214	0.00497376
2226	0.00553896
2238	0.00587808
2250	0.00531288
2262	0.00406944
2274	0.0045216
2286	0.00429552
2298	0.00599112
2310	0.0062172
2322	0.00644328
2334	0.00633024
2346	0.00610416
2358	0.00474768
2370	0.00373032
2382	0.00361728
2394	0.00361728
2406	0.00440856
2418	0.00361728
2430	0.0033912
2442	0.00327816
2454	0.00350424
2466	0.00418248
2478	0.00271296
2490	0.00237384
2502	0.00214776
2514	0.00192168
2526	0.00180864
2538	0.0011304
2550	0.00045216
2562	0
2574	0.00101736
2586	0.00248688
2598	0.00214776
2610	0.002826
2622	0.00474768
2634	0.00859104
2646	0.00859104
2658	0.00712152
2670	0.008478
2682	0.00949536
2694	0.00802584
2706	0.00633024
2718	0.00700848
2730	0.00870408
2742	0.0100606
2754	0.00972144
2766	0.00881712
2778	0.0079128
2790	0.0105127
2802	0.014243
2814	0.0184255
2826	0.0295034
2838	0.0472507
2850	0.0862495
2862	0.205846
2874	0.324764
2886	0.27887
2898	0.235236
2910	0.306112
2922	0.426161
2934	0.639128
2946	0.558305
2958	0.501332
2970	0.524506
2982	0.311312
2994	0.0682762
3006	0.0178603
3018	0.00949536
3030	0.00746064
3042	0.00972144
3054	0.00836496
3066	0.0079128
3078	0.00689544
3090	0.00723456
3102	0.00746064
3114	0.00644328
3126	0.00610416
3138	0.0062172
3150	0.00519984
3162	0.00486072
3174	0.0067824
3186	0.0062172
3198	0.00531288
3210	0.00271296
3222	0.00316512
3234	0.00474768
3246	0.00542592
3258	0.0045216
3270	0.00644328
3282	0.00531288
3294	0.00293904
3306	0.00090432
3318	0.00135648
3330	0.00293904
3342	0.00361728
3354	0.00350424
3366	0.0039564
3378	0.00350424
3390	0.00327816
3402	0.00293904
3414	0.00486072
3426	0.0067824
3438	0.0102866
3450	0.0188777
3462	0.0184255
3474	0.00723456
3486	0.00327816
3498	0.00180864
3510	0.00361728
3522	0.00373032
3534	0.0039564
3546	0.00373032
3558	0.0045216
3570	0.00599112
3582	0.00768672
3594	0.00655632
3606	0.00553896
3618	0.005652
3630	0.00610416
3642	0.00531288
3654	0.0050868
3666	0.00746064
3678	0.00825192
3690	0.00440856
3702	0.0039564
3714	0.00610416
3726	0.00542592
3738	0.00949536
3750	0.00486072
3762	0.00587808
3774	0.0050868
3786	0.0033912
3798	0.00474768
3810	0.00519984
3822	0.00542592
3834	0.00700848
3846	0.00519984
3858	0.0045216
3870	0.00271296
3882	0.00553896
3894	0.00316512
3906	0.00757368
3918	0.00327816
3930	0.002826
3942	0.0101736
3954	0.0022608
3966	0.00994752
