Infrared Spectrum: Cyclohexanol, 4-methyl-
Formula: C 7 H 14 O
CAS: 589-91-3
Origin: Sadtler Research Labs Under US-EPA Contract
1/CM	ABSORBANCE
450	0.0224324
462	0.0163145
474	0.0235305
486	0.0207068
498	0.0263542
510	0.0283935
522	0.0188244
534	0.00517671
546	0.0131771
558	0.0214912
570	0.0225893
582	0.0207068
594	0.0420412
606	0.0365507
618	0.0114515
630	0.0210206
642	0.0186675
654	0.0167851
666	0.013334
678	0.0125496
690	0.0136477
702	0.00956907
714	0.00831411
726	0.0127065
738	0.00674541
750	0.0112946
762	0.013334
774	0.00611793
786	0.012079
798	0.0152164
810	0.0147458
822	0.0161576
834	0.0160007
846	0.0139614
858	0.0150595
870	0.0227461
882	0.0376488
894	0.0381194
906	0.0285503
918	0.0467473
930	0.066356
942	0.0776507
954	0.0807881
966	0.0677678
978	0.106985
990	0.172557
1002	0.165184
1014	0.123457
1026	0.0956907
1038	0.240482
1050	0.511396
1062	0.363154
1074	0.176949
1086	0.269973
1098	0.215539
1110	0.0754545
1122	0.0723171
1134	0.0997693
1146	0.0930239
1158	0.0625911
1170	0.0465904
1182	0.0436099
1194	0.0580419
1206	0.0873766
1218	0.114201
1230	0.133496
1242	0.122672
1254	0.09773
1266	0.0891022
1278	0.0688659
1290	0.0517671
1302	0.0523946
1314	0.0560026
1326	0.0525514
1338	0.0588263
1350	0.0756113
1362	0.119064
1374	0.172714
1386	0.154674
1398	0.0795331
1410	0.0456492
1422	0.0403156
1434	0.0707484
1446	0.165498
1458	0.2215
1470	0.13883
1482	0.0541202
1494	0.0174126
1506	0.00831411
1518	0.00721602
1530	0.00486297
1542	0.00345114
1554	0.00454923
1566	0.00423549
1578	0.00407862
1590	0.00407862
1602	0.00454923
1614	0.00376488
1626	0.00392175
1638	0.00376488
1650	0.00486297
1662	0.00423549
1674	0.0031374
1686	0.00203931
1698	0.00266679
1710	0.00298053
1722	0.0015687
1734	0.00219618
1746	0.00250992
1758	0.00125496
1770	0.00141183
1782	0.00172557
1794	0.0015687
1806	0.00219618
1818	0.00172557
1830	0.00125496
1842	0.00188244
1854	0.00172557
1866	0.0015687
1878	0.00203931
1890	0.00282366
1902	0.00282366
1914	0.00266679
1926	0.00219618
1938	0.00250992
1950	0.00203931
1962	0.00188244
1974	0.00109809
1986	0.00141183
1998	0.00203931
2010	0.00141183
2022	0.00094122
2034	0.0015687
2046	0.00203931
2058	0.00235305
2070	0.00219618
2082	0.00188244
2094	0.00266679
2106	0.00235305
2118	0.00125496
2130	0.00219618
2142	0.00298053
2154	0.00188244
2166	0.00109809
2178	0.0015687
2190	0.00203931
2202	0.00203931
2214	0.00188244
2226	0.00235305
2238	0.00235305
2250	0.00172557
2262	0.00235305
2274	0.0031374
2286	0.00141183
2298	0.00109809
2310	0.00015687
2322	0.00047061
2334	0.0015687
2346	0
2358	0.00062748
2370	0.00549045
2382	0.00094122
2394	0.0015687
2406	0.00250992
2418	0.00345114
2430	0.00423549
2442	0.00345114
2454	0.00376488
2466	0.00345114
2478	0.00298053
2490	0.00219618
2502	0.00250992
2514	0.00250992
2526	0.00345114
2538	0.00298053
2550	0.00282366
2562	0.00423549
2574	0.0047061
2586	0.00596106
2598	0.00925533
2610	0.0114515
2622	0.0138046
2634	0.0163145
2646	0.0197656
2658	0.0221187
2670	0.0219618
2682	0.0208637
2694	0.0197656
2706	0.0194519
2718	0.0180401
2730	0.0207068
2742	0.0221187
2754	0.0225893
2766	0.0233736
2778	0.0232168
2790	0.0249423
2802	0.0299622
2814	0.0381194
2826	0.0541202
2838	0.114672
2850	0.336486
2862	0.600341
2874	0.660423
2886	0.545437
2898	0.482218
2910	0.677835
2922	1.15817
2934	1.56729
2946	1.27143
2958	0.921141
2970	0.511396
2982	0.136948
2994	0.0244717
3006	0.0106672
3018	0.00878472
3030	0.00737289
3042	0.00705915
3054	0.00737289
3066	0.00831411
3078	0.00862785
3090	0.00768663
3102	0.00611793
3114	0.00705915
3126	0.00800037
3138	0.00878472
3150	0.0094122
3162	0.0094122
3174	0.00690228
3186	0.00533358
3198	0.00376488
3210	0.00109809
3222	0
3234	0
3246	0.00203931
3258	0.00219618
3270	0.00125496
3282	0.00141183
3294	0.00235305
3306	0.00172557
3318	0.00188244
3330	0.00235305
3342	0.00266679
3354	0.00219618
3366	0.00172557
3378	0.00219618
3390	0.00360801
3402	0.00266679
3414	0.0031374
3426	0.00376488
3438	0.00549045
3450	0.0062748
3462	0.00392175
3474	0.00329427
3486	0.00282366
3498	0.00329427
3510	0.00282366
3522	0.00360801
3534	0.00376488
3546	0.00329427
3558	0.00282366
3570	0.00219618
3582	0.00235305
3594	0.00454923
3606	0.00533358
3618	0.00815724
3630	0.0222755
3642	0.0713759
3654	0.108711
3666	0.0622774
3678	0.0145889
3690	0.00596106
3702	0.00392175
3714	0.00392175
3726	0.00611793
3738	0.00423549
3750	0.00282366
3762	0.00392175
3774	0.00203931
3786	0.00392175
3798	0.00549045
3810	0.00862785
3822	0.0078435
3834	0.00611793
3846	0.00737289
3858	0.00219618
3870	0.00596106
3882	0.00800037
3894	0.00831411
3906	0.0078435
3918	0.0047061
3930	0.00376488
3942	0.00298053
3954	0.0103534
3966	0.00800037
