Infrared Spectrum: 3-Octanol
Formula: C 8 H 18 O
CAS: 589-98-0
Origin: Sadtler Research Labs Under US-EPA Contract
1/CM	ABSORBANCE
450	0
462	0.0250555
474	0.0137044
486	0.025886
498	0.00927468
510	0.0148118
522	0.0281009
534	0.0222869
546	0.0215948
558	0.0220101
570	0.0141197
582	0.0206258
594	0.0251939
606	0.0171651
618	0.0193799
630	0.0189646
642	0.0175804
654	0.0203489
666	0.0155039
678	0.0153655
690	0.0197952
702	0.0167498
714	0.0271319
726	0.0351607
738	0.0286546
750	0.0263013
762	0.0308694
774	0.0317
786	0.0303157
798	0.0256092
810	0.0228406
822	0.028793
834	0.0283777
846	0.028793
858	0.0334996
870	0.0359913
882	0.0398673
894	0.0430511
906	0.0513568
918	0.0761354
930	0.109773
942	0.118218
954	0.118079
966	0.14618
978	0.156839
990	0.159054
1002	0.141335
1014	0.135936
1026	0.12237
1038	0.113926
1050	0.107835
1062	0.104236
1074	0.108528
1086	0.119463
1098	0.129569
1110	0.126246
1122	0.134414
1134	0.145765
1146	0.117249
1158	0.0751664
1170	0.0618773
1182	0.0669992
1194	0.0786271
1206	0.0890092
1218	0.103821
1230	0.11628
1242	0.112819
1254	0.0982839
1266	0.0867944
1278	0.0819494
1290	0.0807035
1302	0.078904
1314	0.0714288
1326	0.0661686
1338	0.0751664
1350	0.0939926
1362	0.113373
1374	0.14092
1386	0.165837
1398	0.127077
1410	0.0802882
1422	0.0602162
1434	0.0694909
1446	0.111019
1458	0.17788
1470	0.195183
1482	0.100083
1494	0.0445738
1506	0.0303157
1518	0.0245018
1530	0.0196568
1542	0.0195183
1554	0.0174419
1566	0.0159192
1578	0.0171651
1590	0.0148118
1602	0.0145349
1614	0.0148118
1626	0.0128738
1638	0.0139812
1650	0.0119048
1662	0.0123201
1674	0.0139812
1686	0.0145349
1698	0.0152271
1710	0.0182725
1722	0.0282393
1734	0.0312847
1746	0.0202105
1758	0.0132891
1770	0.0119048
1782	0.0119048
1794	0.0103821
1806	0.0105205
1818	0.0103821
1830	0.0101052
1842	0.0102437
1854	0.0103821
1866	0.0102437
1878	0.0102437
1890	0.0101052
1902	0.00968996
1914	0.0105205
1926	0.0103821
1938	0.0101052
1950	0.0101052
1962	0.0101052
1974	0.00968996
1986	0.00955153
1998	0.00899782
2010	0.0094131
2022	0.010659
2034	0.0112127
2046	0.00996682
2058	0.00982839
2070	0.0117664
2082	0.00885939
2094	0.00802882
2106	0.00982839
2118	0.0103821
2130	0.0101052
2142	0.0101052
2154	0.0102437
2166	0.0105205
2178	0.00996682
2190	0.0103821
2202	0.0102437
2214	0.0105205
2226	0.0105205
2238	0.010659
2250	0.0101052
2262	0.00996682
2274	0.010659
2286	0.0117664
2298	0.0124585
2310	0.0124585
2322	0.0123201
2334	0.0131507
2346	0.0132891
2358	0.0110742
2370	0.0159192
2382	0.0137044
2394	0.0131507
2406	0.0132891
2418	0.0130122
2430	0.0138428
2442	0.0127354
2454	0.0128738
2466	0.0123201
2478	0.0121817
2490	0.0120432
2502	0.0127354
2514	0.0124585
2526	0.0134275
2538	0.0141197
2550	0.0143965
2562	0.0153655
2574	0.0181341
2586	0.0185494
2598	0.0209026
2610	0.0214563
2622	0.0221485
2634	0.0231175
2646	0.0265782
2658	0.0238096
2670	0.0274087
2682	0.0310079
2694	0.0292083
2706	0.0296236
2718	0.0290699
2730	0.0314232
2742	0.0369603
2754	0.0373756
2766	0.0369603
2778	0.040421
2790	0.046235
2802	0.0539869
2814	0.0632616
2826	0.0841642
2838	0.131922
2850	0.263428
2862	0.492112
2874	0.606176
2886	0.590257
2898	0.468994
2910	0.555235
2922	0.899644
2934	1.33791
2946	1.22301
2958	0.865452
2970	1.09773
2982	0.65781
2994	0.223977
3006	0.110327
3018	0.0766891
3030	0.0599393
3042	0.0490035
3054	0.0418053
3066	0.0361297
3078	0.0352991
3090	0.0339149
3102	0.0286546
3114	0.0245018
3126	0.0246402
3138	0.0233943
3150	0.0235328
3162	0.0218716
3174	0.0210411
3186	0.0200721
3198	0.0196568
3210	0.0168882
3222	0.0148118
3234	0.0141197
3246	0.0130122
3258	0.0121817
3270	0.0101052
3282	0.010659
3294	0.0121817
3306	0.0120432
3318	0.0121817
3330	0.0134275
3342	0.0120432
3354	0.0142581
3366	0.0134275
3378	0.0143965
3390	0.0123201
3402	0.0128738
3414	0.0155039
3426	0.0148118
3438	0.0156424
3450	0.0153655
3462	0.0155039
3474	0.0137044
3486	0.0150887
3498	0.0138428
3510	0.0145349
3522	0.0148118
3534	0.0155039
3546	0.0134275
3558	0.0137044
3570	0.0167498
3582	0.0161961
3594	0.0177188
3606	0.0195183
3618	0.0235328
3630	0.0372371
3642	0.0528795
3654	0.0906703
3666	0.0825031
3678	0.0387598
3690	0.0235328
3702	0.0182725
3714	0.0179956
3726	0.0193799
3738	0.0186878
3750	0.0199336
3762	0.0164729
3774	0.0184109
3786	0.0184109
3798	0.0203489
3810	0.0189646
3822	0.0179956
3834	0.0192415
3846	0.0222869
3858	0.0209026
3870	0.0206258
3882	0.0213179
3894	0.0227022
3906	0.0182725
3918	0.0206258
3930	0.0178572
3942	0.0196568
3954	0.0192415
3966	0.0159192
