Infrared Spectrum: Cyclohexane, 1,4-dimethyl-
Formula: C 8 H 16
CAS: 589-90-2
Origin: Sadtler Research Labs Under US-EPA Contract
1/CM	ABSORBANCE
450	0.0552275
462	0.0139732
474	0.00149713
486	0.00715296
498	0.00815105
510	0.00548948
522	0.00532314
534	0.00565583
546	0.00332696
558	0.00632122
570	0.0041587
582	0.0041587
594	0.00698662
606	0.00399235
618	0.00515679
630	0.0118107
642	0.0108126
654	0.00731931
666	0.00349331
678	0.00282792
690	0.0041587
702	0.00316061
714	0.00532314
726	0.00465774
738	0.0044914
750	0.00598853
762	0.00765201
774	0.00465774
786	0.00399235
798	0.0041587
810	0.003826
822	0.00582218
834	0.00299426
846	0.00582218
858	0.00698662
870	0.00632122
882	0.00565583
894	0.00432505
906	0.00698662
918	0.011478
930	0.0111453
942	0.0104799
954	0.0108126
966	0.00898279
978	0.0116444
990	0.018631
1002	0.0239541
1014	0.0181319
1026	0.011478
1038	0.00898279
1050	0.00632122
1062	0.00465774
1074	0.00565583
1086	0.0128088
1098	0.0196291
1110	0.0163021
1122	0.00765201
1134	0.003826
1146	0.00465774
1158	0.00931549
1170	0.0141396
1182	0.0111453
1194	0.0044914
1206	0.00316061
1218	0.00482409
1230	0.00565583
1242	0.00998088
1254	0.0149713
1266	0.0118107
1278	0.0079847
1290	0.0101472
1302	0.0159694
1314	0.0118107
1326	0.00665392
1338	0.00998088
1350	0.0136405
1362	0.0329369
1374	0.0806788
1386	0.0934876
1398	0.0362639
1410	0.011478
1422	0.011478
1434	0.041587
1446	0.12027
1458	0.180654
1470	0.139899
1482	0.0593862
1494	0.0143059
1506	0.00632122
1518	0.00432505
1530	0.00266157
1542	0.00349331
1554	0.00332696
1566	0.00299426
1578	0.00332696
1590	0.00282792
1602	0.003826
1614	0.0041587
1626	0.00365966
1638	0.00482409
1650	0.0044914
1662	0.003826
1674	0.0044914
1686	0.00365966
1698	0.00299426
1710	0.00266157
1722	0.00199618
1734	0.00232887
1746	0.00216252
1758	0.00166348
1770	0.00232887
1782	0.00182983
1794	0.00149713
1806	0.00182983
1818	0.00133078
1830	0.00149713
1842	0.00166348
1854	0.00083174
1866	0.00133078
1878	0.00133078
1890	0.000998088
1902	0.000665392
1914	0.000665392
1926	0.000166348
1938	0.000499044
1950	0.000665392
1962	0.00083174
1974	0.000499044
1986	0.000332696
1998	0.000332696
2010	0.000665392
2022	0.000166348
2034	0.000998088
2046	0.000332696
2058	0.00149713
2070	0.00133078
2082	0.00133078
2094	0.00166348
2106	0.00149713
2118	0.00116444
2130	0.00149713
2142	0.000499044
2154	0.000665392
2166	0.00083174
2178	0.000166348
2190	0.000166348
2202	0.000332696
2214	0.000665392
2226	0.00116444
2238	0.00083174
2250	0.000998088
2262	0.00149713
2274	0.00166348
2286	0.00166348
2298	0.00282792
2310	0.00332696
2322	0.00365966
2334	0.00232887
2346	0.00133078
2358	0.003826
2370	0.00116444
2382	0.00199618
2394	0.00282792
2406	0.00216252
2418	0.00199618
2430	0.00199618
2442	0.00216252
2454	0.00232887
2466	0.00232887
2478	0.00182983
2490	0.00216252
2502	0.00216252
2514	0.00299426
2526	0.00299426
2538	0.00365966
2550	0.0044914
2562	0.00465774
2574	0.00365966
2586	0.00465774
2598	0.00731931
2610	0.0113117
2622	0.0128088
2634	0.014805
2646	0.0169675
2658	0.0181319
2670	0.0171338
2682	0.0174665
2694	0.0159694
2706	0.0134742
2718	0.0141396
2730	0.0179656
2742	0.0177992
2754	0.0174665
2766	0.0168011
2778	0.0171338
2790	0.0214589
2802	0.0272811
2814	0.0334359
2826	0.0467438
2838	0.104799
2850	0.335857
2862	0.525826
2874	0.53065
2886	0.480579
2898	0.569742
2910	0.919904
2922	1.60426
2934	1.36306
2946	0.782002
2958	0.874159
2970	0.636614
2982	0.203776
2994	0.0367629
3006	0.0182983
3018	0.0144723
3030	0.0134742
3042	0.0113117
3054	0.0136405
3066	0.014805
3078	0.0141396
3090	0.0134742
3102	0.0119771
3114	0.0116444
3126	0.0133078
3138	0.0134742
3150	0.0141396
3162	0.0128088
3174	0.00998088
3186	0.00781836
3198	0.00582218
3210	0.00332696
3222	0.00349331
3234	0.0044914
3246	0.00316061
3258	0.00482409
3270	0.00548948
3282	0.00632122
3294	0.00648757
3306	0.00615488
3318	0.00582218
3330	0.00665392
3342	0.00731931
3354	0.00632122
3366	0.00499044
3378	0.00582218
3390	0.00465774
3402	0.00548948
3414	0.00482409
3426	0.00282792
3438	0.00332696
3450	0.00349331
3462	0.00249522
3474	0.00199618
3486	0.003826
3498	0.00316061
3510	0.00166348
3522	0.00266157
3534	0.00282792
3546	0.00349331
3558	0.00282792
3570	0.00133078
3582	0.00349331
3594	0.00199618
3606	0.00133078
3618	0.00216252
3630	0.00166348
3642	0.00282792
3654	0.00349331
3666	0.00332696
3678	0.00199618
3690	0.00166348
3702	0.00332696
3714	0.0041587
3726	0.00249522
3738	0.00083174
3750	0.00299426
3762	0.00199618
3774	0.000998088
3786	0.00548948
3798	0.00781836
3810	0.00499044
3822	0.00748566
3834	0.00365966
3846	0.0044914
3858	0.00532314
3870	0.00299426
3882	0.00815105
3894	0.0044914
3906	0.0086501
3918	0.000998088
3930	0.00781836
3942	0.00848375
3954	0.00715296
3966	0.00083174
