Infrared Spectrum: Benzenemethanol, 4-methyl-
Formula: C 8 H 10 O
CAS: 589-18-4
Origin: Sadtler Research Labs Under US-EPA Contract
1/CM	ABSORBANCE
450	0.0740681
462	0.081757
474	0.101726
486	0.0681493
498	0.0441975
510	0.0422614
522	0.0424274
534	0.0486228
546	0.0696428
558	0.091548
570	0.0623964
582	0.0325258
594	0.0214626
606	0.0128333
618	0.00741234
630	0.00464654
642	0.00298706
654	0.00265517
666	0.00143822
678	0.00237859
690	0.00542097
702	0.00907182
714	0.018033
726	0.0399935
738	0.0745107
750	0.0917692
762	0.0828081
774	0.0916033
786	0.160748
798	0.278848
810	0.320722
822	0.194436
834	0.0959179
846	0.0526608
858	0.0235093
870	0.0138843
882	0.0124461
894	0.0143268
906	0.0205776
918	0.0321939
930	0.0542097
942	0.0711917
954	0.0800976
966	0.112291
978	0.172309
990	0.258934
1002	0.373162
1014	0.523953
1026	0.552662
1038	0.431354
1050	0.270385
1062	0.171424
1074	0.106373
1086	0.0739575
1098	0.0647197
1110	0.0675408
1122	0.0623964
1134	0.0516098
1146	0.0532693
1158	0.0744553
1170	0.116108
1182	0.139175
1194	0.157263
1206	0.16462
1218	0.10759
1230	0.0842463
1242	0.0770552
1254	0.0706938
1266	0.0666005
1278	0.0652176
1290	0.0643878
1302	0.0675962
1314	0.0688684
1326	0.0683153
1338	0.0739575
1350	0.0940372
1362	0.151842
1374	0.240625
1386	0.274478
1398	0.208707
1410	0.160527
1422	0.134694
1434	0.103109
1446	0.0696982
1458	0.0606817
1470	0.0707492
1482	0.0588009
1494	0.0582477
1506	0.125789
1518	0.183151
1530	0.0805954
1542	0.0240625
1554	0.0178118
1566	0.015931
1578	0.0172033
1590	0.0210201
1602	0.0353469
1614	0.0576393
1626	0.0492312
1638	0.0251688
1650	0.0149353
1662	0.00824208
1674	0.00459123
1686	0.00475718
1698	0.00564223
1710	0.0285431
1722	0.0648857
1734	0.032913
1746	0.00525502
1758	0.00591881
1770	0.00752298
1782	0.0166501
1794	0.0178671
1806	0.0069145
1818	0.00248922
1830	0.000774424
1842	0.00221264
1854	0.00425933
1866	0.0082974
1878	0.0183096
1890	0.0277133
1902	0.0262751
1914	0.0146034
1926	0.00779956
1938	0.00564223
1950	0.00542097
1962	0.00536565
1974	0.00591881
1986	0.00614008
1998	0.00708045
2010	0.00840803
2022	0.00813145
2034	0.00696982
2046	0.00608476
2058	0.00514439
2070	0.00436996
2082	0.00376149
2094	0.00315301
2106	0.00204669
2118	0.00177011
2130	0.00127227
2142	0.000608476
2154	0.000331896
2166	0.000110632
2178	0
2190	0.000387212
2202	0.000940372
2214	0.0013829
2226	0.00116164
2238	0.00110632
2250	0.00132758
2262	0.00165948
2274	0.00182543
2286	0.00409338
2298	0.0065826
2310	0.00735703
2322	0.00636134
2334	0.00531034
2346	0.00459123
2358	0.00475718
2370	0.00204669
2382	0.00453591
2394	0.00370617
2406	0.00398275
2418	0.0041487
2430	0.00376149
2442	0.0030977
2454	0.00293175
2466	0.00304238
2478	0.00320833
2490	0.00320833
2502	0.00337428
2514	0.00376149
2526	0.00320833
2538	0.00293175
2550	0.00354022
2562	0.0038168
2574	0.00514439
2586	0.0069145
2598	0.0069145
2610	0.00580818
2622	0.0051997
2634	0.0055316
2646	0.0055316
2658	0.00614008
2670	0.00713576
2682	0.00846335
2694	0.0101781
2706	0.0137737
2718	0.020301
2730	0.0250028
2742	0.0296494
2754	0.0257773
2766	0.0223477
2778	0.0256666
2790	0.0311982
2802	0.0374489
2814	0.0472399
2826	0.0597966
2838	0.0821443
2850	0.123687
2862	0.196593
2874	0.315301
2886	0.367132
2898	0.311263
2910	0.284988
2922	0.344563
2934	0.424218
2946	0.342185
2958	0.2232
2970	0.165727
2982	0.154553
2994	0.182377
3006	0.222592
3018	0.292068
3030	0.352529
3042	0.273206
3054	0.221762
3066	0.179998
3078	0.113564
3090	0.0790466
3102	0.0592988
3114	0.0389425
3126	0.0237859
3138	0.0194712
3150	0.0120589
3162	0.0055316
3174	0.00326364
3186	0.00271048
3198	0.00237859
3210	0.00182543
3222	0.00232327
3234	0.00160416
3246	0.00199138
3258	0.00149353
3270	0.00127227
3282	0.000774424
3294	0.00177011
3306	0.0017148
3318	0.00154885
3330	0.00116164
3342	0.00154885
3354	0.00149353
3366	0.00165948
3378	0.00259985
3390	0.00354022
3402	0.00392744
3414	0.00387212
3426	0.00459123
3438	0.00464654
3450	0.00392744
3462	0.00370617
3474	0.00320833
3486	0.00210201
3498	0.00210201
3510	0.00282112
3522	0.00254454
3534	0.00293175
3546	0.00359554
3558	0.00354022
3570	0.00337428
3582	0.00481249
3594	0.00608476
3606	0.0100122
3618	0.019084
3630	0.0409338
3642	0.0746766
3654	0.110687
3666	0.102722
3678	0.0618433
3690	0.0316961
3702	0.0187521
3714	0.0100675
3726	0.00636134
3738	0.00398275
3750	0.00320833
3762	0.00370617
3774	0.00359554
3786	0.00298706
3798	0.00398275
3810	0.0024339
3822	0.00425933
3834	0.00464654
3846	0.0055316
3858	0.00602944
3870	0.00868461
3882	0.00890588
3894	0.00907182
3906	0.00497844
3918	0.00614008
3930	0.00531034
3942	0.00497844
3954	0.00525502
3966	0.00536565
