Infrared Spectrum: 1-Pentanol, 3-methyl-
Formula: C 6 H 14 O
CAS: 589-35-5
Origin: Sadtler Research Labs Under US-EPA Contract
1/CM	ABSORBANCE
450	0.00637687
462	0.00596983
474	0.00664822
486	0.00529144
498	0.0123467
510	0.0162814
522	0.0203517
534	0.0165527
546	0.0195376
558	0.00759797
570	0.0120753
582	0.0131608
594	0.0115326
606	0.00909043
618	0.00759797
630	0.00841204
642	0.00827636
654	0.00786932
666	0.00990449
678	0.0119397
690	0.0101759
702	0.0104472
714	0.0103115
726	0.0112613
738	0.0137035
750	0.0166884
762	0.0208944
774	0.0298492
786	0.0294421
798	0.023608
810	0.0175025
822	0.0192663
834	0.0295778
846	0.039618
858	0.0336481
870	0.0249648
882	0.0229296
894	0.0214371
906	0.0264572
918	0.0340552
930	0.0419245
942	0.0575275
954	0.0839847
966	0.121296
978	0.150331
990	0.160507
1002	0.183301
1014	0.238386
1026	0.309617
1038	0.367552
1050	0.443667
1062	0.457778
1074	0.294693
1086	0.144768
1098	0.106236
1110	0.0993163
1122	0.0808641
1134	0.0660752
1146	0.0653968
1158	0.0694671
1170	0.0668893
1182	0.072045
1194	0.0786932
1206	0.0803214
1218	0.0804571
1230	0.0789646
1242	0.076251
1254	0.0789646
1266	0.0843917
1278	0.0869696
1290	0.0816782
1302	0.0719093
1314	0.0675676
1326	0.067839
1338	0.0743515
1350	0.0831706
1362	0.101487
1374	0.170276
1386	0.233502
1398	0.176788
1410	0.0907686
1422	0.0652611
1434	0.0679747
1446	0.101894
1458	0.172854
1470	0.198226
1482	0.13215
1494	0.0590199
1506	0.0248291
1518	0.0165527
1530	0.0115326
1542	0.0119397
1554	0.0104472
1566	0.00868339
1578	0.00868339
1590	0.00719093
1602	0.00610551
1614	0.00746229
1626	0.00515576
1638	0.00651254
1650	0.00447737
1662	0.00447737
1674	0.00461305
1686	0.00691958
1698	0.00474873
1710	0.00230653
1722	0.00325627
1734	0.00325627
1746	0.00162814
1758	0.0024422
1770	0.00203517
1782	0.00257788
1794	0.00189949
1806	0.00203517
1818	0.00217085
1830	0.00149246
1842	0.00230653
1854	0.00135678
1866	0.00203517
1878	0.00162814
1890	0.00230653
1902	0.00284924
1914	0.00284924
1926	0.00203517
1938	0.000949746
1950	0.0012211
1962	0.00108542
1974	0.00149246
1986	0.00203517
1998	0.00257788
2010	0.00352763
2022	0.00420602
2034	0.00488441
2046	0.00515576
2058	0.00502009
2070	0.00488441
2082	0.00284924
2094	0.0024422
2106	0.00203517
2118	0.00189949
2130	0.00162814
2142	0.00176381
2154	0.0012211
2166	0.00149246
2178	0.000407034
2190	0.00067839
2202	0.00108542
2214	0.0012211
2226	0.00189949
2238	0.0024422
2250	0.00176381
2262	0.00230653
2274	0.00298492
2286	0.00352763
2298	0.00488441
2310	0.00474873
2322	0.00312059
2334	0.00339195
2346	0.00569848
2358	0.00230653
2370	0.0111256
2382	0.0092261
2394	0.00624119
2406	0.0067839
2418	0.00732661
2430	0.00719093
2442	0.00705526
2454	0.00610551
2466	0.00583415
2478	0.00569848
2490	0.00651254
2502	0.00569848
2514	0.00637687
2526	0.00664822
2538	0.0067839
2550	0.00759797
2562	0.00827636
2574	0.0105829
2586	0.0130251
2598	0.0150603
2610	0.0154673
2622	0.0173668
2634	0.0180452
2646	0.0184522
2658	0.0192663
2670	0.0207587
2682	0.0229296
2694	0.024015
2706	0.0253718
2718	0.0290351
2730	0.035412
2742	0.0408391
2754	0.0431456
2766	0.0424672
2778	0.0458592
2790	0.052236
2802	0.0601054
2814	0.0690601
2826	0.087648
2838	0.127537
2850	0.209623
2862	0.368637
2874	0.60838
2886	0.790189
2898	0.756812
2910	0.799415
2922	1.01623
2934	1.12979
2946	1.02247
2958	1.02573
2970	1.35678
2982	0.900359
2994	0.262808
3006	0.0991806
3018	0.0626832
3030	0.0496581
3042	0.040432
3054	0.0363617
3066	0.0336481
3078	0.0279497
3090	0.0253718
3102	0.0215728
3114	0.0206231
3126	0.0187236
3138	0.0166884
3150	0.0153316
3162	0.0154673
3174	0.0145175
3186	0.0126181
3198	0.0109899
3210	0.00719093
3222	0.00488441
3234	0.00583415
3246	0.00257788
3258	0.00488441
3270	0.00257788
3282	0.00339195
3294	0.00447737
3306	0.00596983
3318	0.00542712
3330	0.00732661
3342	0.00447737
3354	0.00637687
3366	0.00705526
3378	0.00732661
3390	0.00786932
3402	0.00746229
3414	0.00529144
3426	0.00691958
3438	0.008005
3450	0.00786932
3462	0.00841204
3474	0.00773365
3486	0.00705526
3498	0.00963314
3510	0.00732661
3522	0.00746229
3534	0.0055628
3546	0.00814068
3558	0.00841204
3570	0.00583415
3582	0.0103115
3594	0.0120753
3606	0.011397
3618	0.0116683
3630	0.0188592
3642	0.0364974
3654	0.0827636
3666	0.141512
3678	0.118583
3690	0.0503365
3702	0.0184522
3714	0.0131608
3726	0.00963314
3738	0.0131608
3750	0.011397
3762	0.00854771
3774	0.00881907
3786	0.0103115
3798	0.0108542
3810	0.0127537
3822	0.0130251
3834	0.0146532
3846	0.0169597
3858	0.0183165
3870	0.0173668
3882	0.0154673
3894	0.015603
3906	0.0143819
3918	0.0142462
3930	0.0132964
3942	0.011397
3954	0.0145175
3966	0.00610551
