Infrared Spectrum: 4-Octanol
Formula: C 8 H 18 O
CAS: 589-62-8
Origin: Sadtler Research Labs Under US-EPA Contract
1/CM	ABSORBANCE
450	0.0405546
462	0.0123578
474	0.0145335
486	0.00826757
498	0.012967
510	0.00992108
522	0.00661405
534	0.0087027
546	0.00931189
558	0.00826757
570	0.00713621
582	0.0041773
594	0.0149686
606	0.00852865
618	0.00696216
630	0.00783243
642	0.00783243
654	0.00670108
666	0.00757135
678	0.00791946
690	0.00783243
702	0.0087027
714	0.0103562
726	0.0142724
738	0.019233
750	0.0232362
762	0.0185368
774	0.0157519
786	0.0165351
798	0.016274
810	0.0144465
822	0.0171443
834	0.0260211
846	0.0342886
858	0.0299373
870	0.0242805
882	0.0276746
894	0.0363773
906	0.0378567
918	0.0280227
930	0.0214086
942	0.0243676
954	0.0338535
966	0.0430784
978	0.0534346
990	0.0762357
1002	0.119836
1014	0.152471
1026	0.120968
1038	0.0721454
1050	0.0646611
1062	0.0754524
1074	0.0760616
1086	0.0736248
1098	0.0751043
1110	0.0748432
1122	0.0867659
1134	0.099994
1146	0.0816313
1158	0.0476038
1170	0.0347238
1182	0.038727
1194	0.0507367
1206	0.06118
1218	0.0635297
1230	0.0603097
1242	0.061267
1254	0.0662275
1266	0.0666627
1278	0.0584821
1290	0.0491703
1302	0.0440357
1314	0.038814
1326	0.038553
1338	0.0467335
1350	0.0564805
1362	0.0695346
1374	0.0932929
1386	0.112787
1398	0.0831108
1410	0.0518681
1422	0.0374216
1434	0.0453411
1446	0.0661405
1458	0.105303
1470	0.114353
1482	0.0596135
1494	0.022627
1506	0.0143595
1518	0.0114005
1530	0.00957297
1542	0.0077454
1554	0.00652703
1566	0.00504757
1578	0.00469946
1590	0.0045254
1602	0.0041773
1614	0.00374216
1626	0.00356811
1638	0.00252378
1650	0.00356811
1662	0.00269784
1674	0.00217568
1686	0.0022627
1698	0.00174054
1710	0.00348108
1722	0.00530865
1734	0.00513459
1746	0.00356811
1758	0.00269784
1770	0.00208865
1782	0.00156649
1794	0.00191459
1806	0.00165351
1818	0.00165351
1830	0.00156649
1842	0.00104432
1854	0.00139243
1866	0.000957297
1878	0.00104432
1890	0.00104432
1902	0.00121838
1914	0.00121838
1926	0.00139243
1938	0.000957297
1950	0.00087027
1962	0.000783243
1974	0.000609189
1986	0.000522162
1998	0.000348108
2010	0.000609189
2022	0.00104432
2034	0.00147946
2046	0.00165351
2058	0.00113135
2070	0.000783243
2082	0.000696216
2094	0.000696216
2106	0.000435135
2118	0.000783243
2130	0.000957297
2142	0.000609189
2154	0.000696216
2166	0.000957297
2178	0.00087027
2190	0.00113135
2202	0.000783243
2214	0.00087027
2226	0.000783243
2238	0.000783243
2250	0.000609189
2262	0.000609189
2274	0.000783243
2286	0.000435135
2298	0.000348108
2310	0.000261081
2322	0
2334	0.000522162
2346	0
2358	0.000348108
2370	0.00121838
2382	0.00174054
2394	0.00234973
2406	0.00208865
2418	0.0022627
2430	0.00208865
2442	0.00191459
2454	0.00191459
2466	0.00165351
2478	0.00156649
2490	0.00139243
2502	0.00147946
2514	0.00208865
2526	0.00278486
2538	0.00269784
2550	0.00322
2562	0.00391622
2574	0.00487351
2586	0.00574378
2598	0.00591784
2610	0.00670108
2622	0.00713621
2634	0.00783243
2646	0.00878973
2658	0.0100951
2670	0.0119227
2682	0.0131411
2694	0.0126189
2706	0.0120968
2718	0.0122708
2730	0.0140113
2742	0.0177535
2754	0.0181016
2766	0.0166222
2778	0.019233
2790	0.0237584
2802	0.0295022
2814	0.0364643
2826	0.0493443
2838	0.080587
2850	0.15369
2862	0.271263
2874	0.394929
2886	0.428782
2898	0.30912
2910	0.369343
2922	0.56846
2934	0.820229
2946	0.795166
2958	0.615716
2970	0.858086
2982	0.410245
2994	0.116964
3006	0.0650092
3018	0.0464724
3030	0.0367254
3042	0.0287189
3054	0.0207124
3066	0.0161
3078	0.0135762
3090	0.0122708
3102	0.0104432
3114	0.00905081
3126	0.00818054
3138	0.00765838
3150	0.00713621
3162	0.00661405
3174	0.00609189
3186	0.00617892
3198	0.00530865
3210	0.00382919
3222	0.0022627
3234	0.00147946
3246	0.00165351
3258	0.00121838
3270	0.00087027
3282	0.000261081
3294	0
3306	0.000609189
3318	0.00087027
3330	0.000957297
3342	0.000696216
3354	0.00087027
3366	0.000435135
3378	0.000609189
3390	0.00147946
3402	0.00287189
3414	0.00348108
3426	0.00391622
3438	0.00348108
3450	0.00382919
3462	0.00382919
3474	0.00295892
3486	0.00304594
3498	0.00234973
3510	0.00217568
3522	0.00252378
3534	0.00295892
3546	0.00261081
3558	0.00191459
3570	0.00374216
3582	0.00278486
3594	0.00374216
3606	0.00487351
3618	0.00913784
3630	0.0167092
3642	0.0280227
3654	0.0520421
3666	0.0442967
3678	0.0157519
3690	0.00670108
3702	0.00487351
3714	0.00461243
3726	0.00435135
3738	0.00269784
3750	0.00339405
3762	0.00313297
3774	0.00304594
3786	0.00330703
3798	0.00243676
3810	0.00487351
3822	0.00443838
3834	0.00443838
3846	0.00556973
3858	0.00469946
3870	0.00400324
3882	0.00400324
3894	0.00356811
3906	0.00504757
3918	0.00339405
3930	0.00382919
3942	0.00391622
3954	0.0041773
3966	0.00469946
