Infrared Spectrum: 3-Heptanol
Formula: C 7 H 16 O
CAS: 589-82-2
Origin: Sadtler Research Labs Under US-EPA Contract
1/CM	ABSORBANCE
450	0.003585
462	0.0041825
474	0.0048995
486	0.00460075
498	0.00304725
510	0.00280825
522	0.00209125
534	0.0041825
546	0.00316675
558	0.00053775
570	0.00268875
582	0.003107
594	0.0053775
606	0.00352525
618	0.003346
630	0.00256925
642	0.00239
654	0.00292775
666	0.00292775
678	0.003824
690	0.00352525
702	0.003824
714	0.0053775
726	0.007409
738	0.00794675
750	0.00758825
762	0.0082455
774	0.0127865
786	0.0147583
798	0.010994
810	0.0077675
822	0.0080065
834	0.0094405
846	0.011472
858	0.013862
870	0.0152362
882	0.0187017
894	0.0247963
906	0.0283813
918	0.028202
930	0.0259315
942	0.032026
954	0.0538945
966	0.0914773
978	0.102352
990	0.0846657
1002	0.0797662
1014	0.0788102
1026	0.0703258
1038	0.0636935
1050	0.060706
1062	0.0577783
1074	0.058316
1086	0.0617815
1098	0.0632155
1110	0.0632155
1122	0.0688918
1134	0.072417
1146	0.0578978
1158	0.036328
1170	0.0276045
1182	0.0297555
1194	0.0369255
1206	0.0455295
1218	0.0531178
1230	0.0569417
1242	0.0546115
1254	0.049712
1266	0.0436773
1278	0.039674
1290	0.0388375
1302	0.038001
1314	0.0362085
1326	0.0369853
1338	0.043737
1350	0.048517
1362	0.0589135
1374	0.074568
1386	0.0868765
1398	0.0696087
1410	0.0414665
1422	0.0296957
1434	0.0350733
1446	0.0544323
1458	0.0865778
1470	0.089386
1482	0.0488755
1494	0.0192993
1506	0.0115915
1518	0.00866375
1530	0.006214
1542	0.00555675
1554	0.00495925
1566	0.0041825
1578	0.0039435
1590	0.003585
1602	0.00328625
1614	0.00304725
1626	0.00256925
1638	0.002629
1650	0.00197175
1662	0.0025095
1674	0.0017925
1686	0.00221075
1698	0.00197175
1710	0.003346
1722	0.006214
1734	0.00746875
1746	0.00543725
1758	0.003107
1770	0.00280825
1782	0.00197175
1794	0.001673
1806	0.00149375
1818	0.00101575
1830	0.00065725
1842	0.00065725
1854	0.0005975
1866	0.0008365
1878	0.0010755
1890	0.00089625
1902	0.00101575
1914	0.00089625
1926	0.00101575
1938	0.00101575
1950	0.000478
1962	0.000478
1974	0
1986	0.00041825
1998	0.00041825
2010	0.00041825
2022	0.00041825
2034	0.00089625
2046	0.0008365
2058	0.00041825
2070	0.0003585
2082	0.00029875
2094	0.0003585
2106	0.0003585
2118	0.00029875
2130	0.00029875
2142	0.00029875
2154	0.00041825
2166	0.000717
2178	0.00077675
2190	0.000717
2202	0.000717
2214	0.000717
2226	0.0010755
2238	0.0005975
2250	0.00101575
2262	0.0010755
2274	0.00113525
2286	0.001195
2298	0.001195
2310	0.00125475
2322	0.0013145
2334	0.001912
2346	0.00239
2358	0.0015535
2370	0.003107
2382	0.0027485
2394	0.00221075
2406	0.0027485
2418	0.0027485
2430	0.00280825
2442	0.0025095
2454	0.00233025
2466	0.00185225
2478	0.00209125
2490	0.00209125
2502	0.00233025
2514	0.00239
2526	0.0029875
2538	0.0029875
2550	0.0029875
2562	0.0034655
2574	0.00400325
2586	0.00495925
2598	0.005736
2610	0.005975
2622	0.00651275
2634	0.006931
2646	0.00770775
2658	0.00842475
2670	0.0099185
2682	0.0105758
2694	0.0108745
2706	0.010516
2718	0.0109343
2730	0.0124878
2742	0.0149375
2754	0.0158935
2766	0.0151765
2778	0.0163117
2790	0.018881
2802	0.0224063
2814	0.0276045
2826	0.0374633
2838	0.0607658
2850	0.115616
2862	0.209065
2874	0.28686
2886	0.302634
2898	0.238343
2910	0.25573
2922	0.390765
2934	0.542112
2946	0.550656
2958	0.445496
2970	0.556153
2982	0.365312
2994	0.123025
3006	0.0535958
3018	0.0341173
3030	0.0265888
3042	0.0212113
3054	0.0170885
3066	0.014579
3078	0.013145
3090	0.0123683
3102	0.010277
3114	0.009321
3126	0.00770775
3138	0.0068115
3150	0.006453
3162	0.006453
3174	0.006453
3186	0.00591525
3198	0.0056165
3210	0.0039435
3222	0.00304725
3234	0.00244975
3246	0.0017925
3258	0.00173275
3270	0.00161325
3282	0.00101575
3294	0.0010755
3306	0.00113525
3318	0.00113525
3330	0.0010755
3342	0.0010755
3354	0.00077675
3366	0.00089625
3378	0.0010755
3390	0.0015535
3402	0.00173275
3414	0.001912
3426	0.00209125
3438	0.0025095
3450	0.0029875
3462	0.0029875
3474	0.00268875
3486	0.0025095
3498	0.00197175
3510	0.0022705
3522	0.0022705
3534	0.0020315
3546	0.00233025
3558	0.00239
3570	0.0034655
3582	0.00292775
3594	0.003346
3606	0.00388375
3618	0.00770775
3630	0.0135633
3642	0.022944
3654	0.0402715
3666	0.0374035
3678	0.0195383
3690	0.00806625
3702	0.00519825
3714	0.00448125
3726	0.00400325
3738	0.00388375
3750	0.003107
3762	0.003585
3774	0.0032265
3786	0.00316675
3798	0.003107
3810	0.004063
3822	0.00388375
3834	0.00436175
3846	0.0046605
3858	0.004541
3870	0.0044215
3882	0.0044215
3894	0.0041825
3906	0.00352525
3918	0.0037045
3930	0.00328625
3942	0.00280825
3954	0.00292775
3966	0.0034655
