Infrared Spectrum: 4-Octanone
Formula: C 8 H 16 O
CAS: 589-63-9
Origin: Sadtler Research Labs Under US-EPA Contract
1/CM	ABSORBANCE
450	0.00756732
462	0.00504488
474	0.00333613
486	0.00553309
498	0.00911333
510	0.00976428
522	0.0122867
534	0.0179825
546	0.0164365
558	0.0138327
570	0.015216
582	0.0139141
594	0.0170875
606	0.016762
618	0.0177384
630	0.018959
642	0.0141582
654	0.00805553
666	0.00724184
678	0.00561446
690	0.00504488
702	0.00797416
714	0.0115544
726	0.016762
738	0.0210746
750	0.0249803
762	0.0248175
774	0.0222137
786	0.015216
798	0.00642815
810	0.00805553
822	0.00797416
834	0.00903196
846	0.00805553
858	0.0094388
870	0.0124495
882	0.0162738
894	0.0188776
906	0.0162738
918	0.0120426
930	0.0112289
942	0.0107407
954	0.00984565
966	0.0125308
978	0.0168434
990	0.0253871
1002	0.0334427
1014	0.0451598
1026	0.0790093
1038	0.104641
1050	0.0747781
1062	0.0530526
1074	0.0423119
1086	0.0406845
1098	0.0496351
1110	0.0663157
1122	0.0983751
1134	0.137676
1146	0.116846
1158	0.109685
1170	0.0895873
1182	0.0520762
1194	0.038813
1206	0.0424746
1218	0.044102
1230	0.0453225
1242	0.0491469
1254	0.0527271
1266	0.0607826
1278	0.0598062
1290	0.0594807
1302	0.0585857
1314	0.0521575
1326	0.0566328
1338	0.074534
1350	0.116765
1362	0.163308
1374	0.138165
1386	0.0976428
1398	0.0699773
1410	0.0726625
1422	0.0828336
1434	0.0794975
1446	0.0884481
1458	0.120263
1470	0.116602
1482	0.0649325
1494	0.0284791
1506	0.0190403
1518	0.0135073
1530	0.00846238
1542	0.0101711
1554	0.00724184
1566	0.00520762
1578	0.00699773
1590	0.00496351
1602	0.00431256
1614	0.00724184
1626	0.00659089
1638	0.00895059
1650	0.0135886
1662	0.0101711
1674	0.0192845
1686	0.0346632
1698	0.0574465
1710	0.195448
1722	0.452574
1734	0.480158
1746	0.197808
1758	0.0728253
1770	0.0719302
1782	0.0440206
1794	0.0292115
1806	0.0171689
1818	0.00732321
1830	0.00642815
1842	0.00431256
1854	0.00211559
1866	0.00382434
1878	0.00211559
1890	0.00179012
1902	0.00219696
1914	0.00113917
1926	0.000569583
1938	0.00170875
1950	0.000325476
1962	0.00081369
1974	0.00122054
1986	8.1369e-05
1998	0.000488214
2010	0.000488214
2022	0.000244107
2034	0.00138327
2046	0.00154601
2058	0.00113917
2070	0.00162738
2082	0.000976428
2094	0.000650952
2106	0.00113917
2118	0.000650952
2130	0.000895059
2142	0.00113917
2154	0.00113917
2166	0.0013019
2178	0.00138327
2190	0.000895059
2202	0.00146464
2214	0.00122054
2226	0.00113917
2238	0.00138327
2250	0.00113917
2262	0.000650952
2274	0.000895059
2286	0.000569583
2298	0.000895059
2310	0.000976428
2322	0.00081369
2334	0.000325476
2346	0.0013019
2358	0.000569583
2370	0.000488214
2382	0.00187149
2394	0.0013019
2406	0.00203423
2418	0.00211559
2430	0.0013019
2442	0.00146464
2454	0.00122054
2466	0.000895059
2478	0.0013019
2490	0.0010578
2502	0.0010578
2514	0.00146464
2526	0.00113917
2538	0.00122054
2550	0.00146464
2562	0.00187149
2574	0.00187149
2586	0.00227833
2598	0.00219696
2610	0.00244107
2622	0.00244107
2634	0.00276655
2646	0.00374297
2658	0.00512625
2670	0.00626541
2682	0.00699773
2694	0.00642815
2706	0.00618404
2718	0.00667226
2730	0.00805553
2742	0.0122867
2754	0.0134259
2766	0.0123681
2778	0.0133445
2790	0.0173316
2802	0.0234343
2814	0.0315712
2826	0.0379993
2838	0.0505301
2850	0.0770564
2862	0.143128
2874	0.255661
2886	0.360546
2898	0.322791
2910	0.317014
2922	0.377552
2934	0.493096
2946	0.607501
2958	0.612871
2970	0.81369
2982	0.536466
2994	0.19496
3006	0.0891804
3018	0.0526457
3030	0.0361278
3042	0.0265263
3054	0.0206677
3066	0.0169248
3078	0.0148092
3090	0.0131818
3102	0.0112289
3114	0.0094388
3126	0.00886922
3138	0.00846238
3150	0.00862511
3162	0.0081369
3174	0.00716047
3186	0.00699773
3198	0.00675363
3210	0.00504488
3222	0.00374297
3234	0.00260381
3246	0.00187149
3258	0.00170875
3270	0.00154601
3282	0.0013019
3294	0.0010578
3306	0.00138327
3318	0.00122054
3330	0.00170875
3342	0.00146464
3354	0.00187149
3366	0.00260381
3378	0.00154601
3390	0.00211559
3402	0.0023597
3414	0.00358024
3426	0.00781142
3438	0.00870648
3450	0.00610268
3462	0.00268518
3474	0.000569583
3486	0.000895059
3498	0.00146464
3510	0.00113917
3522	0.00122054
3534	0.00170875
3546	0.00162738
3558	0.00390571
3570	0.0155415
3582	0.0117171
3594	0.00520762
3606	0.00260381
3618	0.00203423
3630	0.00268518
3642	0.00260381
3654	0.0023597
3666	0.00162738
3678	0.00382434
3690	0.00268518
3702	0.00284791
3714	0.00292928
3726	0.00203423
3738	0.00382434
3750	0.00219696
3762	0.00292928
3774	0.00398708
3786	0.00309202
3798	0.00309202
3810	0.00301065
3822	0.00260381
3834	0.00333613
3846	0.00301065
3858	0.00358024
3870	0.00390571
3882	0.00146464
3894	0.00252244
3906	0.00268518
3918	0.00179012
3930	0.00447529
3942	0.00374297
3954	0.00284791
3966	0.00333613
