Infrared Spectrum: Hexane, 2,4-dimethyl-
Formula: C 8 H 18
CAS: 589-43-5
Origin: Sadtler Research Labs Under US-EPA Contract
1/CM	ABSORBANCE
450	0.00744595
462	0.0231652
474	0.0119963
486	0.00151677
498	0.0137888
510	0.0139267
522	0.0146161
534	0.0129615
546	0.015995
558	0.0142025
570	0.0121341
582	0.018477
594	0.0150298
606	0.0180633
618	0.0175118
630	0.0165466
642	0.0118584
654	0.0106174
666	0.0165466
678	0.0146161
690	0.0100658
702	0.0130994
714	0.0117205
726	0.0161329
738	0.0317142
750	0.00717018
762	0.0136509
774	0.0237167
786	0.0188907
798	0.019718
810	0.0129615
822	0.0139267
834	0.0166844
846	0.0132372
858	0.0170981
870	0.0161329
882	0.014754
894	0.0161329
906	0.014754
918	0.017236
930	0.015995
942	0.015995
954	0.0210969
966	0.0308869
978	0.03199
990	0.0304732
1002	0.0259229
1014	0.019718
1026	0.0186149
1038	0.0170981
1050	0.0187528
1062	0.014754
1074	0.0140646
1086	0.0162708
1098	0.0136509
1110	0.013513
1122	0.0175118
1134	0.0228894
1146	0.0343341
1158	0.0376434
1170	0.0438484
1182	0.0285428
1194	0.0170981
1206	0.0144782
1218	0.0154435
1230	0.0154435
1242	0.0157192
1254	0.0139267
1266	0.0170981
1278	0.0195801
1290	0.0198559
1302	0.0195801
1314	0.0202695
1326	0.0266124
1338	0.0329552
1350	0.0426074
1362	0.0781825
1374	0.129063
1386	0.151263
1398	0.0864558
1410	0.0290944
1422	0.0256472
1434	0.0329552
1446	0.06398
1458	0.14037
1470	0.18215
1482	0.107139
1494	0.0401254
1506	0.0205453
1518	0.0151677
1530	0.0092385
1542	0.0115826
1554	0.0118584
1566	0.00910061
1578	0.00979005
1590	0.00868694
1602	0.00979005
1614	0.00896272
1626	0.00785962
1638	0.00965216
1650	0.0118584
1662	0.00841117
1674	0.00910061
1686	0.00965216
1698	0.00979005
1710	0.00992794
1722	0.011031
1734	0.00910061
1746	0.00841117
1758	0.00772173
1770	0.00813539
1782	0.0057913
1794	0.00537763
1806	0.00592918
1818	0.00510186
1830	0.00441242
1842	0.00358509
1854	0.00427453
1866	0.00413664
1878	0.00261987
1890	0.00372298
1902	0.00330931
1914	0.00317142
1926	0.00303354
1938	0.00275776
1950	0.00261987
1962	0.00261987
1974	0.0023441
1986	0.0023441
1998	0.00193043
2010	0.00193043
2022	0.00179254
2034	0.00220621
2046	0.00165466
2058	0.00206832
2070	0.00151677
2082	0.00179254
2094	0.00165466
2106	0.00179254
2118	0.00165466
2130	0.00179254
2142	0.00220621
2154	0.00165466
2166	0.00179254
2178	0.00165466
2190	0.00165466
2202	0.00165466
2214	0.000965216
2226	0.0011031
2238	0.00068944
2250	0.00124099
2262	0.000827328
2274	0.000965216
2286	0.0011031
2298	0.000551552
2310	0.000137888
2322	0.000275776
2334	0.000275776
2346	0.000275776
2358	0.00179254
2370	0.00068944
2382	0.00151677
2394	0.00220621
2406	0.00261987
2418	0.00248198
2430	0.00193043
2442	0.00179254
2454	0.00179254
2466	0.00165466
2478	0.000965216
2490	0.00151677
2502	0.00179254
2514	0.00179254
2526	0.00165466
2538	0.00220621
2550	0.0023441
2562	0.00372298
2574	0.00537763
2586	0.00730806
2598	0.00841117
2610	0.0079975
2622	0.00854906
2634	0.00882483
2646	0.00827328
2658	0.00785962
2670	0.00772173
2682	0.00854906
2694	0.0092385
2706	0.0114447
2718	0.0153056
2730	0.019718
2742	0.020959
2754	0.0177876
2766	0.0169602
2778	0.0180633
2790	0.0216484
2802	0.028267
2814	0.0368161
2826	0.0506049
2838	0.0835601
2850	0.143266
2862	0.216484
2874	0.365403
2886	0.47268
2898	0.482608
2910	0.63787
2922	0.697162
2934	0.655657
2946	0.647246
2958	1.00658
2970	1.33917
2982	0.595125
2994	0.138715
3006	0.0621875
3018	0.0404012
3030	0.0289565
3042	0.0255093
3054	0.0230273
3066	0.0206832
3078	0.0198559
3090	0.0170981
3102	0.0153056
3114	0.0144782
3126	0.0144782
3138	0.0142025
3150	0.0132372
3162	0.0139267
3174	0.0150298
3186	0.0142025
3198	0.0118584
3210	0.00868694
3222	0.00620496
3234	0.00468819
3246	0.0034472
3258	0.00358509
3270	0.00261987
3282	0.00289565
3294	0.00330931
3306	0.0034472
3318	0.00303354
3330	0.00261987
3342	0.0034472
3354	0.0034472
3366	0.00427453
3378	0.00372298
3390	0.00372298
3402	0.00248198
3414	0.00261987
3426	0.00289565
3438	0.00261987
3450	0.0011031
3462	0.00261987
3474	0.00193043
3486	0.00261987
3498	0.00151677
3510	0.00220621
3522	0.00261987
3534	0.00275776
3546	0.00137888
3558	0.00289565
3570	0.00303354
3582	0.00165466
3594	0.00330931
3606	0.00179254
3618	0.00330931
3630	0.00399875
3642	0.00179254
3654	0.00537763
3666	0
3678	0.00510186
3690	0.00372298
3702	0.0045503
3714	0.00303354
3726	0.00165466
3738	0.00510186
3750	0.00537763
3762	0.00248198
3774	0.00275776
3786	0.0034472
3798	0.00482608
3810	0.00151677
3822	0.00675651
3834	0.00537763
3846	0.00468819
3858	0.00565341
3870	0.00661862
3882	0.00220621
3894	0.00592918
3906	0.00523974
3918	0.00675651
3930	0.00827328
3942	0.00441242
3954	0.00510186
3966	0.0023441
