Infrared Spectrum: Butanoic acid, 3-methyl-, 2-methylpropyl ester
Formula: C 9 H 18 O 2
CAS: 589-59-3
Origin: Sadtler Research Labs Under US-EPA Contract
1/CM	ABSORBANCE
450	0
462	0.0118969
474	0.0118969
486	0.0123475
498	0.0146909
510	0.0083819
522	0.0180256
534	0.0117166
546	0.011266
558	0.0145106
570	0.011987
582	0.0109055
594	0.0145106
606	0.0138797
618	0.0184762
630	0.0178453
642	0.0132488
654	0.0113561
666	0.00829178
678	0.00910293
690	0.0108154
702	0.0121673
714	0.0159527
726	0.0200985
738	0.0167638
750	0.0142402
762	0.0143304
774	0.0110857
786	0.0144205
798	0.0170342
810	0.0174848
822	0.0237938
834	0.0248753
846	0.0200084
858	0.0201887
870	0.0220814
882	0.0238839
894	0.0268581
906	0.0293817
918	0.0360512
930	0.0419996
942	0.0432614
954	0.043622
966	0.0452443
978	0.0389353
990	0.0604759
1002	0.14051
1014	0.304182
1026	0.196299
1038	0.0614673
1050	0.0438022
1062	0.0571412
1074	0.10572
1086	0.180076
1098	0.234603
1110	0.251998
1122	0.272547
1134	0.21135
1146	0.28192
1158	0.370156
1170	0.499219
1182	0.611158
1194	0.525176
1206	0.308508
1218	0.201526
1230	0.189719
1242	0.251277
1254	0.278856
1266	0.193325
1278	0.155291
1290	0.276693
1302	0.237668
1314	0.114823
1326	0.0792225
1338	0.0987803
1350	0.132759
1362	0.1616
1374	0.195217
1386	0.214054
1398	0.101664
1410	0.0559695
1422	0.0508322
1434	0.0659737
1446	0.0714715
1458	0.122484
1470	0.180166
1482	0.115093
1494	0.0441627
1506	0.0242444
1518	0.0182059
1530	0.0148711
1542	0.0142402
1554	0.0134291
1566	0.0125278
1578	0.0139698
1590	0.0130686
1602	0.0132488
1614	0.0138797
1626	0.0129784
1638	0.0155921
1650	0.0157724
1662	0.0166737
1674	0.018296
1686	0.0230728
1698	0.0333474
1710	0.05633
1722	0.0887761
1734	0.20441
1746	0.632338
1758	0.773118
1770	0.266869
1782	0.0893168
1794	0.0471369
1806	0.0272187
1818	0.0191071
1830	0.0150514
1842	0.0129784
1854	0.0116265
1866	0.0110857
1878	0.00973382
1890	0.0096437
1902	0.00982395
1914	0.00955357
1926	0.00982395
1938	0.00991408
1950	0.00928318
1962	0.0096437
1974	0.00919306
1986	0.00892267
1998	0.0090128
2010	0.0107252
2022	0.0121673
2034	0.011987
2046	0.0114463
2058	0.0110857
2070	0.0108154
2082	0.0096437
2094	0.00928318
2106	0.0083819
2118	0.00856216
2130	0.00811152
2142	0.00775101
2154	0.00757075
2166	0.00693986
2178	0.00721024
2190	0.00666947
2202	0.0061287
2214	0.0061287
2226	0.00639909
2238	0.00639909
2250	0.0067596
2262	0.00693986
2274	0.00748062
2286	0.00865229
2298	0.0109055
2310	0.0122574
2322	0.011266
2334	0.00928318
2346	0.00892267
2358	0.0106351
2370	0.00702998
2382	0.00766088
2394	0.00639909
2406	0.00721024
2418	0.00648922
2430	0.00585832
2442	0.00684973
2454	0.00712011
2466	0.00657934
2478	0.00730037
2490	0.00585832
2502	0.00712011
2514	0.00648922
2526	0.00639909
2538	0.00666947
2550	0.00648922
2562	0.00730037
2574	0.00811152
2586	0.00784114
2598	0.00784114
2610	0.00757075
2622	0.00766088
2634	0.00721024
2646	0.0083819
2658	0.00730037
2670	0.00766088
2682	0.00937331
2694	0.00865229
2706	0.00955357
2718	0.0114463
2730	0.0166737
2742	0.0194676
2754	0.0179355
2766	0.0150514
2778	0.0156823
2790	0.0174848
2802	0.0194676
2814	0.0238839
2826	0.027489
2838	0.0346993
2850	0.0410082
2862	0.0609265
2874	0.146458
2886	0.284264
2898	0.243526
2910	0.226311
2922	0.249204
2934	0.32365
2946	0.433786
2958	0.53509
2970	0.877757
2982	0.670012
2994	0.185483
3006	0.0627291
3018	0.0359611
3030	0.0265878
3042	0.0209097
3054	0.0173947
3066	0.0165836
3078	0.0156823
3090	0.0164934
3102	0.0155921
3114	0.0139698
3126	0.0151415
3138	0.0145106
3150	0.0148711
3162	0.0144205
3174	0.0150514
3186	0.015502
3198	0.0144205
3210	0.0141501
3222	0.011266
3234	0.00982395
3246	0.0090128
3258	0.0090128
3270	0.00928318
3282	0.00928318
3294	0.00847203
3306	0.00928318
3318	0.00991408
3330	0.0111759
3342	0.0102746
3354	0.0109956
3366	0.0108154
3378	0.0107252
3390	0.0111759
3402	0.00847203
3414	0.0115364
3426	0.00991408
3438	0.0100943
3450	0.00973382
3462	0.0114463
3474	0.0139698
3486	0.0164934
3498	0.0146909
3510	0.0117166
3522	0.0108154
3534	0.00955357
3546	0.00982395
3558	0.00955357
3570	0.0108154
3582	0.011266
3594	0.0103647
3606	0.00946344
3618	0.0083819
3630	0.00829178
3642	0.00946344
3654	0.00883254
3666	0.00865229
3678	0.00874242
3690	0.00874242
3702	0.0100042
3714	0.00865229
3726	0.00802139
3738	0.00883254
3750	0.00576819
3762	0.0067596
3774	0.00874242
3786	0.00802139
3798	0.00829178
3810	0.0083819
3822	0.00847203
3834	0.0109055
3846	0.0100943
3858	0.00793126
3870	0.0102746
3882	0.0102746
3894	0.010545
3906	0.0101845
3918	0.00973382
3930	0.00982395
3942	0.0110857
3954	0.0108154
3966	0.0102746
