Infrared Spectrum: Niacin
Formula: C 6 H 5 N O 2
CAS: 59-67-6
Origin: Sadtler Research Labs Under US-EPA Contract
1/CM	ABSORBANCE
450	0.0228882
462	0.0297267
474	0.0329366
486	0.033774
498	0.0438225
510	0.0524055
522	0.0495445
534	0.056383
546	0.0720838
558	0.0836674
570	0.102648
582	0.101462
594	0.0593139
606	0.0323784
618	0.026447
630	0.0245629
642	0.11793
654	0.104532
666	0.0176546
678	0.0108161
690	0.0249816
702	0.0533127
714	0.0367746
726	0.0593139
738	0.11165
750	0.117651
762	0.0632914
774	0.0385889
786	0.0278426
798	0.00774569
810	0.00690832
822	0.00614073
834	0.0043962
846	0.00279124
858	0.000767591
870	0.00125606
882	0.00314015
894	0.00139562
906	0.00132584
918	0.00167474
930	0.000837372
942	0.00251212
954	0.00272146
966	0.00523357
978	0.00802481
990	0.00830394
1002	0.0156309
1014	0.0693623
1026	0.0814344
1038	0.0320993
1050	0.0256096
1062	0.070409
1074	0.160706
1086	0.328599
1098	0.321481
1110	0.119605
1122	0.0750844
1134	0.048428
1146	0.0334949
1158	0.0473115
1170	0.109766
1182	0.203621
1194	0.234604
1206	0.119605
1218	0.0327971
1230	0.0199574
1242	0.0194689
1254	0.0223299
1266	0.0328669
1278	0.0492654
1290	0.0689436
1302	0.108579
1314	0.102718
1326	0.0516379
1338	0.0441016
1350	0.0873658
1362	0.141586
1374	0.103206
1386	0.0311921
1398	0.0249816
1410	0.0491258
1422	0.0674084
1434	0.0464044
1446	0.0110254
1458	0.00453576
1470	0.0136771
1482	0.0129793
1494	0.00704788
1506	0.00202365
1518	0.00139562
1530	0.00446598
1542	0.00348905
1554	0.0183524
1566	0.0346812
1578	0.0693623
1590	0.118139
1602	0.069153
1614	0.0105369
1626	0.00369839
1638	0.00467533
1650	0.000139562
1662	0.00509401
1674	0.00369839
1686	0.0055127
1698	0.0145842
1710	0.0265866
1722	0.0292382
1734	0.050661
1746	0.154704
1758	0.583369
1770	0.69781
1782	0.249397
1794	0.0473813
1806	0.0238651
1818	0.0240744
1830	0.0173755
1842	0.0110254
1854	0.00795503
1866	0.00495445
1878	0.00446598
1890	0.00425664
1902	0.0043962
1914	0.00676876
1926	0.00739679
1938	0.00544292
1950	0.00746657
1962	0.00879241
1974	0.00655941
1986	0.00355883
1998	0.00125606
2010	0.000488467
2022	0.00118628
2034	0.000558248
2046	0.00104671
2058	0.0014654
2070	0.000767591
2082	0.00153518
2094	0.00160496
2106	0.00104671
2118	0.0014654
2130	0.00230277
2142	0.00230277
2154	0.00300058
2166	0.00265168
2178	0.0029308
2190	0.00334949
2202	0.00216321
2214	0.00202365
2226	0.00230277
2238	0.00160496
2250	0.00181431
2262	0.00167474
2274	0.00167474
2286	0.0025819
2298	0.00523357
2310	0.00655941
2322	0.00565226
2334	0.0040473
2346	0.00655941
2358	0.00488467
2370	0.0058616
2382	0.0069781
2394	0.00279124
2406	0.00202365
2418	0.0014654
2430	0.00209343
2442	0.00216321
2454	0.00188409
2466	0.00174453
2478	0.00125606
2490	0.00160496
2502	0.00188409
2514	0.00153518
2526	0.00160496
2538	0.00174453
2550	0.0014654
2562	0.00104671
2574	0.00104671
2586	0.00118628
2598	0.00139562
2610	0.00153518
2622	0.00118628
2634	0.00139562
2646	0.00104671
2658	0.000976934
2670	0.00118628
2682	0.000767591
2694	0.000488467
2706	0.000767591
2718	0.000348905
2730	0.000139562
2742	0.000418686
2754	0.000348905
2766	0.000837372
2778	0.0014654
2790	0.00118628
2802	0.000907153
2814	0.000488467
2826	0.000279124
2838	0.0014654
2850	0.00160496
2862	0.00181431
2874	0.00251212
2886	0.00223299
2898	0.00188409
2910	0.00216321
2922	0.00230277
2934	0.00307036
2946	0.00418686
2958	0.0040473
2970	0.00600117
2982	0.00746657
2994	0.00683854
3006	0.00621051
3018	0.00718744
3030	0.00976934
3042	0.0233069
3054	0.0374724
3066	0.0279822
3078	0.0178639
3090	0.0211436
3102	0.0169568
3114	0.00572204
3126	0.00369839
3138	0.0040473
3150	0.00341927
3162	0.00216321
3174	0.00188409
3186	0.00174453
3198	0.0014654
3210	0.00167474
3222	0.00118628
3234	0.00069781
3246	0.0014654
3258	0.00132584
3270	0.00160496
3282	0.00132584
3294	0.0014654
3306	0.00160496
3318	0.00132584
3330	0.00174453
3342	0.00139562
3354	0.00265168
3366	0.00230277
3378	0.00139562
3390	0.00223299
3402	0.00209343
3414	0.00244233
3426	0.00369839
3438	0.0040473
3450	0.00369839
3462	0.00320993
3474	0.0014654
3486	0.00216321
3498	0.00348905
3510	0.0055127
3522	0.0055127
3534	0.00209343
3546	0.0043962
3558	0.0102578
3570	0.0912735
3582	0.222671
3594	0.154635
3606	0.00893197
3618	0.00383796
3630	0.0055127
3642	0.00244233
3654	0.0029308
3666	0.00069781
3678	0.00237255
3690	0.00481489
3702	0.00383796
3714	0.00307036
3726	0.00390774
3738	0.00655941
3750	0.0014654
3762	0.00174453
3774	0.00334949
3786	0.00265168
3798	0.00362861
3810	0.000907153
3822	0.00376817
3834	0.00446598
3846	0.00265168
3858	0.00279124
3870	0.00565226
3882	0.00272146
3894	0.00355883
3906	0.00376817
3918	0.0040473
3930	0.00209343
3942	0.00286102
3954	0.00307036
3966	0
