Infrared Spectrum: Cyclohexane, 1,1-dimethyl-
Formula: C 8 H 16
CAS: 590-66-9
Origin: Sadtler Research Labs Under US-EPA Contract
1/CM	ABSORBANCE
450	0
462	0.017382
474	0.0142367
486	0.00943595
498	0.00860824
510	0.0130779
522	0.0112569
534	0.0132434
546	0.0185408
558	0.0175476
570	0.0110914
582	0.0124157
594	0.0110914
606	0.0119191
618	0.0129124
630	0.0150644
642	0.00993258
654	0.0135745
666	0.0105948
678	0.0137401
690	0.01523
702	0.0147333
714	0.0122502
726	0.0165543
738	0.0120846
750	0.0127468
762	0.013409
774	0.013409
786	0.013409
798	0.0119191
810	0.0144022
822	0.0147333
834	0.0168854
846	0.0261558
858	0.0286389
870	0.0168854
882	0.0140712
894	0.0145678
906	0.0193685
918	0.0228449
930	0.0223483
942	0.019203
954	0.0266524
966	0.036585
978	0.0319498
990	0.0253281
1002	0.0185408
1014	0.0158921
1026	0.0139056
1038	0.0125813
1050	0.013409
1062	0.0132434
1074	0.0119191
1086	0.0129124
1098	0.0137401
1110	0.0127468
1122	0.0120846
1134	0.0160577
1146	0.0251625
1158	0.0316187
1170	0.0392337
1182	0.0380749
1194	0.0220172
1206	0.0162232
1218	0.0142367
1230	0.015561
1242	0.0190374
1254	0.0175476
1266	0.0150644
1278	0.0167198
1290	0.0206929
1302	0.0198652
1314	0.0153955
1326	0.0148989
1338	0.0177131
1350	0.0369161
1362	0.0642307
1374	0.0862479
1386	0.0817782
1398	0.0594299
1410	0.0238382
1422	0.0188719
1434	0.0443655
1446	0.120681
1458	0.179449
1470	0.153789
1482	0.0928696
1494	0.0362539
1506	0.015561
1518	0.0120846
1530	0.0107603
1542	0.0114225
1554	0.0102637
1566	0.00993258
1578	0.0110914
1590	0.0102637
1602	0.0105948
1614	0.0109258
1626	0.0109258
1638	0.0112569
1650	0.0119191
1662	0.0110914
1674	0.0117536
1686	0.0110914
1698	0.0110914
1710	0.0110914
1722	0.0110914
1734	0.0110914
1746	0.0107603
1758	0.0100981
1770	0.00993258
1782	0.0102637
1794	0.0102637
1806	0.0100981
1818	0.00993258
1830	0.00960149
1842	0.00993258
1854	0.0102637
1866	0.0100981
1878	0.0104292
1890	0.0102637
1902	0.00960149
1914	0.00943595
1926	0.00893932
1938	0.00927041
1950	0.00960149
1962	0.00943595
1974	0.00811161
1986	0.00927041
1998	0.00893932
2010	0.00943595
2022	0.00943595
2034	0.00860824
2046	0.00761498
2058	0.00778052
2070	0.00662172
2082	0.00546292
2094	0.00695281
2106	0.00811161
2118	0.00910487
2130	0.00910487
2142	0.00844269
2154	0.00860824
2166	0.00877378
2178	0.00927041
2190	0.00976704
2202	0.00910487
2214	0.00844269
2226	0.00728389
2238	0.00778052
2250	0.00761498
2262	0.00794606
2274	0.00827715
2286	0.00893932
2298	0.00927041
2310	0.00910487
2322	0.00695281
2334	0.00728389
2346	0.00728389
2358	0.00529738
2370	0.00927041
2382	0.00927041
2394	0.00811161
2406	0.00744944
2418	0.00794606
2430	0.00678726
2442	0.00711835
2454	0.00645618
2466	0.00662172
2478	0.00761498
2490	0.00778052
2502	0.00711835
2514	0.00629063
2526	0.00662172
2538	0.00678726
2550	0.00728389
2562	0.00629063
2574	0.00662172
2586	0.00778052
2598	0.0107603
2610	0.0130779
2622	0.0150644
2634	0.0160577
2646	0.021024
2658	0.023176
2670	0.0223483
2682	0.0183753
2694	0.0147333
2706	0.0165543
2718	0.017382
2730	0.0162232
2742	0.0167198
2754	0.0157266
2766	0.0190374
2778	0.0226794
2790	0.0259903
2802	0.0297977
2814	0.0375783
2826	0.0531393
2838	0.133262
2850	0.334066
2862	0.515004
2874	0.523447
2886	0.404753
2898	0.500602
2910	0.81232
2922	1.1939
2934	1.65543
2946	1.39288
2958	0.989782
2970	0.549603
2982	0.261558
2994	0.098167
3006	0.0225138
3018	0.0158921
3030	0.0129124
3042	0.0122502
3054	0.0124157
3066	0.0130779
3078	0.0148989
3090	0.0163888
3102	0.0130779
3114	0.0125813
3126	0.0117536
3138	0.0125813
3150	0.01523
3162	0.0130779
3174	0.0112569
3186	0.0120846
3198	0.0127468
3210	0.0132434
3222	0.0117536
3234	0.00976704
3246	0.00893932
3258	0.00827715
3270	0.00678726
3282	0.00844269
3294	0.00711835
3306	0.00695281
3318	0.00844269
3330	0.00960149
3342	0.00860824
3354	0.00960149
3366	0.00993258
3378	0.0110914
3390	0.0114225
3402	0.00844269
3414	0.00811161
3426	0.00778052
3438	0.00612509
3450	0.00761498
3462	0.00877378
3474	0.00893932
3486	0.0102637
3498	0.00960149
3510	0.00877378
3522	0.00860824
3534	0.00761498
3546	0.00877378
3558	0.00778052
3570	0.00844269
3582	0.00744944
3594	0.00877378
3606	0.00761498
3618	0.0102637
3630	0.00910487
3642	0.00860824
3654	0.00827715
3666	0.00927041
3678	0.00910487
3690	0.00893932
3702	0.0129124
3714	0.00960149
3726	0.00877378
3738	0.00927041
3750	0.0110914
3762	0.00960149
3774	0.0129124
3786	0.00943595
3798	0.00943595
3810	0.0102637
3822	0.00993258
3834	0.00960149
3846	0.00893932
3858	0.00960149
3870	0.00877378
3882	0.0129124
3894	0.0102637
3906	0.00976704
3918	0.00893932
3930	0.00711835
3942	0.00728389
3954	0.00993258
3966	0.00529738
