Infrared Spectrum: Cyclohexanol, 1-methyl-
Formula: C 7 H 14 O
CAS: 590-67-0
Origin: Sadtler Research Labs Under US-EPA Contract
1/CM	ABSORBANCE
450	0.00462449
462	0.00719949
474	0.0100372
486	0.00924898
498	0.00299541
510	0.000420408
522	0.000630612
534	0.000472959
546	0.00425663
558	0.00325816
570	0.00415153
582	0.00315306
594	0.00131377
606	0.00147143
618	0.00173418
630	0.00225969
642	0.0024699
654	0.00225969
666	0.00131377
678	0.00215459
690	0.0027852
702	0.00373112
714	0.00541275
726	0.00404643
738	0.0027852
750	0.00215459
762	0.0024699
774	0.00299541
786	0.00283775
798	0.00199694
810	0.00294286
822	0.00583316
834	0.0132429
846	0.012402
858	0.00882857
870	0.00756734
882	0.0112985
894	0.0225444
906	0.0456668
918	0.0485571
930	0.0232801
942	0.010773
954	0.0259602
966	0.0496607
978	0.0378893
990	0.0181826
1002	0.0111934
1014	0.0129275
1026	0.0125071
1038	0.016501
1050	0.0166061
1062	0.0147143
1074	0.0199694
1086	0.0310051
1098	0.044353
1110	0.0493979
1122	0.0428291
1134	0.0380995
1146	0.0423561
1158	0.0464551
1170	0.0522357
1182	0.0400439
1194	0.0237005
1206	0.0180775
1218	0.0196015
1230	0.0243837
1242	0.0299015
1254	0.0351566
1266	0.0343158
1278	0.0281148
1290	0.0221765
1302	0.0176571
1314	0.0183403
1326	0.0212306
1338	0.0247515
1350	0.0253296
1362	0.031951
1374	0.0456668
1386	0.0385199
1398	0.0162908
1410	0.0103525
1422	0.0107204
1434	0.0237531
1446	0.0452464
1458	0.0528138
1470	0.0356296
1482	0.0142939
1494	0.00541275
1506	0.00262755
1518	0.00315306
1530	0.00320561
1542	0.000893367
1554	0.002575
1566	0.00241735
1578	0.00141888
1590	0.00231224
1602	0.00210204
1614	0.00283775
1626	0.00289031
1638	0.00178673
1650	0.00262755
1662	0.0024699
1674	0.00310051
1686	0.00136633
1698	0.00204949
1710	0.00231224
1722	0.00294286
1734	0.00362602
1746	0.00378367
1758	0.00241735
1770	0.00252245
1782	0.00225969
1794	0.00225969
1806	0.00236479
1818	0.00225969
1830	0.00220714
1842	0.00210204
1854	0.00152398
1866	0.00183928
1878	0.00204949
1890	0.00157653
1902	0.00157653
1914	0.00152398
1926	0.00141888
1938	0.00157653
1950	0.00131377
1962	0.00126122
1974	0.00120867
1986	0.00120867
1998	0.00115612
2010	0.00126122
2022	0.00115612
2034	0.00162908
2046	0.00110357
2058	0.000945918
2070	0.00136633
2082	0.00147143
2094	0.00136633
2106	0.00141888
2118	0.00136633
2130	0.000840816
2142	0.00131377
2154	0.000683163
2166	0.00110357
2178	0.00120867
2190	0.00115612
2202	0.00162908
2214	0.00131377
2226	0.00126122
2238	0.00110357
2250	0.00110357
2262	0.00110357
2274	0.00110357
2286	0.00141888
2298	0.00189184
2310	0.00199694
2322	0.00147143
2334	0.000630612
2346	0.00052551
2358	0.000840816
2370	0.000105102
2382	0.000945918
2394	0.000683163
2406	0.000683163
2418	0.00115612
2430	0.000630612
2442	0.000683163
2454	0.000578061
2466	0.000578061
2478	0.00052551
2490	0.000840816
2502	0.00052551
2514	0.00052551
2526	0.00052551
2538	0.000788265
2550	0.000945918
2562	0.000472959
2574	0.000420408
2586	0.000998469
2598	0.00152398
2610	0.00199694
2622	0.00241735
2634	0.00283775
2646	0.00294286
2658	0.00425663
2670	0.00541275
2682	0.00483469
2694	0.00336326
2706	0.00325816
2718	0.00299541
2730	0.00336326
2742	0.00294286
2754	0.00241735
2766	0.00341581
2778	0.00436173
2790	0.00635867
2802	0.00730459
2814	0.00835561
2826	0.0106153
2838	0.0249092
2850	0.0697352
2862	0.126753
2874	0.129433
2886	0.0915438
2898	0.0848699
2910	0.1236
2922	0.230226
2934	0.436331
2946	0.466022
2958	0.2297
2970	0.114351
2982	0.0811913
2994	0.0325816
3006	0.00719949
3018	0.00220714
3030	0.00178673
3042	0.00141888
3054	0.00141888
3066	0.00141888
3078	0.00183928
3090	0.00215459
3102	0.00147143
3114	0.00147143
3126	0.00152398
3138	0.00120867
3150	0.00204949
3162	0.00194439
3174	0.00105102
3186	0.000735714
3198	0.000840816
3210	0.00141888
3222	0.00147143
3234	0.00147143
3246	0.00110357
3258	0.00105102
3270	0.000578061
3282	0.00110357
3294	0.000472959
3306	0.000788265
3318	0.00110357
3330	0.00147143
3342	0.000998469
3354	0.00136633
3366	0.00141888
3378	0.00157653
3390	0.00105102
3402	0.00204949
3414	0.00215459
3426	0.00215459
3438	0.00162908
3450	0.00147143
3462	0.00115612
3474	0.00120867
3486	0.00168163
3498	0.00210204
3510	0.00168163
3522	0.00215459
3534	0.000735714
3546	0.00147143
3558	0.000840816
3570	0.000840816
3582	0.00157653
3594	0.00126122
3606	0.00173418
3618	0.00388877
3630	0.0114561
3642	0.0200219
3654	0.0138209
3666	0.00593826
3678	0.00147143
3690	0.000788265
3702	0.00189184
3714	0.00157653
3726	0.00157653
3738	0.000683163
3750	0.000367857
3762	0.00105102
3774	0.00189184
3786	0.00204949
3798	0.00199694
3810	0.00120867
3822	0.00131377
3834	0.00168163
3846	0.00194439
3858	0.00105102
3870	0.00210204
3882	0.00204949
3894	0.00115612
3906	0.00189184
3918	0.00162908
3930	0.00199694
3942	0.00131377
3954	0.00173418
3966	0.00168163
