Infrared Spectrum: 2-Pentanol, 2-methyl-
Formula: C 6 H 14 O
CAS: 590-36-3
Origin: Sadtler Research Labs Under US-EPA Contract
1/CM	ABSORBANCE
450	0.0359658
462	0.0321599
474	0.0353949
486	0.0226451
498	0.0171266
510	0.0140818
522	0.019981
534	0.0317793
546	0.0289248
558	0.0117983
570	0.0117983
582	0.00970504
594	0.0121789
606	0.011608
618	0.0114177
630	0.00647003
642	0.0106565
654	0.00875357
666	0.00608944
678	0.0127498
690	0.0108468
702	0.0123692
714	0.0138915
726	0.0137012
738	0.0262607
750	0.041294
762	0.0456708
774	0.0319696
786	0.0216936
798	0.0194101
810	0.0169363
822	0.0146527
834	0.0117983
846	0.0230257
858	0.0447193
870	0.0782112
882	0.136822
894	0.16803
906	0.150714
918	0.180209
930	0.227212
942	0.189914
954	0.152046
966	0.117222
978	0.0717412
990	0.038059
1002	0.0251189
1014	0.0247383
1026	0.0353949
1038	0.0599429
1050	0.0940057
1062	0.118554
1074	0.124643
1086	0.123692
1098	0.111323
1110	0.128259
1122	0.217317
1134	0.32255
1146	0.342531
1158	0.332445
1170	0.380209
1182	0.408944
1194	0.336632
1206	0.230828
1218	0.199619
1230	0.205519
1242	0.20666
1254	0.18725
1266	0.163083
1278	0.155471
1290	0.159277
1302	0.152426
1314	0.14843
1326	0.161941
1338	0.162322
1350	0.17393
1362	0.291342
1374	0.443768
1386	0.394862
1398	0.204377
1410	0.0784015
1422	0.05804
1434	0.0730733
1446	0.124072
1458	0.202093
1470	0.22588
1482	0.1549
1494	0.0702189
1506	0.0304472
1518	0.0182683
1530	0.0131304
1542	0.0129401
1554	0.00970504
1566	0.00742151
1578	0.00913416
1590	0.00666032
1602	0.00666032
1614	0.00837298
1626	0.00589914
1638	0.00799239
1650	0.00456708
1662	0.00570885
1674	0.00608944
1686	0.00799239
1698	0.00742151
1710	0.00532826
1722	0.00437679
1734	0.00361561
1746	0.00228354
1758	0.00190295
1770	0.00171265
1782	0.00323501
1794	0.0038059
1806	0.00361561
1818	0.0038059
1830	0.00323501
1842	0.00304472
1854	0.00342531
1866	0.00266413
1878	0.00209325
1890	0.00190295
1902	0.00038059
1914	0.000570885
1926	0.00076118
1938	0.000570885
1950	0.00038059
1962	0.00114177
1974	0.00076118
1986	0.00133206
1998	0.00133206
2010	0.00171265
2022	0.00190295
2034	0.00247383
2046	0.0038059
2058	0.00323501
2070	0.00475737
2082	0.0038059
2094	0.00266413
2106	0.00266413
2118	0.0038059
2130	0.00532826
2142	0.0038059
2154	0.00342531
2166	0.00342531
2178	0.00361561
2190	0.00418649
2202	0.0039962
2214	0.0039962
2226	0.00437679
2238	0.00475737
2250	0.00437679
2262	0.00551855
2274	0.00608944
2286	0.00608944
2298	0.00685062
2310	0.00627973
2322	0.00608944
2334	0.00666032
2346	0.00951475
2358	0.00266413
2370	0.0133206
2382	0.0108468
2394	0.00780209
2406	0.00723121
2418	0.00742151
2430	0.00723121
2442	0.00608944
2454	0.00551855
2466	0.00570885
2478	0.00570885
2490	0.00589914
2502	0.00627973
2514	0.00627973
2526	0.00589914
2538	0.00608944
2550	0.00647003
2562	0.00685062
2574	0.00780209
2586	0.00856328
2598	0.00970504
2610	0.0106565
2622	0.0108468
2634	0.0123692
2646	0.0140818
2658	0.0114177
2670	0.0121789
2682	0.0137012
2694	0.0138915
2706	0.0157945
2718	0.0207422
2730	0.028354
2742	0.0342531
2754	0.0333016
2766	0.0270219
2778	0.0266413
2790	0.0321599
2802	0.0407231
2814	0.0567079
2826	0.0787821
2838	0.120837
2850	0.189534
2862	0.256708
2874	0.429686
2886	0.60647
2898	0.614272
2910	0.613892
2922	0.723882
2934	0.886775
2946	0.990295
2958	1.22455
2970	1.82169
2982	1.67193
2994	0.74158
3006	0.207422
3018	0.0869648
3030	0.0654615
3042	0.0555661
3054	0.0409134
3066	0.032921
3078	0.0300666
3090	0.0275928
3102	0.0237869
3114	0.0211227
3126	0.0194101
3138	0.0197907
3150	0.0207422
3162	0.0216936
3174	0.0230257
3186	0.0243578
3198	0.0241675
3210	0.0224548
3222	0.0192198
3234	0.0156042
3246	0.0135109
3258	0.0110371
3270	0.0106565
3282	0.0104662
3294	0.0110371
3306	0.00875357
3318	0.00856328
3330	0.00932445
3342	0.00780209
3354	0.00723121
3366	0.00704092
3378	0.00856328
3390	0.0100856
3402	0.0102759
3414	0.011608
3426	0.0108468
3438	0.0106565
3450	0.00970504
3462	0.00742151
3474	0.00608944
3486	0.00532826
3498	0.00666032
3510	0.00666032
3522	0.00570885
3534	0.00513796
3546	0.00418649
3558	0.00361561
3570	0.0039962
3582	0.00532826
3594	0.00608944
3606	0.0100856
3618	0.0230257
3630	0.0717412
3642	0.123692
3654	0.0943863
3666	0.0350143
3678	0.0159848
3690	0.00913416
3702	0.00608944
3714	0.00799239
3726	0.00742151
3738	0.00666032
3750	0.00704092
3762	0.00685062
3774	0.0076118
3786	0.00570885
3798	0.00875357
3810	0.00856328
3822	0.00799239
3834	0.00570885
3846	0.0076118
3858	0.0102759
3870	0.00837298
3882	0.00875357
3894	0.00456708
3906	0.00456708
3918	0.00494767
3930	0.00666032
3942	0.000190295
3954	0.00209325
3966	0.00704092
