Infrared Spectrum: Propanoic acid, butyl ester
Formula: C 7 H 14 O 2
CAS: 590-01-2
Origin: Sadtler Research Labs Under US-EPA Contract
1/CM	ABSORBANCE
450	0.00503877
462	0.00460332
474	0.00323476
486	0.000870898
498	0.00348359
510	0.00460332
522	0.00186621
534	0.00223945
546	0.00379463
558	0.00416787
570	0.00839794
582	0.0100153
594	0.00908222
606	0.00864677
618	0.0138722
630	0.00727822
642	0.00684277
654	0.00665615
666	0.00155517
678	0.00989091
690	0.00609629
702	0.00273711
714	0.00634511
726	0.00721601
738	0.0139344
750	0.0128146
762	0.0114461
774	0.0119437
786	0.0142454
798	0.0172313
810	0.021648
822	0.0205905
834	0.0227056
846	0.0248828
858	0.0211504
870	0.0196574
882	0.0166093
894	0.0163604
906	0.0154273
918	0.0131879
930	0.0148053
942	0.0239497
954	0.0281798
966	0.0286774
978	0.024945
990	0.0324098
1002	0.0391282
1014	0.0618338
1026	0.0905734
1038	0.0641354
1050	0.0627669
1062	0.110604
1074	0.159934
1086	0.179654
1098	0.126529
1110	0.0851614
1122	0.0862811
1134	0.0828597
1146	0.0992824
1158	0.152718
1170	0.313026
1182	0.568883
1194	0.527889
1206	0.345871
1218	0.239373
1230	0.171442
1242	0.146124
1254	0.128582
1266	0.119686
1278	0.121241
1290	0.085659
1302	0.0557375
1314	0.0511964
1326	0.0798738
1338	0.117198
1350	0.14065
1362	0.0985359
1374	0.0560485
1386	0.0644465
1398	0.0571682
1410	0.0319744
1422	0.0305436
1434	0.0439803
1446	0.0544933
1458	0.0743996
1470	0.104383
1482	0.0620826
1494	0.0268112
1506	0.0161116
1518	0.0113217
1530	0.0103264
1542	0.00740263
1554	0.00765146
1566	0.00671836
1578	0.00590966
1590	0.00634511
1602	0.00603408
1614	0.00659394
1626	0.00659394
1638	0.00615849
1650	0.00765146
1662	0.00808691
1674	0.00920664
1686	0.0111973
1698	0.0162982
1710	0.0299216
1722	0.0523783
1734	0.119437
1746	0.344005
1758	0.561978
1770	0.324472
1782	0.104819
1794	0.0480238
1806	0.0258781
1818	0.0149297
1830	0.00870898
1842	0.00734043
1854	0.0062207
1866	0.00572304
1878	0.00572304
1890	0.00516318
1902	0.00522539
1914	0.00510097
1926	0.00503877
1938	0.00510097
1950	0.0044789
1962	0.00510097
1974	0.00454111
1986	0.00460332
1998	0.00503877
2010	0.00478994
2022	0.00590966
2034	0.00584746
2046	0.00559863
2058	0.00497656
2070	0.00429228
2082	0.00379463
2094	0.00373242
2106	0.00329697
2118	0.00323476
2130	0.00317256
2142	0.0026749
2154	0.00329697
2166	0.00255049
2178	0.0026749
2190	0.00261269
2202	0.00248828
2214	0.00261269
2226	0.00230166
2238	0.00248828
2250	0.00248828
2262	0.00248828
2274	0.00211504
2286	0.00236387
2298	0.00236387
2310	0.00242607
2322	0.000870898
2334	0.00298594
2346	0.00373242
2358	0.00118193
2370	0.00478994
2382	0.00261269
2394	0.00217724
2406	0.0026749
2418	0.00205283
2430	0.00205283
2442	0.00192842
2454	0.00155517
2466	0.00205283
2478	0.00155517
2490	0.000995312
2502	0.00136855
2514	0.000933105
2526	0.00136855
2538	0.00105752
2550	0.000995312
2562	0.00136855
2574	0.001804
2586	0.00186621
2598	0.001804
2610	0.00230166
2622	0.00242607
2634	0.00199062
2646	0.00223945
2658	0.00242607
2670	0.00242607
2682	0.00342138
2694	0.0026749
2706	0.0035458
2718	0.00398125
2730	0.00404345
2742	0.00609629
2754	0.0071538
2766	0.00653173
2778	0.00746484
2790	0.00752705
2802	0.0088956
2814	0.0105752
2826	0.0133745
2838	0.0193464
2850	0.0322854
2862	0.0520051
2874	0.0870276
2886	0.131319
2898	0.123419
2910	0.11838
2922	0.142952
2934	0.191598
2946	0.265748
2958	0.300087
2970	0.364284
2982	0.294239
2994	0.172065
3006	0.08174
3018	0.0451001
3030	0.0273089
3042	0.0170447
3054	0.0124414
3066	0.00852236
3078	0.00640732
3090	0.00615849
3102	0.00553642
3114	0.00466552
3126	0.00497656
3138	0.00367021
3150	0.00398125
3162	0.00429228
3174	0.00379463
3186	0.00404345
3198	0.00323476
3210	0.00304814
3222	0.00155517
3234	0.00155517
3246	0.00149297
3258	0.000497656
3270	0.000684277
3282	0.00062207
3294	0.00062207
3306	0.00130635
3318	0.000746484
3330	0.000684277
3342	0.00118193
3354	0.000808691
3366	0.000808691
3378	0.000870898
3390	0.000870898
3402	0.00124414
3414	0.000808691
3426	0.000933105
3438	0.00149297
3450	0.000559863
3462	0.000995312
3474	0.0026749
3486	0.00391904
3498	0.00597187
3510	0.00342138
3522	0.00130635
3534	0.00105752
3546	0.00118193
3558	0.00111973
3570	0.00236387
3582	0.00373242
3594	0.00317256
3606	0.00118193
3618	0.00111973
3630	0.000995312
3642	0.001804
3654	0.00230166
3666	0.00136855
3678	0.00255049
3690	0.0026749
3702	0.00192842
3714	0.00242607
3726	0.00230166
3738	0.00149297
3750	0.00199062
3762	0.00248828
3774	0.00248828
3786	0.00348359
3798	0.00261269
3810	0.0035458
3822	0.00261269
3834	0.0026749
3846	0.00298594
3858	0.00367021
3870	0.00373242
3882	0.00236387
3894	0.0035458
3906	0.00385683
3918	0.00279931
3930	0.00379463
3942	0.00298594
3954	0
3966	0.000311035
