Infrared Spectrum: Acetic acid, chloro-, butyl ester
Formula: C 6 H 11 Cl O 2
CAS: 590-02-3
Origin: Sadtler Research Labs Under US-EPA Contract
1/CM	ABSORBANCE
450	0.0161733
462	0.00458353
474	0.0132268
486	0.015715
498	0.00766104
510	0.015715
522	0.00347039
534	0.0118517
546	0.00910158
558	0.0127684
570	0.0282214
582	0.0375849
594	0.0299894
606	0.0299894
618	0.0286798
630	0.0229177
642	0.0235724
654	0.0238998
666	0.0278286
678	0.037454
690	0.0610919
702	0.0631872
714	0.0516629
726	0.0477342
738	0.0485199
750	0.0397458
762	0.0443293
774	0.0587347
786	0.0768723
798	0.0931111
810	0.0578834
822	0.0419066
834	0.0340491
846	0.0315609
858	0.0295965
870	0.0271083
882	0.028025
894	0.0293346
906	0.0297929
918	0.0371266
930	0.046621
942	0.0634492
954	0.0910158
966	0.115636
978	0.10326
990	0.0957958
1002	0.118844
1014	0.166644
1026	0.144381
1038	0.0812594
1050	0.0642349
1062	0.112296
1074	0.0954029
1086	0.0649552
1098	0.0709138
1110	0.101558
1122	0.172406
1134	0.273244
1146	0.309323
1158	0.368057
1170	0.501045
1182	0.325234
1194	0.18046
1206	0.156298
1218	0.16612
1230	0.212741
1242	0.314561
1254	0.425417
1266	0.333877
1278	0.403678
1290	0.609086
1302	0.451609
1314	0.257398
1326	0.126571
1338	0.0832238
1350	0.062205
1362	0.0553952
1374	0.0531689
1386	0.065479
1398	0.057687
1410	0.041972
1422	0.0705864
1434	0.0962541
1446	0.0655445
1458	0.0777891
1470	0.0930457
1482	0.0632527
1494	0.0320192
1506	0.0182686
1518	0.0159769
1530	0.0156495
1542	0.00929802
1554	0.0136196
1566	0.0128339
1578	0.0102147
1590	0.0123755
1602	0.0121791
1614	0.012441
1626	0.010804
1638	0.0093635
1650	0.00962541
1662	0.0121136
1674	0.0129648
1686	0.0119827
1698	0.0195127
1710	0.039091
1722	0.0662647
1734	0.127488
1746	0.34383
1758	0.628206
1770	0.545178
1782	0.366486
1794	0.219748
1806	0.0950755
1818	0.048258
1830	0.0275012
1842	0.0186615
1854	0.0152566
1866	0.0135542
1878	0.0115243
1890	0.0102802
1902	0.00942898
1914	0.00890514
1926	0.00890514
1938	0.00831583
1950	0.00851227
1962	0.00818487
1974	0.00798844
1986	0.00785748
1998	0.00785748
2010	0.00766104
2022	0.007792
2034	0.00805392
2046	0.00733365
2058	0.00720269
2070	0.00739913
2082	0.00694077
2094	0.00635146
2106	0.00641694
2118	0.00667886
2130	0.00707173
2142	0.00608955
2154	0.00635146
2166	0.00622051
2178	0.0053038
2190	0.00569667
2202	0.00563119
2214	0.00563119
2226	0.00445257
2238	0.00445257
2250	0.00438709
2262	0.00360135
2274	0.00419066
2286	0.0037323
2298	0.00261916
2310	0.00209533
2322	0.00104766
2334	0.00104766
2346	0.00104766
2358	0.00104766
2370	0.00104766
2382	0.00399422
2394	0.00412518
2406	0.00471449
2418	0.0037323
2430	0.00504188
2442	0.00477997
2454	0.0053038
2466	0.00425614
2478	0.00432161
2490	0.00419066
2502	0.00438709
2514	0.00438709
2526	0.00491093
2538	0.00471449
2550	0.00425614
2562	0.00451805
2574	0.00458353
2586	0.00484545
2598	0.00451805
2610	0.00504188
2622	0.00419066
2634	0.00504188
2646	0.00523832
2658	0.00667886
2670	0.00674434
2682	0.00772652
2694	0.00825035
2706	0.00713721
2718	0.007792
2730	0.00838131
2742	0.00955993
2754	0.011066
2766	0.0110005
2778	0.0104112
2790	0.0110005
2802	0.0119827
2814	0.0149947
2826	0.0178758
2838	0.0238344
2850	0.0396803
2862	0.0610919
2874	0.100838
2886	0.154072
2898	0.128863
2910	0.126964
2922	0.160227
2934	0.203967
2946	0.281494
2958	0.297929
2970	0.444406
2982	0.33833
2994	0.135476
3006	0.0645623
3018	0.0350967
3030	0.0247511
3042	0.020364
3054	0.0165007
3066	0.010804
3078	0.0102147
3090	0.00864323
3102	0.00818487
3114	0.00674434
3126	0.00641694
3138	0.00720269
3150	0.00543476
3162	0.00589311
3174	0.00582763
3186	0.00589311
3198	0.00550024
3210	0.00608955
3222	0.00399422
3234	0.00386326
3246	0.00288108
3258	0.00399422
3270	0.00268464
3282	0.00333943
3294	0.00301203
3306	0.00216081
3318	0.00360135
3330	0.00320847
3342	0.00327395
3354	0.00229176
3366	0.00314299
3378	0.00294656
3390	0.00327395
3402	0.00268464
3414	0.00333943
3426	0.00353587
3438	0.00301203
3450	0.00242272
3462	0.00327395
3474	0.00379778
3486	0.00510736
3498	0.00615503
3510	0.00517284
3522	0.00582763
3534	0.00471449
3546	0.0053038
3558	0.00477997
3570	0.00746461
3582	0.011066
3594	0.00844679
3606	0.00425614
3618	0.00288108
3630	0.00111314
3642	0.00392874
3654	0.0040597
3666	0.00536928
3678	0.00477997
3690	0.00379778
3702	0.00510736
3714	0.00425614
3726	0.00510736
3738	0.00360135
3750	0.00484545
3762	0.00772652
3774	0.00883967
3786	0.00962541
3798	0.00929802
3810	0.00923254
3822	0.0102802
3834	0.0104766
3846	0.0114588
3858	0.0116553
3870	0.0123755
3882	0.0145363
3894	0.0118517
3906	0.0122446
3918	0.0130958
3930	0.0129648
3942	0.0121136
3954	0
3966	0.00104766
