Infrared Spectrum: 5-Pyrimidinecarboxylic acid, 2,4-bis(methylthio)-, ethyl ester
Formula: C 9 H 12 N 2 O 2 S 2
CAS: 5909-25-1
Origin: Sadtler Research Labs Under US-EPA Contract
1/CM	ABSORBANCE
450	0.0170955
462	0.0166293
474	0.00528408
486	0.00372994
498	0.00699363
510	0.0125885
522	0.0231567
534	0.0335694
546	0.0372994
558	0.0256433
570	0.0102573
582	0.00652739
594	0.00279745
606	0.00279745
618	0.00466242
630	0.00854777
642	0.00326369
654	0.00450701
666	0.00575032
678	0.046158
690	0.0728892
702	0.0111898
714	0.015386
726	0.0188051
738	0.00683822
750	0.00683822
762	0.0149197
774	0.0275083
786	0.0836127
798	0.0850115
810	0.0716459
822	0.0836127
834	0.0728892
846	0.0759974
858	0.118892
870	0.105837
882	0.112209
894	0.0343465
906	0.0149197
918	0.0116561
930	0.0116561
942	0.0136764
954	0.0271975
966	0.0525299
978	0.0383873
990	0.0296841
1002	0.0539287
1014	0.0800382
1026	0.0570369
1038	0.0565707
1050	0.107857
1062	0.348904
1074	0.422881
1086	0.190071
1098	0.171577
1110	0.109101
1122	0.0915388
1134	0.14065
1146	0.318443
1158	0.869075
1170	0.803335
1182	0.683511
1194	0.691903
1206	1.44846
1218	0.775671
1230	0.194578
1242	0.22908
1254	0.31549
1266	0.311294
1278	0.757488
1290	0.384339
1302	0.251149
1314	0.361804
1326	0.231101
1338	0.20639
1350	0.187274
1362	0.575653
1374	0.794632
1386	0.727493
1398	0.278657
1410	0.138629
1422	0.153549
1434	0.159299
1446	0.14811
1458	0.100708
1470	0.134589
1482	0.278191
1494	0.793544
1506	0.449146
1518	0.132879
1530	0.182611
1542	0.520171
1554	1.55414
1566	0.737284
1578	0.148731
1590	0.0761529
1602	0.055949
1614	0.0279745
1626	0.0181834
1638	0.0175618
1650	0.0155414
1662	0.0202038
1674	0.0222242
1686	0.0390089
1698	0.0632535
1710	0.126507
1722	0.319376
1734	1.09178
1746	0.398015
1758	0.105371
1770	0.0575032
1782	0.0296841
1794	0.0155414
1806	0.0132102
1818	0.0119669
1830	0.00932484
1842	0.00916943
1854	0.00808153
1866	0.00512866
1878	0.00543949
1890	0.00341911
1902	0.00341911
1914	0.00326369
1926	0.00637197
1938	0.00730446
1950	0.00512866
1962	0.00248662
1974	0.00155414
1986	0.00124331
1998	0.00248662
2010	0.00528408
2022	0.00606115
2034	0.00637197
2046	0.00512866
2058	0.00481783
2070	0.00528408
2082	0.00388535
2094	0.0021758
2106	0.00124331
2118	0.000466242
2130	0.000310828
2142	0.000310828
2154	0.000310828
2166	0.00077707
2178	0.0010879
2190	0.000310828
2202	0.00077707
2214	0.0010879
2226	0.00186497
2238	0.00248662
2250	0.00279745
2262	0.00357452
2274	0.00435159
2286	0.00404076
2298	0.00450701
2310	0.00621656
2322	0.00714904
2334	0.00652739
2346	0.00808153
2358	0.00823694
2370	0.00792611
2382	0.00901401
2394	0.00761529
2406	0.00730446
2418	0.00745987
2430	0.00963567
2442	0.0104127
2454	0.00979108
2466	0.00854777
2478	0.00854777
2490	0.00854777
2502	0.00948025
2514	0.00916943
2526	0.0066828
2538	0.00419618
2550	0.00357452
2562	0.0021758
2574	0.00233121
2586	0.00248662
2598	0.00202038
2610	0.00170955
2622	0.0021758
2634	0.00202038
2646	0.00233121
2658	0.00279745
2670	0.00372994
2682	0.00357452
2694	0.00372994
2706	0.00372994
2718	0.00310828
2730	0.00326369
2742	0.00279745
2754	0.00341911
2766	0.00435159
2778	0.00466242
2790	0.00497325
2802	0.00683822
2814	0.00916943
2826	0.0142981
2838	0.0186497
2850	0.0208255
2862	0.0239338
2874	0.0261096
2886	0.0345019
2898	0.033414
2910	0.0439822
2922	0.0595236
2934	0.183233
2946	0.219911
2958	0.0666726
2970	0.0806599
2982	0.138163
2994	0.149197
3006	0.102418
3018	0.0691592
3030	0.0341911
3042	0.0284408
3054	0.0242446
3066	0.0136764
3078	0.0101019
3090	0.0088586
3102	0.0101019
3114	0.0116561
3126	0.00792611
3138	0.0055949
3150	0.00435159
3162	0.00372994
3174	0.00326369
3186	0.00279745
3198	0.00310828
3210	0.00248662
3222	0.00233121
3234	0.00248662
3246	0.00170955
3258	0.0010879
3270	0.00170955
3282	0.00155414
3294	0.00170955
3306	0.00124331
3318	0.00124331
3330	0.000932484
3342	0.00139873
3354	0.00155414
3366	0.00155414
3378	0.00155414
3390	0.00155414
3402	0.00186497
3414	0.00186497
3426	0.00233121
3438	0.00466242
3450	0.00699363
3462	0.00404076
3474	0.00233121
3486	0.000932484
3498	0.00139873
3510	0.00077707
3522	0.00077707
3534	0.0010879
3546	0.000932484
3558	0.00310828
3570	0.00202038
3582	0.00170955
3594	0.00124331
3606	0.00170955
3618	0.000621656
3630	0.000932484
3642	0.00124331
3654	0.00186497
3666	0.00124331
3678	0.000932484
3690	0.00186497
3702	0.00155414
3714	0.00186497
3726	0.00170955
3738	0.00170955
3750	0.00124331
3762	0.000621656
3774	0.0021758
3786	0.00202038
3798	0.00186497
3810	0.00233121
3822	0.00139873
3834	0.0010879
3846	0.00248662
3858	0.00124331
3870	0.000310828
3882	0.00124331
3894	0.0010879
3906	0.00233121
3918	0.00202038
3930	0.0010879
3942	0.00233121
3954	0.00357452
3966	0.00279745
