Infrared Spectrum: Benzaldehyde, 3-methoxy-
Formula: C 8 H 8 O 2
CAS: 591-31-1
Origin: Sadtler Research Labs Under US-EPA Contract
1/CM	ABSORBANCE
450	0
462	0.0125177
474	0.0149602
486	0.0143496
498	0.0131283
510	0.0195398
522	0.0206084
534	0.0248828
546	0.0593828
558	0.065031
570	0.0277832
582	0.0241195
594	0.0164867
606	0.0175553
618	0.0193872
630	0.0392323
642	0.0957147
654	0.0683894
666	0.0485443
678	0.114491
690	0.11617
702	0.0456438
714	0.0215244
726	0.0685421
738	0.240432
750	0.166241
762	0.149755
774	0.268825
786	0.32775
798	0.152655
810	0.0343474
822	0.0134336
834	0.0155708
846	0.0259513
858	0.039385
870	0.0746483
882	0.0712899
894	0.0741903
906	0.0575509
918	0.0372478
930	0.052208
942	0.0328208
954	0.0196925
966	0.0155708
978	0.0227456
990	0.0451859
1002	0.0532766
1014	0.0372478
1026	0.0693054
1038	0.206084
1050	0.338589
1062	0.192803
1074	0.0657943
1086	0.0551085
1098	0.0363319
1110	0.0345
1122	0.0457965
1134	0.123498
1146	0.291876
1158	0.30073
1170	0.171126
1182	0.0958673
1194	0.0917457
1206	0.0554138
1218	0.0671682
1230	0.0860974
1242	0.229135
1254	0.789074
1266	1.28703
1278	0.61581
1290	0.414153
1302	0.259819
1314	0.26791
1326	0.199978
1338	0.158609
1350	0.108385
1362	0.0558717
1374	0.108843
1386	0.21219
1398	0.139069
1410	0.0555664
1422	0.0899138
1434	0.250507
1446	0.257987
1458	0.281954
1470	0.346527
1482	0.451401
1494	0.379653
1506	0.0957147
1518	0.0474757
1530	0.0416748
1542	0.0479337
1554	0.0486969
1566	0.0685421
1578	0.185628
1590	0.47552
1602	0.520248
1614	0.289587
1626	0.077854
1638	0.0392323
1650	0.0435067
1662	0.047323
1674	0.0848762
1686	0.116476
1698	0.115865
1710	0.445905
1722	1.52655
1734	0.737476
1746	0.0856395
1758	0.0485443
1770	0.0441173
1782	0.0290044
1794	0.0268673
1806	0.025646
1818	0.0238142
1830	0.0282412
1842	0.0238142
1854	0.0201505
1866	0.0242721
1878	0.0232036
1890	0.022135
1902	0.0178606
1914	0.0164867
1926	0.0184713
1938	0.021677
1950	0.01725
1962	0.0131283
1974	0.0135863
1986	0.0166394
1998	0.0203031
2010	0.0155708
2022	0.0166394
2034	0.0204558
2046	0.0219823
2058	0.0187766
2070	0.0199978
2082	0.0198451
2094	0.0189292
2106	0.0164867
2118	0.012823
2130	0.0111438
2142	0.0119071
2154	0.0131283
2166	0.012823
2178	0.0138916
2190	0.0143496
2202	0.0152655
2214	0.0149602
2226	0.0131283
2238	0.0111438
2250	0.0105332
2262	0.0100752
2274	0.0102279
2286	0.0119071
2298	0.0123651
2310	0.0122124
2322	0.0129757
2334	0.0129757
2346	0.0125177
2358	0.00992257
2370	0.00992257
2382	0.0106859
2394	0.0114491
2406	0.0117544
2418	0.0129757
2430	0.012823
2442	0.0117544
2454	0.0112965
2466	0.0112965
2478	0.0116018
2490	0.012823
2502	0.0138916
2514	0.0164867
2526	0.0189292
2538	0.0180133
2550	0.0189292
2562	0.0193872
2574	0.0192345
2586	0.0204558
2598	0.0203031
2610	0.021219
2622	0.0219823
2634	0.0222876
2646	0.0253407
2658	0.0257987
2670	0.0232036
2682	0.022135
2694	0.0326682
2706	0.110522
2718	0.258292
2730	0.233257
2742	0.0784647
2754	0.043354
2766	0.043354
2778	0.0735797
2790	0.135558
2802	0.244248
2814	0.27539
2826	0.155861
2838	0.14319
2850	0.159982
2862	0.0853341
2874	0.0584669
2886	0.0613673
2898	0.0714425
2910	0.0886926
2922	0.113423
2934	0.119987
2946	0.166089
2958	0.196467
2970	0.152808
2982	0.0813651
2994	0.0639624
3006	0.131894
3018	0.169905
3030	0.07877
3042	0.0734271
3054	0.0819757
3066	0.0888452
3078	0.0957147
3090	0.0773961
3102	0.0520554
3114	0.0361792
3126	0.0203031
3138	0.016792
3150	0.0155708
3162	0.0152655
3174	0.0148075
3186	0.0148075
3198	0.0146549
3210	0.0134336
3222	0.0129757
3234	0.013281
3246	0.0126704
3258	0.0126704
3270	0.0126704
3282	0.0119071
3294	0.0131283
3306	0.0129757
3318	0.013281
3330	0.0131283
3342	0.0134336
3354	0.0126704
3366	0.013281
3378	0.0135863
3390	0.0164867
3402	0.0193872
3414	0.0235089
3426	0.0322102
3438	0.0268673
3450	0.012823
3462	0.0116018
3474	0.0126704
3486	0.0125177
3498	0.0119071
3510	0.0125177
3522	0.0123651
3534	0.0122124
3546	0.0117544
3558	0.0117544
3570	0.0122124
3582	0.0180133
3594	0.0149602
3606	0.0112965
3618	0.0109912
3630	0.0114491
3642	0.0116018
3654	0.0105332
3666	0.0122124
3678	0.0103805
3690	0.0114491
3702	0.0117544
3714	0.0129757
3726	0.0109912
3738	0.0112965
3750	0.0143496
3762	0.0117544
3774	0.012823
3786	0.0129757
3798	0.0126704
3810	0.0146549
3822	0.0131283
3834	0.0131283
3846	0.0129757
3858	0.0119071
3870	0.0117544
3882	0.0108385
3894	0.0119071
3906	0.0119071
3918	0.0126704
3930	0.0116018
3942	0.0112965
3954	0.0105332
3966	0.0134336
