Infrared Spectrum: Phenol, 3-amino-
Formula: C 6 H 7 N O
CAS: 591-27-5
Origin: Sadtler Research Labs Under US-EPA Contract
1/CM	ABSORBANCE
450	0.0561518
462	0.0481217
474	0.0312348
486	0.0361946
498	0.0363717
510	0.0459961
522	0.0478264
534	0.0427486
546	0.0488302
558	0.0466456
570	0.0389107
582	0.0444018
594	0.0461732
606	0.0454056
618	0.0454056
630	0.051192
642	0.0750462
654	0.163732
666	0.258086
678	0.341221
690	0.171998
702	0.0859695
714	0.0568013
726	0.0664847
738	0.109647
750	0.174183
762	0.183039
774	0.110591
786	0.0725073
798	0.0628239
810	0.0717987
822	0.108584
834	0.10758
846	0.107875
858	0.0684332
870	0.0431619
882	0.0325928
894	0.0350727
906	0.0337147
918	0.0307034
930	0.0561518
942	0.121692
954	0.150447
966	0.089276
978	0.00330652
990	0.0204296
1002	0.0211381
1014	0.0185992
1026	0.017005
1038	0.0292273
1050	0.0444609
1062	0.0615249
1074	0.0796517
1086	0.0769947
1098	0.0680789
1110	0.0560337
1122	0.0739243
1134	0.128128
1146	0.391409
1158	0.58366
1170	0.489601
1182	0.374877
1194	0.229449
1206	0.0681379
1218	0.0358403
1230	0.0222009
1242	0.0158831
1254	0.0229685
1266	0.0395602
1278	0.0637096
1290	0.130962
1302	0.230807
1314	0.284892
1326	0.214156
1338	0.131552
1350	0.0201343
1362	0.00909293
1374	0.00873866
1386	0.0124585
1398	0.0148793
1410	0.023677
1422	0.032829
1434	0.0461141
1446	0.0647133
1458	0.0885675
1470	0.123345
1482	0.203528
1494	0.325161
1506	0.261038
1518	0.135685
1530	0.0831354
1542	0.0584546
1554	0.0567422
1566	0.0941768
1578	0.21209
1590	0.41237
1602	0.521958
1614	0.569666
1626	0.581062
1638	0.474131
1650	0.27946
1662	0.126888
1674	0.0349546
1686	0.0294635
1698	0.03153
1710	0.02226
1722	0.0199572
1734	0.0173002
1746	0.0110414
1758	0.0108643
1770	0.00986052
1782	0.00814821
1794	0.0094472
1806	0.00932911
1818	0.00838439
1830	0.00797107
1842	0.00619973
1854	0.00619973
1866	0.00690827
1878	0.00956529
1890	0.0145841
1902	0.0175364
1914	0.0125766
1926	0.00838439
1938	0.00850248
1950	0.00726254
1962	0.00661304
1974	0.00519596
1986	0.00448742
1998	0.00425124
2010	0.0041922
2022	0.0040741
2034	0.00555023
2046	0.00643591
2058	0.00673113
2070	0.00661304
2082	0.00531405
2094	0.00513691
2106	0.00643591
2118	0.00637686
2130	0.00608164
2142	0.00637686
2154	0.00608164
2166	0.00596354
2178	0.00484169
2190	0.00360174
2202	0.0035427
2214	0.00371983
2226	0.00389697
2238	0.00543214
2250	0.00679017
2262	0.00791203
2274	0.00720349
2286	0.00655399
2298	0.00619973
2310	0.00673113
2322	0.00667209
2334	0.00791203
2346	0.00980147
2358	0.00862057
2370	0.0111595
2382	0.0107462
2394	0.00549118
2406	0.00431029
2418	0.00507787
2430	0.00614068
2442	0.00720349
2454	0.00873866
2466	0.00991956
2478	0.00980147
2490	0.0089158
2502	0.00743967
2514	0.00619973
2526	0.0047236
2538	0.00377888
2550	0.00307034
2562	0.00247989
2574	0.00295225
2586	0.00342461
2598	0.00360174
2610	0.00395602
2622	0.00425124
2634	0.00578641
2646	0.00649495
2658	0.00608164
2670	0.00377888
2682	0.00307034
2694	0.00265702
2706	0.00200753
2718	0.00224371
2730	0.00194849
2742	0.00265702
2754	0.00271607
2766	0.00259798
2778	0.00324748
2790	0.00460551
2802	0.0053731
2814	0.00495978
2826	0.00360174
2838	0.00200753
2850	0.00129899
2862	0.000295225
2874	0
2886	0.000649495
2898	0.00194849
2910	0.00324748
2922	0.0040741
2934	0.0030113
2946	0.00366079
2958	0.0040741
2970	0.00466455
2982	0.00519596
2994	0.00732158
3006	0.0180087
3018	0.038025
3030	0.0654809
3042	0.103447
3054	0.110178
3066	0.0713854
3078	0.0419219
3090	0.0286959
3102	0.0216105
3114	0.0149384
3126	0.0094472
3138	0.00513691
3150	0.00342461
3162	0.00153517
3174	0.00206658
3186	0.00242085
3198	0.00389697
3210	0.00643591
3222	0.00832534
3234	0.00785298
3246	0.00490073
3258	0.00360174
3270	0.00348365
3282	0.00212562
3294	0.00271607
3306	0.00307034
3318	0.00242085
3330	0.00490073
3342	0.00596354
3354	0.00625877
3366	0.00749872
3378	0.0101557
3390	0.017005
3402	0.0356632
3414	0.0451694
3426	0.036785
3438	0.0230866
3450	0.0108052
3462	0.0103329
3474	0.0173592
3486	0.0289911
3498	0.0331833
3510	0.0277512
3522	0.0201343
3534	0.00956529
3546	0.00484169
3558	0.00295225
3570	0.00460551
3582	0.00507787
3594	0.00495978
3606	0.00389697
3618	0.00862057
3630	0.0295815
3642	0.154934
3654	0.211972
3666	0.16568
3678	0.0188354
3690	0.00490073
3702	0.00484169
3714	0.00466455
3726	0.00425124
3738	0.00625877
3750	0.00566832
3762	0.00566832
3774	0.00436933
3786	0.00389697
3798	0.00224371
3810	0.00519596
3822	0.00431029
3834	0.0059045
3846	0.00986052
3858	0.00856153
3870	0.00732158
3882	0.00501883
3894	0.00495978
3906	0.00684922
3918	0.00625877
3930	0.00543214
3942	0.00732158
3954	0.00856153
3966	0.00631782
