Infrared Spectrum: Acetic acid, 2-propenyl ester
Formula: C 5 H 8 O 2
CAS: 591-87-7
Origin: Sadtler Research Labs Under US-EPA Contract
1/CM	ABSORBANCE
450	0.0116996
462	0.00889973
474	0.0111997
486	0.0065998
498	0.0103997
510	0.0132996
522	0.00809976
534	0.0157995
546	0.0179995
558	0.0217993
570	0.0197994
582	0.0249993
594	0.0287991
606	0.0450986
618	0.0416987
630	0.032999
642	0.0252992
654	0.0139996
666	0.0154995
678	0.0155995
690	0.00969971
702	0.0115997
714	0.00889973
726	0.00689979
738	0.0103997
750	0.00829975
762	0.00909973
774	0.0098997
786	0.00829975
798	0.0130996
810	0.0158995
822	0.0197994
834	0.0267992
846	0.0286991
858	0.0250992
870	0.0259992
882	0.0286991
894	0.034099
906	0.0474986
918	0.0806976
930	0.112597
942	0.0896973
954	0.0522984
966	0.0536984
978	0.0831975
990	0.108297
1002	0.115697
1014	0.173095
1026	0.254892
1038	0.242193
1050	0.149796
1062	0.0865974
1074	0.0745978
1086	0.0734978
1098	0.065998
1110	0.0510985
1122	0.032199
1134	0.0217993
1146	0.0200994
1158	0.0215994
1170	0.0264992
1182	0.0398988
1194	0.0743978
1206	0.185594
1218	0.543084
1230	0.952771
1242	0.839675
1254	0.362989
1266	0.161295
1278	0.119596
1290	0.0791976
1302	0.0429987
1314	0.0251992
1326	0.0209994
1338	0.0215994
1350	0.0402988
1362	0.100397
1374	0.180595
1386	0.163295
1398	0.0731978
1410	0.0435987
1422	0.0448987
1434	0.0452986
1446	0.0500985
1458	0.0541984
1470	0.0393988
1482	0.0257992
1494	0.0228993
1506	0.0216993
1518	0.0202994
1530	0.0177995
1542	0.0182995
1554	0.0161995
1566	0.0134996
1578	0.0152995
1590	0.0121996
1602	0.0113997
1614	0.0151995
1626	0.0138996
1638	0.0235993
1650	0.0276992
1662	0.0262992
1674	0.0197994
1686	0.0227993
1698	0.0242993
1710	0.0284991
1722	0.0447987
1734	0.0939972
1746	0.242593
1758	0.516784
1770	0.571283
1782	0.31739
1794	0.107297
1806	0.0406988
1818	0.0240993
1830	0.0201994
1842	0.0180995
1854	0.0186994
1866	0.0194994
1878	0.0164995
1890	0.0132996
1902	0.0116996
1914	0.00969971
1926	0.0107997
1938	0.0098997
1950	0.00879974
1962	0.00949972
1974	0.00949972
1986	0.00759977
1998	0.00629981
2010	0.00569983
2022	0.00489985
2034	0.00419987
2046	0.00529984
2058	0.00929972
2070	0.00919972
2082	0.00779977
2094	0.00929972
2106	0.0099997
2118	0.00899973
2130	0.00889973
2142	0.00759977
2154	0.00619981
2166	0.00609982
2178	0.0066998
2190	0.00639981
2202	0.00599982
2214	0.0064998
2226	0.00509985
2238	0.00689979
2250	0.00559983
2262	0.00529984
2274	0.00509985
2286	0.00569983
2298	0.00579983
2310	0.00559983
2322	0.00489985
2334	0.00309991
2346	0.000699979
2358	0.00359989
2370	0.000699979
2382	0.00269992
2394	0.00449986
2406	0.00449986
2418	0.00489985
2430	0.00409988
2442	0.00529984
2454	0.00589982
2466	0.00499985
2478	0.00389988
2490	0.00299991
2502	0.00299991
2514	0.00209994
2526	0.00209994
2538	0.00129996
2550	0.00169995
2562	0.00119996
2574	0.00209994
2586	0.00269992
2598	0.00359989
2610	0.00369989
2622	0.00429987
2634	0.00359989
2646	0.00569983
2658	0.00819975
2670	0.00509985
2682	0.00419987
2694	0.00579983
2706	0.00459986
2718	0.00239993
2730	0.00189994
2742	0.00139996
2754	0.00219993
2766	0.00099997
2778	0.00229993
2790	0.00279992
2802	0.0032999
2814	0.00379989
2826	0.00519984
2838	0.00589982
2850	0.00639981
2862	0.00979971
2874	0.0131996
2886	0.0178995
2898	0.0195994
2910	0.0188994
2922	0.0222993
2934	0.034299
2946	0.0537984
2958	0.0622981
2970	0.0496985
2982	0.0379989
2994	0.0394988
3006	0.0362989
3018	0.033099
3030	0.0306991
3042	0.0242993
3054	0.0188994
3066	0.0204994
3078	0.0257992
3090	0.0381989
3102	0.0387988
3114	0.0231993
3126	0.00949972
3138	0.00599982
3150	0.00549983
3162	0.00549983
3174	0.00479986
3186	0.00409988
3198	0.00489985
3210	0.00459986
3222	0.00409988
3234	0.00419987
3246	0.00349989
3258	0.00289991
3270	0.00489985
3282	0.00379989
3294	0.00159995
3306	0.00259992
3318	0.00229993
3330	0.00169995
3342	0.00169995
3354	0.00159995
3366	0.00289991
3378	0.00269992
3390	0.00269992
3402	0.00239993
3414	0.00239993
3426	0.00099997
3438	0.00369989
3450	0.0031999
3462	0.00259992
3474	0.00469986
3486	0.00429987
3498	0.00839975
3510	0.00809976
3522	0.00939972
3534	0.00439987
3546	0.00429987
3558	0.00259992
3570	0.00409988
3582	0.00619981
3594	0.0031999
3606	0.00379989
3618	0.00689979
3630	0.00789976
3642	0.0065998
3654	0.00619981
3666	0.00979971
3678	0.00809976
3690	0.00769977
3702	0.00529984
3714	0.00559983
3726	0.00449986
3738	0.00449986
3750	0.00969971
3762	0.00409988
3774	0.00809976
3786	0.0064998
3798	0.0066998
3810	0.00879974
3822	0.00829975
3834	0.00799976
3846	0.0032999
3858	0.00599982
3870	0.00609982
3882	0.00199994
3894	0.00589982
3906	0.00399988
3918	0.00569983
3930	0.00439987
3942	0.00489985
3954	0.00889973
3966	0.00689979
