Infrared Spectrum: Phenol, 3-bromo-
Formula: C 6 H 5 Br O
CAS: 591-20-8
Origin: Sadtler Research Labs Under US-EPA Contract
1/CM	ABSORBANCE
450	0.0106244
462	0.0124883
474	0.0130475
486	0.0115564
498	0.0102516
510	0.0145387
522	0.0221808
534	0.0190742
546	0.0112457
558	0.00639949
570	0.00646162
582	0.0136688
594	0.0219944
606	0.0101895
618	0.00503261
630	0.00671015
642	0.00844982
654	0.029388
666	0.0904627
678	0.122087
690	0.0444237
702	0.00776638
714	0.00584031
726	0.00832555
738	0.0159677
750	0.05977
762	0.158123
774	0.16123
786	0.045542
798	0.00931965
810	0.00907113
822	0.0219322
834	0.0475302
846	0.0856786
858	0.342652
870	0.375644
882	0.121342
894	0.01137
906	0.00832555
918	0.00795277
930	0.00832555
942	0.00714507
954	0.00689654
966	0.00807703
978	0.00987883
990	0.0528735
1002	0.0691518
1014	0.00677228
1026	0.00770424
1038	0.00907113
1050	0.0287667
1062	0.086797
1074	0.0740602
1086	0.0753649
1098	0.0176452
1110	0.0150357
1122	0.0230506
1134	0.0395774
1146	0.14402
1158	0.214352
1170	0.285678
1182	0.395712
1194	0.242497
1206	0.0666666
1218	0.0342963
1230	0.0700216
1242	0.181857
1254	0.182789
1266	0.0603913
1278	0.0866106
1290	0.232681
1302	0.18515
1314	0.0501397
1326	0.0199441
1338	0.0150357
1350	0.00677228
1362	0.00969244
1374	0.0100652
1386	0.0162162
1398	0.0308791
1410	0.0291394
1422	0.0708915
1434	0.117614
1446	0.127431
1458	0.105374
1470	0.220006
1482	0.344951
1494	0.103883
1506	0.0339235
1518	0.0438024
1530	0.0333022
1542	0.0278968
1554	0.0242311
1566	0.0524386
1578	0.264305
1590	0.595153
1602	0.50295
1614	0.16707
1626	0.032743
1638	0.0121155
1650	0.00658589
1662	0.00776638
1674	0.00994096
1686	0.013296
1698	0.00944391
1710	0.00938178
1722	0.0142901
1734	0.0168996
1746	0.00969244
1758	0.0088226
1770	0.00789064
1782	0.00422491
1794	0.00577818
1806	0.00447343
1818	0.00627523
1830	0.00733146
1842	0.0062131
1854	0.00329294
1866	0.00335507
1878	0.00161541
1890	0.00254737
1902	0.00434917
1914	0.00745572
1926	0.00677228
1938	0.00198819
1950	0.000869834
1962	0.00118049
1974	0.000248524
1986	0.000869834
1998	0.00118049
2010	0.00155328
2022	0.00347934
2034	0.00397638
2046	0.00453556
2058	0.00341721
2070	0.00217459
2082	0.00155328
2094	0.0026095
2106	0.00639949
2118	0.00584031
2130	0.00267163
2142	0.00198819
2154	0.00173967
2166	0.00124262
2178	0.00062131
2190	0.00105623
2202	0.000994096
2214	0.000745572
2226	0.00142901
2238	0.00161541
2250	0.00205032
2262	0.00186393
2274	0.00173967
2286	0.00161541
2298	0.00149114
2310	0.00130475
2322	0.000869834
2334	0.000683441
2346	0.000807703
2358	0.000248524
2370	0.00919539
2382	0.00671015
2394	0.00434917
2406	0.00528114
2418	0.00733146
2430	0.00869834
2442	0.00907113
2454	0.00838769
2466	0.00689654
2478	0.00683441
2490	0.00770424
2502	0.00596458
2514	0.00497048
2526	0.00416278
2538	0.00590245
2550	0.00584031
2562	0.00416278
2574	0.0036036
2586	0.0044113
2598	0.00528114
2610	0.00335507
2622	0.00378999
2634	0.00410065
2646	0.00422491
2658	0.00316868
2670	0.00229885
2682	0.00347934
2694	0.00478409
2706	0.00497048
2718	0.00602671
2730	0.00596458
2742	0.00677228
2754	0.00546753
2766	0.00552966
2778	0.00410065
2790	0.00354147
2802	0.00341721
2814	0.00385212
2826	0.00484622
2838	0.00416278
2850	0.00434917
2862	0.00410065
2874	0.00465983
2886	0.00484622
2898	0.00416278
2910	0.00534327
2922	0.00509474
2934	0.00602671
2946	0.00633736
2958	0.00534327
2970	0.00627523
2982	0.00596458
2994	0.00497048
3006	0.00745572
3018	0.0160298
3030	0.0253494
3042	0.0262193
3054	0.0307548
3066	0.0325566
3078	0.0342342
3090	0.0325566
3102	0.0210003
3114	0.00844982
3126	0.00298229
3138	0.00211245
3150	0.00223672
3162	0.0018018
3174	0.0018018
3186	0.00292016
3198	0.00347934
3210	0.00341721
3222	0.00304442
3234	0.00111836
3246	0.00223672
3258	0.00130475
3270	0.00198819
3282	0.00329294
3294	0.00198819
3306	0.00316868
3318	0.00316868
3330	0.00465983
3342	0.00671015
3354	0.00633736
3366	0.00565392
3378	0.00515687
3390	0.00354147
3402	0.005219
3414	0.00341721
3426	0.00528114
3438	0.00453556
3450	0.00285803
3462	0.00509474
3474	0.005219
3486	0.00546753
3498	0.00335507
3510	0.00391425
3522	0.00571605
3534	0.00422491
3546	0.0054054
3558	0.00316868
3570	0.00633736
3582	0.00652376
3594	0.00826342
3606	0.00919539
3618	0.0127369
3630	0.033675
3642	0.142094
3654	0.282758
3666	0.108978
3678	0.0205032
3690	0.00869834
3702	0.00813916
3714	0.00832555
3726	0.00689654
3738	0.00602671
3750	0.00639949
3762	0.00782851
3774	0.00770424
3786	0.00552966
3798	0.00422491
3810	0.00577818
3822	0.00490835
3834	0.00310655
3846	0.00596458
3858	0.00639949
3870	0.00559179
3882	0.0036036
3894	0.00683441
3906	0.00285803
3918	0.00577818
3930	0.00534327
3942	0.00335507
3954	0.00254737
3966	0.00465983
