Infrared Spectrum: Pyridine, 3,5-dimethyl-
Formula: C 7 H 9 N
CAS: 591-22-0
Origin: Sadtler Research Labs Under US-EPA Contract
1/CM	ABSORBANCE
450	0.0131907
462	0.0125256
474	0.0140774
486	0.0118605
498	0.0192318
510	0.0118051
522	0.0227789
534	0.0308152
546	0.0196752
558	0.0021615
570	0.0062628
582	0.0091448
594	0.0159618
606	0.00703872
618	0.0134678
630	0.0115834
642	0.0120822
654	0.00809176
666	0.00903395
678	0.0225017
690	0.075209
702	0.219863
714	0.202626
726	0.0698884
738	0.0203957
750	0.0149088
762	0.012969
774	0.010087
786	0.0208945
798	0.0130244
810	0.0166823
822	0.0168486
834	0.0386298
846	0.0919468
858	0.202904
870	0.075597
882	0.0190655
894	0.0125256
906	0.0148534
918	0.0147979
930	0.0160727
942	0.0154076
954	0.015851
966	0.0190655
978	0.0272127
990	0.0419552
1002	0.045724
1014	0.0436733
1026	0.0917251
1038	0.108297
1050	0.0732692
1062	0.0472204
1074	0.0326441
1086	0.0215041
1098	0.0193426
1110	0.0203957
1122	0.0318682
1134	0.0481072
1146	0.0525964
1158	0.0869587
1170	0.107909
1182	0.0695559
1194	0.0211716
1206	0.0192318
1218	0.0419552
1230	0.0520976
1242	0.0287645
1254	0.0141883
1266	0.0132461
1278	0.0146871
1290	0.0131907
1302	0.0161281
1314	0.0403479
1326	0.0394058
1338	0.0237765
1350	0.0262151
1362	0.0363575
1374	0.049271
1386	0.0653437
1398	0.0524856
1410	0.0823586
1422	0.227622
1434	0.273623
1446	0.182342
1458	0.150972
1470	0.125422
1482	0.107798
1494	0.0870141
1506	0.0778139
1518	0.0617966
1530	0.056476
1542	0.0526519
1554	0.0476084
1566	0.0786452
1578	0.102588
1590	0.0994289
1602	0.0750982
1614	0.0537603
1626	0.0173474
1638	0.0117497
1650	0.00615195
1662	0.00609653
1674	0.0048218
1686	0.0062628
1698	0.00515434
1710	0.00665076
1722	0.00465553
1734	0.00775922
1746	0.00659534
1758	0.0135786
1770	0.0210053
1782	0.021227
1794	0.0139112
1806	0.00720499
1818	0.00714957
1830	0.00731584
1842	0.0154076
1854	0.0229451
1866	0.0169594
1878	0.0118605
1890	0.0084243
1902	0.00737126
1914	0.00676161
1926	0.00526519
1938	0.00393503
1950	0.00315911
1962	0.00543145
1974	0.00587484
1986	0.0055423
1998	0.00476638
2010	0.00382419
2022	0.00404588
2034	0.00304827
2046	0.00166269
2058	0.00243861
2070	0
2082	0.000942191
2094	0.00332538
2106	0.00399046
2118	0.00205065
2130	0.00221692
2142	0.00332538
2154	0.0033808
2166	0.0036025
2178	0.0026603
2190	0.00254946
2202	0.00238319
2214	0.0021615
2226	0.00343623
2238	0.00254946
2250	0.00376876
2262	0.00349165
2274	0.00382419
2286	0.00382419
2298	0.0033808
2310	0.00460011
2322	0.00376876
2334	0.00454469
2346	0.00942191
2358	0.002882
2370	0.0152413
2382	0.0119159
2394	0.00825803
2406	0.00726041
2418	0.00742668
2430	0.00897853
2442	0.00886768
2454	0.00992072
2466	0.00942191
2478	0.00864599
2490	0.00908937
2502	0.00775922
2514	0.00726041
2526	0.00631822
2538	0.00781464
2550	0.00847972
2562	0.00886768
2574	0.00798091
2586	0.00847972
2598	0.0102533
2610	0.0116388
2622	0.0118051
2634	0.011528
2646	0.0084243
2658	0.0104749
2670	0.00659534
2682	0.00565315
2694	0.00881226
2706	0.0100316
2718	0.0133015
2730	0.0152413
2742	0.0251066
2754	0.0278223
2766	0.0167932
2778	0.0131353
2790	0.0120822
2802	0.0165161
2814	0.0186221
2826	0.0241644
2838	0.0326996
2850	0.0498807
2862	0.103031
2874	0.178074
2886	0.190156
2898	0.155406
2910	0.171534
2922	0.271351
2934	0.357977
2946	0.310424
2958	0.203569
2970	0.184004
2982	0.200132
2994	0.216205
3006	0.268524
3018	0.467715
3030	0.554064
3042	0.329157
3054	0.122651
3066	0.0614641
3078	0.0444492
3090	0.0375214
3102	0.0251066
3114	0.0194535
3126	0.0139112
3138	0.0108629
3150	0.0117497
3162	0.0106412
3174	0.0113617
3186	0.00980987
3198	0.00875683
3210	0.0096436
3222	0.00726041
3234	0.00665076
3246	0.00620738
3258	0.00604111
3270	0.00709414
3282	0.00581942
3294	0.00731584
3306	0.00609653
3318	0.00709414
3330	0.00604111
3342	0.00487722
3354	0.00814718
3366	0.00737126
3378	0.00764837
3390	0.0062628
3402	0.00565315
3414	0.00714957
3426	0.00642907
3438	0.00598568
3450	0.00465553
3462	0.00653991
3474	0.00387961
3486	0.00437842
3498	0.00593026
3510	0.0036025
3522	0.00537603
3534	0.0036025
3546	0.00404588
3558	0.00454469
3570	0.00532061
3582	0.00604111
3594	0.00448926
3606	0.00437842
3618	0.00532061
3630	0.0084243
3642	0.00903395
3654	0.00748211
3666	0.00847972
3678	0.0108629
3690	0.00886768
3702	0.00875683
3714	0.0096436
3726	0.0116943
3738	0.0110846
3750	0.0111954
3762	0.0117497
3774	0.0102533
3786	0.00969903
3798	0.00897853
3810	0.0105858
3822	0.010087
3834	0.0109738
3846	0.0110846
3858	0.0111954
3870	0.0105858
3882	0.00942191
3894	0.0106966
3906	0.01114
3918	0.00992072
3930	0.0108629
3942	0.0105304
3954	0.00847972
3966	0.0077038
