Infrared Spectrum: Phenol, 3,5-dichloro-
Formula: C 6 H 4 Cl 2 O
CAS: 591-35-5
Origin: Sadtler Research Labs Under US-EPA Contract
1/CM	ABSORBANCE
450	0.0168652
462	0.0241172
474	0.0264784
486	0.0521135
498	0.0405608
510	0.019142
522	0.0210815
534	0.0252135
546	0.0199009
558	0.0149257
570	0.0110467
582	0.0134078
594	0.0195636
606	0.0181301
618	0.0139138
630	0.0112997
642	0.0136608
654	0.061305
666	0.147486
678	0.0445241
690	0.0144197
702	0.0178771
714	0.0158533
726	0.0161906
738	0.0180458
750	0.0170339
762	0.0180458
774	0.023527
786	0.0553179
798	0.17953
810	0.185517
822	0.163508
834	0.204575
846	0.150185
858	0.0927586
870	0.0469696
882	0.0324655
894	0.0329715
906	0.0353326
918	0.0640878
930	0.269675
942	0.322041
954	0.0383683
966	0.0172025
978	0.0209972
990	0.034658
1002	0.0329715
1014	0.00801097
1026	0
1038	0.00919153
1050	0.0190577
1062	0.0340677
1074	0.0405608
1086	0.0887953
1098	0.170929
1110	0.13956
1122	0.0401392
1134	0.0408981
1146	0.0751345
1158	0.133404
1170	0.214441
1182	0.159123
1194	0.0830611
1206	0.0503426
1218	0.0344893
1230	0.0451987
1242	0.118141
1254	0.274903
1266	0.149257
1278	0.0430063
1290	0.0606304
1302	0.0419943
1314	0.0167809
1326	0.0166965
1338	0.0179614
1350	0.0202382
1362	0.0243702
1374	0.0443555
1386	0.0451144
1398	0.0532097
1410	0.102625
1422	0.218657
1434	0.230041
1446	0.151197
1458	0.172025
1470	0.106419
1482	0.0365132
1494	0.0219248
1506	0.0220091
1518	0.0322125
1530	0.0398862
1542	0.072436
1554	0.0893856
1566	0.113671
1578	0.426943
1590	0.84326
1602	0.437062
1614	0.164098
1626	0.0591125
1638	0.0530411
1650	0.0261411
1662	0.0156003
1674	0.0122273
1686	0.0124802
1698	0.0140824
1710	0.0173712
1722	0.0123116
1734	0.00860125
1746	0.00834827
1758	0.00758934
1770	0.00775799
1782	0.00834827
1794	0.00725204
1806	0.00708338
1818	0.0061558
1830	0.00564984
1842	0.00581849
1854	0.00581849
1866	0.00489091
1878	0.00556552
1890	0.00505956
1902	0.00624012
1914	0.00573417
1926	0.00590282
1938	0.00573417
1950	0.00438495
1962	0.0042163
1974	0.00463793
1986	0.00480658
1998	0.00472226
2010	0.00438495
2022	0.00396332
2034	0.00430063
2046	0.003879
2058	0.00303574
2070	0.00286708
2082	0.00320439
2094	0.00261411
2106	0.00320439
2118	0.00362602
2130	0.00320439
2142	0.00261411
2154	0.00244545
2166	0.00269843
2178	0.00396332
2190	0.00522821
2202	0.00438495
2214	0.00252978
2226	0.00118056
2238	0.00084326
2250	0.000758934
2262	0.000674608
2274	0.00042163
2286	0.00042163
2298	0.00042163
2310	0.00084326
2322	0.00109624
2334	0.00118056
2346	0.00337304
2358	0.00261411
2370	0.00548119
2382	0.00497523
2394	0.00446928
2406	0.00345737
2418	0.00379467
2430	0.003879
2442	0.00404765
2454	0.00362602
2466	0.00244545
2478	0.00219248
2490	0.00210815
2502	0.00295141
2514	0.00505956
2526	0.00514389
2538	0.00328871
2550	0.00210815
2562	0.00210815
2574	0.0022768
2586	0.00269843
2598	0.00320439
2610	0.00295141
2622	0.00244545
2634	0.00236113
2646	0.00244545
2658	0.00303574
2670	0.00371034
2682	0.00472226
2694	0.00548119
2706	0.00598715
2718	0.00539686
2730	0.00404765
2742	0.00354169
2754	0.00328871
2766	0.00244545
2778	0.00252978
2790	0.0022768
2802	0.00177085
2814	0.00168652
2826	0.0022768
2838	0.00261411
2850	0.00286708
2862	0.00362602
2874	0.00371034
2886	0.00303574
2898	0.00244545
2910	0.00244545
2922	0.00202382
2934	0.00252978
2946	0.00261411
2958	0.00177085
2970	0.000758934
2982	0.0019395
2994	0.00295141
3006	0.00312006
3018	0.003879
3030	0.00522821
3042	0.00505956
3054	0.00632445
3066	0.0103721
3078	0.00910721
3090	0.00531254
3102	0.00556552
3114	0.003879
3126	0.00303574
3138	0.00328871
3150	0.00345737
3162	0.00345737
3174	0.00404765
3186	0.00396332
3198	0.00320439
3210	0.00328871
3222	0.00371034
3234	0.00430063
3246	0.00371034
3258	0.00312006
3270	0.00413197
3282	0.00379467
3294	0.00354169
3306	0.00438495
3318	0.00438495
3330	0.00581849
3342	0.00784232
3354	0.00674608
3366	0.00725204
3378	0.00640878
3390	0.00590282
3402	0.00624012
3414	0.00573417
3426	0.0061558
3438	0.00581849
3450	0.00564984
3462	0.00522821
3474	0.00548119
3486	0.00480658
3498	0.00539686
3510	0.00590282
3522	0.00463793
3534	0.00522821
3546	0.00396332
3558	0.00362602
3570	0.00261411
3582	0.00269843
3594	0.00472226
3606	0.00640878
3618	0.00910721
3630	0.0249605
3642	0.161569
3654	0.241594
3666	0.0586066
3678	0.00497523
3690	0.0042163
3702	0.00624012
3714	0.00278276
3726	0.00362602
3738	0.00345737
3750	0.00109624
3762	0.0064931
3774	0.00624012
3786	0.0061558
3798	0.00598715
3810	0.00590282
3822	0.00556552
3834	0.00725204
3846	0.00733636
3858	0.0064931
3870	0.0080953
3882	0.00598715
3894	0.00910721
3906	0.00624012
3918	0.00817962
3930	0.0087699
3942	0.00927586
3954	0.00936019
3966	0.00995047
