Infrared Spectrum: Cyclohexanone, 3-methyl-
Formula: C 7 H 12 O
CAS: 591-24-2
Origin: Sadtler Research Labs Under US-EPA Contract
1/CM	ABSORBANCE
450	0.00657728
462	0.0113681
474	0.0133982
486	0.0280955
498	0.0375961
510	0.0429553
522	0.0279331
534	0.00649608
546	0.00365404
558	0.000893211
570	0.00219243
582	0.00259843
594	0.0082013
606	0.00682088
618	0.00235483
630	0.00178642
642	0.00706449
654	0.00422245
666	0.00479086
678	0.00495326
690	0.00966292
702	0.00714569
714	0.00868851
726	0.0084449
738	0.0151034
750	0.0200566
762	0.0123426
774	0.00925691
786	0.00974412
798	0.0081201
810	0.0131546
822	0.0114493
834	0.0125862
846	0.0103937
858	0.0211935
870	0.0262279
882	0.0250911
894	0.0164026
906	0.00966292
918	0.0080389
930	0.0114493
942	0.0185138
954	0.0273647
966	0.0289076
978	0.0184326
990	0.0112869
1002	0.0105561
1014	0.0126674
1026	0.0178642
1038	0.0252535
1050	0.0465282
1062	0.0491266
1074	0.0324804
1086	0.0240355
1098	0.0341044
1110	0.0530243
1122	0.0497762
1134	0.0292324
1146	0.016971
1158	0.016971
1170	0.019813
1182	0.0254159
1194	0.0410065
1206	0.0807138
1218	0.157774
1230	0.141615
1242	0.0516438
1254	0.0342668
1266	0.0653668
1278	0.0739741
1290	0.0415749
1302	0.0401945
1314	0.0668284
1326	0.0797394
1338	0.082013
1350	0.0786838
1362	0.0512378
1374	0.046853
1386	0.047259
1398	0.0303692
1410	0.0356472
1422	0.0721877
1434	0.104181
1446	0.0948428
1458	0.0986592
1470	0.0827438
1482	0.0385705
1494	0.0175394
1506	0.00609007
1518	0.00941932
1530	0.0106373
1542	0.00121802
1554	0.0102313
1566	0.0119365
1578	0.0084449
1590	0.012911
1602	0.0138042
1614	0.0155906
1626	0.0150222
1638	0.0129922
1650	0.0164838
1662	0.0206251
1674	0.0227363
1686	0.0310188
1698	0.0639864
1710	0.165975
1722	0.498331
1734	0.81201
1746	0.591143
1758	0.166381
1770	0.0535115
1782	0.0317496
1794	0.0222491
1806	0.0224927
1818	0.0185138
1830	0.0112057
1842	0.0103937
1854	0.0105561
1866	0.00950052
1878	0.0101501
1890	0.00868851
1902	0.0082825
1914	0.00698329
1926	0.00690208
1938	0.00698329
1950	0.00673968
1962	0.00649608
1974	0.00633368
1986	0.00633368
1998	0.00584647
2010	0.00560287
2022	0.00584647
2034	0.00576527
2046	0.00568407
2058	0.00552167
2070	0.00527807
2082	0.00511566
2094	0.00535927
2106	0.00487206
2118	0.00487206
2130	0.00462846
2142	0.00454726
2154	0.00446606
2166	0.00454726
2178	0.00462846
2190	0.00397885
2202	0.00389765
2214	0.00373525
2226	0.00300444
2238	0.00349164
2250	0.00332924
2262	0.00267963
2274	0.00308564
2286	0.00259843
2298	0.00292324
2310	0.00211123
2322	0.00235483
2334	0.00162402
2346	0.00243603
2358	0.00211123
2370	0.000893211
2382	0.00162402
2394	0.00186762
2406	0.00129922
2418	0.00105561
2430	0.00154282
2442	0.000568407
2454	0.00121802
2466	0.000568407
2478	0.000406005
2490	0.000974412
2502	0.000568407
2514	0.000649608
2526	0.000893211
2538	0.00154282
2550	0.00138042
2562	0.00113681
2574	0.00170522
2586	0.00186762
2598	0.00259843
2610	0.00243603
2622	0.00341044
2634	0.00568407
2646	0.00625248
2658	0.00657728
2670	0.00682088
2682	0.00649608
2694	0.00600887
2706	0.00438485
2718	0.00470966
2730	0.00633368
2742	0.0078765
2754	0.00755169
2766	0.00698329
2778	0.0082013
2790	0.0103937
2802	0.0127486
2814	0.0171334
2826	0.02907
2838	0.050101
2850	0.0912699
2862	0.124238
2874	0.190579
2886	0.249449
2898	0.232884
2910	0.244496
2922	0.333005
2934	0.472427
2946	0.526264
2958	0.516926
2970	0.47462
2982	0.248637
2994	0.046447
3006	0.0187574
3018	0.013723
3030	0.00966292
3042	0.00901331
3054	0.00933811
3066	0.0083637
3078	0.00665848
3090	0.00657728
3102	0.00584647
3114	0.00584647
3126	0.00584647
3138	0.00625248
3150	0.00592767
3162	0.00633368
3174	0.00690208
3186	0.00706449
3198	0.00649608
3210	0.00487206
3222	0.00470966
3234	0.00414125
3246	0.00292324
3258	0.00422245
3270	0.00454726
3282	0.00365404
3294	0.00365404
3306	0.00389765
3318	0.00341044
3330	0.00511566
3342	0.00438485
3354	0.00389765
3366	0.00381645
3378	0.00495326
3390	0.00454726
3402	0.00560287
3414	0.00422245
3426	0.00885091
3438	0.0123426
3450	0.0155906
3462	0.0136418
3474	0.00706449
3486	0.00438485
3498	0.00332924
3510	0.00259843
3522	0.00430365
3534	0.00341044
3546	0.00341044
3558	0.00462846
3570	0.00276083
3582	0.00316684
3594	0.00276083
3606	0.00324804
3618	0.00276083
3630	0.000406005
3642	0.00495326
3654	0.00324804
3666	0.00479086
3678	0.00113681
3690	0.00154282
3702	0.00414125
3714	0.00349164
3726	0.00584647
3738	0.00438485
3750	0.00284203
3762	0.0080389
3774	0.00763289
3786	0.0104749
3798	0.00698329
3810	0.00925691
3822	0.00901331
3834	0.00868851
3846	0.0100689
3858	0.00893211
3870	0.0083637
3882	0.0105561
3894	0.0116929
3906	0.0101501
3918	0.0121801
3930	0.0107185
3942	0.0119365
3954	0.000568407
3966	0.00162402
