Infrared Spectrum: Cyclohexanol, 3-methyl-
Formula: C 7 H 14 O
CAS: 591-23-1
Origin: Sadtler Research Labs Under US-EPA Contract
1/CM	ABSORBANCE
450	0.00585549
462	0.00990373
474	0.0132291
486	0.0132291
498	0.0115664
510	0.00281931
522	0.00383137
534	0.00383137
546	0.00693984
558	0.0065061
570	0.00383137
582	0.00224099
594	0.00028916
606	0.00260244
618	0.00274702
630	0.0028916
642	0.00209641
654	0.00281931
666	0.00245786
678	0.00636152
690	0.00462656
702	0.00122893
714	0.00159038
726	0.00101206
738	0.00108435
750	0.00065061
762	0.00274702
774	0.0021687
786	0.00166267
798	0.00448198
810	0.00672297
822	0.00889167
834	0.0140243
846	0.0145303
858	0.0109158
870	0.0128676
882	0.0134459
894	0.0128676
906	0.00997602
918	0.0110604
930	0.0276148
942	0.0425065
954	0.0327474
966	0.0247955
978	0.0284823
990	0.0453258
1002	0.0646995
1014	0.108724
1026	0.123471
1038	0.122965
1050	0.129544
1062	0.0706996
1074	0.0519765
1086	0.0762659
1098	0.0883384
1110	0.0597115
1122	0.0375908
1134	0.0397595
1146	0.0352052
1158	0.0234943
1170	0.019446
1182	0.022193
1194	0.0307233
1206	0.0387474
1218	0.0443138
1230	0.0534223
1242	0.0563139
1254	0.0507476
1266	0.0466271
1278	0.0408439
1290	0.0318799
1302	0.0249401
1314	0.0221207
1326	0.0246509
1338	0.0324582
1350	0.0469162
1362	0.0649887
1374	0.0747479
1386	0.0657839
1398	0.0403378
1410	0.0202412
1422	0.0160484
1434	0.0286268
1446	0.0648441
1458	0.0899288
1470	0.0647718
1482	0.0245786
1494	0.00686755
1506	0.00419282
1518	0.00318076
1530	0.00202412
1542	0.00231328
1554	0.0021687
1566	0.00187954
1578	0.00253015
1590	0.00151809
1602	0.00173496
1614	0.00151809
1626	0.0014458
1638	0.00130122
1650	0.0014458
1662	0.00173496
1674	0.00122893
1686	0.00209641
1698	0.00180725
1710	0.00101206
1722	0.00086748
1734	0.00151809
1746	0.00130122
1758	0.00093977
1770	0.00122893
1782	0.00101206
1794	0.00137351
1806	0.00115664
1818	0.00137351
1830	0.00101206
1842	0.00108435
1854	0.00137351
1866	0.00115664
1878	0.00137351
1890	0.00122893
1902	0.00137351
1914	0.00122893
1926	0.00137351
1938	0.0014458
1950	0.0014458
1962	0.00137351
1974	0.0014458
1986	0.0014458
1998	0.0014458
2010	0.00151809
2022	0.00137351
2034	0.00151809
2046	0.00151809
2058	0.00151809
2070	0.0014458
2082	0.00151809
2094	0.00151809
2106	0.00151809
2118	0.00151809
2130	0.00151809
2142	0.00151809
2154	0.00151809
2166	0.00151809
2178	0.00151809
2190	0.00159038
2202	0.00159038
2214	0.00159038
2226	0.00159038
2238	0.00195183
2250	0.00137351
2262	0.00130122
2274	0.00122893
2286	0.0007229
2298	0.00028916
2310	7.229e-05
2322	0.00115664
2334	0.00159038
2346	0.00130122
2358	0.00180725
2370	0.00043374
2382	0.00014458
2394	0.00159038
2406	0.00253015
2418	0.00267473
2430	0.00224099
2442	0.00159038
2454	0.00166267
2466	0.00209641
2478	0.00209641
2490	0.00231328
2502	0.00253015
2514	0.0021687
2526	0.00209641
2538	0.00159038
2550	0.00166267
2562	0.00166267
2574	0.0021687
2586	0.00318076
2598	0.00462656
2610	0.00542175
2622	0.00607236
2634	0.00614465
2646	0.00816877
2658	0.0100483
2670	0.00896396
2682	0.00889167
2694	0.00831335
2706	0.00744587
2718	0.0079519
2730	0.00903625
2742	0.00946999
2754	0.0086748
2766	0.00932541
2778	0.0109158
2790	0.0130122
2802	0.0155423
2814	0.0180002
2826	0.0247232
2838	0.0594947
2850	0.153689
2862	0.233569
2874	0.267834
2886	0.234436
2898	0.226629
2910	0.314895
2922	0.507404
2934	0.7229
2946	0.582802
2958	0.428246
2970	0.225762
2982	0.0542898
2994	0.00983144
3006	0.00469885
3018	0.00404824
3030	0.0036145
3042	0.00318076
3054	0.00310847
3066	0.00375908
3078	0.00462656
3090	0.00491572
3102	0.00368679
3114	0.00419282
3126	0.00303618
3138	0.00253015
3150	0.00166267
3162	0.00325305
3174	0.00274702
3186	0.00375908
3198	0.00296389
3210	0.00224099
3222	0.00173496
3234	0.00166267
3246	0.00151809
3258	0.00137351
3270	0.00122893
3282	0.00173496
3294	0.00173496
3306	0.00093977
3318	0.0007229
3330	0.00130122
3342	0.00173496
3354	0.00130122
3366	0.00137351
3378	0.00224099
3390	0.00130122
3402	0.00180725
3414	0.00180725
3426	0.00195183
3438	0.00173496
3450	0.00180725
3462	0.00202412
3474	0.00180725
3486	0.00173496
3498	0.00137351
3510	0.00166267
3522	0.00180725
3534	0.00137351
3546	0.00043374
3558	0.00086748
3570	0.00036145
3582	0.0007229
3594	0.00180725
3606	0.00137351
3618	0.00354221
3630	0.0101206
3642	0.0302172
3654	0.0440246
3666	0.026169
3678	0.007229
3690	0.00245786
3702	0.0021687
3714	0.00122893
3726	0.00108435
3738	0.00202412
3750	0.00180725
3762	0.00238557
3774	0.00108435
3786	0.00346992
3798	0.00267473
3810	0.00390366
3822	0.00375908
3834	0.00354221
3846	0.00281931
3858	0.00318076
3870	0.00303618
3882	0.00390366
3894	0.00426511
3906	0.00339763
3918	0.0021687
3930	0.00115664
3942	0.00260244
3954	0.00303618
3966	0.00209641
