Infrared Spectrum: 4-Pentenoic acid
Formula: C 5 H 8 O 2
CAS: 591-80-0
Origin: Sadtler Research Labs Under US-EPA Contract
1/CM	ABSORBANCE
450	0.0377585
462	0.0199898
474	0.044739
486	0.045215
498	0.0731372
510	0.101535
522	0.098997
534	0.109151
546	0.14088
558	0.160553
570	0.189586
582	0.229089
594	0.264309
606	0.274304
618	0.279381
630	0.328879
642	0.316505
654	0.194345
666	0.122636
678	0.0875742
690	0.0647288
702	0.0494985
714	0.0326817
726	0.0339509
738	0.0193552
750	0.0106295
762	0.00698056
774	0.0114227
786	0.0169754
798	0.0204657
810	0.0172927
822	0.00682191
834	0.00888434
846	0.0203071
858	0.0218936
870	0.0245906
882	0.0458496
894	0.0715507
906	0.133741
918	0.221633
930	0.205609
942	0.123905
954	0.0948721
966	0.0864637
978	0.108199
990	0.136597
1002	0.124698
1014	0.0883675
1026	0.0774207
1038	0.0783726
1050	0.100742
1062	0.150082
1074	0.229406
1086	0.362672
1098	0.538137
1110	0.705195
1122	0.849089
1134	0.832431
1146	0.688854
1158	0.532267
1170	0.383455
1182	0.260343
1194	0.200056
1206	0.17737
1218	0.157856
1230	0.139611
1242	0.126443
1254	0.116924
1266	0.115496
1278	0.11629
1290	0.110261
1302	0.100583
1314	0.0877329
1326	0.0826561
1338	0.0918578
1350	0.116448
1362	0.15738
1374	0.221633
1386	0.238449
1398	0.161981
1410	0.109785
1422	0.122636
1434	0.133424
1446	0.12216
1458	0.0842426
1470	0.0422006
1482	0.0182446
1494	0.00824975
1506	0.00380758
1518	0.000951894
1530	0.00158649
1542	0.00111054
1554	0.00333163
1566	0.00237974
1578	0.00507677
1590	0.00412487
1602	0.00761515
1614	0.0131679
1626	0.0241146
1638	0.0739304
1650	0.0813869
1662	0.0295087
1674	0.0163408
1686	0.0209417
1698	0.0285568
1710	0.0520369
1722	0.108199
1734	0.198946
1746	0.309366
1758	0.588588
1770	1.18511
1782	1.58649
1794	1.21224
1806	0.616193
1818	0.339826
1830	0.161822
1842	0.0720266
1854	0.042042
1866	0.023956
1878	0.0168168
1890	0.0134852
1902	0.012216
1914	0.0106295
1926	0.00999489
1938	0.00967759
1950	0.00951894
1962	0.00951894
1974	0.00999489
1986	0.00999489
1998	0.00936029
2010	0.00920164
2022	0.00904299
2034	0.0084084
2046	0.00824975
2058	0.0084084
2070	0.0084084
2082	0.00650461
2094	0.00571136
2106	0.00698056
2118	0.00713921
2130	0.00650461
2142	0.00618731
2154	0.00650461
2166	0.00618731
2178	0.00634596
2190	0.0077738
2202	0.00824975
2214	0.0087257
2226	0.0107881
2238	0.0118987
2250	0.0107881
2262	0.00999489
2274	0.00920164
2286	0.0087257
2298	0.0084084
2310	0.00650461
2322	0.00634596
2334	0.00856705
2346	0.00983624
2358	0.00380758
2370	0.014913
2382	0.0106295
2394	0.0087257
2406	0.0080911
2418	0.0077738
2430	0.0087257
2442	0.00856705
2454	0.00856705
2466	0.00936029
2478	0.00888434
2490	0.00920164
2502	0.00951894
2514	0.00904299
2526	0.00920164
2538	0.0087257
2550	0.00856705
2562	0.00904299
2574	0.00983624
2586	0.00936029
2598	0.0101535
2610	0.0104708
2622	0.00951894
2634	0.00856705
2646	0.0101535
2658	0.00698056
2670	0.00555271
2682	0.00856705
2694	0.00824975
2706	0.00856705
2718	0.00888434
2730	0.00856705
2742	0.0087257
2754	0.00967759
2766	0.0106295
2778	0.0107881
2790	0.0104708
2802	0.0107881
2814	0.0128506
2826	0.0160235
2838	0.0233214
2850	0.0355374
2862	0.044739
2874	0.0502917
2886	0.0520369
2898	0.0571136
2910	0.0831321
2922	0.128982
2934	0.171817
2946	0.176418
2958	0.153731
2970	0.141515
2982	0.160553
2994	0.162139
3006	0.132313
3018	0.0982037
3030	0.0620318
3042	0.0431525
3054	0.0455323
3066	0.0577482
3078	0.0902713
3090	0.139611
3102	0.106136
3114	0.042042
3126	0.0264944
3138	0.0228455
3150	0.0203071
3162	0.0199898
3174	0.0185619
3186	0.0182446
3198	0.018086
3210	0.0161822
3222	0.0171341
3234	0.0155476
3246	0.0144371
3258	0.0131679
3270	0.0139611
3282	0.00967759
3294	0.00904299
3306	0.00920164
3318	0.0101535
3330	0.0103122
3342	0.00920164
3354	0.00856705
3366	0.00936029
3378	0.00920164
3390	0.00951894
3402	0.0080911
3414	0.00793245
3426	0.00571136
3438	0.0080911
3450	0.00539407
3462	0.00571136
3474	0.00713921
3486	0.0080911
3498	0.00983624
3510	0.0133265
3522	0.0155476
3534	0.0261771
3546	0.0339509
3558	0.0813869
3570	0.440886
3582	0.499586
3594	0.138818
3606	0.0347441
3618	0.018086
3630	0.0142784
3642	0.0131679
3654	0.0120573
3666	0.0133265
3678	0.0125333
3690	0.01174
3702	0.00951894
3714	0.0131679
3726	0.0141198
3738	0.0145957
3750	0.0142784
3762	0.0123746
3774	0.0134852
3786	0.0125333
3798	0.0128506
3810	0.0115814
3822	0.0112641
3834	0.0139611
3846	0.01174
3858	0.0188792
3870	0.0199898
3882	0.0145957
3894	0.0136438
3906	0.00856705
3918	0.00650461
3930	0.00682191
3942	0.00571136
3954	0.00618731
3966	0.00142784
