Infrared Spectrum: Benzene, 1-bromo-3-methyl-
Formula: C 7 H 7 Br
CAS: 591-17-3
Origin: Sadtler Research Labs Under US-EPA Contract
1/CM	ABSORBANCE
450	0.011986
462	0.00215575
474	0.0163837
486	0.0137968
498	0.00465642
510	0.02699
522	0.0376825
534	0.0111237
546	0.0188844
558	0.0186257
570	0.0275074
582	0.0130207
594	0.025869
606	0.0250929
618	0.0255241
630	0.0346645
642	0.0344058
654	0.0869198
666	0.346127
678	0.366736
690	0.189792
702	0.056222
714	0.0282834
726	0.022506
738	0.0321638
750	0.172977
762	0.530746
774	0.557046
786	0.227044
798	0.0586364
810	0.0398383
822	0.153144
834	0.609215
846	0.143314
858	0.0999406
870	0.147022
882	0.0765722
894	0.0488924
906	0.038631
918	0.0268175
930	0.0288008
942	0.0316464
954	0.0320776
966	0.0405281
978	0.0720021
990	0.139003
1002	0.111495
1014	0.0387173
1026	0.061482
1038	0.0632928
1050	0.0663109
1062	0.208677
1074	0.430633
1086	0.122705
1098	0.082867
1110	0.0420802
1122	0.0294044
1134	0.0280248
1146	0.0235408
1158	0.043115
1170	0.0458744
1182	0.0319913
1194	0.0463917
1206	0.180134
1218	0.200054
1230	0.0291457
1242	0.0243169
1254	0.0256103
1266	0.025869
1278	0.0251792
1290	0.0346645
1302	0.0407006
1314	0.0325949
1326	0.0358717
1338	0.0277661
1350	0.0302667
1362	0.0361304
1374	0.0555321
1386	0.0941632
1398	0.0964914
1410	0.10658
1422	0.164354
1434	0.204451
1446	0.117014
1458	0.118911
1470	0.404074
1482	0.576361
1494	0.285335
1506	0.121239
1518	0.114686
1530	0.132018
1542	0.102872
1554	0.144177
1566	0.399331
1578	0.595073
1590	0.352508
1602	0.478059
1614	0.205227
1626	0.0346645
1638	0.0197467
1650	0.021385
1662	0.0372514
1674	0.0214713
1686	0.00767447
1698	0.0068984
1710	0.013883
1722	0.0244893
1734	0.0334572
1746	0.0346645
1758	0.0355268
1770	0.0315602
1782	0.0256103
1794	0.0175047
1806	0.0160388
1818	0.0175047
1830	0.0225923
1842	0.0267313
1854	0.0375963
1866	0.0343195
1878	0.0144866
1890	0.0112961
1902	0.0136243
1914	0.019488
1926	0.033371
1938	0.0336297
1950	0.0165562
1962	0.00879546
1974	0.00819185
1986	0.00905415
1998	0.00836431
2010	0.00870923
2022	0.00836431
2034	0.00767447
2046	0.008623
2058	0.00750201
2070	0.0068984
2082	0.00577741
2094	0.00586364
2106	0.00526003
2118	0.00577741
2130	0.00491511
2142	0.00560495
2154	0.00594987
2166	0.00569118
2178	0.00638102
2190	0.00732955
2202	0.0060361
2214	0.00732955
2226	0.00801939
2238	0.0068984
2250	0.00767447
2262	0.00560495
2274	0.00551872
2286	0.00543249
2298	0.00301805
2310	0.0034492
2322	0.00250067
2334	0.00448396
2346	0.00198329
2358	0.00163837
2370	0.00439773
2382	0.00784693
2394	0.00879546
2406	0.00896792
2418	0.0109512
2430	0.0094853
2442	0.00672594
2454	0.0068984
2466	0.00698463
2478	0.0060361
2490	0.00577741
2502	0.00784693
2514	0.00758824
2526	0.00707086
2538	0.00672594
2550	0.00672594
2562	0.00836431
2574	0.00801939
2586	0.00845054
2598	0.00991645
2610	0.00707086
2622	0.00612233
2634	0.0068984
2646	0.00905415
2658	0.00767447
2670	0.00758824
2682	0.00758824
2694	0.00819185
2706	0.00724332
2718	0.00888169
2730	0.0115548
2742	0.0171598
2754	0.0191431
2766	0.0132794
2778	0.0110374
2790	0.0115548
2802	0.0132794
2814	0.0153489
2826	0.0202641
2838	0.0242306
2850	0.0388897
2862	0.075365
2874	0.124085
2886	0.11779
2898	0.113824
2910	0.141072
2922	0.205659
2934	0.297925
2946	0.255068
2958	0.150558
2970	0.0972674
2982	0.0773483
2994	0.112358
3006	0.137451
3018	0.163061
3030	0.203244
3042	0.207038
3054	0.188671
3066	0.272487
3078	0.241616
3090	0.152368
3102	0.087351
3114	0.0298356
3126	0.014228
3138	0.0103476
3150	0.0104338
3162	0.00983022
3174	0.00853677
3186	0.00914038
3198	0.00957153
3210	0.00793316
3222	0.0100027
3234	0.0077607
3246	0.0068984
3258	0.00741578
3270	0.00827808
3282	0.00560495
3294	0.00715709
3306	0.00758824
3318	0.00750201
3330	0.00827808
3342	0.00767447
3354	0.00681217
3366	0.00879546
3378	0.0104338
3390	0.00888169
3402	0.00827808
3414	0.00793316
3426	0.00991645
3438	0.010865
3450	0.00724332
3462	0.00793316
3474	0.00724332
3486	0.00801939
3498	0.0043115
3510	0.00612233
3522	0.00758824
3534	0.00569118
3546	0.00698463
3558	0.00827808
3570	0.00508757
3582	0.00646725
3594	0.00767447
3606	0.00931284
3618	0.00655348
3630	0.00163837
3642	0.00646725
3654	0.0043115
3666	0.00758824
3678	0.00293182
3690	0.00560495
3702	0.00965776
3714	0.0068984
3726	0.00836431
3738	0.00362166
3750	0.00413904
3762	0.0116411
3774	0.0136243
3786	0.0110374
3798	0.00965776
3810	0.00939907
3822	0.0106063
3834	0.010865
3846	0.014228
3858	0.00784693
3870	0.00870923
3882	0.0125034
3894	0.0151765
3906	0.0162975
3918	0.0156076
3930	0.0129345
3942	0.0134519
3954	0
3966	0.00137968
