Infrared Spectrum: Cyclohexene, 1-methyl-
Formula: C 7 H 12
CAS: 591-49-1
Origin: Sadtler Research Labs Under US-EPA Contract
1/CM	ABSORBANCE
450	0.00857808
462	0.00938228
474	0.00607614
486	0.00464646
498	0.00643356
510	0.00259129
522	0.00679098
534	0.00759518
546	0.00670163
558	0.00017871
570	0.00294872
582	0.00312743
594	0.00545066
606	0.00527195
618	0.00545066
630	0.00795259
642	0.00312743
654	0.0043784
666	0.00285936
678	0.00696969
690	0.00554001
702	0.00446775
714	0.00705904
726	0.0104545
738	0.0134926
750	0.00938228
762	0.0154584
774	0.0185858
786	0.0228749
798	0.0445881
810	0.0277001
822	0.0209091
834	0.0159945
846	0.0130458
858	0.0155478
870	0.0159945
882	0.0167987
894	0.0236791
906	0.0306488
918	0.0383333
930	0.0238578
942	0.0181391
954	0.0233217
966	0.0232323
978	0.0218026
990	0.0186752
1002	0.0171562
1014	0.0176029
1026	0.0215346
1038	0.0244833
1050	0.02493
1062	0.0251088
1074	0.0262704
1086	0.0348485
1098	0.0268959
1110	0.0175136
1122	0.0181391
1134	0.027432
1146	0.0377972
1158	0.0301126
1170	0.0218026
1182	0.0195687
1194	0.0142074
1206	0.0122416
1218	0.015101
1230	0.0157265
1242	0.0169775
1254	0.0171562
1266	0.0190326
1278	0.0188539
1290	0.0147436
1302	0.0170668
1314	0.0199262
1326	0.0209091
1338	0.0260023
1350	0.026181
1362	0.0237684
1374	0.0348485
1386	0.0384227
1398	0.0239471
1410	0.0130458
1422	0.0268065
1434	0.0609401
1446	0.103384
1458	0.098916
1470	0.0587062
1482	0.0205517
1494	0.00741646
1506	0.00562936
1518	0.00411033
1530	0.00419968
1542	0.00205516
1554	0.00402098
1566	0.00661227
1578	0.00705904
1590	0.00545066
1602	0.00670163
1614	0.00571872
1626	0.00554001
1638	0.00589743
1650	0.00643356
1662	0.00875679
1674	0.0099184
1686	0.0139394
1698	0.020641
1710	0.0195687
1722	0.0117949
1734	0.0101865
1746	0.00938228
1758	0.00562936
1770	0.00402098
1782	0.00384227
1794	0.00205516
1806	0.00259129
1818	0.00196581
1830	0.00169775
1842	0.00196581
1854	0.00205516
1866	0.00196581
1878	0.00241259
1890	0.00196581
1902	0.00196581
1914	0.00134033
1926	0.00187645
1938	0.00232323
1950	0.00232323
1962	0.000804195
1974	0.00134033
1986	0.00071484
1998	0.00134033
2010	0.00071484
2022	0.000625485
2034	0.00107226
2046	0.000804195
2058	0.00089355
2070	0.00116161
2082	0.00160839
2094	0.00107226
2106	0.00035742
2118	0.00053613
2130	0.000982905
2142	0.000982905
2154	0.000982905
2166	0.000982905
2178	0.00134033
2190	0.00125097
2202	0.00134033
2214	0.00125097
2226	0.00125097
2238	0.00125097
2250	0.00071484
2262	0.000625485
2274	0.00107226
2286	0.000268065
2298	0.00071484
2310	0.000625485
2322	0.000625485
2334	0.00071484
2346	0.00071484
2358	0.000625485
2370	0.00017871
2382	0.000625485
2394	0.00116161
2406	0.00107226
2418	0.00116161
2430	0.00134033
2442	0.00125097
2454	0.00169775
2466	0.00169775
2478	0.00169775
2490	0.00169775
2502	0.00160839
2514	0.00214452
2526	0.00268065
2538	0.00214452
2550	0.00169775
2562	0.00116161
2574	0.00160839
2586	0.00223388
2598	0.00250194
2610	0.00330613
2622	0.00375291
2634	0.00482517
2646	0.00732711
2658	0.0105439
2670	0.0122416
2682	0.0111694
2694	0.00857808
2706	0.00750582
2718	0.00857808
2730	0.0112587
2742	0.0117055
2754	0.00902486
2766	0.00813131
2778	0.0101865
2790	0.0147436
2802	0.0205517
2814	0.0283255
2826	0.0588849
2838	0.160392
2850	0.250015
2862	0.311938
2874	0.298088
2886	0.287276
2898	0.299518
2910	0.4004
2922	0.570442
2934	0.89355
2946	0.681511
2958	0.44749
2970	0.200155
2982	0.152529
2994	0.0864956
3006	0.0753263
3018	0.072735
3030	0.0507536
3042	0.0435159
3054	0.0352952
3066	0.0219813
3078	0.0128671
3090	0.0100971
3102	0.00875679
3114	0.00732711
3126	0.0053613
3138	0.00473581
3150	0.00428904
3162	0.00402098
3174	0.00348484
3186	0.00321678
3198	0.00250194
3210	0.00250194
3222	0.00196581
3234	0.00250194
3246	0.00169775
3258	0.00196581
3270	0.00107226
3282	0.00107226
3294	0.00187645
3306	0.00214452
3318	0.00241259
3330	0.00205516
3342	0.00196581
3354	0.00187645
3366	0.00151903
3378	0.00196581
3390	0.00071484
3402	0.00071484
3414	0.00107226
3426	0.00053613
3438	0.00116161
3450	0.00107226
3462	0.00053613
3474	0.00116161
3486	0.00053613
3498	0.000625485
3510	0.00053613
3522	0.00053613
3534	0.00142968
3546	0.00116161
3558	0.00160839
3570	0.0017871
3582	0.0017871
3594	0.00116161
3606	0.00160839
3618	0.00268065
3630	0.0043784
3642	0.00607614
3654	0.00562936
3666	0.00312743
3678	0.00160839
3690	0.00160839
3702	0.00160839
3714	0.00125097
3726	0.00116161
3738	0.00169775
3750	0.00116161
3762	0.00125097
3774	0.00107226
3786	0.00160839
3798	0.00169775
3810	0.00214452
3822	0.00223388
3834	0.0017871
3846	0.00151903
3858	0.0017871
3870	0.00214452
3882	0.00268065
3894	0.00205516
3906	0.00285936
3918	0.00330613
3930	0.00268065
3942	0.00277
3954	0
3966	0.00017871
