Infrared Spectrum: 2-Hexanone
Formula: C 6 H 12 O
CAS: 591-78-6
Origin: Sadtler Research Labs Under US-EPA Contract
1/CM	ABSORBANCE
450	0
462	0.00916397
474	0.0105958
486	0.0120277
498	0.0136505
510	0.0158938
522	0.0252486
534	0.0243895
546	0.0159892
558	0.0108822
570	0.0154642
582	0.0268714
594	0.0296874
606	0.0175165
618	0.00878214
630	0.00687298
642	0.00797074
654	0.00744572
666	0.00534565
678	0.00682525
690	0.00663433
702	0.00763664
714	0.0160369
726	0.0195689
738	0.0128868
750	0.00868668
762	0.00687298
774	0.00706389
786	0.00701616
798	0.00610931
810	0.00649114
822	0.00544111
834	0.00458198
846	0.00515473
858	0.00544111
870	0.00758891
882	0.0111686
894	0.0128868
906	0.0127436
918	0.0113595
930	0.0129346
942	0.0198075
954	0.026251
966	0.0276828
978	0.0276828
990	0.0305943
1002	0.0280169
1014	0.0207144
1026	0.0147483
1038	0.0115504
1050	0.0111686
1062	0.0120754
1074	0.0140801
1086	0.0178506
1098	0.0257259
1110	0.0312625
1122	0.030117
1134	0.0361309
1146	0.0695412
1158	0.166479
1170	0.202371
1182	0.119466
1194	0.0711162
1206	0.0581339
1218	0.0658183
1230	0.0760323
1242	0.0685388
1254	0.0572271
1266	0.0466312
1278	0.0369422
1290	0.0343649
1302	0.0389946
1314	0.0430038
1326	0.0497813
1338	0.0730254
1350	0.143187
1362	0.222751
1374	0.172636
1386	0.0919261
1398	0.0672979
1410	0.0660092
1422	0.0728822
1434	0.0731686
1446	0.0748391
1458	0.0805666
1470	0.0709253
1482	0.0472517
1494	0.0270623
1506	0.0211439
1518	0.0180893
1530	0.0156551
1542	0.0171347
1554	0.0151301
1566	0.0124095
1578	0.0120754
1590	0.0104049
1602	0.00911624
1614	0.0106436
1626	0.0107868
1638	0.0109777
1650	0.0155597
1662	0.0140801
1674	0.0225281
1686	0.041381
1698	0.0671547
1710	0.157792
1722	0.35329
1734	0.472231
1746	0.365127
1758	0.144714
1770	0.0670115
1782	0.0405697
1794	0.0289715
1806	0.0240554
1818	0.0119323
1830	0.00801847
1842	0.00711162
1854	0.00482063
1866	0.0059184
1878	0.00534565
1890	0.00448653
1902	0.00448653
1914	0.00405697
1926	0.00377059
1938	0.00448653
1950	0.00396151
1962	0.00420015
1974	0.00458198
1986	0.00338876
1998	0.00324557
2010	0.00357968
2022	0.00334103
2034	0.00367513
2046	0.00420015
2058	0.00372286
2070	0.00424788
2082	0.00415242
2094	0.00410469
2106	0.00453426
2118	0.00434334
2130	0.00482063
2142	0.00525019
2154	0.00434334
2166	0.0044388
2178	0.00448653
2190	0.00372286
2202	0.00372286
2214	0.00386605
2226	0.00386605
2238	0.00377059
2250	0.00400924
2262	0.00357968
2274	0.00377059
2286	0.00367513
2298	0.00396151
2310	0.00472517
2322	0.00525019
2334	0.00405697
2346	0.00391378
2358	0.00520246
2370	0.0029592
2382	0.0029592
2394	0.0032933
2406	0.00357968
2418	0.00381832
2430	0.00357968
2442	0.00367513
2454	0.00324557
2466	0.00305466
2478	0.00324557
2490	0.00338876
2502	0.00334103
2514	0.00415242
2526	0.00405697
2538	0.00353195
2550	0.00381832
2562	0.00357968
2574	0.00357968
2586	0.00415242
2598	0.00429561
2610	0.00439107
2622	0.00496382
2634	0.00458198
2646	0.00520246
2658	0.00634796
2670	0.0065866
2682	0.00711162
2694	0.00653887
2706	0.00634796
2718	0.00634796
2730	0.00711162
2742	0.00887759
2754	0.00964126
2766	0.00959353
2778	0.0104527
2790	0.0122664
2802	0.0163233
2814	0.0208576
2826	0.0262987
2838	0.0349376
2850	0.0546497
2862	0.0961739
2874	0.153162
2886	0.1923
2898	0.186334
2910	0.185952
2922	0.227476
2934	0.303986
2946	0.359686
2958	0.372143
2970	0.417963
2982	0.285944
2994	0.111161
3006	0.0686343
3018	0.0557475
3030	0.0381355
3042	0.029067
3054	0.0260123
3066	0.0232918
3078	0.0201894
3090	0.0171347
3102	0.0145096
3114	0.0116459
3126	0.0095458
3138	0.00882987
3150	0.0077321
3162	0.00758891
3174	0.00749345
3186	0.00706389
3198	0.00687298
3210	0.0059184
3222	0.00582294
3234	0.005107
3246	0.00462971
3258	0.00458198
3270	0.00553656
3282	0.00405697
3294	0.00472517
3306	0.00467744
3318	0.0044388
3330	0.00462971
3342	0.00491609
3354	0.00501155
3366	0.00606158
3378	0.00553656
3390	0.00520246
3402	0.00534565
3414	0.00610931
3426	0.00782756
3438	0.0109777
3450	0.0116936
3462	0.00964126
3474	0.00606158
3486	0.00334103
3498	0.00381832
3510	0.00338876
3522	0.00357968
3534	0.00448653
3546	0.00491609
3558	0.00482063
3570	0.00644342
3582	0.00744572
3594	0.00663433
3606	0.00529792
3618	0.00400924
3630	0.005107
3642	0.005107
3654	0.00391378
3666	0.005107
3678	0.00515473
3690	0.00453426
3702	0.00482063
3714	0.00482063
3726	0.00462971
3738	0.0044388
3750	0.00462971
3762	0.00367513
3774	0.00367513
3786	0.00396151
3798	0.00515473
3810	0.00548884
3822	0.00491609
3834	0.00630023
3846	0.00429561
3858	0.00367513
3870	0.00486836
3882	0.00558429
3894	0.005107
3906	0.00486836
3918	0.00572748
3930	0.00548884
3942	0.00567975
3954	0.00587067
3966	0.00381832
