Infrared Spectrum: Benzenamine, 3-bromo-
Formula: C 6 H 6 Br N
CAS: 591-19-5
Origin: Sadtler Research Labs Under US-EPA Contract
1/CM	ABSORBANCE
450	0.0253828
462	0.0541106
474	0.0590298
486	0.076542
498	0.097104
510	0.0771323
522	0.0710325
534	0.0678843
546	0.0602104
558	0.0531268
570	0.0617845
582	0.0577508
594	0.0408289
606	0.0481093
618	0.0528317
630	0.0558815
642	0.108025
654	0.287967
666	0.580165
678	0.714752
690	0.364312
702	0.177483
714	0.117666
726	0.0767387
738	0.0738856
750	0.194995
762	0.445085
774	0.346997
786	0.151608
798	0.0928736
810	0.0764436
822	0.0716228
834	0.113042
846	0.242121
858	0.386153
870	0.418718
882	0.174433
894	0.0219394
906	0.0174138
918	0.0134785
930	0.012593
942	0.0127898
954	0.017217
966	0.0249893
978	0.0407306
990	0.171482
1002	0.121405
1014	0.00619813
1026	0.00609975
1038	0.012593
1050	0.0331551
1062	0.165283
1074	0.25432
1086	0.0740824
1098	0.0625716
1110	0.0609975
1122	0.0281375
1134	0.00885447
1146	0.00737873
1158	0.0552912
1170	0.0516511
1182	0.00216443
1194	0.00639489
1206	0.00501753
1218	0.00285311
1230	0.0157413
1242	0.0876593
1254	0.244679
1266	0.250483
1278	0.126324
1290	0.140393
1302	0.142852
1314	0.117469
1326	0.0851997
1338	0.0276456
1350	0.00216443
1362	0.00147574
1374	0.00826417
1386	0.0224313
1398	0.0640473
1410	0.0738856
1422	0.049585
1434	0.100843
1446	0.145508
1458	0.126717
1470	0.312858
1482	0.76296
1494	0.29692
1506	0.086577
1518	0.0921849
1530	0.0805757
1542	0.0730986
1554	0.0768371
1566	0.197356
1578	0.689862
1590	0.919979
1602	0.811758
1614	0.865574
1626	0.98383
1638	0.474993
1650	0.128783
1662	0.0594233
1674	0.0661134
1686	0.0743775
1698	0.0527333
1710	0.0346308
1722	0.026465
1734	0.0237103
1746	0.0155445
1758	0.00826417
1770	0.00737873
1782	0.00973992
1794	0.0110189
1806	0.0134785
1818	0.018496
1830	0.0135769
1842	0.0104286
1854	0.0108221
1866	0.00964153
1878	0.00649328
1890	0.0110189
1902	0.0219394
1914	0.0270553
1926	0.0192831
1938	0.0115108
1950	0.00806741
1962	0.00688681
1974	0.00550945
1986	0.00590298
1998	0.00678843
2010	0.00747711
2022	0.0086577
2034	0.0108221
2046	0.0115108
2058	0.00914962
2070	0.00669004
2082	0.00511592
2094	0.00541106
2106	0.00767387
2118	0.00964153
2130	0.0102318
2142	0.00895285
2154	0.0098383
2166	0.00885447
2178	0.00777226
2190	0.00718196
2202	0.00590298
2214	0.00541106
2226	0.00541106
2238	0.00609975
2250	0.00678843
2262	0.00826417
2274	0.00816579
2286	0.00757549
2298	0.00659166
2310	0.00531268
2322	0.00501753
2334	0.00836255
2346	0.0121011
2358	0.00550945
2370	0.0160364
2382	0.0153477
2394	0.0104286
2406	0.00787064
2418	0.00708358
2430	0.00777226
2442	0.00846094
2454	0.00973992
2466	0.0100351
2478	0.0100351
2490	0.00964153
2502	0.00964153
2514	0.00914962
2526	0.00905124
2538	0.0101334
2550	0.0126914
2562	0.0135769
2574	0.0119043
2586	0.0110189
2598	0.0107237
2610	0.0114124
2622	0.0103302
2634	0.00954315
2646	0.0110189
2658	0.00905124
2670	0.00895285
2682	0.0100351
2694	0.00993668
2706	0.0102318
2718	0.0123963
2730	0.0149542
2742	0.0140688
2754	0.0124946
2766	0.0102318
2778	0.00944477
2790	0.00737873
2802	0.00787064
2814	0.00826417
2826	0.00787064
2838	0.0098383
2850	0.0102318
2862	0.0117076
2874	0.0132817
2886	0.013872
2898	0.0117076
2910	0.0101334
2922	0.0098383
2934	0.0103302
2946	0.0112157
2958	0.0122979
2970	0.0103302
2982	0.00973992
2994	0.0136752
3006	0.0274489
3018	0.0543074
3030	0.0825433
3042	0.0910043
3054	0.117863
3066	0.142459
3078	0.107828
3090	0.0760501
3102	0.0483061
3114	0.018496
3126	0.0104286
3138	0.00718196
3150	0.00777226
3162	0.0086577
3174	0.00826417
3186	0.00806741
3198	0.0129866
3210	0.0188895
3222	0.0209556
3234	0.0195782
3246	0.0126914
3258	0.00895285
3270	0.00669004
3282	0.00560783
3294	0.00560783
3306	0.00511592
3318	0.00678843
3330	0.00816579
3342	0.00531268
3354	0.00619813
3366	0.00895285
3378	0.0158397
3390	0.0283343
3402	0.0756565
3414	0.107729
3426	0.113928
3438	0.073197
3450	0.0196766
3462	0.0146591
3474	0.0281375
3486	0.0585379
3498	0.0734921
3510	0.0671956
3522	0.0659166
3534	0.021841
3546	0.00708358
3558	0.00609975
3570	0.00541106
3582	0.00501753
3594	0.00600136
3606	0.004624
3618	0.00609975
3630	0.00590298
3642	0.00649328
3654	0.00669004
3666	0.00816579
3678	0.00541106
3690	0.00688681
3702	0.00669004
3714	0.0128882
3726	0.00973992
3738	0.0120027
3750	0.0100351
3762	0.0110189
3774	0.00905124
3786	0.00688681
3798	0.010527
3810	0.00767387
3822	0.00836255
3834	0.012593
3846	0.0209556
3858	0.0186928
3870	0.0107237
3882	0.0112157
3894	0.00954315
3906	0.00806741
3918	0.0124946
3930	0.00973992
3942	0.0132817
3954	0.0145607
3966	0.00511592
