Infrared Spectrum: Benzene, iodo-
Formula: C 6 H 5 I
CAS: 591-50-4
Origin: Sadtler Research Labs Under US-EPA Contract
1/CM	ABSORBANCE
450	0.030997
462	0.0213849
474	0.0108788
486	0.00573742
498	0.00551389
510	0.0108042
522	0.0104317
534	0.00767474
546	0.0074512
558	0.0103572
570	0.0112513
582	0.0159456
594	0.00588645
606	0.0135612
618	0.0157965
630	0.00864339
642	0.0440366
654	0.291118
666	0.123466
678	0.155134
690	0.146416
702	0.140232
714	0.307213
726	0.575531
738	0.457504
750	0.146565
762	0.027644
774	0.0105807
786	0.00767474
798	0.0143808
810	0.00864339
822	0.0120709
834	0.0121455
846	0.00946302
858	0.0141573
870	0.021683
882	0.0283146
894	0.0285381
906	0.0202673
918	0.0216085
930	0.0119219
942	0.0106552
954	0.0158711
966	0.0122945
978	0.0114003
990	0.0837515
1002	0.213104
1014	0.407059
1026	0.180319
1038	0.0174358
1050	0.0772689
1062	0.242015
1074	0.0344245
1086	0.0211614
1098	0.0228007
1110	0.0109533
1122	0.0108788
1134	0.0139337
1146	0.0127416
1158	0.0105807
1170	0.0157965
1182	0.012369
1194	0.0116984
1206	0.0114748
1218	0.0141573
1230	0.0233968
1242	0.0150514
1254	0.0159456
1266	0.0177339
1278	0.0140083
1290	0.0180319
1302	0.021832
1314	0.0325617
1326	0.0319656
1338	0.0209379
1350	0.0192241
1362	0.0134867
1374	0.0149024
1386	0.0143808
1398	0.0104317
1410	0.0201928
1422	0.0540212
1434	0.108638
1446	0.104093
1458	0.052829
1470	0.404377
1482	0.412275
1494	0.0116239
1506	0.00439621
1518	0.0080473
1530	0.0125925
1542	0.00983558
1554	0.0330833
1566	0.164821
1578	0.425538
1590	0.0675824
1602	0.0157965
1614	0.0142318
1626	0.0206398
1638	0.0177339
1650	0.00849437
1662	0.0113258
1674	0.00946302
1686	0.00551389
1698	0.00640803
1710	0.0145298
1722	0.018926
1734	0.0112513
1746	0.0133376
1758	0.0118474
1770	0.0116239
1782	0.0217575
1794	0.0299538
1806	0.0198947
1818	0.0136357
1830	0.0087179
1842	0.0133376
1854	0.0236948
1866	0.0259302
1878	0.0345736
1890	0.0170632
1902	0.0105062
1914	0.0130396
1926	0.0191496
1938	0.0267498
1950	0.0324872
1962	0.0260047
1974	0.0114003
1986	0.00916498
1998	0.0101336
2010	0.00983558
2022	0.00998461
2034	0.00946302
2046	0.00827083
2058	0.00812181
2070	0.0103572
2082	0.00886693
2094	0.00864339
2106	0.00834534
2118	0.00961205
2130	0.00938851
2142	0.00767474
2154	0.0080473
2166	0.00760022
2178	0.00670608
2190	0.00730218
2202	0.00640803
2214	0.00692962
2226	0.00797278
2238	0.00812181
2250	0.00923949
2262	0.00760022
2274	0.00767474
2286	0.00715315
2298	0.00551389
2310	0.00819632
2322	0.0103572
2334	0.00707864
2346	0.0139337
2358	0.00760022
2370	0.0143808
2382	0.0118474
2394	0.0080473
2406	0.00700413
2418	0.00722766
2430	0.0043217
2442	0.00596096
2454	0.00491779
2466	0.00506682
2478	0.00529035
2490	0.00588645
2502	0.00640803
2514	0.00625901
2526	0.00700413
2538	0.00767474
2550	0.00402365
2562	0.00573742
2574	0.00722766
2586	0.00938851
2598	0.00812181
2610	0.00365109
2622	0.00521584
2634	0.00797278
2646	0.00298048
2658	0.00417267
2670	0.00208634
2682	0.00208634
2694	0.00201182
2706	0.000447072
2718	0.00208634
2730	0.00193731
2742	0.00134122
2754	0.00320402
2766	0.00141573
2778	0.00171378
2790	0.00208634
2802	0.00104317
2814	0.00238438
2826	0.00134122
2838	0.00298048
2850	0.0031295
2862	0.00230987
2874	0.00461974
2886	0.00461974
2898	0.00290597
2910	0.00491779
2922	0.00335304
2934	0.00461974
2946	0.00566291
2958	0.00283146
2970	0.00514133
2982	0.00774925
2994	0.0163181
3006	0.0237693
3018	0.0316676
3030	0.0419503
3042	0.0315931
3054	0.065049
3066	0.207814
3078	0.344171
3090	0.172048
3102	0.0613234
3114	0.0160946
3126	0.0087179
3138	0.00625901
3150	0.0124435
3162	0.00961205
3174	0.00394914
3186	0.00543938
3198	0.00491779
3210	0.00469426
3222	0.00670608
3234	0.00335304
3246	0.0068551
3258	0.0037256
3270	0.00491779
3282	0.00596096
3294	0.00439621
3306	0.00551389
3318	0.00491779
3330	0.00357658
3342	0.00692962
3354	0.00447072
3366	0.00670608
3378	0.00760022
3390	0.00439621
3402	0.00767474
3414	0.00603547
3426	0.00655706
3438	0.00707864
3450	0.00715315
3462	0.00819632
3474	0.00812181
3486	0.00633352
3498	0.00819632
3510	0.00655706
3522	0.00841986
3534	0.00655706
3546	0.00603547
3558	0.00812181
3570	0.00678059
3582	0.00782376
3594	0.00856888
3606	0.00648254
3618	0.00640803
3630	0.00260792
3642	0.00812181
3654	0.00760022
3666	0.00752571
3678	0.00543938
3690	0.00782376
3702	0.00938851
3714	0.0110278
3726	0.00760022
3738	0.00581194
3750	0.0024589
3762	0.00752571
3774	0.00953754
3786	0.009314
3798	0.00782376
3810	0.00923949
3822	0.00454523
3834	0.00730218
3846	0.00678059
3858	0.00909046
3870	0.00849437
3882	0.00953754
3894	0.0116239
3906	0.0128161
3918	0.0128906
3930	0.0127416
3942	0.0133376
3954	0.00402365
3966	0.00521584
