Infrared Spectrum: Cyclopentanemethanol, 1-phenyl-
Formula: C 12 H 16 O
CAS: 59115-90-1
Origin: Sadtler Research Labs Under US-EPA Contract
1/CM	ABSORBANCE
450	0.00865377
462	0.00388686
474	0.00608697
486	0.00660033
498	0.00682034
510	0.00982716
522	0.0165742
534	0.0196543
546	0.0236879
558	0.0329283
570	0.032855
582	0.0249346
594	0.019141
606	0.0181142
618	0.0184809
630	0.0187743
642	0.0212677
654	0.020461
666	0.0233945
678	0.0388686
690	0.132593
702	0.260053
714	0.105679
726	0.0390886
738	0.032855
750	0.060723
762	0.100545
774	0.0432688
786	0.0118806
798	0.0101205
810	0.00887378
822	0.0093138
834	0.0093138
846	0.012394
858	0.0136407
870	0.0133473
882	0.0140074
894	0.0174542
906	0.0211211
918	0.0156208
930	0.0175275
942	0.0307282
954	0.0422421
966	0.0322683
978	0.0327083
990	0.0605764
1002	0.0844109
1014	0.0854376
1026	0.144914
1038	0.284694
1050	0.34175
1062	0.227051
1074	0.101058
1086	0.060283
1098	0.0411421
1110	0.0304349
1122	0.0269147
1134	0.025888
1146	0.0273547
1158	0.033515
1170	0.0448822
1182	0.0523626
1194	0.0458356
1206	0.0340284
1218	0.0310949
1230	0.0327083
1242	0.0342484
1254	0.0350551
1266	0.0390886
1278	0.0356418
1290	0.0319749
1302	0.0349817
1314	0.0373285
1326	0.0432688
1338	0.0469357
1350	0.0379886
1362	0.0374752
1374	0.0645366
1386	0.0695235
1398	0.0373285
1410	0.0216344
1422	0.0187743
1434	0.0277214
1446	0.0589629
1458	0.0879311
1470	0.0849242
1482	0.079864
1494	0.116679
1506	0.0682034
1518	0.0159875
1530	0.0107805
1542	0.00953381
1554	0.00572029
1566	0.0059403
1578	0.0146674
1590	0.033735
1602	0.0566162
1614	0.0187743
1626	0.0053536
1638	0.0033735
1650	0.00352018
1662	0.00432688
1674	0.00476691
1686	0.00344684
1698	0.00359351
1710	0.00447356
1722	0.00784706
1734	0.0166475
1746	0.0160608
1758	0.00623365
1770	0.00476691
1782	0.00623365
1794	0.013054
1806	0.0102672
1818	0.00425355
1830	0.00190676
1842	0.0013934
1854	0.00293348
1866	0.00740704
1878	0.00902045
1890	0.00564695
1902	0.00146674
1914	0.00132007
1926	0.00388686
1938	0.0104139
1950	0.0113672
1962	0.00623365
1974	0.00073337
1986	0.000366685
1998	0.000146674
2010	0.000513359
2022	0.000513359
2034	0.000806707
2046	0.00117339
2058	0.0013934
2070	0.00183343
2082	0.00190676
2094	0.00161341
2106	0.00146674
2118	0.000806707
2130	0.000586696
2142	0.000366685
2154	0.000586696
2166	0.00110006
2178	0.00146674
2190	0.00154008
2202	0.00146674
2214	0.000953381
2226	0.000880044
2238	0.000953381
2250	0.00110006
2262	0.00146674
2274	0.00117339
2286	0.0019801
2298	0.00330017
2310	0.00528026
2322	0.00696702
2334	0.00447356
2346	0.00828708
2358	0.0053536
2370	0.00498692
2382	0.00366685
2394	0.00110006
2406	0.0013934
2418	0.000806707
2430	0.00124673
2442	0.00117339
2454	0.000953381
2466	0.00110006
2478	0.000440022
2490	0.000880044
2502	0.00073337
2514	0.000806707
2526	0.000953381
2538	0.000806707
2550	0.00073337
2562	0.00132007
2574	0.0019801
2586	0.0025668
2598	0.00308015
2610	0.00242012
2622	0.00264013
2634	0.00300682
2646	0.00366685
2658	0.00388686
2670	0.00440022
2682	0.00520693
2694	0.00528026
2706	0.00682034
2718	0.00814041
2730	0.00960715
2742	0.0104139
2754	0.0110006
2766	0.0114406
2778	0.013274
2790	0.0153274
2802	0.0174542
2814	0.0194343
2826	0.0244212
2838	0.0360085
2850	0.0590363
2862	0.12526
2874	0.286748
2886	0.338157
2898	0.20747
2910	0.191776
2922	0.287921
2934	0.340137
2946	0.387659
2958	0.603197
2970	0.67668
2982	0.26416
2994	0.102305
3006	0.0623365
3018	0.0683501
3030	0.107585
3042	0.113452
3054	0.093798
3066	0.169042
3078	0.138534
3090	0.0962915
3102	0.0604297
3114	0.0303615
3126	0.0134207
3138	0.00718703
3150	0.00586696
3162	0.00476691
3174	0.0019801
3186	0.00220011
3198	0.00161341
3210	0.00132007
3222	0.00132007
3234	0.0013934
3246	0.00132007
3258	0.00073337
3270	0.000953381
3282	0.000953381
3294	0.00146674
3306	0.00154008
3318	0.00102672
3330	0.0013934
3342	0.00110006
3354	0.000953381
3366	0.00110006
3378	0.000806707
3390	0.000513359
3402	0.00117339
3414	0.00154008
3426	0.00168675
3438	0.000586696
3450	0.00073337
3462	0.000513359
3474	0.000586696
3486	0.00110006
3498	0.00124673
3510	0.000513359
3522	0.00117339
3534	0.00271347
3546	0.00278681
3558	0.00271347
3570	0.00220011
3582	0.00227345
3594	0.00542694
3606	0.0102672
3618	0.0521426
3630	0.06725
3642	0.0275014
3654	0.025668
3666	0.0350551
3678	0.0261813
3690	0.0107805
3702	0.00696702
3714	0.00579362
3726	0.00418021
3738	0.00205344
3750	0.00440022
3762	0.00352018
3774	0.00278681
3786	0.00278681
3798	0.0019801
3810	0.00117339
3822	0.00359351
3834	0.00286014
3846	0.00381352
3858	0.00366685
3870	0.00300682
3882	0.00176009
3894	0.00212677
3906	0.00374019
3918	0.0025668
3930	0.00183343
3942	0.00102672
3954	0.00242012
3966	0.00234678
