Infrared Spectrum: Hexane, 2,5-dimethyl-
Formula: C 8 H 18
CAS: 592-13-2
Origin: Sadtler Research Labs Under US-EPA Contract
1/CM	ABSORBANCE
450	0
462	0.00556939
474	0.00451313
486	0.00633758
498	0.00883421
510	0.00585746
522	0.00710578
534	0.00710578
546	0.00845011
558	0.00614554
570	0.0068177
582	0.0051853
594	0.00748987
606	0.00845011
618	0.00537734
630	0.00700975
642	0.00604951
654	0.00585746
666	0.00566542
678	0.0051853
690	0.00700975
702	0.00729782
714	0.00662566
726	0.00624156
738	0.00739385
750	0.00979445
762	0.00845011
774	0.0068177
786	0.00796999
798	0.0106587
810	0.0128672
822	0.0137314
834	0.0104666
846	0.00806602
858	0.00912228
870	0.0104666
882	0.011907
894	0.0107547
906	0.0110428
918	0.0176684
930	0.0180525
942	0.0153638
954	0.0171883
966	0.0183406
978	0.0123871
990	0.0092183
1002	0.0111388
1014	0.0150758
1026	0.0150758
1038	0.0148837
1050	0.0139235
1062	0.0139235
1074	0.0156519
1086	0.0168042
1098	0.0139235
1110	0.0113308
1122	0.0114269
1134	0.0123871
1146	0.0162281
1158	0.0274629
1170	0.0393698
1182	0.0223736
1194	0.0130593
1206	0.0135394
1218	0.020165
1230	0.0269827
1242	0.0243901
1254	0.0183406
1266	0.0193008
1278	0.0165161
1290	0.0138275
1302	0.0139235
1314	0.0172843
1326	0.0242941
1338	0.0436909
1350	0.0409062
1362	0.0529092
1374	0.0847892
1386	0.0984246
1398	0.0572303
1410	0.0197809
1422	0.0155559
1434	0.0207412
1446	0.0378335
1458	0.0796039
1470	0.117821
1482	0.0816204
1494	0.0300555
1506	0.0155559
1518	0.0184366
1530	0.0141155
1542	0.00835409
1554	0.00777794
1566	0.00739385
1578	0.00912228
1590	0.00854614
1602	0.00691373
1614	0.00787397
1626	0.00537734
1638	0.00451313
1650	0.00604951
1662	0.00556939
1674	0.00576144
1686	0.00460915
1698	0.00556939
1710	0.00854614
1722	0.0100825
1734	0.00931433
1746	0.0105626
1758	0.00864216
1770	0.00691373
1782	0.00547337
1794	0.0048012
1806	0.00470518
1818	0.00422506
1830	0.00403301
1842	0.0044171
1854	0.00403301
1866	0.00412903
1878	0.00384096
1890	0.00374494
1902	0.00355289
1914	0.00384096
1926	0.00355289
1938	0.00384096
1950	0.00374494
1962	0.00355289
1974	0.00336084
1986	0.00336084
1998	0.00307277
2010	0.00326482
2022	0.00326482
2034	0.00336084
2046	0.00336084
2058	0.00345686
2070	0.00326482
2082	0.00326482
2094	0.00384096
2106	0.00364891
2118	0.00355289
2130	0.00393698
2142	0.00364891
2154	0.00364891
2166	0.00374494
2178	0.00374494
2190	0.00345686
2202	0.00364891
2214	0.00355289
2226	0.00393698
2238	0.00384096
2250	0.00432108
2262	0.00451313
2274	0.00470518
2286	0.00470518
2298	0.00547337
2310	0.00595349
2322	0.00633758
2334	0.00595349
2346	0.00604951
2358	0.00595349
2370	0.0048012
2382	0.00576144
2394	0.0051853
2406	0.00470518
2418	0.00470518
2430	0.00470518
2442	0.0048012
2454	0.00451313
2466	0.0048012
2478	0.00499325
2490	0.00499325
2502	0.00528132
2514	0.00566542
2526	0.00547337
2538	0.00566542
2550	0.00585746
2562	0.00652963
2574	0.00710578
2586	0.00787397
2598	0.00893023
2610	0.0104666
2622	0.0106587
2634	0.0105626
2646	0.0100825
2658	0.00969842
2670	0.00893023
2682	0.00893023
2694	0.00969842
2706	0.0107547
2718	0.0131553
2730	0.0169002
2742	0.016132
2754	0.0138275
2766	0.0149797
2778	0.0155559
2790	0.0172843
2802	0.0213173
2814	0.0264066
2826	0.0332243
2838	0.0495484
2850	0.0988087
2862	0.161608
2874	0.274917
2886	0.320528
2898	0.268579
2910	0.35212
2922	0.470134
2934	0.495196
2946	0.468405
2958	0.754461
2970	0.908003
2982	0.287976
2994	0.0644321
3006	0.0355289
3018	0.0248702
3030	0.019877
3042	0.0168042
3054	0.0149797
3066	0.0144996
3078	0.0141155
3090	0.0137314
3102	0.0117149
3114	0.0111388
3126	0.0103706
3138	0.0108507
3150	0.0110428
3162	0.0117149
3174	0.0123871
3186	0.0123871
3198	0.0113308
3210	0.00912228
3222	0.00624156
3234	0.0048012
3246	0.00432108
3258	0.00403301
3270	0.0044171
3282	0.0048012
3294	0.0044171
3306	0.00460915
3318	0.00499325
3330	0.00556939
3342	0.00595349
3354	0.00604951
3366	0.00604951
3378	0.00547337
3390	0.00566542
3402	0.00547337
3414	0.0048012
3426	0.00489722
3438	0.00470518
3450	0.0048012
3462	0.00499325
3474	0.00422506
3486	0.00489722
3498	0.00432108
3510	0.0044171
3522	0.0048012
3534	0.00489722
3546	0.00537734
3558	0.00451313
3570	0.0048012
3582	0.0044171
3594	0.00537734
3606	0.00547337
3618	0.00460915
3630	0.00489722
3642	0.00604951
3654	0.00585746
3666	0.00585746
3678	0.00460915
3690	0.0044171
3702	0.00528132
3714	0.00537734
3726	0.00566542
3738	0.00566542
3750	0.00403301
3762	0.0048012
3774	0.00537734
3786	0.00633758
3798	0.00672168
3810	0.00489722
3822	0.00537734
3834	0.00662566
3846	0.00576144
3858	0.00451313
3870	0.00460915
3882	0.00710578
3894	0.0048012
3906	0.0051853
3918	0.00624156
3930	0.0044171
3942	0.00576144
3954	0.0044171
3966	0.00451313
