Infrared Spectrum: Carbonochloridic acid, butyl ester
Formula: C 5 H 9 Cl O 2
CAS: 592-34-7
Origin: Sadtler Research Labs Under US-EPA Contract
1/CM	ABSORBANCE
450	0.000475097
462	0.00400439
474	0.00828026
486	0.012081
498	0.0116059
510	0.0142529
522	0.0106557
534	0.00352929
546	0.00509032
558	0.00563329
570	0.00977342
582	0.00780517
594	0.00712646
606	0.00963768
618	0.00902684
630	0.00807665
642	0.0116738
654	0.00834813
666	0.0111987
678	0.0164248
690	0.0219902
702	0.0221938
714	0.0114702
726	0.0128955
738	0.015271
750	0.0151352
762	0.0181216
774	0.0185967
786	0.0317636
798	0.0407226
810	0.0424194
822	0.0568759
834	0.074183
846	0.0583012
858	0.0421479
870	0.0251123
882	0.0167641
894	0.0163569
906	0.0134385
918	0.0149316
930	0.022601
942	0.0282343
954	0.0242978
966	0.0221938
978	0.0177822
990	0.0164248
1002	0.0173071
1014	0.0183252
1026	0.0164927
1038	0.0145244
1050	0.0196147
1062	0.0286416
1074	0.0266733
1086	0.027352
1098	0.0387543
1110	0.0756762
1122	0.166216
1134	0.380892
1146	0.674298
1158	0.626178
1170	0.378177
1182	0.122914
1194	0.0625092
1206	0.0470346
1218	0.0385507
1230	0.0369897
1242	0.0498852
1254	0.0749975
1266	0.0847709
1278	0.0593193
1290	0.0344106
1302	0.0287094
1314	0.0235512
1326	0.0194111
1338	0.016289
1350	0.0149316
1362	0.0168999
1374	0.0213794
1386	0.0280986
1398	0.0248408
1410	0.015271
1422	0.0130312
1434	0.0149316
1446	0.0199541
1458	0.0334604
1470	0.0356323
1482	0.0258589
1494	0.0134385
1506	0.0122168
1518	0.00984129
1530	0.00766942
1542	0.0118774
1554	0.00780517
1566	0.00719433
1578	0.00861962
1590	0.00590478
1602	0.0067871
1614	0.00610839
1626	0.00712646
1638	0.00882323
1650	0.00753368
1662	0.00733007
1674	0.00794091
1686	0.0109272
1698	0.0108594
1710	0.0088911
1722	0.0119453
1734	0.0190039
1746	0.0314921
1758	0.0641381
1770	0.106965
1782	0.248069
1794	0.382996
1806	0.224517
1818	0.0741151
1830	0.032103
1842	0.0167641
1854	0.0103843
1866	0.00780517
1878	0.00692284
1890	0.00576904
1902	0.00542968
1914	0.00522607
1926	0.00502245
1938	0.00549755
1950	0.00502245
1962	0.00556542
1974	0.00556542
1986	0.00542968
1998	0.00522607
2010	0.00441161
2022	0.00441161
2034	0.00393652
2046	0.00407226
2058	0.00407226
2070	0.0037329
2082	0.00414013
2094	0.0037329
2106	0.00434374
2118	0.00393652
2130	0.00346142
2142	0.00346142
2154	0.00339355
2166	0.00339355
2178	0.00332568
2190	0.00332568
2202	0.00318994
2214	0.00325781
2226	0.00318994
2238	0.00359716
2250	0.00359716
2262	0.00454736
2274	0.00509032
2286	0.00590478
2298	0.006312
2310	0.006312
2322	0.00583691
2334	0.0025791
2346	0.00366503
2358	0.00278271
2370	0.00264697
2382	0.00386865
2394	0.0025791
2406	0.00196826
2418	0.00251123
2430	0.002104
2442	0.00251123
2454	0.00183252
2466	0.00176465
2478	0.00237549
2490	0.0016289
2502	0.002104
2514	0.00169677
2526	0.00142529
2538	0.00217187
2550	0.00115381
2562	0.00196826
2574	0.00196826
2586	0.00169677
2598	0.00190039
2610	0.00128955
2622	0.00169677
2634	0.00128955
2646	0.00135742
2658	0.00176465
2670	0.00115381
2682	0.00169677
2694	0.00169677
2706	0.00176465
2718	0.00176465
2730	0.00176465
2742	0.00230761
2754	0.0025791
2766	0.00264697
2778	0.00237549
2790	0.00244336
2802	0.00339355
2814	0.00386865
2826	0.00461523
2838	0.00644775
2850	0.0101128
2862	0.0163569
2874	0.0277592
2886	0.0452021
2898	0.0401796
2910	0.0369218
2922	0.0464238
2934	0.0576225
2946	0.082056
2958	0.0874178
2970	0.127122
2982	0.113141
2994	0.0477812
3006	0.0227368
3018	0.012624
3030	0.00699071
3042	0.00671923
3054	0.00454736
3066	0.00352929
3078	0.00264697
3090	0.002104
3102	0.00278271
3114	0.00230761
3126	0.002104
3138	0.00271484
3150	0.00271484
3162	0.00291845
3174	0.00196826
3186	0.00223974
3198	0.00237549
3210	0.00108594
3222	0.00156103
3234	0.00122168
3246	0.00101807
3258	0.00203613
3270	0.00115381
3282	0.0016289
3294	0.00149316
3306	0.000950194
3318	0.00128955
3330	0.000882323
3342	0.00183252
3354	0.00135742
3366	0.00108594
3378	0.00196826
3390	0.00149316
3402	0.00196826
3414	0.00169677
3426	0.000746581
3438	0.0016289
3450	0.00108594
3462	0.00149316
3474	0.000407226
3486	0.00128955
3498	0.00237549
3510	0.000950194
3522	0.00108594
3534	0.00183252
3546	0.00183252
3558	0.00393652
3570	0.00407226
3582	0.0030542
3594	0.00196826
3606	0.00108594
3618	0.00230761
3630	0.00237549
3642	0.00169677
3654	0.0025791
3666	0.00203613
3678	0.0037329
3690	0.00325781
3702	0.00278271
3714	0.00285058
3726	0.0025791
3738	0.00447949
3750	0.00475097
3762	0.00339355
3774	0.00312207
3786	0.00298632
3798	0.004208
3810	0.00400439
3822	0.00454736
3834	0.00441161
3846	0.00339355
3858	0.0046831
3870	0.0046831
3882	0.00447949
3894	0.00393652
3906	0.00393652
3918	0.0037329
3930	0.00183252
3942	0.00237549
3954	0
3966	0.000203613
