Infrared Spectrum: Diisobutyl sulfide
Formula: C 8 H 18 S
CAS: 592-65-4
Origin: Sadtler Research Labs Under US-EPA Contract
1/CM	ABSORBANCE
450	0
462	0.0826853
474	0.105848
486	0.1118
498	0.101448
510	0.112447
522	0.133798
534	0.132892
546	0.118787
558	0.1118
570	0.093296
582	0.0830735
594	0.093296
606	0.0854027
618	0.0784152
630	0.0797092
642	0.0854027
654	0.0863085
666	0.0942017
678	0.101707
690	0.142855
702	0.129786
714	0.119434
726	0.110247
738	0.138456
750	0.143502
762	0.111153
774	0.0957545
786	0.0974367
798	0.111023
810	0.110765
822	0.105459
834	0.104165
846	0.105071
858	0.115552
870	0.12034
882	0.117882
894	0.124222
906	0.136256
918	0.158254
930	0.170676
942	0.173652
954	0.160971
966	0.146479
978	0.138973
990	0.12901
1002	0.121893
1014	0.111412
1026	0.113353
1038	0.108694
1050	0.112188
1062	0.122669
1074	0.12901
1086	0.125516
1098	0.125904
1110	0.123446
1122	0.132892
1134	0.151784
1146	0.140914
1158	0.157607
1170	0.190991
1182	0.147126
1194	0.132892
1206	0.141691
1218	0.157866
1230	0.168864
1242	0.231234
1254	0.137809
1266	0.092649
1278	0.078674
1290	0.0742745
1302	0.0772506
1314	0.0996365
1326	0.129139
1338	0.106365
1350	0.093296
1362	0.134962
1374	0.199144
1386	0.243139
1398	0.14842
1410	0.106883
1422	0.116329
1434	0.158771
1446	0.144926
1458	0.201731
1470	0.250385
1482	0.17197
1494	0.10326
1506	0.087473
1518	0.0802268
1530	0.076086
1542	0.0722041
1554	0.0729805
1566	0.0775094
1578	0.0848851
1590	0.0866967
1602	0.0850145
1614	0.0863085
1626	0.078674
1638	0.0749214
1650	0.0728511
1662	0.0714277
1674	0.0733687
1686	0.0692279
1698	0.0706513
1710	0.0685809
1722	0.0649578
1734	0.0649578
1746	0.06664
1758	0.06664
1770	0.0676752
1782	0.0667694
1794	0.0676752
1806	0.0661224
1818	0.0665106
1830	0.0665106
1842	0.0661224
1854	0.0661224
1866	0.0656048
1878	0.0662518
1890	0.0662518
1902	0.0658636
1914	0.0650872
1926	0.0648284
1938	0.0656048
1950	0.0656048
1962	0.0662518
1974	0.0661224
1986	0.065993
1998	0.0665106
2010	0.0667694
2022	0.0678046
2034	0.0680633
2046	0.0680633
2058	0.0684515
2070	0.0688397
2082	0.0689691
2094	0.0687103
2106	0.0692279
2118	0.0693573
2130	0.0696161
2142	0.0697455
2154	0.0692279
2166	0.0693573
2178	0.0696161
2190	0.0706513
2202	0.0707807
2214	0.0705219
2226	0.0706513
2238	0.0709101
2250	0.0720747
2262	0.0728511
2274	0.0737569
2286	0.075439
2298	0.0785446
2310	0.0813913
2322	0.0820383
2334	0.0839793
2346	0.0837205
2358	0.0878612
2370	0.0803562
2382	0.0791916
2394	0.078674
2406	0.0781564
2418	0.0785446
2430	0.0788034
2442	0.0795798
2454	0.0795798
2466	0.0803562
2478	0.0813913
2490	0.0828147
2502	0.0842381
2514	0.0852733
2526	0.0855321
2538	0.0868261
2550	0.0879906
2562	0.0892846
2574	0.0899316
2586	0.0909668
2598	0.0918726
2610	0.0939429
2622	0.0976955
2634	0.0988601
2646	0.0974367
2658	0.0988601
2670	0.100801
2682	0.10106
2694	0.100025
2706	0.100025
2718	0.10313
2730	0.110247
2742	0.110765
2754	0.108306
2766	0.110506
2778	0.110894
2790	0.113611
2802	0.120599
2814	0.133798
2826	0.153595
2838	0.167441
2850	0.17624
2862	0.199791
2874	0.3869
2886	0.493912
2898	0.439694
2910	0.602865
2922	0.598725
2934	0.655013
2946	0.70496
2958	0.943958
2970	1.27729
2982	0.637544
2994	0.221012
3006	0.150102
3018	0.129398
3030	0.121505
3042	0.120728
3054	0.123057
3066	0.119564
3078	0.114517
3090	0.108565
3102	0.105459
3114	0.104036
3126	0.103777
3138	0.102871
3150	0.101448
3162	0.101189
3174	0.101189
3186	0.10106
3198	0.0964015
3210	0.0914844
3222	0.0855321
3234	0.0824265
3246	0.0798386
3258	0.0784152
3270	0.0758272
3282	0.0744038
3294	0.0733687
3306	0.0740157
3318	0.0734981
3330	0.0728511
3342	0.0727217
3354	0.0723335
3366	0.0728511
3378	0.0727217
3390	0.0723335
3402	0.0719453
3414	0.0712983
3426	0.0706513
3438	0.0715571
3450	0.0709101
3462	0.0709101
3474	0.0710395
3486	0.0712983
3498	0.0719453
3510	0.0709101
3522	0.0705219
3534	0.0710395
3546	0.0719453
3558	0.0715571
3570	0.0706513
3582	0.0729805
3594	0.0714277
3606	0.0732393
3618	0.074792
3630	0.0720747
3642	0.0733687
3654	0.0701337
3666	0.0736275
3678	0.0737569
3690	0.0728511
3702	0.0731099
3714	0.0725923
3726	0.0745332
3738	0.075439
3750	0.0716865
3762	0.0745332
3774	0.0732393
3786	0.0733687
3798	0.0733687
3810	0.075439
3822	0.0745332
3834	0.0762154
3846	0.0742745
3858	0.0738863
3870	0.0768624
3882	0.0736275
3894	0.0769918
3906	0.0729805
3918	0.0738863
3930	0.0732393
3942	0.0756978
3954	0.0715571
3966	0.0741451
