Infrared Spectrum: Formic acid, butyl ester
Formula: C 5 H 10 O 2
CAS: 592-84-7
Origin: Sadtler Research Labs Under US-EPA Contract
1/CM	ABSORBANCE
450	0.0040625
462	0.001875
474	0.00328125
486	0.0078125
498	0.00265625
510	0.00664062
522	0.00773437
534	0.00367188
546	0.00414063
558	0.00210938
570	0.00484375
582	0.00640625
594	0.00804688
606	0.00851563
618	0.005
630	0.00835938
642	0.00960937
654	0.00867188
666	0.0053125
678	0.00929687
690	0.00796875
702	0.01
714	0.00921875
726	0.0123438
738	0.0167188
750	0.0175
762	0.0148438
774	0.0130469
786	0.0135156
798	0.0129688
810	0.015625
822	0.0200781
834	0.0178125
846	0.0144531
858	0.0114062
870	0.0125781
882	0.0151562
894	0.01875
906	0.0214844
918	0.028125
930	0.0297656
942	0.0239063
954	0.0192969
966	0.0160938
978	0.015
990	0.014375
1002	0.0158594
1014	0.0173438
1026	0.0180469
1038	0.0178125
1050	0.0202344
1062	0.0253906
1074	0.0270312
1086	0.0271094
1098	0.0303906
1110	0.0432813
1122	0.0663281
1134	0.107734
1146	0.229922
1158	0.489844
1170	0.758672
1182	0.683516
1194	0.324375
1206	0.114922
1218	0.0589844
1230	0.0479688
1242	0.0473438
1254	0.0429688
1266	0.0375781
1278	0.03125
1290	0.0248438
1302	0.0248438
1314	0.0226562
1326	0.0174219
1338	0.0144531
1350	0.0139844
1362	0.0149219
1374	0.0209375
1386	0.0240625
1398	0.0175
1410	0.0114844
1422	0.0102344
1434	0.0153125
1446	0.0253125
1458	0.0344531
1470	0.0457813
1482	0.0354688
1494	0.0182812
1506	0.00648438
1518	0.005625
1530	0.00601563
1542	0.00164062
1554	0.00460937
1566	0.00507813
1578	0.00328125
1590	0.00546875
1602	0.00492188
1614	0.00515625
1626	0.00414063
1638	0.00367188
1650	0.00445313
1662	0.00648438
1674	0.00742188
1686	0.0100781
1698	0.0220312
1710	0.05125
1722	0.114219
1734	0.276094
1746	0.708359
1758	0.648516
1770	0.175859
1782	0.0776562
1794	0.0465625
1806	0.0163281
1818	0.00828125
1830	0.0046875
1842	0.00460937
1854	0.00429688
1866	0.00375
1878	0.00367188
1890	0.00398438
1902	0.00421875
1914	0.0046875
1926	0.00421875
1938	0.00429688
1950	0.00398438
1962	0.0040625
1974	0.00492188
1986	0.005
1998	0.00515625
2010	0.00429688
2022	0.004375
2034	0.004375
2046	0.00476562
2058	0.00476562
2070	0.00515625
2082	0.00523438
2094	0.00515625
2106	0.00492188
2118	0.00445313
2130	0.00359375
2142	0.00304688
2154	0.00273438
2166	0.00226562
2178	0.0025
2190	0.00242187
2202	0.00242187
2214	0.00210938
2226	0.001875
2238	0.00179688
2250	0.00226562
2262	0.0021875
2274	0.00257813
2286	0.003125
2298	0.00367188
2310	0.00617188
2322	0.00757812
2334	0.0084375
2346	0.00898438
2358	0.00804688
2370	0.005625
2382	0.00351563
2394	0.00179688
2406	0.001875
2418	0.001875
2430	0.00179688
2442	0.00125
2454	0.00125
2466	0.000703125
2478	0.000625
2490	0.00117187
2502	0.00109375
2514	0.00117187
2526	0.00132813
2538	0.00117187
2550	0.00117187
2562	0.00117187
2574	0.00132813
2586	0.0015625
2598	0.00171875
2610	0.00179688
2622	0.001875
2634	0.00148438
2646	0.001875
2658	0.00210938
2670	0.00242187
2682	0.00289062
2694	0.00351563
2706	0.00390625
2718	0.00632813
2730	0.006875
2742	0.00640625
2754	0.0059375
2766	0.00601563
2778	0.00507813
2790	0.00554687
2802	0.00617188
2814	0.0078125
2826	0.0108594
2838	0.0154687
2850	0.0253906
2862	0.0410156
2874	0.0689063
2886	0.104219
2898	0.116016
2910	0.138828
2922	0.1975
2934	0.223203
2946	0.207031
2958	0.208125
2970	0.247734
2982	0.205937
2994	0.0944531
3006	0.0396094
3018	0.0192187
3030	0.0119531
3042	0.00992188
3054	0.00789063
3066	0.00625
3078	0.00515625
3090	0.00492188
3102	0.0053125
3114	0.00695313
3126	0.00648438
3138	0.00367188
3150	0.00273438
3162	0.00296875
3174	0.00265625
3186	0.00304688
3198	0.003125
3210	0.00265625
3222	0.00164062
3234	0.00164062
3246	0.00179688
3258	0.0015625
3270	0.0015625
3282	0.00109375
3294	0.00117187
3306	0.00140625
3318	0.00117187
3330	0.00171875
3342	0.00140625
3354	0.0015625
3366	0.001875
3378	0.00171875
3390	0.00125
3402	0.0009375
3414	0.0009375
3426	0.00132813
3438	0.00179688
3450	0.00265625
3462	0.00429688
3474	0.00765625
3486	0.00898438
3498	0.00382812
3510	0.00132813
3522	0.00148438
3534	0.00140625
3546	0.0009375
3558	0.00203125
3570	0.00101563
3582	0.00140625
3594	0.0015625
3606	0.00148438
3618	0.00117187
3630	0.000546875
3642	0.00203125
3654	0.00164062
3666	0.00359375
3678	0.00109375
3690	0.00117187
3702	0.00125
3714	0.00125
3726	0.0015625
3738	0.00015625
3750	0.00015625
3762	0.00226562
3774	0.00242187
3786	0.00203125
3798	0.00140625
3810	0.00132813
3822	0.00140625
3834	0.00140625
3846	0.00195312
3858	0.00140625
3870	0.00140625
3882	0.00140625
3894	0.001875
3906	0.00148438
3918	0.00195312
3930	0.00148438
3942	0.00195312
3954	0
3966	0.00015625
