Infrared Spectrum: 1-Propene, 3,3'-thiobis-
Formula: C 6 H 10 S
CAS: 592-88-1
Origin: Sadtler Research Labs Under US-EPA Contract
1/CM	ABSORBANCE
450	0
462	0.00559776
474	0.0131163
486	0.00340256
498	0.0134456
510	0.0180555
522	0.017397
534	0.035672
546	0.0331475
558	0.0282083
570	0.0378123
582	0.0588314
594	0.0725514
606	0.0535629
618	0.0240923
630	0.0167933
642	0.0161896
654	0.0144334
666	0.0136102
678	0.0136102
690	0.0131163
702	0.015531
714	0.0237082
726	0.040721
738	0.0624534
750	0.10504
762	0.097412
774	0.0438491
786	0.0238179
798	0.0184946
810	0.0210739
822	0.0289766
834	0.030623
846	0.0308974
858	0.033861
870	0.0468675
882	0.0686549
894	0.106961
906	0.319127
918	0.5488
930	0.302169
942	0.113327
954	0.0779296
966	0.085064
978	0.17397
990	0.252832
1002	0.143017
1014	0.059929
1026	0.0389099
1038	0.0304584
1050	0.0282632
1062	0.0327634
1074	0.0431906
1086	0.0403368
1098	0.0277693
1110	0.0186592
1122	0.0167933
1134	0.015531
1146	0.016464
1158	0.0194275
1170	0.0225557
1182	0.0279888
1194	0.0389099
1206	0.067228
1218	0.161676
1230	0.198666
1242	0.0979608
1254	0.0467578
1266	0.0316658
1278	0.0264522
1290	0.0285925
1302	0.0290864
1314	0.0225557
1326	0.0193726
1338	0.0176714
1350	0.0175616
1362	0.0188787
1374	0.0216776
1386	0.0305682
1398	0.0602582
1410	0.0945034
1422	0.122053
1434	0.122876
1446	0.0626181
1458	0.028373
1470	0.0197568
1482	0.017397
1494	0.017397
1506	0.0175067
1518	0.0155859
1530	0.0138298
1542	0.0128419
1554	0.0128968
1566	0.0157506
1578	0.0164091
1590	0.0167933
1602	0.0183848
1614	0.0314462
1626	0.086436
1638	0.167604
1650	0.117718
1662	0.0271107
1674	0.0155859
1686	0.0126224
1698	0.0125675
1710	0.0151469
1722	0.0161347
1734	0.0172323
1746	0.0149274
1758	0.011909
1770	0.0101528
1782	0.0105918
1794	0.0112504
1806	0.0136651
1818	0.0222813
1830	0.0500506
1842	0.0615754
1854	0.0340805
1866	0.0161347
1878	0.0119638
1890	0.0113602
1902	0.0107016
1914	0.010537
1926	0.010537
1938	0.0098784
1950	0.0121285
1962	0.0137749
1974	0.0138846
1986	0.0110309
1998	0.0098784
2010	0.00927472
2022	0.00839664
2034	0.00691488
2046	0.00686
2058	0.0079576
2070	0.00625632
2082	0.00806736
2094	0.0103723
2106	0.00911008
2118	0.00894544
2130	0.00927472
2142	0.00889056
2154	0.00927472
2166	0.00982352
2178	0.00867104
2190	0.0090552
2202	0.00861616
2214	0.0085064
2226	0.00872592
2238	0.00861616
2250	0.008232
2262	0.00861616
2274	0.00828688
2286	0.00889056
2298	0.0111955
2310	0.0127322
2322	0.0137749
2334	0.0100979
2346	0.00543312
2358	0.0141042
2370	0.00323792
2382	0.00318304
2394	0.00702464
2406	0.00724416
2418	0.00735392
2430	0.00675024
2442	0.00653072
2454	0.00609168
2466	0.00587216
2478	0.00515872
2490	0.00526848
2502	0.00532336
2514	0.00460992
2526	0.0043904
2538	0.00406112
2550	0.00455504
2562	0.00400624
2574	0.00400624
2586	0.00362208
2598	0.00406112
2610	0.00537824
2622	0.00724416
2634	0.00751856
2646	0.0093296
2658	0.0117992
2670	0.00872592
2682	0.00581728
2694	0.00482944
2706	0.00504896
2718	0.00499408
2730	0.00428064
2742	0.00477456
2754	0.00455504
2766	0.00504896
2778	0.00625632
2790	0.00839664
2802	0.0133907
2814	0.0203605
2826	0.0260131
2838	0.0263973
2850	0.0299645
2862	0.0289766
2874	0.0287571
2886	0.0358366
2898	0.064045
2910	0.141371
2922	0.216008
2934	0.155749
2946	0.111955
2958	0.0944485
2970	0.0846798
2982	0.117663
2994	0.124852
3006	0.0981803
3018	0.108827
3030	0.072716
3042	0.0454955
3054	0.0563069
3066	0.0760637
3078	0.134566
3090	0.237576
3102	0.162335
3114	0.038416
3126	0.0188238
3138	0.0152018
3150	0.0128419
3162	0.00982352
3174	0.00993328
3186	0.00801248
3198	0.00828688
3210	0.00806736
3222	0.00686
3234	0.00686
3246	0.00581728
3258	0.00620144
3270	0.00751856
3282	0.00609168
3294	0.00537824
3306	0.0057624
3318	0.00455504
3330	0.00504896
3342	0.00532336
3354	0.00460992
3366	0.00537824
3378	0.00620144
3390	0.00729904
3402	0.00406112
3414	0.00499408
3426	0.00471968
3438	0.00422576
3450	0.00565264
3462	0.00455504
3474	0.00702464
3486	0.00664048
3498	0.00812224
3510	0.00762832
3522	0.00647584
3534	0.00598192
3546	0.00669536
3558	0.00702464
3570	0.0060368
3582	0.00718928
3594	0.0071344
3606	0.00828688
3618	0.00993328
3630	0.00921984
3642	0.0079576
3654	0.00691488
3666	0.00976864
3678	0.00817712
3690	0.00998816
3702	0.00971376
3714	0.00828688
3726	0.0106467
3738	0.00784784
3750	0.00625632
3762	0.00806736
3774	0.00839664
3786	0.0124578
3798	0.00911008
3810	0.00757344
3822	0.00707952
3834	0.0101528
3846	0.0110858
3858	0.00625632
3870	0.00828688
3882	0.0074088
3894	0.0102077
3906	0.0108114
3918	0.0114699
3930	0.0130066
3942	0.0131712
3954	0.00762832
3966	0.0121285
