Infrared Spectrum: 1-Heptene
Formula: C 7 H 14
CAS: 592-76-7
Origin: Sadtler Research Labs Under US-EPA Contract
1/CM	ABSORBANCE
450	0.0245969
462	0.00834155
474	0.0124054
486	0.0076999
498	0.00588187
510	0.00780684
522	0.00566798
534	0.0076999
546	0.00534715
558	0.0099457
570	0.0110151
582	0.0128332
594	0.00909015
606	0.0164692
618	0.0274844
630	0.0429911
642	0.0371092
654	0.0229927
666	0.0173248
678	0.0156137
690	0.0162553
702	0.0160414
714	0.0223511
726	0.0272705
738	0.0290885
750	0.022565
762	0.0185011
774	0.0185011
786	0.0132609
798	0.00887627
810	0.00962487
822	0.0118707
834	0.0128332
846	0.0201053
858	0.0241691
870	0.028233
882	0.0387134
894	0.0762504
906	0.179771
918	0.21934
930	0.106729
942	0.0537923
954	0.0453438
966	0.050584
978	0.058177
990	0.0989223
1002	0.0962487
1014	0.0548618
1026	0.0370023
1038	0.0339009
1050	0.0328315
1062	0.0276982
1074	0.0255594
1086	0.0249177
1098	0.0264149
1110	0.0266288
1122	0.0252385
1134	0.0270566
1146	0.031869
1158	0.0340079
1170	0.0341148
1182	0.0256663
1194	0.0186081
1206	0.0185011
1218	0.0191428
1230	0.0196775
1242	0.0199983
1254	0.0197845
1266	0.0207469
1278	0.0235275
1290	0.0264149
1302	0.0272705
1314	0.0267357
1326	0.0291954
1338	0.035612
1350	0.0365745
1362	0.0368953
1374	0.0464133
1386	0.0531507
1398	0.0389273
1410	0.0343287
1422	0.0413869
1434	0.0598881
1446	0.0965695
1458	0.123626
1470	0.108333
1482	0.0605297
1494	0.0269496
1506	0.0133679
1518	0.00983876
1530	0.00876933
1542	0.00866238
1554	0.00812767
1566	0.00513326
1578	0.00727212
1590	0.00716518
1602	0.0091971
1614	0.0160414
1626	0.0312274
1638	0.0899391
1650	0.0866238
1662	0.0235275
1674	0.00983876
1686	0.00898321
1698	0.00898321
1710	0.0167901
1722	0.0186081
1734	0.0160414
1746	0.0222441
1758	0.0207469
1770	0.0156137
1782	0.0127262
1794	0.00823461
1806	0.00759295
1818	0.0144373
1830	0.0209608
1842	0.0124054
1854	0.00384995
1866	0.00128332
1878	0.000748601
1890	0.000641658
1902	0.000641658
1914	0.000534715
1926	0.000213886
1938	0
1950	0
1962	0.000534715
1974	0.00171109
1986	0.00235275
1998	0.00192497
2010	0.00181803
2022	0.00192497
2034	0.00267358
2046	0.00267358
2058	0.0029944
2070	0.00128332
2082	0.00139026
2094	0.0022458
2106	0.00106943
2118	0.00117637
2130	0.00171109
2142	0.00128332
2154	0.00235275
2166	0.0022458
2178	0.00203192
2190	0.00235275
2202	0.0022458
2214	0.00267358
2226	0.00331523
2238	0.00278052
2250	0.00288746
2262	0.00352912
2274	0.00363606
2286	0.00310135
2298	0.00245969
2310	0.000748601
2322	0.000213886
2334	0.00256663
2346	0.00855544
2358	0.000320829
2370	0.0141165
2382	0.011336
2394	0.00641658
2406	0.00620269
2418	0.00556104
2430	0.00609575
2442	0.00641658
2454	0.00598881
2466	0.00620269
2478	0.00673741
2490	0.00716518
2502	0.00716518
2514	0.00791378
2526	0.00834155
2538	0.00898321
2550	0.00973181
2562	0.00962487
2574	0.0106943
2586	0.0119776
2598	0.0126193
2610	0.013154
2622	0.0128332
2634	0.0144373
2646	0.0146512
2658	0.0170039
2670	0.0185011
2682	0.0177525
2694	0.0185011
2706	0.018822
2718	0.0203192
2730	0.022565
2742	0.0258802
2754	0.0256663
2766	0.0253455
2778	0.0278052
2790	0.0346495
2802	0.0435258
2814	0.0528298
2826	0.0701546
2838	0.112932
2850	0.21303
2862	0.358366
2874	0.427558
2886	0.400288
2898	0.344356
2910	0.457181
2922	0.769776
2934	1.05446
2946	0.931794
2958	0.691921
2970	0.725608
2982	0.487553
2994	0.241263
3006	0.163088
3018	0.118279
3030	0.0797795
3042	0.0625617
3054	0.0589256
3066	0.0757156
3078	0.122878
3090	0.149079
3102	0.075074
3114	0.0325107
3126	0.0226719
3138	0.0179664
3150	0.0166831
3162	0.0162553
3174	0.0153998
3186	0.0133679
3198	0.0116568
3210	0.0110151
3222	0.00898321
3234	0.00737907
3246	0.00641658
3258	0.00588187
3270	0.00652352
3282	0.00502632
3294	0.00481243
3306	0.00598881
3318	0.00438466
3330	0.00470549
3342	0.00406383
3354	0.00427772
3366	0.00384995
3378	0.00438466
3390	0.00342218
3402	0.00310135
3414	0.00310135
3426	0.00320829
3438	0.0029944
3450	0.00245969
3462	0.00267358
3474	0.00235275
3486	0.00288746
3498	0.000748601
3510	0.00245969
3522	0.0022458
3534	0.00267358
3546	0.000855544
3558	0.00192497
3570	0.00641658
3582	0.00673741
3594	0.00502632
3606	0.00459855
3618	0.00556104
3630	0.00791378
3642	0.00630964
3654	0.00620269
3666	0.00481243
3678	0.00737907
3690	0.00652352
3702	0.00684435
3714	0.00705824
3726	0.00695129
3738	0.00780684
3750	0.00577492
3762	0.00534715
3774	0.00705824
3786	0.00620269
3798	0.00470549
3810	0.00705824
3822	0.00748601
3834	0.00620269
3846	0.00556104
3858	0.011229
3870	0.00812767
3882	0.00534715
3894	0.00513326
3906	0.00620269
3918	0.00534715
3930	0.00524021
3942	0.0029944
3954	0.00256663
3966	0.00791378
