Infrared Spectrum: Octadecane
Formula: C 18 H 38
CAS: 593-45-3
Origin: Sadtler Research Labs Under US-EPA Contract
1/CM	ABSORBANCE
450	0.0132451
462	0.011328
474	0.00923668
486	0.00592542
498	0.00888813
510	0.00540259
522	0.00749391
534	0.00592542
546	0.0067968
558	0.00766819
570	0.00749391
582	0.00609969
594	0.0101081
606	0.00714536
618	0.00853957
630	0.00853957
642	0.00766819
654	0.00923668
666	0.00958523
678	0.0083653
690	0.0116766
702	0.0169049
714	0.0275358
726	0.0285814
738	0.0216103
750	0.0172534
762	0.0139422
774	0.0118508
786	0.00993379
798	0.00853957
810	0.00958523
822	0.00766819
834	0.00697108
846	0.00766819
858	0.00766819
870	0.00766819
882	0.00766819
894	0.00871385
906	0.00784246
918	0.00784246
930	0.00714536
942	0.00697108
954	0.00731963
966	0.0067968
978	0.00609969
990	0.00627397
1002	0.00662253
1014	0.00801674
1026	0.00958523
1038	0.0108052
1050	0.0101081
1062	0.00975951
1074	0.00975951
1086	0.00975951
1098	0.00975951
1110	0.00888813
1122	0.00801674
1134	0.00766819
1146	0.00714536
1158	0.00749391
1170	0.00731963
1182	0.00766819
1194	0.00801674
1206	0.00784246
1218	0.0083653
1230	0.00923668
1242	0.0102823
1254	0.0132451
1266	0.0162078
1278	0.0174277
1290	0.0210875
1302	0.0261415
1314	0.0252702
1326	0.022656
1338	0.0298014
1350	0.0442664
1362	0.042175
1374	0.0332869
1386	0.0338097
1398	0.019519
1410	0.0158592
1422	0.0198676
1434	0.0285814
1446	0.064831
1458	0.113803
1470	0.109097
1482	0.043395
1494	0.0193447
1506	0.0130708
1518	0.0090624
1530	0.00505403
1542	0.0067968
1554	0.00278843
1566	0.00418265
1578	0.00313699
1590	0.00418265
1602	0.00383409
1614	0.00313699
1626	0.00400837
1638	0.00261415
1650	0.00383409
1662	0.00174277
1674	0.00418265
1686	0.00174277
1698	0.00296271
1710	0.00365982
1722	0.00540259
1734	0.0045312
1746	0.00400837
1758	0.00348554
1770	0.00278843
1782	0.00174277
1794	0.0022656
1806	0.00156849
1818	0.00121994
1830	0.00174277
1842	0
1854	0.00121994
1866	0.000522831
1878	0.000174277
1890	0.000871385
1902	0.000697108
1914	0.000348554
1926	0.000522831
1938	0.000697108
1950	0.000348554
1962	0.000697108
1974	0.000522831
1986	0.000871385
1998	0.00104566
2010	0.00139422
2022	0.00191705
2034	0.0022656
2046	0.0022656
2058	0.00209132
2070	0.00156849
2082	0.00139422
2094	0.00156849
2106	0.00104566
2118	0.00139422
2130	0.00139422
2142	0.00121994
2154	0.00156849
2166	0.00209132
2178	0.00174277
2190	0.00139422
2202	0.00156849
2214	0.00139422
2226	0.00139422
2238	0.00139422
2250	0.00121994
2262	0.00191705
2274	0.00174277
2286	0.0022656
2298	0.00383409
2310	0.00400837
2322	0.00296271
2334	0.00383409
2346	0.00261415
2358	0.00313699
2370	0.0045312
2382	0.0045312
2394	0.00243988
2406	0.00243988
2418	0.00243988
2430	0.00209132
2442	0.00191705
2454	0.00191705
2466	0.00191705
2478	0.00191705
2490	0.00261415
2502	0.00296271
2514	0.00313699
2526	0.00383409
2538	0.00435693
2550	0.0045312
2562	0.00522831
2574	0.00557686
2586	0.00662253
2598	0.00801674
2610	0.0083653
2622	0.00923668
2634	0.0108052
2646	0.0118508
2658	0.0135936
2670	0.0156849
2682	0.016382
2694	0.0160335
2706	0.0148135
2718	0.0149878
2730	0.0162078
2742	0.0182991
2754	0.0188219
2766	0.0202161
2778	0.0233531
2790	0.0299756
2802	0.0392123
2814	0.0514117
2826	0.071105
2838	0.10962
2850	0.24817
2862	0.664344
2874	0.484839
2886	0.34838
2898	0.34228
2910	0.551064
2922	1.04305
2934	1.74277
2946	1.0068
2958	0.519868
2970	0.501569
2982	0.220809
2994	0.107529
3006	0.0676195
3018	0.0479262
3030	0.0360753
3042	0.0278843
3054	0.0219589
3066	0.0179505
3078	0.0162078
3090	0.0139422
3102	0.0127222
3114	0.0109795
3126	0.00975951
3138	0.0090624
3150	0.00853957
3162	0.00819102
3174	0.00714536
3186	0.00662253
3198	0.00627397
3210	0.00522831
3222	0.00400837
3234	0.00365982
3246	0.00348554
3258	0.00331126
3270	0.00331126
3282	0.00313699
3294	0.00261415
3306	0.00331126
3318	0.00296271
3330	0.00348554
3342	0.00365982
3354	0.00365982
3366	0.00348554
3378	0.00331126
3390	0.00348554
3402	0.00331126
3414	0.00331126
3426	0.00261415
3438	0.00261415
3450	0.00313699
3462	0.00174277
3474	0.00209132
3486	0.00261415
3498	0.0022656
3510	0.00174277
3522	0.00261415
3534	0.00104566
3546	0.0022656
3558	0.00313699
3570	0.00383409
3582	0.00278843
3594	0.00505403
3606	0.00278843
3618	0.00592542
3630	0.0067968
3642	0.0045312
3654	0.00644825
3666	0.000871385
3678	0.00941096
3690	0.00557686
3702	0.0045312
3714	0.00557686
3726	0.00365982
3738	0.00592542
3750	0.00313699
3762	0.00348554
3774	0.00400837
3786	0.00313699
3798	0.00400837
3810	0.00156849
3822	0.00540259
3834	0.00400837
3846	0.00487976
3858	0.00714536
3870	0.00557686
3882	0.00348554
3894	0.00540259
3906	0.00487976
3918	0.00505403
3930	0.00557686
3942	0.00400837
3954	0.00470548
3966	0.00487976
