Infrared Spectrum: Stannane, tetramethyl-
Formula: C 4 H 12 Sn
CAS: 594-27-4
Origin: Sadtler Research Labs Under US-EPA Contract
1/CM	ABSORBANCE
450	0
462	0.00392929
474	0.00584356
486	0.00866459
498	0.0320388
510	0.290163
522	0.710194
534	0.592013
546	0.110725
558	0.00685107
570	0.00755633
582	0.00916834
594	0.00957135
606	0.0136014
618	0.0203517
630	0.0256915
642	0.0345576
654	0.0401996
666	0.0415094
678	0.052592
690	0.0631709
702	0.072037
714	0.102061
726	0.167448
738	0.262557
750	0.397362
762	0.594632
774	0.693469
786	0.534081
798	0.374391
810	0.287946
822	0.223566
834	0.14619
846	0.0973255
858	0.0564206
870	0.0343561
882	0.020654
894	0.0126946
906	0.0106796
918	0.00846308
930	0.00695182
942	0.00614581
954	0.00523905
966	0.0049368
978	0.0049368
990	0.00443304
1002	0.0051383
1014	0.00634731
1026	0.00806008
1038	0.00795933
1050	0.00654881
1062	0.00695182
1074	0.00584356
1086	0.00362704
1098	0.00352629
1110	0.00382854
1122	0.00322403
1134	0.00433229
1146	0.00463455
1158	0.00433229
1170	0.0096721
1182	0.0348598
1194	0.0575288
1206	0.0548085
1218	0.0240795
1230	0.00725407
1242	0.00544055
1254	0.00785858
1266	0.00745557
1278	0.00826158
1290	0.0100751
1302	0.0105789
1314	0.0114856
1326	0.0132991
1338	0.0146089
1350	0.0183367
1362	0.0174299
1374	0.0139036
1386	0.0148104
1398	0.0162209
1410	0.0182359
1422	0.0231727
1434	0.0303261
1446	0.0360689
1458	0.0342553
1470	0.0270013
1482	0.0204525
1494	0.0161202
1506	0.0139036
1518	0.0121909
1530	0.0116871
1542	0.0109819
1554	0.00947059
1566	0.00785858
1578	0.00705257
1590	0.00644806
1602	0.00564206
1614	0.00544055
1626	0.0047353
1638	0.0049368
1650	0.00483605
1662	0.00503755
1674	0.00664957
1686	0.0137021
1698	0.0232735
1710	0.0290163
1722	0.0300238
1734	0.0229712
1746	0.0112841
1758	0.00483605
1770	0.00443304
1782	0.0045338
1794	0.00463455
1806	0.00423154
1818	0.0045338
1830	0.0051383
1842	0.00544055
1854	0.00594431
1866	0.00584356
1878	0.00544055
1890	0.00503755
1902	0.00483605
1914	0.00483605
1926	0.00523905
1938	0.00584356
1950	0.00644806
1962	0.00755633
1974	0.00775783
1986	0.00735482
1998	0.00644806
2010	0.00594431
2022	0.00574281
2034	0.00584356
2046	0.0055413
2058	0.00564206
2070	0.00574281
2082	0.00574281
2094	0.00594431
2106	0.00584356
2118	0.00584356
2130	0.00604506
2142	0.00594431
2154	0.00574281
2166	0.00584356
2178	0.00594431
2190	0.00604506
2202	0.00614581
2214	0.00644806
2226	0.00664957
2238	0.00644806
2250	0.00654881
2262	0.00604506
2274	0.00594431
2286	0.00594431
2298	0.00685107
2310	0.00816083
2322	0.00947059
2334	0.0106796
2346	0.0112841
2358	0.0155157
2370	0.02549
2382	0.0379831
2394	0.0247847
2406	0.00926909
2418	0.0055413
2430	0.00392929
2442	0.00352629
2454	0.00372779
2466	0.00392929
2478	0.00382854
2490	0.00362704
2502	0.00352629
2514	0.00372779
2526	0.00382854
2538	0.00342553
2550	0.00372779
2562	0.00382854
2574	0.00362704
2586	0.00423154
2598	0.00392929
2610	0.00423154
2622	0.00433229
2634	0.00423154
2646	0.00413079
2658	0.00463455
2670	0.0047353
2682	0.00433229
2694	0.0047353
2706	0.00483605
2718	0.00564206
2730	0.00675032
2742	0.00836233
2754	0.0100751
2766	0.0136014
2778	0.0184374
2790	0.0247847
2802	0.02952
2814	0.0330463
2826	0.0388899
2838	0.0507785
2850	0.0651859
2862	0.0840263
2874	0.111733
2886	0.153645
2898	0.23203
2910	0.328751
2922	0.3756
2934	0.305981
2946	0.176717
2958	0.117879
2970	0.221249
2982	0.381645
2994	0.317063
3006	0.147802
3018	0.0862429
3030	0.102565
3042	0.133092
3054	0.136014
3066	0.107199
3078	0.0856384
3090	0.0500732
3102	0.0368749
3114	0.0313336
3126	0.0260945
3138	0.0207547
3150	0.0111834
3162	0.00785858
3174	0.00715332
3186	0.00685107
3198	0.00675032
3210	0.00594431
3222	0.0055413
3234	0.0047353
3246	0.0045338
3258	0.00413079
3270	0.00372779
3282	0.00342553
3294	0.00332478
3306	0.00382854
3318	0.00382854
3330	0.00413079
3342	0.00423154
3354	0.00423154
3366	0.00413079
3378	0.00423154
3390	0.00443304
3402	0.00463455
3414	0.00483605
3426	0.0055413
3438	0.00604506
3450	0.00584356
3462	0.00574281
3474	0.0051383
3486	0.00544055
3498	0.00574281
3510	0.00675032
3522	0.00735482
3534	0.00886609
3546	0.0100751
3558	0.0098736
3570	0.00977285
3582	0.0100751
3594	0.0111834
3606	0.0106796
3618	0.0100751
3630	0.0110826
3642	0.0113849
3654	0.0129969
3666	0.0140044
3678	0.0153142
3690	0.0137021
3702	0.0125939
3714	0.0112841
3726	0.0106796
3738	0.0098736
3750	0.00906759
3762	0.00846308
3774	0.00715332
3786	0.00675032
3798	0.00695182
3810	0.00624656
3822	0.00624656
3834	0.00604506
3846	0.00604506
3858	0.0055413
3870	0.00503755
3882	0.00574281
3894	0.00584356
3906	0.00443304
3918	0.0049368
3930	0.00483605
3942	0.00523905
3954	0.00544055
3966	0.0051383
