Infrared Spectrum: Propane, 2-methyl-2-nitro-
Formula: C 4 H 9 N O 2
CAS: 594-70-7
Origin: Sadtler Research Labs Under US-EPA Contract
1/CM	ABSORBANCE
450	0.00031726
462	0.0047589
474	0.00777287
486	0.0103109
498	0.0180838
510	0.0280775
522	0.0302983
534	0.0333123
546	0.0322019
558	0.0715421
570	0.0912122
582	0.0545687
594	0.0153871
606	0.00571068
618	0.00571068
630	0.00380712
642	0.00444164
654	0.00444164
666	0.00364849
678	0.00380712
690	0.00507616
702	0.0047589
714	0.00333123
726	0.0079315
738	0.0111041
750	0.0120559
762	0.0111041
774	0.00840739
786	0.0222082
798	0.0444164
810	0.039023
822	0.0182425
834	0.0215737
846	0.0916881
858	0.170527
870	0.137056
882	0.031726
894	0.00840739
906	0.00872465
918	0.0155457
930	0.020146
942	0.0193529
954	0.01158
966	0.00539342
978	0.00444164
990	0.00428301
1002	0.00491753
1014	0.00682109
1026	0.0109455
1038	0.0130077
1050	0.00999369
1062	0.00777287
1074	0.00650383
1086	0.00682109
1098	0.00697972
1110	0.00745561
1122	0.0114214
1134	0.0150698
1146	0.0210978
1158	0.0328364
1170	0.0629761
1182	0.127539
1194	0.20495
1206	0.207171
1218	0.123414
1230	0.137215
1242	0.218909
1254	0.211612
1266	0.0966057
1278	0.0471131
1290	0.0434646
1302	0.0471131
1314	0.0369608
1326	0.100413
1338	0.305045
1350	0.469228
1362	0.486518
1374	0.504443
1386	0.384043
1398	0.259836
1410	0.240642
1422	0.177348
1434	0.0826462
1446	0.136739
1458	0.200826
1470	0.248732
1482	0.28252
1494	0.254443
1506	0.19448
1518	0.242069
1530	0.541721
1542	1.21098
1554	1.52554
1566	1.57995
1578	0.946387
1590	0.331061
1602	0.0770942
1614	0.0261739
1626	0.02316
1638	0.0225255
1650	0.0193529
1662	0.0139594
1674	0.0109455
1686	0.00856602
1698	0.00872465
1710	0.00761424
1722	0.00729698
1734	0.00745561
1746	0.00697972
1758	0.00602794
1770	0.00602794
1782	0.00491753
1794	0.00444164
1806	0.00428301
1818	0.00348986
1830	0.00364849
1842	0.00428301
1854	0.00460027
1866	0.00523479
1878	0.00428301
1890	0.00333123
1902	0.00348986
1914	0.00301397
1926	0.0031726
1938	0.00269671
1950	0.00237945
1962	0.00253808
1974	0.00237945
1986	0.00206219
1998	0.00111041
2010	0.00142767
2022	0.00111041
2034	0.00111041
2046	0.00206219
2058	0.0015863
2070	0.00047589
2082	0.00111041
2094	0.0015863
2106	0.00111041
2118	0.00079315
2130	0.00095178
2142	0.00095178
2154	0.00206219
2166	0.00412438
2178	0.0047589
2190	0.00269671
2202	0.00126904
2214	0.00079315
2226	0.00047589
2238	0.00079315
2250	0.00079315
2262	0.00095178
2274	0.00111041
2286	0.00174493
2298	0.00364849
2310	0.00507616
2322	0.00428301
2334	0.00301397
2346	0.00285534
2358	0.00253808
2370	0.00571068
2382	0.00602794
2394	0.00682109
2406	0.00840739
2418	0.00761424
2430	0.00602794
2442	0.00269671
2454	0.00174493
2466	0.0015863
2478	0.00206219
2490	0.00174493
2502	0.00111041
2514	0.00174493
2526	0.00111041
2538	0.00142767
2550	0.00206219
2562	0.00269671
2574	0.0031726
2586	0.00380712
2598	0.00491753
2610	0.00507616
2622	0.00586931
2634	0.00602794
2646	0.00523479
2658	0.00666246
2670	0.0104696
2682	0.0150698
2694	0.0153871
2706	0.0106282
2718	0.00824876
2730	0.00983506
2742	0.0104696
2754	0.0103109
2766	0.00904191
2778	0.0103109
2790	0.0122145
2802	0.0144353
2814	0.0157044
2826	0.0169734
2838	0.020146
2850	0.0290293
2862	0.0510789
2874	0.0954953
2886	0.13087
2898	0.14007
2910	0.154188
2922	0.165292
2934	0.219703
2946	0.266657
2958	0.270464
2970	0.293783
2982	0.43306
2994	0.586931
3006	0.510471
3018	0.224779
3030	0.0658314
3042	0.0182425
3054	0.0095178
3066	0.00650383
3078	0.00697972
3090	0.00555205
3102	0.00571068
3114	0.00650383
3126	0.00555205
3138	0.00586931
3150	0.00555205
3162	0.00713835
3174	0.00856602
3186	0.00888328
3198	0.00967643
3210	0.00824876
3222	0.00872465
3234	0.0106282
3246	0.00840739
3258	0.00650383
3270	0.0047589
3282	0.0047589
3294	0.00348986
3306	0.00380712
3318	0.00333123
3330	0.00237945
3342	0.00222082
3354	0.00364849
3366	0.00396575
3378	0.00491753
3390	0.00301397
3402	0.00285534
3414	0.00301397
3426	0.0015863
3438	0.00063452
3450	0.00174493
3462	0.00111041
3474	0.00174493
3486	0.00285534
3498	0.00126904
3510	0.0015863
3522	0.00222082
3534	0.00142767
3546	0.00269671
3558	0.00142767
3570	0.00222082
3582	0.00285534
3594	0.00174493
3606	0.0015863
3618	0.00253808
3630	0.00206219
3642	0.00174493
3654	0.00222082
3666	0.0015863
3678	0.0015863
3690	0.00253808
3702	0.00348986
3714	0.00301397
3726	0.00301397
3738	0.00301397
3750	0.00333123
3762	0.0047589
3774	0.00507616
3786	0.0015863
3798	0.00031726
3810	0.00301397
3822	0.00237945
3834	0.00428301
3846	0.0031726
3858	0.00269671
3870	0.00269671
3882	0.00444164
3894	0.00555205
3906	0.0047589
3918	0.00285534
3930	0.00761424
3942	0.00348986
3954	0.00333123
3966	0.00571068
