Infrared Spectrum: Ethane, 1,1-dichloro-1-nitro-
Formula: C 2 H 3 Cl 2 N O 2
CAS: 594-72-9
Origin: Sadtler Research Labs Under US-EPA Contract
1/CM	ABSORBANCE
450	0.000277149
462	0.00535821
474	0.00415723
486	0.0125641
498	0.00942307
510	0.0194928
522	0.0297473
534	0.0292854
546	0.0265139
558	0.0194004
570	0.0156127
582	0.0037877
594	0.00618966
606	0.0120098
618	0.0117326
630	0.0192157
642	0.0346436
654	0.0679015
666	0.135249
678	0.204536
690	0.253037
702	0.156774
714	0.0618042
726	0.0348284
738	0.0225415
750	0.0152432
762	0.0148737
774	0.0232805
786	0.0616195
798	0.237424
810	0.373966
822	0.245092
834	0.127211
846	0.166844
858	0.12056
870	0.0324264
882	0.0131184
894	0.0081297
906	0.00582013
918	0.00655919
930	0.00674396
942	0.00683634
954	0.00877638
966	0.00748302
978	0.00480392
990	0.004342
1002	0.00739064
1014	0.00933068
1026	0.00933068
1038	0.00840685
1050	0.0139498
1062	0.0322417
1074	0.0870248
1086	0.277796
1098	0.557716
1110	0.386253
1122	0.190401
1134	0.100697
1146	0.0596794
1158	0.0369532
1170	0.029193
1182	0.0235577
1194	0.0145041
1206	0.0119174
1218	0.00997736
1230	0.00942307
1242	0.0129336
1254	0.0139498
1266	0.0150584
1278	0.0163518
1290	0.0301169
1302	0.0987574
1314	0.270497
1326	0.342371
1338	0.19964
1350	0.100143
1362	0.0618966
1374	0.0977412
1386	0.200102
1398	0.135156
1410	0.0376923
1422	0.0339969
1434	0.0544136
1446	0.0742759
1458	0.0596794
1470	0.0281768
1482	0.0116403
1494	0.0101621
1506	0.0139498
1518	0.0170909
1530	0.0276225
1542	0.0596794
1554	0.124625
1566	0.26477
1578	0.521225
1590	0.896485
1602	0.921151
1614	0.690563
1626	0.278165
1638	0.0766779
1650	0.0192157
1662	0.00997736
1674	0.00711349
1686	0.00304864
1698	0.00452677
1710	0.00406485
1722	0.00415723
1734	0.00720587
1746	0.00766779
1758	0.00785256
1770	0.00905353
1782	0.008684
1794	0.0100697
1806	0.0144117
1818	0.010624
1830	0.00942307
1842	0.00471153
1854	0.00194004
1866	0.00175528
1878	0.00194004
1890	0.00240196
1902	0.00212481
1914	0.00267911
1926	0.00258672
1938	0.00221719
1950	0.00175528
1962	0.000739064
1974	0.000277149
1986	0.000369532
1998	0.000646681
2010	0.000831447
2022	0.00129336
2034	0.000831447
2046	0.000369532
2058	0.00092383
2070	0.00138575
2082	0.00138575
2094	0.00194004
2106	0.00138575
2118	0.000739064
2130	0.00184766
2142	0.00221719
2154	0.00258672
2166	0.00360294
2178	0.00332579
2190	0.00267911
2202	0.00277149
2214	0.00249434
2226	0.00203243
2238	0.00166289
2250	0.00166289
2262	0.00166289
2274	0.00175528
2286	0.00212481
2298	0.00369532
2310	0.004342
2322	0.00230957
2334	0.00194004
2346	0.000554298
2358	0.00452677
2370	0.000277149
2382	0.000277149
2394	0.00092383
2406	0.00138575
2418	0.00341817
2430	0.00258672
2442	0.00267911
2454	0.0037877
2466	0.004342
2478	0.00480392
2490	0.004342
2502	0.00332579
2514	0.00230957
2526	0.00194004
2538	0.00092383
2550	0.00120098
2562	0.00120098
2574	0.00166289
2586	0.00157051
2598	0.00157051
2610	0.00360294
2622	0.00785256
2634	0.013026
2646	0.0127489
2658	0.00711349
2670	0.00461915
2682	0.00341817
2694	0.00360294
2706	0.00397247
2718	0.00212481
2730	0.00138575
2742	0.00092383
2754	0.00147813
2766	0.00092383
2778	0.00230957
2790	0.00092383
2802	0.00194004
2814	0.00203243
2826	0.00304864
2838	0.00461915
2850	0.00674396
2862	0.00960783
2874	0.0141346
2886	0.0201395
2898	0.0274378
2910	0.0311331
2922	0.0274378
2934	0.0192157
2946	0.0188461
2958	0.0194928
2970	0.011825
2982	0.00942307
2994	0.0121946
3006	0.0181071
3018	0.0237424
3030	0.0176452
3042	0.00628204
3054	0.00332579
3066	0.00286387
3078	0.00129336
3090	0.00138575
3102	0.00184766
3114	0.00138575
3126	0.00277149
3138	0.00267911
3150	0.00175528
3162	0.00166289
3174	0.00203243
3186	0.00267911
3198	0.00332579
3210	0.00221719
3222	0.000739064
3234	0.00138575
3246	0.00314102
3258	0.00267911
3270	0.00286387
3282	0.00360294
3294	0.00194004
3306	0.00221719
3318	0.0032334
3330	0.00369532
3342	0.0032334
3354	0.0032334
3366	0.0032334
3378	0.00221719
3390	0.00221719
3402	0.00332579
3414	0.00452677
3426	0.00286387
3438	0.00194004
3450	0.00360294
3462	0.00388009
3474	0.00369532
3486	0.00452677
3498	0.0032334
3510	0.00221719
3522	0.00415723
3534	0.00498868
3546	0.00332579
3558	0.00397247
3570	0.0032334
3582	0.00461915
3594	0.00498868
3606	0.00572775
3618	0.00517345
3630	0.00397247
3642	0.00406485
3654	0.00267911
3666	0.00517345
3678	0.00397247
3690	0.00471153
3702	0.004342
3714	0.0032334
3726	0.00397247
3738	0.00535821
3750	0.00628204
3762	0.00406485
3774	0.0037877
3786	0.004342
3798	0.00452677
3810	0.00461915
3822	0.00415723
3834	0.00526583
3846	0.00424962
3858	0.00424962
3870	0.00591251
3882	0.00609728
3894	0.00591251
3906	0.00498868
3918	0.00508107
3930	0.00609728
3942	0.00554298
3954	0
3966	0.000277149
