Infrared Spectrum: 3-Pentanol, 2,3-dimethyl-
Formula: C 7 H 16 O
CAS: 595-41-5
Origin: Sadtler Research Labs Under US-EPA Contract
1/CM	ABSORBANCE
450	0.00656035
462	0.00921241
474	0.00970095
486	0.0111666
498	0.0101197
510	0.00460621
522	0.00146561
534	0.00690931
546	0.00816555
558	0.0101895
570	0.00683952
582	0.0038385
594	0.00837492
606	0.00439683
618	0.00663014
630	0.00676973
642	0.0054437
654	0.00579265
666	0.00579265
678	0.00977074
690	0.0122134
702	0.00802596
714	0.00732805
726	0.00718847
738	0.00251248
750	0.00663014
762	0.00711868
774	0.00809576
786	0.00984053
798	0.00725826
810	0.00767701
822	0.00844471
834	0.0122832
846	0.0181457
858	0.0168196
870	0.0143769
882	0.028056
894	0.0679066
906	0.110549
918	0.100011
930	0.0596713
942	0.0320341
954	0.0286143
966	0.0448756
978	0.0769795
990	0.0962418
1002	0.0772586
1014	0.056112
1026	0.0551349
1038	0.0529016
1050	0.0482954
1062	0.0563213
1074	0.0646265
1086	0.071117
1098	0.0718149
1110	0.0683254
1122	0.0806784
1134	0.104686
1146	0.117319
1158	0.120599
1170	0.123879
1182	0.0854242
1194	0.0652546
1206	0.0482256
1218	0.0393621
1230	0.0389434
1242	0.0449454
1254	0.054437
1266	0.0615557
1278	0.0606484
1290	0.0605786
1302	0.0566005
1314	0.0468996
1326	0.0402694
1338	0.04341
1350	0.0546464
1362	0.0900304
1374	0.148725
1386	0.155564
1398	0.0891929
1410	0.0360819
1422	0.0258227
1434	0.0344768
1446	0.065115
1458	0.108455
1470	0.111596
1482	0.0736993
1494	0.0328716
1506	0.0164009
1518	0.0112364
1530	0.00865408
1542	0.00837492
1554	0.00837492
1566	0.00683952
1578	0.0077468
1590	0.00628119
1602	0.00509474
1614	0.00495516
1626	0.00481558
1638	0.00460621
1650	0.00328018
1662	0.00502495
1674	0.00369892
1686	0.00460621
1698	0.00300101
1710	0.00369892
1722	0.00293122
1734	0.00286143
1746	0.00209373
1758	0.00300101
1770	0.00314059
1782	0.00216352
1794	0.00216352
1806	0.00258227
1818	0.00286143
1830	0.00146561
1842	0.00195415
1854	0.00181457
1866	0.000837492
1878	0.00174477
1890	0.00223331
1902	0.0015354
1914	0.000907283
1926	0.00132603
1938	0.00132603
1950	0.00104686
1962	0.000488537
1974	0.000907283
1986	0.000907283
1998	0.000558328
2010	0.000488537
2022	0.000209373
2034	0.000907283
2046	0.00125624
2058	0.000628119
2070	0.00167498
2082	0.0015354
2094	0.000139582
2106	0.000767701
2118	0.000628119
2130	0.000837492
2142	0.000348955
2154	0.000558328
2166	0.00139582
2178	0.00069791
2190	0.000628119
2202	0.000977074
2214	0.00104686
2226	0.000767701
2238	0.000907283
2250	0.000348955
2262	0.000977074
2274	0.000977074
2286	0.00111666
2298	0.0015354
2310	0.000977074
2322	0.00111666
2334	0.00174477
2346	0.00132603
2358	0.00132603
2370	0.00300101
2382	0.00300101
2394	0.00286143
2406	0.00188436
2418	0.00181457
2430	0.00216352
2442	0.00188436
2454	0.00181457
2466	0.00174477
2478	0.00188436
2490	0.00223331
2502	0.00139582
2514	0.00132603
2526	0.00188436
2538	0.00125624
2550	0.00188436
2562	0.0023031
2574	0.00244268
2586	0.00348955
2598	0.00397809
2610	0.00516453
2622	0.00530412
2634	0.00425725
2646	0.00404788
2658	0.00418746
2670	0.00418746
2682	0.00432704
2694	0.00495516
2706	0.00530412
2718	0.00663014
2730	0.0092822
2742	0.0122832
2754	0.0125624
2766	0.0115853
2778	0.0126322
2790	0.0136092
2802	0.0145863
2814	0.0190529
2826	0.02338
2838	0.0298705
2850	0.0461319
2862	0.0764909
2874	0.140419
2886	0.23701
2898	0.261018
2910	0.228635
2922	0.243361
2934	0.315106
2946	0.389992
2958	0.456363
2970	0.646334
2982	0.677252
2994	0.376662
3006	0.134906
3018	0.0487839
3030	0.0287539
3042	0.0243571
3054	0.0217748
3066	0.0203092
3078	0.0170988
3090	0.014028
3102	0.0134697
3114	0.0113061
3126	0.00949158
3138	0.0103291
3150	0.0109572
3162	0.0108176
3174	0.0112364
3186	0.00998011
3198	0.00984053
3210	0.00732805
3222	0.00474579
3234	0.00453641
3246	0.0038385
3258	0.00328018
3270	0.00279164
3282	0.00216352
3294	0.00188436
3306	0.00223331
3318	0.000348955
3330	0.00216352
3342	0.00132603
3354	0.000348955
3366	0.00286143
3378	0.00209373
3390	0.00125624
3402	0.00188436
3414	0.00174477
3426	0.00328018
3438	0.00146561
3450	0.00139582
3462	0.00397809
3474	0.00139582
3486	0.00111666
3498	0.00104686
3510	0.00118645
3522	0.00223331
3534	0.00146561
3546	0.00223331
3558	0.00195415
3570	0.00188436
3582	0.000837492
3594	0.00244268
3606	0.0023031
3618	0.00690931
3630	0.0203092
3642	0.035733
3654	0.0332903
3666	0.0147957
3678	0.00474579
3690	0.00355934
3702	0.00251248
3714	0.00202394
3726	0.00411767
3738	0.00355934
3750	0.00272185
3762	0.00244268
3774	0.00167498
3786	0.00202394
3798	0.00195415
3810	0.00181457
3822	0.00397809
3834	0.0030708
3846	0.00432704
3858	0.0039083
3870	0.00425725
3882	0.00397809
3894	0.0038385
3906	0.00355934
3918	0.00474579
3930	0.0030708
3942	0.00341976
3954	0.00397809
3966	0.00362913
