Infrared Spectrum: para-Tolyl octanoate
Formula: C 15 H 22 O 2
CAS: 59558-23-5
Origin: Sadtler Research Labs Under US-EPA Contract
1/CM	ABSORBANCE
450	0.00724669
462	0.0193925
474	0.0212297
486	0.0322529
498	0.052564
510	0.0499103
522	0.0198008
534	0.00877768
546	0.00734875
558	0.00275578
570	0.0054095
582	0.00714462
594	0.00928801
606	0.0117376
618	0.0109211
630	0.0105128
642	0.00898181
654	0.00745082
666	0.00663429
678	0.00806321
690	0.010819
702	0.0124521
714	0.0137789
726	0.0167388
738	0.0143913
750	0.0187801
762	0.020107
774	0.0202091
786	0.0252103
798	0.0385809
810	0.0555239
822	0.0604231
834	0.0583818
846	0.0582797
858	0.0358252
870	0.0325591
882	0.0369479
894	0.0438884
906	0.0625665
918	0.063383
930	0.0436842
942	0.0473586
954	0.0284764
966	0.0218421
978	0.0225566
990	0.0272516
1002	0.0269454
1014	0.0503185
1026	0.054095
1038	0.0313343
1050	0.0343962
1062	0.0411326
1074	0.0654243
1086	0.128297
1098	0.25394
1110	0.312322
1122	0.282723
1134	0.428065
1146	0.521047
1158	0.35866
1170	0.520537
1182	0.265882
1194	0.584022
1206	0.953399
1218	0.417654
1230	0.224545
1242	0.154732
1254	0.124521
1266	0.102678
1278	0.0852251
1290	0.0826735
1302	0.0888995
1314	0.0794073
1326	0.0703235
1338	0.0740999
1350	0.0960441
1362	0.100739
1374	0.0768557
1386	0.0570549
1398	0.0258227
1410	0.0253124
1422	0.0408264
1434	0.0549115
1446	0.0581776
1458	0.0683842
1470	0.0714462
1482	0.0447049
1494	0.0716503
1506	0.378971
1518	0.198416
1530	0.0330694
1542	0.00673636
1554	0.00887974
1566	0.0106149
1578	0.0131665
1590	0.0209235
1602	0.0289867
1614	0.0399078
1626	0.0132686
1638	0.00785908
1650	0.00612396
1662	0.0102066
1674	0.00265372
1686	0.00051033
1698	0.000714462
1710	0.0118397
1722	0.0189843
1734	0.0313343
1746	0.0653222
1758	0.152078
1770	0.417654
1782	0.391423
1794	0.123806
1806	0.0485834
1818	0.0257206
1830	0.0136768
1842	0.0102066
1854	0.0113293
1866	0.0105128
1878	0.0142892
1890	0.0119417
1902	0.00785908
1914	0.00551156
1926	0.00469504
1938	0.00591983
1950	0.00734875
1962	0.00724669
1974	0.00591983
1986	0.00581776
1998	0.00673636
2010	0.00836941
2022	0.00724669
2034	0.00826735
2046	0.00918594
2058	0.00755288
2070	0.00551156
2082	0.0047971
2094	0.00408264
2106	0.00387851
2118	0.00387851
2130	0.00347024
2142	0.00316405
2154	0.00295991
2166	0.00265372
2178	0.00285785
2190	0.00265372
2202	0.00255165
2214	0.00275578
2226	0.00326611
2238	0.00316405
2250	0.00306198
2262	0.00306198
2274	0.00306198
2286	0.00244958
2298	0.00102066
2310	0.000306198
2322	0.00224545
2334	0.0044909
2346	0.00469504
2358	0.00336818
2370	0.00408264
2382	0.00234752
2394	0.00306198
2406	0.00418471
2418	0.00295991
2430	0.00214339
2442	0.00173512
2454	0.00163306
2466	0.00163306
2478	0.00142892
2490	0.00112273
2502	0.00122479
2514	0.00163306
2526	0.00173512
2538	0.00214339
2550	0.00193925
2562	0.00244958
2574	0.00285785
2586	0.00316405
2598	0.00326611
2610	0.00285785
2622	0.00265372
2634	0.00265372
2646	0.00367438
2658	0.00438884
2670	0.00469504
2682	0.0054095
2694	0.00581776
2706	0.00561363
2718	0.0051033
2730	0.00591983
2742	0.00949214
2754	0.00887974
2766	0.00663429
2778	0.00724669
2790	0.0095942
2802	0.0130644
2814	0.016943
2826	0.0242917
2838	0.0376624
2850	0.0725689
2862	0.188006
2874	0.233017
2886	0.19515
2898	0.147179
2910	0.199743
2922	0.343656
2934	0.56963
2946	0.486957
2958	0.31222
2970	0.341717
2982	0.164224
2994	0.0883892
3006	0.067976
3018	0.0581776
3030	0.068078
3042	0.104924
3054	0.0511351
3066	0.0388871
3078	0.0316405
3090	0.0199029
3102	0.0173512
3114	0.0164326
3126	0.0136768
3138	0.00847148
3150	0.00602189
3162	0.00551156
3174	0.00418471
3186	0.00438884
3198	0.00418471
3210	0.00367438
3222	0.00316405
3234	0.00275578
3246	0.00295991
3258	0.00234752
3270	0.00224545
3282	0.00234752
3294	0.00295991
3306	0.00224545
3318	0.00234752
3330	0.00275578
3342	0.00255165
3354	0.00255165
3366	0.00285785
3378	0.00316405
3390	0.00244958
3402	0.00295991
3414	0.00204132
3426	0.00214339
3438	0.00193925
3450	0.00163306
3462	0.00214339
3474	0.00153099
3486	0.00163306
3498	0.000714462
3510	0.00255165
3522	0.00255165
3534	0.00347024
3546	0.000918594
3558	0.00051033
3570	0.000612396
3582	0.00153099
3594	0.000714462
3606	0.00132686
3618	0.00173512
3630	0.00234752
3642	0.00285785
3654	0.00153099
3666	0.00183719
3678	0.00142892
3690	0.00244958
3702	0.00132686
3714	0.00204132
3726	0.00142892
3738	0.00163306
3750	0.00102066
3762	0.000714462
3774	0.00142892
3786	0.00142892
3798	0.00132686
3810	0.00051033
3822	0.00112273
3834	0.00142892
3846	0.00214339
3858	0.00142892
3870	0.00142892
3882	0.00183719
3894	0.00102066
3906	0.00112273
3918	0.00224545
3930	0.000408264
3942	0
3954	0.00132686
3966	0
