Infrared Spectrum: Phosphine sulfide, dibutylphenyl-
Formula: C 14 H 23 S
CAS: 5958-59-8
Origin: Sadtler Research Labs Under US-EPA Contract
1/CM	ABSORBANCE
450	0.0105023
462	0.0187884
474	0.0168293
486	0.0258221
498	0.0390543
510	0.0329199
522	0.00668034
534	0.00533142
546	0.00272994
558	0.000578106
570	0.00468908
582	0.0167972
594	0.040628
606	0.0554339
618	0.0320849
630	0.0123008
642	0.00600588
654	0.0119796
666	0.0217753
678	0.0443536
690	0.107207
702	0.106018
714	0.0945846
726	0.118576
738	0.145811
750	0.0953233
762	0.0714603
774	0.0738049
786	0.0819305
798	0.0760852
810	0.037063
822	0.018403
834	0.0106307
846	0.00880006
858	0.0121402
870	0.0179213
882	0.0214863
894	0.0426835
906	0.0594164
918	0.0295798
930	0.00921758
942	0.00690515
954	0.010984
966	0.0228994
978	0.0124935
990	0.01153
1002	0.0174074
1014	0.00748326
1026	0.0198162
1038	0.015384
1050	0.0239914
1062	0.0260148
1074	0.0336907
1086	0.0520295
1098	0.109904
1110	0.100366
1122	0.0287126
1134	0.0170541
1146	0.00995627
1158	0.00957087
1170	0.0160264
1182	0.0347506
1194	0.0283914
1206	0.0313141
1218	0.0281024
1230	0.0133286
1242	0.008511
1254	0.00918546
1266	0.0167008
1278	0.0185315
1290	0.0171826
1302	0.0242483
1314	0.0182103
1326	0.0142921
1338	0.01866
1350	0.020587
1362	0.0154483
1374	0.0191417
1386	0.0357462
1398	0.0268819
1410	0.0433901
1422	0.0267535
1434	0.0607332
1446	0.0470835
1458	0.0479186
1470	0.0539887
1482	0.035682
1494	0.0225783
1506	0.0131037
1518	0.0083183
1530	0.00690515
1542	0.0052993
1554	0.00517084
1566	0.00539566
1578	0.00818983
1590	0.00863947
1602	0.0103417
1614	0.0092497
1626	0.00545989
1638	0.0028263
1650	0.00224819
1662	0.00266571
1674	0.00279418
1686	0.00440003
1698	0.00436791
1710	0.0051066
1722	0.00590953
1734	0.00693727
1746	0.00735479
1758	0.00854312
1770	0.008511
1782	0.00716209
1794	0.00632705
1806	0.00966722
1818	0.00690515
1830	0.00279418
1842	0.00157373
1854	0.000899276
1866	0.000738691
1878	0.00215184
1890	0.00443215
1902	0.00404674
1914	0.00253724
1926	0.00138103
1938	0.00173432
1950	0.00385404
1962	0.00526719
1974	0.00427156
1986	0.00154162
1998	0.00122045
2010	0.00115621
2022	0.00147738
2034	0.0013168
2046	0.00102774
2058	0.00144526
2070	0.00109198
2082	0.0013168
2094	0.00109198
2106	0.000995627
2118	0.00105986
2130	0.00122045
2142	0.00096351
2154	0.00109198
2166	0.000995627
2178	0.00125256
2190	0.000995627
2202	0.00128468
2214	0.0013168
2226	0.000770808
2238	0.00105986
2250	0.00122045
2262	0.0013168
2274	0.00195914
2286	0.003019
2298	0.0051066
2310	0.00716209
2322	0.00777231
2334	0.00517084
2346	0.00619858
2358	0.00507449
2370	0.00420733
2382	0.00517084
2394	0.000931393
2406	0.000802925
2418	0.00102774
2430	0.00096351
2442	0.000481755
2454	0.000224819
2466	0.000128468
2478	0.000160585
2490	0.000385404
2502	0.000674457
2514	0.000738691
2526	0.000770808
2538	0.000867159
2550	0.00096351
2562	0.000899276
2574	0.00157373
2586	0.00179855
2598	0.0020876
2610	0.00231242
2622	0.00295476
2634	0.00253724
2646	0.00247301
2658	0.00256936
2670	0.0032117
2682	0.00398251
2694	0.00362922
2706	0.00311535
2718	0.00279418
2730	0.00404674
2742	0.00574894
2754	0.00613435
2766	0.00574894
2778	0.00590953
2790	0.00870371
2802	0.0114337
2814	0.0124293
2826	0.0152556
2838	0.0199447
2850	0.0298367
2862	0.0608296
2874	0.122976
2886	0.131294
2898	0.105247
2910	0.126348
2922	0.131872
2934	0.19206
2946	0.260758
2958	0.195721
2970	0.32117
2982	0.121563
2994	0.0476937
3006	0.0340761
3018	0.0325024
3030	0.0294834
3042	0.0254688
3054	0.0360674
3066	0.0829261
3078	0.0555303
3090	0.0300615
3102	0.0139388
3114	0.00764385
3126	0.00542777
3138	0.00571683
3150	0.00626281
3162	0.00356499
3174	0.00295476
3186	0.00285841
3198	0.00199125
3210	0.00144526
3222	0.000802925
3234	0.000449638
3246	0.000160585
3258	0.000224819
3270	0.000224819
3282	0.000128468
3294	0.000289053
3306	0.000353287
3318	0.00032117
3330	0.000738691
3342	0.000481755
3354	0.000449638
3366	0.000738691
3378	0.000513872
3390	0.00096351
3402	0.000835042
3414	0.000610223
3426	0.000867159
3438	0.00122045
3450	0.00096351
3462	0.000674457
3474	0.00122045
3486	0.000867159
3498	0.000449638
3510	0.00096351
3522	0.00144526
3534	0.00109198
3546	0.00205549
3558	0.00202337
3570	0.0028263
3582	0.00173432
3594	0.00195914
3606	0.00218396
3618	0.00183067
3630	0.00256936
3642	0.00440003
3654	0.00430368
3666	0.0035971
3678	0.00240877
3690	0.00330805
3702	0.00298688
3714	0.00263359
3726	0.00292265
3738	0.003019
3750	0.00102774
3762	0.0020876
3774	0.00147738
3786	0.0018949
3798	0.00192702
3810	0.00244089
3822	0.00183067
3834	0.00247301
3846	0.00237666
3858	0.00157373
3870	0.00224819
3882	0.00343652
3894	0.00195914
3906	0.0018949
3918	0.00314747
3930	0.00218396
3942	0.00308323
3954	0.00375769
3966	0.00305111
