Infrared Spectrum: Propanedioic acid, dibutyl-, diethyl ester
Formula: C 15 H 28 O 4
CAS: 596-75-8
Origin: Sadtler Research Labs Under US-EPA Contract
1/CM	ABSORBANCE
450	0.0564219
462	0.0473069
474	0.0318114
486	0.0152221
498	0.0171362
510	0.0202353
522	0.0302618
534	0.0222406
546	0.0186858
558	0.0071097
570	0.0133079
582	0.0153132
594	0.0160424
606	0.0129433
618	0.0119407
630	0.001823
642	0.00610705
654	0.00647165
666	0.0071097
678	0.0144929
690	0.0184123
702	0.0114849
714	0.0136725
726	0.0249751
738	0.0238813
750	0.0195973
762	0.0171362
774	0.0209645
786	0.017592
798	0.0168628
810	0.0138548
822	0.0142194
834	0.00829465
846	0.0183212
858	0.0422936
870	0.0514998
882	0.0272539
894	0.0162247
906	0.0147663
918	0.0100265
930	0.0087504
942	0.0087504
954	0.0132168
966	0.0133079
978	0.0193238
990	0.0223318
1002	0.03646
1014	0.078389
1026	0.157507
1038	0.234529
1050	0.185126
1062	0.1102
1074	0.0900562
1086	0.100356
1098	0.160971
1110	0.23617
1122	0.394406
1134	0.406164
1146	0.380187
1158	0.234711
1170	0.219216
1182	0.399784
1194	0.577709
1206	0.6468
1218	0.528852
1230	0.375447
1242	0.351566
1254	0.338167
1266	0.253215
1278	0.181571
1290	0.116945
1302	0.117766
1314	0.0964367
1326	0.0663572
1338	0.050406
1350	0.0410175
1362	0.043114
1374	0.0825819
1386	0.0705501
1398	0.0428405
1410	0.029168
1422	0.0258866
1434	0.0428405
1446	0.0785713
1458	0.109107
1470	0.132076
1482	0.063805
1494	0.0245194
1506	0.0150398
1518	0.0123053
1530	0.0112115
1542	0.0074743
1554	0.00720085
1566	0.0082035
1578	0.0074743
1590	0.0056513
1602	0.0082035
1614	0.0083858
1626	0.00720085
1638	0.0080212
1650	0.00957075
1662	0.0096619
1674	0.0171362
1686	0.0241548
1698	0.0385565
1710	0.0677245
1722	0.123508
1734	0.4058
1746	0.9115
1758	0.546353
1770	0.193603
1782	0.0706413
1794	0.0370981
1806	0.0246105
1818	0.01823
1830	0.0144929
1842	0.00847695
1854	0.00428405
1866	0.00483095
1878	0.00410175
1890	0.00592475
1902	0.00610705
1914	0.00337255
1926	0.0027345
1938	0.00264335
1950	0.00191415
1962	0.0027345
1974	0.0029168
1986	0.0032814
1998	0.00209645
2010	0.0027345
2022	0.0027345
2034	0.00209645
2046	0.00337255
2058	0.00355485
2070	0.0030991
2082	0.00410175
2094	0.00282565
2106	0.0016407
2118	0.0023699
2130	0.0012761
2142	0.00063805
2154	0.00063805
2166	0.0003646
2178	0.0007292
2190	0.0007292
2202	0.00045575
2214	0.0005469
2226	0.0003646
2238	0.0010938
2250	0.00136725
2262	0.00136725
2274	0.0014584
2286	0.00209645
2298	0.00337255
2310	0.00464865
2322	0.0047398
2334	0.0041929
2346	0.00902385
2358	0.00282565
2370	0.0051044
2382	0.00556015
2394	0.00337255
2406	0.00319025
2418	0.0032814
2430	0.0030991
2442	0.00300795
2454	0.00209645
2466	0.00227875
2478	0.00209645
2490	0.0023699
2502	0.0025522
2514	0.00282565
2526	0.00282565
2538	0.0027345
2550	0.00282565
2562	0.0034637
2574	0.00355485
2586	0.00428405
2598	0.00446635
2610	0.0047398
2622	0.0051044
2634	0.0051044
2646	0.0052867
2658	0.00574245
2670	0.0063805
2682	0.0074743
2694	0.0067451
2706	0.007292
2718	0.00865925
2730	0.0104823
2742	0.0120318
2754	0.0126699
2766	0.0125787
2778	0.0144929
2790	0.0163158
2802	0.0192327
2814	0.0237902
2826	0.029168
2838	0.0373715
2850	0.0538697
2862	0.0973482
2874	0.211833
2886	0.237081
2898	0.152038
2910	0.187222
2922	0.253762
2934	0.368519
2946	0.44627
2958	0.430593
2970	0.729382
2982	0.383012
2994	0.252668
3006	0.135722
3018	0.0781156
3030	0.0499502
3042	0.0338167
3054	0.0257043
3066	0.0215114
3078	0.01823
3090	0.0164981
3102	0.0152221
3114	0.0141283
3126	0.0126699
3138	0.0124876
3150	0.012123
3162	0.0112115
3174	0.0103911
3186	0.0111203
3198	0.0101177
3210	0.00829465
3222	0.0083858
3234	0.0074743
3246	0.007292
3258	0.0071097
3270	0.00647165
3282	0.00628935
3294	0.0061982
3306	0.0060159
3318	0.00683625
3330	0.00647165
3342	0.00592475
3354	0.0069274
3366	0.00665395
3378	0.00683625
3390	0.00756545
3402	0.00665395
3414	0.00756545
3426	0.00847695
3438	0.00683625
3450	0.00774775
3462	0.0100265
3474	0.0118495
3486	0.0118495
3498	0.010938
3510	0.00683625
3522	0.00774775
3534	0.00683625
3546	0.007292
3558	0.0058336
3570	0.00793005
3582	0.0047398
3594	0.0067451
3606	0.0063805
3618	0.0038283
3630	0.0092973
3642	0.00355485
3654	0.0103
3666	0.0076566
3678	0.00118495
3690	0.0087504
3702	0.007292
3714	0.00647165
3726	0.0045575
3738	0.0023699
3750	0.0173185
3762	0.00556015
3774	0.0052867
3786	0.00556015
3798	0.00993535
3810	0.00574245
3822	0.009115
3834	0.00938845
3846	0.0124876
3858	0.0069274
3870	0.00610705
3882	0.0116672
3894	0.0041929
3906	0.00920615
3918	0.0103911
3930	0.00519555
3942	0.00701855
3954	0.0104823
3966	0.0105734
