Infrared Spectrum: Benzenamine, 4-methoxy-N-methyl-
Formula: C 8 H 11 N O
CAS: 5961-59-1
Origin: Sadtler Research Labs Under US-EPA Contract
1/CM	ABSORBANCE
450	0.0191994
462	0.0288703
474	0.0277325
486	0.0318568
498	0.0305769
510	0.0402477
522	0.0436609
534	0.0393944
546	0.0382566
558	0.03655
570	0.0382566
582	0.0449409
594	0.045652
606	0.0473586
618	0.0455098
630	0.0440876
642	0.0465053
654	0.0457942
666	0.0445142
678	0.0438031
690	0.0445142
702	0.0472164
714	0.058736
726	0.0668425
738	0.0432343
750	0.0160706
762	0.00910195
774	0.0116619
786	0.0207638
798	0.0504874
810	0.131125
822	0.205363
834	0.127427
846	0.0452253
858	0.0142218
870	0.00625759
882	0.00369767
894	0.00184883
906	0.00127996
918	0.000568872
930	0.000853308
942	0.00255992
954	0.00255992
966	0.0039821
978	0.0103819
990	0.0184883
1002	0.0321413
1014	0.0577405
1026	0.11989
1038	0.186021
1050	0.183461
1062	0.148191
1074	0.0819176
1086	0.0514829
1098	0.0557495
1110	0.0523362
1122	0.0445142
1134	0.0544695
1146	0.0895973
1158	0.0904506
1170	0.0907351
1182	0.10581
1194	0.0766555
1206	0.0796421
1218	0.148902
1230	0.514545
1242	1.0389
1254	0.698717
1266	0.282872
1278	0.162129
1290	0.143214
1302	0.131552
1314	0.097846
1326	0.0574561
1338	0.0275903
1350	0.0230393
1362	0.0136529
1374	0.0139374
1386	0.0230393
1398	0.0318568
1410	0.0369767
1422	0.0442298
1434	0.0731001
1446	0.108228
1458	0.107659
1470	0.14748
1482	0.15388
1494	0.203372
1506	0.800403
1518	1.36927
1530	0.466333
1542	0.0820598
1554	0.0403899
1566	0.0339901
1578	0.0315724
1590	0.0344168
1602	0.0386833
1614	0.0405321
1626	0.0321413
1638	0.0217594
1650	0.00796421
1662	0.0149329
1674	0.00483541
1686	0.000853308
1698	0.000142218
1710	0.0140796
1722	0.0127996
1734	0.00071109
1746	0.00440876
1758	0.00696868
1770	0.00568872
1782	0.00696868
1794	0.00611537
1806	0.0129418
1818	0.0155018
1830	0.0129418
1842	0.0150751
1854	0.0182039
1866	0.011093
1878	0.0120885
1890	0.00895973
1902	0.0103819
1914	0.00796421
1926	0.00824864
1938	0.00881752
1950	0.00910195
1962	0.0109508
1974	0.0112352
1986	0.0109508
1998	0.00952861
2010	0.00881752
2022	0.00853308
2034	0.0105241
2046	0.012373
2058	0.0146485
2070	0.0147907
2082	0.0129418
2094	0.0103819
2106	0.00767977
2118	0.00469319
2130	0.00284436
2142	0.0015644
2154	0.000853308
2166	0.000426654
2178	0.000142218
2190	0.00071109
2202	0.00071109
2214	0.000142218
2226	0.000426654
2238	0.000142218
2250	0.00071109
2262	0.00127996
2274	0.00284436
2286	0.00383989
2298	0.00412432
2310	0.00497763
2322	0.00568872
2334	0.00625759
2346	0.00611537
2358	0.00511985
2370	0.00270214
2382	0.00227549
2394	0.000568872
2406	0.0015644
2418	0.00170662
2430	0.00170662
2442	0.000995526
2454	0.00170662
2466	0.00298658
2478	0.00426654
2490	0.00341323
2502	0.00327101
2514	0.00355545
2526	0.0039821
2538	0.00540428
2550	0.00668425
2562	0.00696868
2574	0.00696868
2586	0.00625759
2598	0.0055465
2610	0.00511985
2622	0.00469319
2634	0.00440876
2646	0.00440876
2658	0.00412432
2670	0.00412432
2682	0.00469319
2694	0.00597316
2706	0.00739534
2718	0.00853308
2730	0.0102397
2742	0.0116619
2754	0.014364
2766	0.0184883
2778	0.0253148
2790	0.0358389
2802	0.056745
2814	0.100548
2826	0.128992
2838	0.157293
2850	0.125436
2862	0.0895973
2874	0.0962816
2886	0.126147
2898	0.162129
2910	0.185452
2922	0.181186
2934	0.193985
2946	0.215602
2958	0.184172
2970	0.155018
2982	0.167391
2994	0.175639
3006	0.159995
3018	0.0991259
3030	0.112637
3042	0.0812065
3054	0.0716779
3066	0.0740956
3078	0.0566028
3090	0.0386833
3102	0.031288
3114	0.026737
3126	0.0186306
3138	0.0127996
3150	0.00853308
3162	0.00668425
3174	0.00497763
3186	0.00440876
3198	0.00341323
3210	0.0031288
3222	0.00227549
3234	0.00255992
3246	0.00184883
3258	0.0015644
3270	0.0015644
3282	0.0015644
3294	0.00142218
3306	0.00142218
3318	0.00227549
3330	0.00142218
3342	0.00170662
3354	0.00113774
3366	0.00270214
3378	0.00127996
3390	0.00227549
3402	0.00426654
3414	0.00568872
3426	0.0129418
3438	0.0250304
3450	0.0264525
3462	0.0142218
3474	0.00654203
3486	0.00469319
3498	0.00355545
3510	0.00284436
3522	0.00270214
3534	0.00227549
3546	0.00255992
3558	0.00241771
3570	0.00369767
3582	0.0015644
3594	0.00369767
3606	0.00113774
3618	0.0015644
3630	0.0039821
3642	0.00113774
3654	0.00127996
3666	0.000995526
3678	0.00412432
3690	0.00255992
3702	0.00284436
3714	0.0015644
3726	0.00327101
3738	0.00455098
3750	0.000995526
3762	0.000995526
3774	0.00341323
3786	0.00170662
3798	0.00199105
3810	0.000568872
3822	0.00213327
3834	0.00127996
3846	0.00284436
3858	0.00270214
3870	0.0031288
3882	0.00113774
3894	0.00383989
3906	0.00426654
3918	0.00227549
3930	0.00355545
3942	0.0015644
3954	0.0039821
3966	0.0031288
