Infrared Spectrum: 3-Pentanol, 3-ethyl-
Formula: C 7 H 16 O
CAS: 597-49-9
Origin: Sadtler Research Labs Under US-EPA Contract
1/CM	ABSORBANCE
450	0
462	0.0118194
474	0.0159561
486	0.023491
498	0.00679613
510	0.00576194
522	0.0128536
534	0.0155129
546	0.02748
558	0.0161039
570	0.0100465
582	0.014331
594	0.0181723
606	0.00856904
618	0.0171381
630	0.0152174
642	0.0119671
654	0.0156607
666	0.0115239
678	0.0150697
690	0.0237865
702	0.017729
714	0.014331
726	0.0149219
738	0.0124103
750	0.0166948
762	0.0236387
774	0.0215703
786	0.0257071
798	0.0224568
810	0.0156607
822	0.0141832
834	0.0121148
846	0.0115239
858	0.0146265
870	0.0153652
882	0.0236387
894	0.0466865
906	0.118046
918	0.221908
930	0.238899
942	0.372753
954	0.470263
966	0.23491
978	0.0694387
990	0.0435839
1002	0.0456523
1014	0.0604265
1026	0.0780078
1038	0.0865768
1050	0.0723936
1062	0.0703252
1074	0.0728368
1086	0.0593923
1098	0.0604265
1110	0.0889407
1122	0.139912
1134	0.167539
1146	0.183791
1158	0.240081
1170	0.232398
1182	0.149219
1194	0.0898271
1206	0.0639723
1218	0.05954
1230	0.0756439
1242	0.103567
1254	0.124103
1266	0.121887
1278	0.108147
1290	0.103419
1302	0.0992826
1314	0.0884975
1326	0.0815536
1338	0.0828833
1350	0.0970665
1362	0.118341
1374	0.149958
1386	0.176404
1398	0.122774
1410	0.0596878
1422	0.0443226
1434	0.0645633
1446	0.142571
1458	0.267856
1470	0.260469
1482	0.140059
1494	0.0533349
1506	0.0273323
1518	0.0195019
1530	0.0168426
1542	0.0162516
1554	0.0168426
1566	0.0175813
1578	0.0174336
1590	0.0153652
1602	0.0141832
1614	0.0115239
1626	0.0103419
1638	0.0107852
1650	0.0101942
1662	0.00960323
1674	0.00856904
1686	0.00709162
1698	0.00576194
1710	0.00679613
1722	0.00576194
1734	0.00502323
1746	0.00517097
1758	0.00398903
1770	0.00354581
1782	0.00369355
1794	0.00339807
1806	0.00398903
1818	0.00458
1830	0.00310258
1842	0.00398903
1854	0.00310258
1866	0.00310258
1878	0.00428452
1890	0.00413678
1902	0.00487549
1914	0.00472774
1926	0.00354581
1938	0.00354581
1950	0.00398903
1962	0.00325032
1974	0.00295484
1986	0.00310258
1998	0.00295484
2010	0.00339807
2022	0.00443226
2034	0.00384129
2046	0.00443226
2058	0.00472774
2070	0.00384129
2082	0.00339807
2094	0.00310258
2106	0.00310258
2118	0.00339807
2130	0.0028071
2142	0.00295484
2154	0.00325032
2166	0.00325032
2178	0.00369355
2190	0.00369355
2202	0.00325032
2214	0.00413678
2226	0.00413678
2238	0.00458
2250	0.00487549
2262	0.00443226
2274	0.00458
2286	0.00605742
2298	0.0073871
2310	0.00694387
2322	0.00472774
2334	0.00265936
2346	0.00590968
2358	0.00487549
2370	0.00916
2382	0.0113761
2394	0.00856904
2406	0.00768258
2418	0.00753484
2430	0.00694387
2442	0.00605742
2454	0.00635291
2466	0.00664839
2478	0.00605742
2490	0.00650065
2502	0.00576194
2514	0.00590968
2526	0.00723936
2538	0.00664839
2550	0.00723936
2562	0.00753484
2574	0.00916
2586	0.0104897
2598	0.0113761
2610	0.0118194
2622	0.0124103
2634	0.0130013
2646	0.0134445
2658	0.0125581
2670	0.0130013
2682	0.0140355
2694	0.0152174
2706	0.0152174
2718	0.0165471
2730	0.0212748
2742	0.0273323
2754	0.0294007
2766	0.0264458
2778	0.0276278
2790	0.0305826
2802	0.0359013
2814	0.0416632
2826	0.0521529
2838	0.0729845
2850	0.123365
2862	0.215556
2874	0.296075
2886	0.472479
2898	0.524336
2910	0.441453
2922	0.564079
2934	0.874633
2946	1.02001
2958	0.930331
2970	1.2725
2982	1.3313
2994	0.542509
3006	0.16488
3018	0.0831787
3030	0.0596878
3042	0.051562
3054	0.0471297
3066	0.0458
3078	0.0443226
3090	0.0446181
3102	0.0364923
3114	0.0296961
3126	0.0246729
3138	0.0224568
3150	0.022309
3162	0.0199452
3174	0.0211271
3186	0.0181723
3198	0.013149
3210	0.0109329
3222	0.00827355
3234	0.00812581
3246	0.00650065
3258	0.00679613
3270	0.00413678
3282	0.00605742
3294	0.00679613
3306	0.00517097
3318	0.00679613
3330	0.00458
3342	0.00531871
3354	0.00635291
3366	0.00590968
3378	0.00679613
3390	0.00797807
3402	0.00664839
3414	0.00812581
3426	0.00871678
3438	0.00783033
3450	0.00871678
3462	0.00901226
3474	0.00709162
3486	0.00723936
3498	0.00783033
3510	0.00384129
3522	0.0107852
3534	0.00458
3546	0.00723936
3558	0.00576194
3570	0.00650065
3582	0.00472774
3594	0.00679613
3606	0.00694387
3618	0.0162516
3630	0.0472774
3642	0.0861336
3654	0.0638245
3666	0.0199452
3678	0.0112284
3690	0.00827355
3702	0.00842129
3714	0.00856904
3726	0.00768258
3738	0.00620516
3750	0.00768258
3762	0.00605742
3774	0.00753484
3786	0.00576194
3798	0.00635291
3810	0.00753484
3822	0.00694387
3834	0.00694387
3846	0.0073871
3858	0.00679613
3870	0.00989871
3882	0.00812581
3894	0.00945549
3906	0.00886452
3918	0.00620516
3930	0.00812581
3942	0.00856904
3954	0.00694387
3966	0.00975097
