Infrared Spectrum: Stannane, tetraethyl-
Formula: C 8 H 20 Sn
CAS: 597-64-8
Origin: Sadtler Research Labs Under US-EPA Contract
1/CM	ABSORBANCE
450	0.028643
462	0.0177858
474	0.0381431
486	0.0797862
498	0.107001
510	0.24593
522	0.205501
534	0.0544289
546	0.0200001
558	0.0125001
570	0.0076429
582	0.0105001
594	0.0115001
606	0.0129286
618	0.0265002
630	0.0420717
642	0.0730004
654	0.141644
666	0.21943
678	0.234787
690	0.138858
702	0.0720004
714	0.0360716
726	0.0189287
738	0.0147144
750	0.00971434
762	0.00721433
774	0.00557146
786	0.00328573
798	0.00300002
810	0.00142858
822	0.00142858
834	0.00164287
846	0.00185715
858	0.00071429
870	0.00150001
882	0.00142858
894	0.00328573
906	0.00600004
918	0.0121429
930	0.0230716
942	0.0488574
954	0.070429
966	0.072929
978	0.0641432
990	0.0845719
1002	0.141787
1014	0.193358
1026	0.127072
1038	0.0519289
1050	0.0205716
1062	0.0100001
1074	0.00592861
1086	0.00450003
1098	0.0039286
1110	0.00364288
1122	0.00235716
1134	0.00285716
1146	0.00428574
1158	0.00814291
1170	0.0212144
1182	0.0700004
1194	0.132429
1206	0.0680718
1218	0.0290002
1230	0.0312859
1242	0.0294287
1254	0.0167858
1266	0.0118572
1278	0.00864291
1290	0.00621432
1302	0.00535717
1314	0.0039286
1326	0.00414288
1338	0.00428574
1350	0.00578575
1362	0.00821433
1374	0.0222144
1386	0.0605004
1398	0.0367145
1410	0.029643
1422	0.0631432
1434	0.0650004
1446	0.0548575
1458	0.078929
1470	0.0872862
1482	0.0597861
1494	0.0342145
1506	0.0237859
1518	0.0142858
1530	0.00950006
1542	0.00728576
1554	0.00700004
1566	0.00650004
1578	0.00628575
1590	0.00564289
1602	0.00692861
1614	0.00850005
1626	0.0066429
1638	0.00564289
1650	0.00507146
1662	0.00685718
1674	0.00892862
1686	0.00900005
1698	0.00792862
1710	0.00678576
1722	0.0039286
1734	0.00235716
1746	0.00157144
1758	0.00114286
1770	0.000428574
1782	0.000285716
1794	0
1806	0.000142858
1818	0.000571432
1830	0.000214287
1842	0.000500003
1854	0.00071429
1866	0.00128572
1878	0.00264287
1890	0.0039286
1902	0.00471431
1914	0.00357145
1926	0.00278573
1938	0.00228573
1950	0.00185715
1962	0.0017143
1974	0.00150001
1986	0.00107143
1998	0.000785719
2010	0.000857148
2022	0.000857148
2034	0.000571432
2046	0.000642861
2058	0.000928577
2070	0.00150001
2082	0.00128572
2094	0.00192858
2106	0.00235716
2118	0.00285716
2130	0.00478574
2142	0.00771433
2154	0.0101429
2166	0.00850005
2178	0.00614289
2190	0.00478574
2202	0.00342859
2214	0.00200001
2226	0.000928577
2238	0.000500003
2250	0.000428574
2262	0
2274	0.000142858
2286	0.000428574
2298	0.00107143
2310	0.00185715
2322	0.00142858
2334	0.00228573
2346	0.00342859
2358	0.00378574
2370	0.00435717
2382	0.00428574
2394	0.00400002
2406	0.0039286
2418	0.0039286
2430	0.00235716
2442	0.00185715
2454	0.00164287
2466	0.0017143
2478	0.00121429
2490	0.000428574
2502	0.000571432
2514	0.000285716
2526	0.000285716
2538	0.000571432
2550	0.000785719
2562	0.00128572
2574	0.00350002
2586	0.00335716
2598	0.00314288
2610	0.00528575
2622	0.00635718
2634	0.00428574
2646	0.0032143
2658	0.00364288
2670	0.00364288
2682	0.00435717
2694	0.00592861
2706	0.00842862
2718	0.00800005
2730	0.00878577
2742	0.0167858
2754	0.0265002
2766	0.0165715
2778	0.0132144
2790	0.0152858
2802	0.0240001
2814	0.0364288
2826	0.0592146
2838	0.0686433
2850	0.0690004
2862	0.092072
2874	0.221787
2886	0.446217
2898	0.313502
2910	0.379359
2922	0.504717
2934	0.455003
2946	0.527003
2958	0.708361
2970	0.559075
2982	0.288502
2994	0.151144
3006	0.0884291
3018	0.0503574
3030	0.0325716
3042	0.0267144
3054	0.0272144
3066	0.0277145
3078	0.0268573
3090	0.0205001
3102	0.0151429
3114	0.0124286
3126	0.0109286
3138	0.0107858
3150	0.0110715
3162	0.0107858
3174	0.0106429
3186	0.00907148
3198	0.00728576
3210	0.00535717
3222	0.00342859
3234	0.00264287
3246	0.00157144
3258	0.00128572
3270	0.00121429
3282	0.00178572
3294	0.00071429
3306	0.000500003
3318	0.00114286
3330	0.00157144
3342	0.00142858
3354	0.00164287
3366	0.00178572
3378	0.00121429
3390	0.000857148
3402	0.00192858
3414	0.00128572
3426	0.00135715
3438	0.00135715
3450	0.000642861
3462	0.00164287
3474	0.00157144
3486	0.00071429
3498	0.000785719
3510	0.00107143
3522	0.000428574
3534	0.00128572
3546	0.00142858
3558	0.00300002
3570	0.00292859
3582	0.00228573
3594	0.00185715
3606	0.0022143
3618	0.00185715
3630	0.00164287
3642	0.00257144
3654	0.000785719
3666	0.00142858
3678	0.000285716
3690	0.00135715
3702	0.00107143
3714	0.000785719
3726	0.000428574
3738	0.000357145
3750	0.000142858
3762	0.000142858
3774	0.000357145
3786	0.0022143
3798	0.00278573
3810	0.00235716
3822	0.0022143
3834	0.00292859
3846	0.00500003
3858	0.0049286
3870	0.00435717
3882	0.00428574
3894	0.00414288
3906	0.00435717
3918	0.00357145
3930	0.00357145
3942	0.00278573
3954	0.00135715
3966	0.00264287
