Infrared Spectrum: 1H-Cyclopenta[b]benzofuran-3a-ol, 7-methoxy-2,3,3a,8b-tetrahdro-,
Formula: C 12 H 14 O 3
CAS: 59701-69-8
Origin: Sadtler Research Labs Under US-EPA Contract
1/CM	ABSORBANCE
450	0.0385698
462	0.020892
474	0.0144637
486	0.00736577
498	0.00482123
510	0.00361592
522	0.00441946
534	0.0081693
546	0.0105799
558	0.0103121
570	0.0129905
582	0.0129905
594	0.0160708
606	0.0131245
618	0.0064283
630	0.00281238
642	0.00214277
654	0.00133923
666	0.000937461
678	0
690	0.000669615
702	0.0111156
714	0.0703096
726	0.0405787
738	0.0353557
750	0.0202224
762	0.0137941
774	0.0370967
786	0.0972281
798	0.19218
810	0.237178
822	0.118388
834	0.0788806
846	0.079952
858	0.062676
870	0.0819609
882	0.0379002
894	0.0360253
906	0.050489
918	0.081827
930	0.0376324
942	0.0235704
954	0.0621403
966	0.156154
978	0.0565155
990	0.0577208
1002	0.113835
1014	0.156958
1026	0.307889
1038	0.408599
1050	0.190171
1062	0.081693
1074	0.0999066
1086	0.227267
1098	0.424402
1110	0.211732
1122	0.109281
1134	0.147851
1146	0.210661
1158	0.149592
1170	0.291952
1182	0.461767
1194	0.714881
1206	0.539844
1218	0.47315
1230	0.371368
1242	0.241195
1254	0.231553
1266	0.237847
1278	0.205304
1290	0.118388
1302	0.117049
1314	0.102987
1326	0.081827
1338	0.0723184
1350	0.0802199
1362	0.0711131
1374	0.078345
1386	0.120397
1398	0.157895
1410	0.11062
1422	0.12803
1434	0.230481
1446	0.22258
1458	0.229544
1470	0.361324
1482	0.938934
1494	1.09
1506	0.162716
1518	0.0495515
1530	0.0262489
1542	0.0168743
1554	0.0109817
1566	0.0100442
1578	0.0132584
1590	0.022633
1602	0.0397751
1614	0.0379002
1626	0.0212938
1638	0.0117852
1650	0.006964
1662	0.00388377
1674	0.00495515
1686	0.00575869
1698	0.006964
1710	0.00441946
1722	0.00790146
1734	0.0129905
1746	0.0101781
1758	0.00669615
1770	0.00736577
1782	0.00334808
1794	0.00227669
1806	0.00374984
1818	0.00495515
1830	0.005223
1842	0.00937461
1854	0.0099103
1866	0.00388377
1878	0.00107138
1890	0.000535692
1902	0.000401769
1914	0.00120531
1926	0.000803538
1938	0.000669615
1950	0
1962	0.000401769
1974	0.00147315
1986	0.00147315
1998	0.00200884
2010	0.00281238
2022	0.00388377
2034	0.00508907
2046	0.00709792
2058	0.00763361
2070	0.006964
2082	0.00535692
2094	0.003482
2106	0.00241061
2118	0.00160708
2130	0.00133923
2142	0.000937461
2154	0.00147315
2166	0.00334808
2178	0.00549084
2190	0.00549084
2202	0.00334808
2214	0.00214277
2226	0.00133923
2238	0.000535692
2250	0.000401769
2262	0
2274	0.000535692
2286	0.00147315
2298	0.00227669
2310	0.00267846
2322	0.00294631
2334	0.00241061
2346	0.00374984
2358	0.00200884
2370	0.00241061
2382	0.00388377
2394	0.00214277
2406	0.00227669
2418	0.00200884
2430	0.00214277
2442	0.00241061
2454	0.00334808
2466	0.00388377
2478	0.00415161
2490	0.003482
2502	0.00401769
2514	0.00428554
2526	0.003482
2538	0.00334808
2550	0.00308023
2562	0.00281238
2574	0.00267846
2586	0.00374984
2598	0.00441946
2610	0.00495515
2622	0.00468731
2634	0.00468731
2646	0.00495515
2658	0.00495515
2670	0.005223
2682	0.00455338
2694	0.00415161
2706	0.00388377
2718	0.00455338
2730	0.00508907
2742	0.00602654
2754	0.00549084
2766	0.00736577
2778	0.00897284
2790	0.0124548
2802	0.0167404
2814	0.0241061
2826	0.0404447
2838	0.0987013
2850	0.0855768
2862	0.0751308
2874	0.124816
2886	0.133655
2898	0.136468
2910	0.23008
2922	0.212268
2934	0.241329
2946	0.434312
2958	0.496051
2970	0.45266
2982	0.315924
2994	0.114236
3006	0.150797
3018	0.0565155
3030	0.0403108
3042	0.0475427
3054	0.0376324
3066	0.0338825
3078	0.03482
3090	0.0271864
3102	0.0220973
3114	0.015669
3126	0.00843715
3138	0.00468731
3150	0.00388377
3162	0.00334808
3174	0.00281238
3186	0.00254454
3198	0.00227669
3210	0.00160708
3222	0.00214277
3234	0.00200884
3246	0.001741
3258	0.00214277
3270	0.00267846
3282	0.003482
3294	0.00267846
3306	0.00241061
3318	0.00294631
3330	0.00308023
3342	0.00294631
3354	0.00267846
3366	0.00267846
3378	0.00160708
3390	0.00147315
3402	0.00227669
3414	0.00214277
3426	0.00294631
3438	0.00294631
3450	0.00227669
3462	0.00267846
3474	0.00361592
3486	0.00428554
3498	0.00441946
3510	0.00374984
3522	0.00334808
3534	0.00441946
3546	0.005223
3558	0.0124548
3570	0.0176778
3582	0.015669
3594	0.0701757
3606	0.160172
3618	0.0535692
3630	0.0179457
3642	0.0105799
3654	0.00763361
3666	0.00495515
3678	0.00241061
3690	0.00107138
3702	0.000535692
3714	0.00214277
3726	0.00428554
3738	0.00334808
3750	0.00308023
3762	0.00241061
3774	0.00281238
3786	0.00281238
3798	0.00241061
3810	0.00227669
3822	0.00308023
3834	0.00482123
3846	0.001741
3858	0.005223
3870	0.00562477
3882	0.00575869
3894	0.00441946
3906	0.00455338
3918	0.005223
3930	0.00401769
3942	0.00241061
3954	0.00428554
3966	0.00267846
