Infrared Spectrum: Propionic acid, 3-(6-hydroxy-m-anisoyl)-, methyl ester
Formula: C 12 H 14 O 5
CAS: 59701-66-5
Origin: Sadtler Research Labs Under US-EPA Contract
1/CM	ABSORBANCE
450	0
462	0.0252256
474	0.0119706
486	0.00626787
498	0.00729539
510	0.00960731
522	0.00637062
534	0.00678163
546	0.00857979
558	0.00924768
570	0.0113541
582	0.00986419
594	0.0123816
606	0.0153614
618	0.0206532
630	0.030055
642	0.0383265
654	0.0207045
666	0.0206018
678	0.0254825
690	0.0259449
702	0.0262531
714	0.0382237
726	0.0408953
738	0.0428476
750	0.0430531
762	0.0425907
774	0.0526604
786	0.0660695
798	0.0303632
810	0.0189577
822	0.0398164
834	0.0821502
846	0.0521466
858	0.0276917
870	0.0336513
882	0.040176
894	0.0112
906	0.00719264
918	0.00714126
930	0.00549723
942	0.00678163
954	0.0138715
966	0.0304146
978	0.061754
990	0.0668916
1002	0.0414091
1014	0.0469063
1026	0.0815851
1038	0.135684
1050	0.134245
1062	0.0875447
1074	0.0422824
1086	0.0211669
1098	0.0201908
1110	0.0318531
1122	0.0513246
1134	0.100183
1146	0.190297
1158	0.358913
1170	0.473841
1182	0.36441
1194	0.281181
1206	0.286267
1218	0.303632
1230	0.315192
1242	0.317093
1254	0.335999
1266	0.343397
1278	0.419177
1290	0.315089
1302	0.146216
1314	0.125203
1326	0.14786
1338	0.178326
1350	0.184183
1362	0.180278
1374	0.116469
1386	0.0891374
1398	0.092374
1410	0.119449
1422	0.138201
1434	0.133989
1446	0.150018
1458	0.116829
1470	0.180689
1482	0.412344
1494	0.401401
1506	0.10306
1518	0.044954
1530	0.0311339
1542	0.0291816
1554	0.0286678
1566	0.0386861
1578	0.0783998
1590	0.11426
1602	0.06982
1614	0.089908
1626	0.112565
1638	0.104961
1650	0.219376
1662	0.294693
1674	0.0986933
1686	0.0406898
1698	0.0335485
1710	0.0369393
1722	0.0562053
1734	0.0901135
1746	0.166664
1758	0.327471
1770	0.248352
1782	0.0994639
1794	0.0458274
1806	0.019266
1818	0.0087853
1830	0.00657613
1842	0.00539448
1854	0.00462384
1866	0.00544586
1878	0.00580549
1890	0.00719264
1902	0.00909355
1914	0.00637062
1926	0.00549723
1938	0.00554861
1950	0.00606237
1962	0.00647338
1974	0.00698714
1986	0.00780915
1998	0.00847704
2010	0.00873392
2022	0.00955594
2034	0.0100183
2046	0.0109945
2058	0.0110458
2070	0.0110458
2082	0.010789
2094	0.00914493
2106	0.00801466
2118	0.00688438
2130	0.00616512
2142	0.00570274
2154	0.00585686
2166	0.00565136
2178	0.00554861
2190	0.0051376
2202	0.00498347
2214	0.00482934
2226	0.00472659
2238	0.0049321
2250	0.0049321
2262	0.00503485
2274	0.00585686
2286	0.00775778
2298	0.00991557
2310	0.0119192
2322	0.0104293
2334	0.00857979
2346	0.00950456
2358	0.00976144
2370	0.00883667
2382	0.0115596
2394	0.00729539
2406	0.00637062
2418	0.0062165
2430	0.00647338
2442	0.0066275
2454	0.00734677
2466	0.00688438
2478	0.00744952
2490	0.00667888
2502	0.00698714
2514	0.00647338
2526	0.00688438
2538	0.00724402
2550	0.00811741
2562	0.00822016
2574	0.00883667
2586	0.00981282
2598	0.00976144
2610	0.00981282
2622	0.00924768
2634	0.00935043
2646	0.00955594
2658	0.00986419
2670	0.010378
2682	0.0102752
2694	0.0102752
2706	0.0108917
2718	0.0109945
2730	0.0116624
2742	0.0122275
2754	0.0134605
2766	0.013666
2778	0.0141798
2790	0.0151559
2802	0.0168
2814	0.0205504
2826	0.0268183
2838	0.0486017
2850	0.0570787
2862	0.0397136
2874	0.0327779
2886	0.0338568
2898	0.0425907
2910	0.0605723
2922	0.0822016
2934	0.0827667
2946	0.110921
2958	0.135068
2970	0.0995153
2982	0.0600585
2994	0.0650934
3006	0.0959704
3018	0.0669429
3030	0.0477283
3042	0.0440292
3054	0.045365
3066	0.0422311
3078	0.04891
3090	0.0432586
3102	0.0383265
3114	0.0391999
3126	0.0393026
3138	0.0391999
3150	0.038532
3162	0.0371962
3174	0.0376586
3186	0.0369393
3198	0.0371448
3210	0.0366311
3222	0.0359118
3234	0.034165
3246	0.0331375
3258	0.0323155
3270	0.0327265
3282	0.0319045
3294	0.0307228
3306	0.0293357
3318	0.0276917
3330	0.0260476
3342	0.0246605
3354	0.0237357
3366	0.0218862
3378	0.02091
3390	0.0196256
3402	0.0185467
3414	0.0183412
3426	0.0167486
3438	0.0148477
3450	0.0138201
3462	0.014077
3474	0.0145908
3486	0.0134605
3498	0.0129981
3510	0.0121247
3522	0.0108403
3534	0.00924768
3546	0.00924768
3558	0.00909355
3570	0.00780915
3582	0.00965869
3594	0.00796328
3606	0.00724402
3618	0.00667888
3630	0.00719264
3642	0.0066275
3654	0.00755227
3666	0.00544586
3678	0.00488072
3690	0.00488072
3702	0.00631925
3714	0.00457246
3726	0.00544586
3738	0.0066275
3750	0.00477797
3762	0.00472659
3774	0.00544586
3786	0.00477797
3798	0.00472659
3810	0.00462384
3822	0.00457246
3834	0.00457246
3846	0.00488072
3858	0.00452109
3870	0.00457246
3882	0.00452109
3894	0.00457246
3906	0.00601099
3918	0.00457246
3930	0.00539448
3942	0.0049321
3954	0.00590824
3966	0.00457246
