Infrared Spectrum: 2-Bromopropanoic acid
Formula: C 3 H 5 Br O 2
CAS: 598-72-1
Origin: Sadtler Research Labs Under US-EPA Contract
1/CM	ABSORBANCE
450	0.0295966
462	0.0275981
474	0.0299773
486	0.0317854
498	0.0383519
510	0.0579561
522	0.0767038
534	0.0890754
546	0.111059
558	0.128664
570	0.141797
582	0.188143
594	0.251333
606	0.226971
618	0.247812
630	0.210031
642	0.118672
654	0.0642371
666	0.0379712
678	0.0218882
690	0.0129426
702	0.00856494
714	0.0125619
726	0.0105634
738	0.0151314
750	0.0214124
762	0.0391132
774	0.0359727
786	0.0187477
798	0.018367
810	0.020651
822	0.0241722
834	0.0194139
846	0.00875527
858	0.00285498
870	0.00180815
882	0.0044728
894	0.00428247
906	0.00161782
918	0.00218882
930	0.00570996
942	0.00599546
954	0.00942143
966	0.0266465
978	0.0570996
990	0.054435
1002	0.0273126
1014	0.0224592
1026	0.0488202
1038	0.103731
1050	0.138657
1062	0.189761
1074	0.268654
1086	0.251429
1098	0.199563
1110	0.225258
1122	0.367055
1134	0.471072
1146	0.322518
1158	0.219643
1170	0.236202
1182	0.208318
1194	0.186906
1206	0.17501
1218	0.1063
1230	0.0525316
1242	0.0403504
1254	0.0385422
1266	0.040731
1278	0.0448232
1290	0.0505331
1302	0.065379
1314	0.0811766
1326	0.0906932
1338	0.104683
1350	0.115532
1362	0.121337
1374	0.133232
1386	0.125143
1398	0.0761328
1410	0.0349259
1422	0.0242673
1434	0.0356873
1446	0.0797491
1458	0.0881237
1470	0.0354018
1482	0.00904077
1494	0.00637612
1506	0.00818428
1518	0.00761328
1530	0.00637612
1542	0.0098021
1554	0.0053293
1566	0.00190332
1578	0.00333081
1590	0.00209365
1602	0.00513896
1614	0.0047583
1626	0.00761328
1638	0.0105634
1650	0.00970693
1662	0.00799394
1674	0.00818428
1686	0.0135136
1698	0.0163686
1710	0.0210317
1722	0.046441
1734	0.106776
1746	0.150457
1758	0.256948
1770	0.652648
1782	0.95166
1794	0.630951
1806	0.265799
1818	0.122288
1830	0.0560528
1842	0.0233157
1854	0.0105634
1866	0.00694712
1878	0.0050438
1890	0.0044728
1902	0.00561479
1914	0.00513896
1926	0.00361631
1938	0.00314048
1950	0.00371147
1962	0.00466313
1974	0.00266465
1986	0.00180815
1998	0.00266465
2010	0.00228398
2022	0.00228398
2034	0.000761328
2046	0.00142749
2058	0.00199849
2070	0.000570996
2082	9.5166e-05
2094	0.000761328
2106	0.000761328
2118	0.00104683
2130	0.000570996
2142	0.00152266
2154	0.00142749
2166	0.00180815
2178	0.00256948
2190	0.00295015
2202	0.00361631
2214	0.00342598
2226	0.00295015
2238	0.00256948
2250	0.00209365
2262	0.00209365
2274	0.00266465
2286	0.00199849
2298	0.00152266
2310	0
2322	0.00171299
2334	0.00190332
2346	9.5166e-05
2358	9.5166e-05
2370	0.00390181
2382	0.00523413
2394	0.00323564
2406	0.00361631
2418	0.00513896
2430	0.00456797
2442	0.00456797
2454	0.00485347
2466	0.0053293
2478	0.00590029
2490	0.00485347
2502	0.0053293
2514	0.00637612
2526	0.00618579
2538	0.00590029
2550	0.0050438
2562	0.00542446
2574	0.00513896
2586	0.00466313
2598	0.00561479
2610	0.00513896
2622	0.00523413
2634	0.00551963
2646	0.00628096
2658	0.00580513
2670	0.0041873
2682	0.0053293
2694	0.00580513
2706	0.00542446
2718	0.0053293
2730	0.00542446
2742	0.00751811
2754	0.00694712
2766	0.00570996
2778	0.00656645
2790	0.00742295
2802	0.00770845
2814	0.00694712
2826	0.0089456
2838	0.0115151
2850	0.0100876
2862	0.0113248
2874	0.0184622
2886	0.0247432
2898	0.022935
2910	0.017796
2922	0.0242673
2934	0.0477733
2946	0.0539591
2958	0.0325468
2970	0.0224592
2982	0.04587
2994	0.0704228
3006	0.0606207
3018	0.0408262
3030	0.0233157
3042	0.0158927
3054	0.0139894
3066	0.0130377
3078	0.0136087
3090	0.0121812
3102	0.0136087
3114	0.0130377
3126	0.0128474
3138	0.0127522
3150	0.0127522
3162	0.0136087
3174	0.0118006
3186	0.0105634
3198	0.0131329
3210	0.0123716
3222	0.0114199
3234	0.00904077
3246	0.0101828
3258	0.0115151
3270	0.00799394
3282	0.00713745
3294	0.00656645
3306	0.00742295
3318	0.00561479
3330	0.00228398
3342	0.00485347
3354	0.00428247
3366	0.00266465
3378	0.00142749
3390	0.00237915
3402	0.00304531
3414	0.00190332
3426	0.00161782
3438	0.00199849
3450	0.00142749
3462	0.00237915
3474	0.00237915
3486	0.00409214
3498	0.00989726
3510	0.0149411
3522	0.0174154
3534	0.0179864
3546	0.02008
3558	0.0393987
3570	0.222498
3582	0.364105
3594	0.187192
3606	0.0237915
3618	0.00751811
3630	0.00523413
3642	0.00095166
3654	0.00152266
3666	0.00199849
3678	0.00437764
3690	0.00095166
3702	0.00161782
3714	0.00352114
3726	0.00390181
3738	0.00380664
3750	0.00228398
3762	0.00371147
3774	0.00333081
3786	0.00228398
3798	0.00256948
3810	0.00352114
3822	0.00561479
3834	0.0041873
3846	0.00390181
3858	0.00551963
3870	0.00590029
3882	0.00637612
3894	0.00485347
3906	0.00352114
3918	0.0044728
3930	0.00599546
3942	0.00599546
3954	9.5166e-05
3966	0.000285498
