Infrared Spectrum: Phosphoric acid, diethyl ester
Formula: C 4 H 11 O 4 P
CAS: 598-02-7
Origin: Sadtler Research Labs Under US-EPA Contract
1/CM	ABSORBANCE
450	0.0126212
462	0.0350588
474	0.0379637
486	0.0717203
498	0.0759273
510	0.0802346
522	0.0868457
534	0.0744248
546	0.0585983
558	0.0459771
570	0.0216363
582	0.0130218
594	0.0130218
606	0.00631058
618	0.00611025
630	0.00601008
642	0.00570958
654	0.00691159
666	0.00671126
678	0.00741243
690	0.0100168
702	0.0115193
714	0.0146245
726	0.0221371
738	0.0353593
750	0.0510857
762	0.0479805
774	0.0390655
786	0.0521875
798	0.0768289
810	0.0937572
822	0.0818373
834	0.0513862
846	0.0428719
858	0.0474796
870	0.0559939
882	0.0905519
894	0.152055
906	0.167982
918	0.126512
930	0.110285
942	0.165678
954	0.266146
966	0.335262
978	0.324745
990	0.280971
1002	0.296497
1014	0.315329
1026	0.433126
1038	0.772395
1050	1.00168
1062	0.801945
1074	0.505348
1086	0.318935
1098	0.241104
1110	0.163975
1122	0.116495
1134	0.100068
1146	0.100769
1158	0.102672
1170	0.0970628
1182	0.0865452
1194	0.0719206
1206	0.0684147
1218	0.0853431
1230	0.133223
1242	0.181404
1254	0.164376
1266	0.147047
1278	0.164776
1290	0.205445
1302	0.225578
1314	0.170386
1326	0.0951596
1338	0.0445748
1350	0.024441
1362	0.0266447
1374	0.0408685
1386	0.0408685
1398	0.0554931
1410	0.0334561
1422	0.0180302
1434	0.0171287
1446	0.0177297
1458	0.0158265
1470	0.0141237
1482	0.0133223
1494	0.0100168
1506	0.00791327
1518	0.00570958
1530	0.00520874
1542	0.00230386
1554	0.00440739
1566	0.00360605
1578	0.00460773
1590	0.00550924
1602	0.00661109
1614	0.00691159
1626	0.00731226
1638	0.00771294
1650	0.00791327
1662	0.00861445
1674	0.00801344
1686	0.00931562
1698	0.00841411
1710	0.00951596
1722	0.00851428
1734	0.00851428
1746	0.00991663
1758	0.00961613
1770	0.0105176
1782	0.0112188
1794	0.0105176
1806	0.00981646
1818	0.00841411
1830	0.00681142
1842	0.00701176
1854	0.00681142
1866	0.00691159
1878	0.00641075
1890	0.00580974
1902	0.00430722
1914	0.00310521
1926	0.00240403
1938	0.00130218
1950	0.000601008
1962	0
1974	0.000200336
1986	0.000100168
1998	0.00050084
2010	0.000601008
2022	0.000901512
2034	0.00100168
2046	0.00150252
2058	0.00120202
2070	0.00170286
2082	0.00180302
2094	0.0022037
2106	0.00290487
2118	0.00330554
2130	0.00340571
2142	0.00380638
2154	0.00430722
2166	0.00480806
2178	0.0050084
2190	0.0053089
2202	0.00570958
2214	0.00590991
2226	0.00611025
2238	0.00671126
2250	0.0072121
2262	0.00811361
2274	0.00891495
2286	0.00931562
2298	0.0097163
2310	0.0106178
2322	0.01192
2334	0.0138232
2346	0.0150252
2358	0.0154259
2370	0.015526
2382	0.0169284
2394	0.0172289
2406	0.0173291
2418	0.0169284
2430	0.0162272
2442	0.0150252
2454	0.0132222
2466	0.0116195
2478	0.0100168
2490	0.00921546
2502	0.00891495
2514	0.00891495
2526	0.00901512
2538	0.00961613
2550	0.0100168
2562	0.0110185
2574	0.0118198
2586	0.0128215
2598	0.013723
2610	0.0147247
2622	0.0157264
2634	0.0165277
2646	0.0173291
2658	0.0179301
2670	0.0185311
2682	0.0190319
2694	0.0194326
2706	0.0204343
2718	0.0209351
2730	0.0222373
2742	0.0229385
2754	0.023239
2766	0.0242407
2778	0.0253425
2790	0.025643
2802	0.0254427
2814	0.0267449
2826	0.0281472
2838	0.0300504
2850	0.0331556
2862	0.037563
2874	0.0474796
2886	0.0580974
2898	0.062004
2910	0.0777304
2922	0.0880477
2934	0.102372
2946	0.12521
2958	0.0991663
2970	0.108482
2982	0.159467
2994	0.177197
3006	0.117898
3018	0.0748255
3030	0.0493828
3042	0.0337566
3054	0.0259435
3066	0.0212356
3078	0.0187314
3090	0.0169284
3102	0.0157264
3114	0.0140235
3126	0.0138232
3138	0.0126212
3150	0.0122205
3162	0.0110185
3174	0.0104175
3186	0.00981646
3198	0.00871462
3210	0.00831394
3222	0.00811361
3234	0.00761277
3246	0.00661109
3258	0.00661109
3270	0.00631058
3282	0.00601008
3294	0.00621042
3306	0.00580974
3318	0.00621042
3330	0.00601008
3342	0.00651092
3354	0.00621042
3366	0.0075126
3378	0.00691159
3390	0.00731226
3402	0.00801344
3414	0.00811361
3426	0.00841411
3438	0.00861445
3450	0.00881478
3462	0.00911529
3474	0.00931562
3486	0.00951596
3498	0.00921546
3510	0.0103173
3522	0.0106178
3534	0.0104175
3546	0.0109183
3558	0.0100168
3570	0.0116195
3582	0.0115193
3594	0.0104175
3606	0.0120202
3618	0.0117197
3630	0.0121203
3642	0.0175294
3654	0.0364612
3666	0.0892497
3678	0.0831394
3690	0.0319536
3702	0.0171287
3714	0.0133223
3726	0.0138232
3738	0.013122
3750	0.0122205
3762	0.0130218
3774	0.0118198
3786	0.0134225
3798	0.0127213
3810	0.0124208
3822	0.00931562
3834	0.0120202
3846	0.0122205
3858	0.0121203
3870	0.0122205
3882	0.0126212
3894	0.0132222
3906	0.0129217
3918	0.0138232
3930	0.0135227
3942	0.0148249
3954	0.0153257
3966	0.0141237
