Infrared Spectrum: Propane, 1,1'-sulfonylbis-
Formula: C 6 H 14 O 2 S
CAS: 598-03-8
Origin: Sadtler Research Labs Under US-EPA Contract
1/CM	ABSORBANCE
450	0.0138035
462	0.00556421
474	0.0690176
486	0.126586
498	0.170992
510	0.197743
522	0.156226
534	0.126693
546	0.15965
558	0.105078
570	0.0646304
582	0.0590662
594	0.0489008
606	0.0195817
618	0.0330642
630	0.0317802
642	0.0370234
654	0.0612063
666	0.053288
678	0.0867802
690	0.147559
702	0.203736
714	0.16072
726	0.115136
738	0.157724
750	0.132257
762	0.132364
774	0.180302
786	0.178911
798	0.118453
810	0.0833561
822	0.0659145
834	0.079183
846	0.142743
858	0.158901
870	0.0819651
882	0.0429086
894	0.0363814
906	0.0388425
918	0.0224708
930	0.0162646
942	0.0146595
954	0.0116634
966	0.00888133
978	0.00973736
990	0.0158366
1002	0.0150876
1014	0.0227919
1026	0.0413035
1038	0.0769359
1050	0.121343
1062	0.122841
1074	0.114922
1086	0.114922
1098	0.0935215
1110	0.0724417
1122	0.16179
1134	0.650691
1146	1.03344
1158	0.495001
1170	0.119416
1182	0.0567121
1194	0.0592802
1206	0.0724417
1218	0.0690176
1230	0.0717997
1242	0.116206
1254	0.145953
1266	0.124232
1278	0.118774
1290	0.187364
1302	0.269971
1314	0.396022
1326	0.795789
1338	1.07004
1350	0.819651
1362	0.461187
1374	0.145739
1386	0.0762939
1398	0.079611
1410	0.111498
1422	0.0990857
1434	0.0629184
1446	0.0851752
1458	0.145418
1470	0.162218
1482	0.0957686
1494	0.0444067
1506	0.0384144
1518	0.0310312
1530	0.0199027
1542	0.0124125
1554	0.0107004
1566	0.0110214
1578	0.0116634
1590	0.00759728
1602	0.00727627
1614	0.00898834
1626	0.00695526
1638	0.00695526
1650	0.00631324
1662	0.00716927
1674	0.00866732
1686	0.00470818
1698	0.0052432
1710	0.00577822
1722	0.00845332
1734	0.00502919
1746	0.0053502
1758	0.00428016
1770	0.00438716
1782	0.00310312
1794	0.00406615
1806	0.00246109
1818	0.000856032
1830	0.00224708
1842	0.00246109
1854	0.000321012
1866	0.00149806
1878	0.00181907
1890	0.00181907
1902	0.00171206
1914	0.00117704
1926	0.00149806
1938	0.00149806
1950	0.00171206
1962	0.00224708
1974	0.00224708
1986	0.00310312
1998	0.0025681
2010	0.00224708
2022	0.0027821
2034	0.00321012
2046	0.00331712
2058	0.00246109
2070	0.0027821
2082	0.00299611
2094	0.00331712
2106	0.00395915
2118	0.00353113
2130	0.00331712
2142	0.0025681
2154	0.00214008
2166	0.0026751
2178	0.00299611
2190	0.00310312
2202	0.00321012
2214	0.0027821
2226	0.00299611
2238	0.00342413
2250	0.00374514
2262	0.00470818
2274	0.00609923
2286	0.00599222
2298	0.00481518
2310	0.0052432
2322	0.00716927
2334	0.00888133
2346	0.0125195
2358	0.00941635
2370	0.0101654
2382	0.00428016
2394	0.00395915
2406	0.0054572
2418	0.00620623
2430	0.00492218
2442	0.00438716
2454	0.0052432
2466	0.00652724
2478	0.00706226
2490	0.0053502
2502	0.00385214
2514	0.00246109
2526	0.00160506
2538	0.00053502
2550	0.000749028
2562	0
2574	0.000321012
2586	0.000749028
2598	0.000107004
2610	0.00139105
2622	0.00117704
2634	0.00246109
2646	0.00374514
2658	0.00609923
2670	0.00695526
2682	0.00599222
2694	0.00470818
2706	0.00438716
2718	0.00492218
2730	0.00652724
2742	0.00952336
2754	0.0151946
2766	0.0141245
2778	0.0124125
2790	0.0146595
2802	0.0201168
2814	0.025681
2826	0.0285701
2838	0.0331712
2850	0.0429086
2862	0.0616343
2874	0.123697
2886	0.277782
2898	0.275428
2910	0.204271
2922	0.277033
2934	0.382111
2946	0.454553
2958	0.382967
2970	0.56573
2982	0.790118
2994	0.376119
3006	0.150448
3018	0.0753308
3030	0.053502
3042	0.0448347
3054	0.0337063
3066	0.0240759
3078	0.0193677
3090	0.0172276
3102	0.0155156
3114	0.0144455
3126	0.0133755
3138	0.0115564
3150	0.0105934
3162	0.00909534
3174	0.00888133
3186	0.00770429
3198	0.00781129
3210	0.00695526
3222	0.00631324
3234	0.00663425
3246	0.00652724
3258	0.00577822
3270	0.00502919
3282	0.00406615
3294	0.00449417
3306	0.00492218
3318	0.00492218
3330	0.00588522
3342	0.00631324
3354	0.00631324
3366	0.00599222
3378	0.0052432
3390	0.00577822
3402	0.00481518
3414	0.0053502
3426	0.00599222
3438	0.00674125
3450	0.00695526
3462	0.00599222
3474	0.00577822
3486	0.0052432
3498	0.0053502
3510	0.00513619
3522	0.0052432
3534	0.00620623
3546	0.0053502
3558	0.0053502
3570	0.0053502
3582	0.00674125
3594	0.00460117
3606	0.00706226
3618	0.00684826
3630	0.00385214
3642	0.00652724
3654	0
3666	0.00834631
3678	0.00599222
3690	0.00171206
3702	0.00856032
3714	0.00502919
3726	0.00963036
3738	0.00866732
3750	0.000749028
3762	0.00930935
3774	0.0080253
3786	0.00909534
3798	0.00438716
3810	0.0118774
3822	0.00395915
3834	0.00652724
3846	0.00652724
3858	0.00406615
3870	0.0080253
3882	0.00631324
3894	0.0079183
3906	0.00160506
3918	0.000214008
3930	0.00695526
3942	0.0052432
3954	0.00620623
3966	0.0101654
