Infrared Spectrum: Cinnamic acid, o-bromo-.alpha.-cyano-, ethyl ester
Formula: C 12 H 10 Br N O 2
CAS: 59803-32-6
Origin: Sadtler Research Labs Under US-EPA Contract
1/CM	ABSORBANCE
450	0.00309841
462	0.00293533
474	0.00135895
486	0.00222868
498	0.00157638
510	0.00201125
522	0.00108716
534	0.00125023
546	0.00157638
558	0.00549016
570	0.0054358
582	0.0192971
594	0.015329
606	0.00407685
618	0.0037507
630	0.00244611
642	0.00451171
654	0.0116326
666	0.0253852
678	0.00799063
690	0.00576195
702	0.00739269
714	0.0100019
726	0.0216888
738	0.0614789
750	0.0643599
762	0.0554452
774	0.0303861
786	0.0145136
798	0.0121218
810	0.0107085
822	0.00962137
834	0.00967572
846	0.0146767
858	0.016253
870	0.013209
882	0.0140244
894	0.0192971
906	0.0103824
918	0.0113608
930	0.011687
942	0.00967572
954	0.0107629
966	0.00739269
978	0.00989316
990	0.0148397
1002	0.0292446
1014	0.053597
1026	0.0746879
1038	0.0572933
1050	0.0348435
1062	0.0317994
1074	0.0788735
1086	0.143125
1098	0.120457
1110	0.0530534
1122	0.0620768
1134	0.0273964
1146	0.0201668
1158	0.0237001
1170	0.0310928
1182	0.0397357
1194	0.0954526
1206	0.234555
1218	0.0936045
1230	0.118935
1242	0.295708
1254	0.54358
1266	0.2794
1278	0.191286
1290	0.095507
1302	0.0633814
1314	0.0404967
1326	0.024298
1338	0.0192971
1350	0.0193514
1362	0.024298
1374	0.0482699
1386	0.0195689
1398	0.0183186
1410	0.018373
1422	0.0213627
1434	0.0471284
1446	0.0422362
1458	0.0375614
1470	0.0594133
1482	0.0287554
1494	0.0122849
1506	0.00788191
1518	0.00630553
1530	0.00576195
1542	0.00581631
1554	0.00907779
1566	0.0142962
1578	0.017612
1590	0.0252221
1602	0.032343
1614	0.0747422
1626	0.0373983
1638	0.0113065
1650	0.00619681
1662	0.00630553
1674	0.00875164
1686	0.0129372
1698	0.0154377
1710	0.022015
1722	0.0302774
1734	0.0666973
1746	0.269616
1758	0.202592
1770	0.0486504
1782	0.0228847
1794	0.0157095
1806	0.0129916
1818	0.00837113
1830	0.00592502
1842	0.00516401
1854	0.00413121
1866	0.00364199
1878	0.00315276
1890	0.00358763
1902	0.00320712
1914	0.00358763
1926	0.00559887
1938	0.00364199
1950	0.00445736
1962	0.00369634
1974	0.00211996
1986	0.00163074
1998	0.00108716
2010	0.00157638
2022	0.00152202
2034	0.00157638
2046	0.00190253
2058	0.00152202
2070	0.00211996
2082	0.00195689
2094	0.00195689
2106	0.00293533
2118	0.00255483
2130	0.00195689
2142	0.00195689
2154	0.0010328
2166	0.0010328
2178	0.0010328
2190	0.00054358
2202	0.000924086
2214	0.00152202
2226	0.00260918
2238	0.00195689
2250	0.00141331
2262	0.00141331
2274	0.0016851
2286	0.00228304
2298	0.00385942
2310	0.00423992
2322	0.00407685
2334	0.00331584
2346	0.0037507
2358	0.00380506
2370	0.00190253
2382	0.00298969
2394	0.000924086
2406	0.00135895
2418	0.00125023
2430	0.000761012
2442	0.00130459
2454	0.000761012
2466	0.000761012
2478	0.00108716
2490	0.0010328
2502	0.00081537
2514	0.000706654
2526	0.000706654
2538	0.000652296
2550	0.000761012
2562	0.000706654
2574	0.000706654
2586	0.000761012
2598	0.0010328
2610	0.000706654
2622	0.00114152
2634	0.000597938
2646	0.000652296
2658	0.000706654
2670	0.000652296
2682	0.000163074
2694	0.000706654
2706	0.000761012
2718	0.000597938
2730	0.000597938
2742	0.000652296
2754	0.000924086
2766	0.000761012
2778	0.00173946
2790	0.00130459
2802	0.00163074
2814	0.00228304
2826	0.00233739
2838	0.00233739
2850	0.00331584
2862	0.00434864
2874	0.00619681
2886	0.00956701
2898	0.00924086
2910	0.0113608
2922	0.013209
2934	0.01397
2946	0.0267985
2958	0.0195689
2970	0.0224499
2982	0.0394095
2994	0.0544667
3006	0.028701
3018	0.0171228
3030	0.010328
3042	0.00853421
3054	0.0104367
3066	0.0200037
3078	0.0201125
3090	0.0111434
3102	0.00521837
3114	0.00418557
3126	0.00467479
3138	0.00320712
3150	0.00239175
3162	0.00179381
3174	0.00141331
3186	0.0016851
3198	0.00146767
3210	0.00135895
3222	0.000489222
3234	0.000489222
3246	0.000434864
3258	0.000924086
3270	0.00054358
3282	0.000597938
3294	0.000706654
3306	0.00108716
3318	0.00114152
3330	0.00108716
3342	0.00114152
3354	0.000924086
3366	0.00179381
3378	0.00119588
3390	0.000652296
3402	0.000761012
3414	0.000706654
3426	0.00130459
3438	0.000761012
3450	0.00125023
3462	0.00179381
3474	0.00326148
3486	0.00331584
3498	0.00190253
3510	0.000597938
3522	0.00114152
3534	0.00141331
3546	0.00146767
3558	0.00146767
3570	0.00141331
3582	0.00157638
3594	0.00152202
3606	0.0010328
3618	0.000924086
3630	0.00195689
3642	0.00152202
3654	0.00157638
3666	0.0016851
3678	0.00152202
3690	0.00179381
3702	0.00217432
3714	0.00125023
3726	0.000761012
3738	0.00163074
3750	0.00184817
3762	0.00179381
3774	0.00244611
3786	0.00190253
3798	0.00190253
3810	0.00233739
3822	0.00184817
3834	0.00239175
3846	0.0020656
3858	0.00184817
3870	0.00195689
3882	0.00201125
3894	0.00201125
3906	0.0020656
3918	0.00152202
3930	0.00201125
3942	0.0020656
3954	0.00250047
3966	0.00298969
