Infrared Spectrum: Hydantoin, 1-ethyl-3-methyl-2-thio-,
Formula: C 6 H 10 N 2 O S
CAS: 59865-21-3
Origin: Sadtler Research Labs Under US-EPA Contract
1/CM	ABSORBANCE
450	0
462	0.0101787
474	0.0287265
486	0.059715
498	0.0925129
510	0.045691
522	0.0253336
534	0.0260122
546	0.0296313
558	0.050441
570	0.118978
582	0.101108
594	0.0429767
606	0.0278217
618	0.0271432
630	0.0217145
642	0.0251074
654	0.050441
666	0.107894
678	0.136621
690	0.0780366
702	0.0352861
714	0.019905
726	0.0169645
738	0.0208098
750	0.0212621
762	0.0212621
774	0.0208098
786	0.0300837
798	0.0355123
810	0.0298575
822	0.0262384
834	0.024655
846	0.0217145
858	0.014024
870	0.0108573
882	0.0113096
894	0.0119882
906	0.0151549
918	0.0210359
930	0.0513458
942	0.154716
954	0.121239
966	0.0377742
978	0.0359647
990	0.0753223
1002	0.139561
1014	0.0995249
1026	0.0422981
1038	0.0330242
1050	0.0312146
1062	0.0601673
1074	0.0992987
1086	0.137752
1098	0.208098
1110	0.18005
1122	0.107894
1134	0.163085
1146	0.271658
1158	0.271658
1170	0.19249
1182	0.118525
1194	0.0834652
1206	0.103596
1218	0.27867
1230	0.471386
1242	0.294956
1254	0.102692
1266	0.0848224
1278	0.121918
1290	0.315539
1302	0.510291
1314	0.435648
1326	0.746211
1338	1.19204
1350	1.10699
1362	0.666138
1374	0.447862
1386	0.346754
1398	0.249717
1410	0.434969
1422	0.883284
1434	0.900248
1446	0.486315
1458	0.425469
1470	0.669757
1482	0.959963
1494	0.674734
1506	0.201538
1518	0.101787
1530	0.0800723
1542	0.0624293
1554	0.0513458
1566	0.0438814
1578	0.032798
1590	0.0235241
1602	0.0194526
1614	0.0190002
1626	0.0208098
1638	0.0230717
1650	0.0219407
1662	0.0239765
1674	0.0228455
1686	0.0214883
1698	0.0235241
1710	0.0334766
1722	0.0667269
1734	0.109251
1746	0.183216
1758	0.690115
1770	2.26193
1782	1.15788
1794	0.136394
1806	0.0506672
1818	0.0251074
1830	0.0178692
1842	0.0178692
1854	0.0183216
1866	0.0171907
1878	0.018774
1890	0.0169645
1902	0.0147025
1914	0.0156073
1926	0.0156073
1938	0.0126668
1950	0.0106311
1962	0.0104049
1974	0.0106311
1986	0.0108573
1998	0.0113096
2010	0.0108573
2022	0.0110835
2034	0.0110835
2046	0.011762
2058	0.0126668
2070	0.0153811
2082	0.0151549
2094	0.0135716
2106	0.0110835
2118	0.0101787
2130	0.0104049
2142	0.0110835
2154	0.0124406
2166	0.0147025
2178	0.0153811
2190	0.0137978
2202	0.012893
2214	0.0124406
2226	0.0124406
2238	0.0119882
2250	0.0113096
2262	0.0126668
2274	0.0144764
2286	0.0151549
2298	0.0192264
2310	0.0230717
2322	0.0214883
2334	0.0180954
2346	0.0208098
2358	0.0176431
2370	0.0174169
2382	0.0192264
2394	0.011762
2406	0.0104049
2418	0.0104049
2430	0.011762
2442	0.012893
2454	0.012893
2466	0.0131192
2478	0.012893
2490	0.011762
2502	0.0119882
2514	0.0122144
2526	0.0135716
2538	0.0142502
2550	0.0135716
2562	0.0131192
2574	0.0135716
2586	0.012893
2598	0.014024
2610	0.0153811
2622	0.0142502
2634	0.0131192
2646	0.0135716
2658	0.0142502
2670	0.0144764
2682	0.0153811
2694	0.0151549
2706	0.0160597
2718	0.0156073
2730	0.0156073
2742	0.0158335
2754	0.0183216
2766	0.0201312
2778	0.0210359
2790	0.0226193
2802	0.0244288
2814	0.0260122
2826	0.0275955
2838	0.0355123
2850	0.0477267
2862	0.0576792
2874	0.0701198
2886	0.0934177
2898	0.11287
2910	0.13843
2922	0.176431
2934	0.2133
2946	0.217824
2958	0.155621
2970	0.120561
2982	0.182312
2994	0.155621
3006	0.0624293
3018	0.0341551
3030	0.0266908
3042	0.0226193
3054	0.0208098
3066	0.0205836
3078	0.0201312
3090	0.0190002
3102	0.0171907
3114	0.0156073
3126	0.0156073
3138	0.0151549
3150	0.0147025
3162	0.0151549
3174	0.014024
3186	0.0137978
3198	0.0135716
3210	0.0124406
3222	0.0119882
3234	0.011762
3246	0.0113096
3258	0.011762
3270	0.0124406
3282	0.0113096
3294	0.0124406
3306	0.0106311
3318	0.0110835
3330	0.0113096
3342	0.0122144
3354	0.0119882
3366	0.0119882
3378	0.0113096
3390	0.0110835
3402	0.0113096
3414	0.0113096
3426	0.0113096
3438	0.0124406
3450	0.0122144
3462	0.0124406
3474	0.0119882
3486	0.0108573
3498	0.0147025
3510	0.0196788
3522	0.0341551
3534	0.0303099
3546	0.0137978
3558	0.0104049
3570	0.0131192
3582	0.0119882
3594	0.011762
3606	0.0131192
3618	0.0110835
3630	0.0135716
3642	0.0108573
3654	0.0113096
3666	0.0106311
3678	0.0122144
3690	0.011762
3702	0.0124406
3714	0.0119882
3726	0.0122144
3738	0.011762
3750	0.0108573
3762	0.0106311
3774	0.0110835
3786	0.0108573
3798	0.0101787
3810	0.0110835
3822	0.0101787
3834	0.0113096
3846	0.0106311
3858	0.0113096
3870	0.0113096
3882	0.0101787
3894	0.0104049
3906	0.012893
3918	0.0131192
3930	0.0110835
3942	0.0142502
3954	0.0142502
3966	0.0124406
