Infrared Spectrum: Benzenesulfonamide, N,N,4-trimethyl-
Formula: C 9 H 13 N O 2 S
CAS: 599-69-9
Origin: Sadtler Research Labs Under US-EPA Contract
1/CM	ABSORBANCE
450	0.000879928
462	0.00780936
474	0.00582952
486	0.00626949
498	0.00714942
510	0.0190284
522	0.0791935
534	0.190944
546	0.301485
558	0.310065
570	0.036297
582	0.0108891
594	0.00329973
606	0.00439964
618	0.00967921
630	0.0538956
642	0.236151
654	0.109771
666	0.0256279
678	0.0358571
690	0.157507
702	0.353401
714	0.572833
726	0.708562
738	0.12
750	0.024858
762	0.00879928
774	0.00802934
786	0.0355271
798	0.0832632
810	0.152448
822	0.105261
834	0.0169386
846	0.00681944
858	0.00296976
870	0.00428965
882	0.00758938
894	0.0136389
906	0.0251879
918	0.0476261
930	0.101852
942	0.235381
954	0.406417
966	0.346802
978	0.143538
990	0.0602751
1002	0.0373969
1014	0.0449863
1026	0.0441064
1038	0.0302475
1050	0.0453163
1062	0.0573053
1074	0.0522457
1086	0.115271
1098	0.182145
1110	0.0775437
1122	0.0423465
1134	0.0386068
1146	0.0877728
1158	0.389918
1170	1.09991
1182	0.390468
1194	0.138479
1206	0.1189
1218	0.0815033
1230	0.0554355
1242	0.0538956
1254	0.0742439
1266	0.1178
1278	0.111641
1290	0.0722641
1302	0.0656646
1314	0.0544455
1326	0.061595
1338	0.134739
1350	0.349881
1362	0.632998
1374	0.517398
1386	0.173456
1398	0.086123
1410	0.0934924
1422	0.073144
1434	0.0555455
1446	0.0651147
1458	0.0916225
1470	0.102952
1482	0.0815033
1494	0.0925024
1506	0.0636848
1518	0.0301375
1530	0.0218882
1542	0.0188085
1554	0.0170486
1566	0.0169386
1578	0.0235381
1590	0.0431165
1602	0.0654446
1614	0.0413566
1626	0.0160587
1638	0.0146288
1650	0.0178185
1662	0.0112191
1674	0.00681944
1686	0.0049496
1698	0.00285977
1710	0.00153987
1722	0.00208983
1734	0.00329973
1746	0.00351971
1758	0.00450963
1770	0.00384968
1782	0.00318974
1794	0.00912925
1806	0.00912925
1818	0.00186985
1830	0.000989919
1842	0.000659946
1854	0.00131989
1866	0.00175986
1878	0.00274977
1890	0.00461962
1902	0.00934923
1914	0.0144088
1926	0.00791935
1938	0.00329973
1950	0.00208983
1962	0.00263978
1974	0.00285977
1986	0.00263978
1998	0.00219982
2010	0.00164986
2022	0.00109991
2034	0.000549955
2046	0.000219982
2058	0
2070	0.000439964
2082	0.000549955
2094	0.00109991
2106	0.00131989
2118	0.00175986
2130	0.00131989
2142	0.000989919
2154	0.00153987
2166	0.00142988
2178	0.00142988
2190	0.00175986
2202	0.0012099
2214	0.000769937
2226	0.000659946
2238	0.0012099
2250	0.00252979
2262	0.00384968
2274	0.00252979
2286	0.00153987
2298	0.00186985
2310	0.0012099
2322	0.000439964
2334	0.00164986
2346	0.00373969
2358	0.00230981
2370	0.00637948
2382	0.00417966
2394	0.00285977
2406	0.00307975
2418	0.0024198
2430	0.00153987
2442	0.00186985
2454	0.0024198
2466	0.00252979
2478	0.00208983
2490	0.00208983
2502	0.00296976
2514	0.00439964
2526	0.0049496
2538	0.00406967
2550	0.00329973
2562	0.00296976
2574	0.00340972
2586	0.00428965
2598	0.00406967
2610	0.00329973
2622	0.00296976
2634	0.0024198
2646	0.00230981
2658	0.0024198
2670	0.00285977
2682	0.00351971
2694	0.00417966
2706	0.00417966
2718	0.00395968
2730	0.00527957
2742	0.00802934
2754	0.00879928
2766	0.00912925
2778	0.012209
2790	0.0170486
2802	0.0314574
2814	0.0582952
2826	0.0563154
2838	0.0476261
2850	0.0706142
2862	0.0919525
2874	0.109441
2886	0.131329
2898	0.136499
2910	0.137599
2922	0.154757
2934	0.204913
2946	0.207553
2958	0.197324
2970	0.153107
2982	0.0787536
2994	0.0631348
3006	0.061375
3018	0.0664346
3030	0.086123
3042	0.0890927
3054	0.0669845
3066	0.0530157
3078	0.0425665
3090	0.0313474
3102	0.0216682
3114	0.0131989
3126	0.00934923
3138	0.00670945
3150	0.00549955
3162	0.00439964
3174	0.00329973
3186	0.00274977
3198	0.00230981
3210	0.00186985
3222	0.00186985
3234	0.00131989
3246	0.00131989
3258	0.00153987
3270	0.000989919
3282	0.000989919
3294	0.00131989
3306	0.000989919
3318	0.00142988
3330	0.000989919
3342	0.00131989
3354	0.00131989
3366	0.00208983
3378	0.00109991
3390	0.00175986
3402	0.00197984
3414	0.00164986
3426	0.00197984
3438	0.00109991
3450	0.00142988
3462	0.00131989
3474	0.00142988
3486	0.0012099
3498	0.000769937
3510	0.000439964
3522	0.000549955
3534	0.000989919
3546	0.00131989
3558	0.00109991
3570	0.0012099
3582	0.000439964
3594	0.000989919
3606	0.000439964
3618	0.00153987
3630	0.00219982
3642	0.00175986
3654	0.00186985
3666	0.00208983
3678	0.00197984
3690	0.00164986
3702	0.0012099
3714	0.00219982
3726	0.00274977
3738	0.00252979
3750	0.000549955
3762	0.00197984
3774	0.00186985
3786	0.000879928
3798	0.00109991
3810	0.000549955
3822	0.00164986
3834	0.00142988
3846	0.00230981
3858	0.00208983
3870	0.00197984
3882	0.00252979
3894	0.00263978
3906	0.00219982
3918	0.00208983
3930	0.00175986
3942	0.00186985
3954	0.00307975
3966	0.00208983
