Infrared Spectrum: Propane, 1-chloro-1-nitro-
Formula: C 3 H 6 Cl N O 2
CAS: 600-25-9
Origin: Sadtler Research Labs Under US-EPA Contract
1/CM	ABSORBANCE
450	0.0118998
462	0.0121845
474	0.0143481
486	0.0124692
498	0.0125261
510	0.0118429
522	0.0116151
534	0.0121276
546	0.0113874
558	0.00905298
570	0.0111027
582	0.0103625
594	0.0124692
606	0.0110458
618	0.0136649
630	0.017195
642	0.0146897
654	0.0149744
666	0.0199279
678	0.025337
690	0.0318847
702	0.0313153
714	0.0319417
726	0.0395143
738	0.0293226
750	0.0130955
762	0.00688938
774	0.00717406
786	0.00990704
798	0.0382047
810	0.0629723
822	0.0602963
834	0.0502184
846	0.0390018
858	0.0277283
870	0.0323402
882	0.0387172
894	0.0299489
906	0.0207251
918	0.0259063
930	0.0314292
942	0.0213514
954	0.00802812
966	0.00222054
978	0.00102487
990	0.000512433
1002	0.000170811
1014	0.00170811
1026	0.0052382
1038	0.00694631
1050	0.00597839
1062	0.00666163
1074	0.010875
1086	0.0148036
1098	0.0138926
1110	0.013551
1122	0.0147467
1134	0.0101917
1146	0.00478271
1158	0.00318847
1170	0.00318847
1182	0.00296072
1194	0.00273298
1206	0.00421334
1218	0.0113874
1230	0.0318847
1242	0.0522112
1254	0.046119
1266	0.0308029
1278	0.0224901
1290	0.0341053
1302	0.0473146
1314	0.0469161
1326	0.0650221
1338	0.0950279
1350	0.102145
1362	0.094914
1374	0.0675273
1386	0.0382047
1398	0.0345608
1410	0.0182198
1422	0.0121845
1434	0.0215222
1446	0.0347885
1458	0.0448664
1470	0.0377492
1482	0.0203265
1494	0.00967929
1506	0.00973623
1518	0.0141204
1530	0.0277283
1542	0.0597269
1554	0.102316
1566	0.212603
1578	0.420309
1590	0.522454
1602	0.274095
1614	0.0978178
1626	0.0528375
1638	0.0231164
1650	0.0105333
1662	0.00489658
1674	0.00483965
1686	0.00392865
1698	0.00404253
1710	0.0010818
1722	0.0010818
1734	0.00347316
1746	0.00199279
1758	0.00199279
1770	0.00239135
1782	0.00136649
1794	0.00165117
1806	0.000854055
1818	0.000683244
1830	0.0015373
1842	0.0010818
1854	0.000113874
1866	0.000626307
1878	0.000113874
1890	0.000512433
1902	0.000170811
1914	0.000398559
1926	0.000227748
1938	0.000113874
1950	0.000113874
1962	0.000113874
1974	5.6937e-05
1986	5.6937e-05
1998	0.000113874
2010	5.6937e-05
2022	0.000170811
2034	5.6937e-05
2046	0.000113874
2058	5.6937e-05
2070	5.6937e-05
2082	5.6937e-05
2094	0.000113874
2106	5.6937e-05
2118	0.000170811
2130	0.00056937
2142	0.00102487
2154	0.000683244
2166	0.000512433
2178	5.6937e-05
2190	0.000512433
2202	0.000683244
2214	0.000284685
2226	0.00056937
2238	0.000512433
2250	0.00056937
2262	0.000626307
2274	0.0010818
2286	0.00125261
2298	0.00159424
2310	0.00136649
2322	0.000967929
2334	0.00165117
2346	0.00165117
2358	0.00130955
2370	0.00244829
2382	0.0026191
2394	0.00125261
2406	0.00159424
2418	0.00159424
2430	0.00165117
2442	0.00204973
2454	0.00216361
2466	0.00267604
2478	0.00267604
2490	0.00239135
2502	0.00222054
2514	0.00165117
2526	0.00170811
2538	0.00113874
2550	0.00176505
2562	0.000740181
2574	0.00125261
2586	0.00170811
2598	0.00187892
2610	0.00227748
2622	0.00227748
2634	0.00233442
2646	0.00273298
2658	0.00324541
2670	0.0041564
2682	0.00472577
2694	0.00466883
2706	0.00421334
2718	0.00381478
2730	0.0037009
2742	0.00290379
2754	0.00330235
2766	0.00375784
2778	0.00330235
2790	0.00324541
2802	0.00330235
2814	0.00330235
2826	0.00381478
2838	0.00478271
2850	0.00637694
2862	0.00888217
2874	0.0128108
2886	0.0226609
2898	0.0327388
2910	0.0287532
2922	0.0237427
2934	0.0302335
2946	0.0493074
2958	0.0502754
2970	0.0385463
2982	0.0609226
2994	0.0795979
3006	0.050617
3018	0.0168534
3030	0.007231
3042	0.00438415
3054	0.00341622
3066	0.00347316
3078	0.00364397
3090	0.00381478
3102	0.00335928
3114	0.00284685
3126	0.00227748
3138	0.00222054
3150	0.00227748
3162	0.00244829
3174	0.00250523
3186	0.00244829
3198	0.00204973
3210	0.00136649
3222	0.000967929
3234	0.000967929
3246	0.000910992
3258	0.000967929
3270	0.000967929
3282	0.000967929
3294	0.000398559
3306	0.0015373
3318	0.000455496
3330	0.000967929
3342	0.000455496
3354	0.000683244
3366	0.000455496
3378	0.000512433
3390	0.00102487
3402	0.000455496
3414	0.000455496
3426	0.000455496
3438	0.000455496
3450	0.000455496
3462	0.000455496
3474	0.000512433
3486	0.000512433
3498	0.000455496
3510	0.000170811
3522	5.6937e-05
3534	0.000512433
3546	0.000113874
3558	0.000455496
3570	0.000512433
3582	0.000455496
3594	0.000512433
3606	0.000455496
3618	0.000227748
3630	0.000683244
3642	0.000398559
3654	0.000967929
3666	0.00056937
3678	0.000797118
3690	0.000455496
3702	0.000512433
3714	0.000854055
3726	0.000626307
3738	0.00142343
3750	0.00125261
3762	0.00176505
3774	0.00170811
3786	0.000910992
3798	0.00130955
3810	0.00119568
3822	0.00148036
3834	0.00159424
3846	0.000967929
3858	0.00182198
3870	0.000910992
3882	0.000113874
3894	0.000455496
3906	0.00142343
3918	0.000683244
3930	0.000683244
3942	0.000740181
3954	0.000854055
3966	0.00130955
