Infrared Spectrum: 3-Pentanol, 2,4-dimethyl-
Formula: C 7 H 16 O
CAS: 600-36-2
Origin: Sadtler Research Labs Under US-EPA Contract
1/CM	ABSORBANCE
450	0.016094
462	0.0122779
474	0.0119461
486	0.0293675
498	0.0184169
510	0.0117802
522	0.00962324
534	0.00796406
546	0.0205738
558	0.0129416
570	0.0132734
582	0.0154304
594	0.0172555
606	0.018251
618	0.0243899
630	0.0240581
642	0.0165918
654	0.0122779
666	0.0109506
678	0.00895957
690	0.00879365
702	0.00746631
714	0.0109506
726	0.00862774
738	0.0018251
750	0.00680264
762	0.0122779
774	0.0129416
786	0.0225648
798	0.0199102
810	0.0134394
822	0.0137712
834	0.0184169
846	0.026381
858	0.0214034
870	0.0144349
882	0.0159281
894	0.0250536
906	0.0358383
918	0.0413136
930	0.046457
942	0.0570758
954	0.0968961
966	0.172057
978	0.303464
990	0.440015
1002	0.400858
1014	0.21055
1026	0.0929141
1038	0.0514346
1050	0.0447979
1062	0.0579054
1074	0.0801384
1086	0.123941
1098	0.155963
1110	0.127923
1122	0.0929141
1134	0.0881025
1146	0.115645
1158	0.143353
1170	0.137214
1182	0.0997167
1194	0.0653717
1206	0.0720084
1218	0.0985553
1230	0.117304
1242	0.118797
1254	0.0983894
1266	0.0763223
1278	0.0698515
1290	0.0701833
1302	0.0638784
1314	0.0585691
1326	0.0524301
1338	0.052596
1350	0.0706811
1362	0.134228
1374	0.219178
1386	0.271774
1398	0.216025
1410	0.0832908
1422	0.0423091
1434	0.042475
1446	0.0781474
1458	0.168905
1470	0.255348
1482	0.204909
1494	0.0778155
1506	0.0278742
1518	0.0185828
1530	0.0146008
1542	0.0112824
1554	0.0106188
1566	0.00962324
1578	0.00763223
1590	0.0082959
1602	0.00846182
1614	0.00812998
1626	0.00846182
1638	0.00730039
1650	0.00779815
1662	0.00746631
1674	0.00730039
1686	0.00696856
1698	0.00779815
1710	0.0119461
1722	0.0177532
1734	0.0154304
1746	0.00779815
1758	0.00564121
1770	0.00447979
1782	0.00348428
1794	0.00265469
1806	0.00232285
1818	0.00265469
1830	0.00215693
1842	0.00132734
1854	0.00232285
1866	0.00199102
1878	0.00232285
1890	0.00282061
1902	0.00248877
1914	0.0018251
1926	0.00232285
1938	0.00199102
1950	0.00199102
1962	0.00199102
1974	0.00298652
1986	0.00331836
1998	0.00265469
2010	0.00165918
2022	0.00149326
2034	0.000663672
2046	0
2058	0
2070	0.00116143
2082	0.00232285
2094	0.00199102
2106	0.00248877
2118	0.00199102
2130	0.00132734
2142	0.00199102
2154	0.00248877
2166	0.00282061
2178	0.00232285
2190	0.00199102
2202	0.00265469
2214	0.00232285
2226	0.0036502
2238	0.00282061
2250	0.00248877
2262	0.00282061
2274	0.00298652
2286	0.00447979
2298	0.00514346
2310	0.00630488
2322	0.00663672
2334	0.00630488
2346	0.00530938
2358	0.0064708
2370	0.00481162
2382	0.00696856
2394	0.00779815
2406	0.0064708
2418	0.00663672
2430	0.00613897
2442	0.00696856
2454	0.00779815
2466	0.00630488
2478	0.00696856
2490	0.00696856
2502	0.00613897
2514	0.00730039
2526	0.00763223
2538	0.00779815
2550	0.00846182
2562	0.00929141
2574	0.012112
2586	0.0152645
2598	0.0189147
2610	0.0209057
2622	0.0212375
2634	0.0217353
2646	0.0210716
2658	0.0180851
2670	0.0207398
2682	0.0225648
2694	0.0240581
2706	0.0235604
2718	0.0273765
2730	0.0360042
2742	0.0388248
2754	0.0333495
2766	0.0355065
2778	0.0371656
2790	0.036336
2802	0.0409817
2814	0.054587
2826	0.0864433
2838	0.146837
2850	0.213039
2862	0.254352
2874	0.425248
2886	0.5837
2898	0.496924
2910	0.506216
2922	0.605435
2934	0.677443
2946	0.771021
2958	1.06801
2970	1.65918
2982	1.10933
2994	0.37232
3006	0.125268
3018	0.0585691
3030	0.042475
3042	0.0338473
3054	0.0306948
3066	0.0267128
3078	0.0253855
3090	0.0238922
3102	0.0214034
3114	0.0212375
3126	0.0200761
3138	0.0217353
3150	0.0219012
3162	0.0235604
3174	0.0232285
3186	0.0225648
3198	0.0189147
3210	0.0136053
3222	0.00796406
3234	0.00597305
3246	0.00547529
3258	0.00248877
3270	0.00447979
3282	0.00431387
3294	0.00381611
3306	0.00481162
3318	0.00298652
3330	0.00447979
3342	0.00398203
3354	0.0046457
3366	0.00547529
3378	0.00381611
3390	0.00564121
3402	0.00514346
3414	0.00381611
3426	0.00431387
3438	0.00547529
3450	0.00580713
3462	0.00580713
3474	0.00663672
3486	0.00547529
3498	0.00530938
3510	0.00381611
3522	0.00481162
3534	0.00381611
3546	0.00497754
3558	0.0046457
3570	0.00597305
3582	0.00447979
3594	0.00547529
3606	0.00730039
3618	0.0114483
3630	0.0215693
3642	0.0414795
3654	0.0622193
3666	0.0914208
3678	0.074829
3690	0.0278742
3702	0.0127757
3714	0.00779815
3726	0.00630488
3738	0.00564121
3750	0.00597305
3762	0.00597305
3774	0.00812998
3786	0.00912549
3798	0.00779815
3810	0.00895957
3822	0.00995508
3834	0.0109506
3846	0.012112
3858	0.0111165
3870	0.00879365
3882	0.0129416
3894	0.00978916
3906	0.00730039
3918	0.00165918
3930	0.0064708
3942	0.00431387
3954	0.00248877
3966	0.00730039
