Infrared Spectrum: Spiro[5.7]tridec-1-ene-3-one
Formula: C 13 H 20 O
CAS: 60033-39-8
Origin: Sadtler Research Labs Under US-EPA Contract
1/CM	ABSORBANCE
450	0.0333173
462	0
474	0.0121635
486	0.0117228
498	0.00951923
510	0.00943109
522	0.0088141
534	0.0088141
546	0.00511218
558	0.00423077
570	0.0049359
582	0.00423077
594	0.00661057
606	0.00475961
618	0.00511218
630	0.00414263
642	0.00643429
654	0.00634615
666	0.00740384
678	0.00423077
690	0.0038782
702	0.00749198
714	0.00969551
726	0.0103125
738	0.0153365
750	0.028117
762	0.0260897
774	0.0330529
786	0.0252965
798	0.0215064
810	0.0454808
822	0.0459215
834	0.0388702
846	0.0259135
858	0.011899
870	0.0135737
882	0.012516
894	0.00828525
906	0.00590545
918	0.00661057
930	0.011282
942	0.0126923
954	0.0140144
966	0.0145433
978	0.0237981
990	0.0255609
1002	0.0194792
1014	0.0119872
1026	0.0113702
1038	0.00802083
1050	0.00854968
1062	0.0101362
1074	0.0138381
1086	0.0126042
1098	0.0164824
1110	0.0326122
1122	0.0479487
1134	0.0237099
1146	0.0142788
1158	0.0158654
1170	0.0243269
1182	0.0321715
1194	0.0338461
1206	0.0563221
1218	0.0521795
1230	0.0388702
1242	0.0544711
1254	0.0350801
1266	0.0242388
1278	0.0152484
1290	0.0111939
1302	0.0134856
1314	0.0134856
1326	0.0232692
1338	0.0257372
1350	0.0242388
1362	0.0265304
1374	0.028117
1386	0.0398397
1398	0.0252965
1410	0.0145433
1422	0.0304968
1434	0.0370192
1446	0.083117
1458	0.100833
1470	0.0728926
1482	0.0599359
1494	0.018774
1506	0.00890224
1518	0.00625801
1530	0.00467147
1542	0.00520032
1554	0.00484775
1566	0.00431891
1578	0.00502404
1590	0.00599359
1602	0.0088141
1614	0.0152484
1626	0.0155128
1638	0.0148958
1650	0.0245032
1662	0.0430128
1674	0.0623157
1686	0.126923
1698	0.442732
1710	0.668109
1722	0.144199
1734	0.0602003
1746	0.0401042
1758	0.0278526
1770	0.0170994
1782	0.00978365
1794	0.00722756
1806	0.00572916
1818	0.00396634
1830	0.0038782
1842	0.00308494
1854	0.00273237
1866	0.00273237
1878	0.00211538
1890	0.00167468
1902	0.00132212
1914	0.00114583
1926	0.00105769
1938	0.00158654
1950	0.000969551
1962	0.00185096
1974	0.00202724
1986	0.00114583
1998	0.000793269
2010	0.000616987
2022	0.000528846
2034	0.000705128
2046	0.00105769
2058	0.00105769
2070	0.000969551
2082	0.000793269
2094	0.00123397
2106	0.00105769
2118	0.000969551
2130	0.000969551
2142	0.000969551
2154	0.00105769
2166	0.00123397
2178	0.00114583
2190	0.00114583
2202	0.00105769
2214	0.00088141
2226	0.000969551
2238	0.000440705
2250	0.000705128
2262	0.000528846
2274	0.000969551
2286	0.000793269
2298	0.000528846
2310	0.000352564
2322	0.000264423
2334	0
2346	0
2358	0
2370	0
2382	0.000528846
2394	0.00088141
2406	0.00088141
2418	0.00088141
2430	0.000969551
2442	0.0014984
2454	0.00132212
2466	0.00088141
2478	0.000793269
2490	0.000705128
2502	0.00088141
2514	0.000969551
2526	0.000793269
2538	0.00114583
2550	0.00185096
2562	0.00229167
2574	0.00202724
2586	0.00237981
2598	0.00264423
2610	0.00282051
2622	0.00352564
2634	0.00396634
2646	0.00405449
2658	0.00528846
2670	0.0073157
2682	0.00960737
2694	0.0116346
2706	0.0114583
2718	0.00907852
2730	0.006875
2742	0.00546474
2754	0.00502404
2766	0.00608173
2778	0.00740384
2790	0.00960737
2802	0.013133
2814	0.0155128
2826	0.0189503
2838	0.0255609
2850	0.0634615
2862	0.189503
2874	0.178662
2886	0.114495
2898	0.119607
2910	0.241594
2922	0.54383
2934	0.88141
2946	0.507692
2958	0.251819
2970	0.142524
2982	0.0490064
2994	0.0234455
3006	0.0175401
3018	0.0271474
3030	0.0420433
3042	0.0241506
3054	0.0241506
3066	0.0116346
3078	0.00581731
3090	0.00449519
3102	0.00431891
3114	0.00246795
3126	0.00229167
3138	0.00273237
3150	0.0019391
3162	0.00237981
3174	0.0014984
3186	0.0019391
3198	0.0014984
3210	0.00229167
3222	0.0019391
3234	0.0014984
3246	0.00123397
3258	0.00114583
3270	0.00158654
3282	0.00202724
3294	0.00229167
3306	0.00158654
3318	0.00273237
3330	0.00299679
3342	0.00264423
3354	0.00282051
3366	0.00431891
3378	0.00678686
3390	0.0111058
3402	0.00749198
3414	0.00370192
3426	0.00220353
3438	0.00282051
3450	0.0019391
3462	0.0019391
3474	0.00167468
3486	0.000793269
3498	0.000705128
3510	0.000969551
3522	0.000793269
3534	0.000969551
3546	0.00132212
3558	0.00088141
3570	0.00229167
3582	0.00202724
3594	0.00185096
3606	8.8141e-05
3618	0.00202724
3630	0.00237981
3642	0.00211538
3654	0.00167468
3666	0.00132212
3678	0.00202724
3690	0.00176282
3702	0.00220353
3714	0.00141026
3726	0.00220353
3738	0.00246795
3750	0.0014984
3762	0.00088141
3774	0.00176282
3786	0.00202724
3798	0.00299679
3810	0.00132212
3822	0.00167468
3834	0.00176282
3846	0.00158654
3858	0.000793269
3870	0.0019391
3882	0.00114583
3894	0.00123397
3906	0.0014984
3918	0.0019391
3930	0.00211538
3942	0.00229167
3954	0.00185096
3966	0.0019391
