Infrared Spectrum: Maleic acid, 2-acetyl-1,2-di-methyl hydrazino-, dimethyl ester
Formula: C 10 H 16 N 2 O 5
CAS: 60051-16-3
Origin: Sadtler Research Labs Under US-EPA Contract
1/CM	ABSORBANCE
450	0
462	0.0151256
474	0.0100137
486	0.0217081
498	0.0339626
510	0.0290608
522	0.0182068
534	0.0147055
546	0.0159659
558	0.021428
570	0.0151256
582	0.0198874
594	0.0271001
606	0.0210078
618	0.0149155
630	0.0151256
642	0.0121145
654	0.0117644
666	0.0132349
678	0.0141453
690	0.0180667
702	0.013445
714	0.0109241
726	0.0105039
738	0.0144954
750	0.0236688
762	0.0250693
774	0.048598
786	0.0526596
798	0.0417355
810	0.0653343
822	0.0553906
834	0.0438363
846	0.0264698
858	0.0210778
870	0.0176466
882	0.0158959
894	0.0198874
906	0.0391445
918	0.0301112
930	0.0172964
942	0.0256995
954	0.0339626
966	0.0310215
978	0.0337525
990	0.0546903
1002	0.0474776
1014	0.0419456
1026	0.0724069
1038	0.10665
1050	0.08088
1062	0.0653343
1074	0.0805299
1086	0.0920842
1098	0.0840312
1110	0.113232
1122	0.146915
1134	0.185709
1146	0.355172
1158	0.643749
1170	0.371698
1182	0.219812
1194	0.217501
1206	0.197403
1218	0.245301
1230	0.26848
1242	0.212669
1254	0.203916
1266	0.239279
1278	0.213509
1290	0.121775
1302	0.0845914
1314	0.0885829
1326	0.109591
1338	0.126397
1350	0.127307
1362	0.190471
1374	0.281364
1386	0.214069
1398	0.115403
1410	0.0874625
1422	0.0949553
1434	0.143133
1446	0.144184
1458	0.0733872
1470	0.0634436
1482	0.0490182
1494	0.0397047
1506	0.0366936
1518	0.0335425
1530	0.0343127
1542	0.0358533
1554	0.0399148
1566	0.0480378
1578	0.0734573
1590	0.140752
1602	0.359373
1614	0.522884
1626	0.18851
1638	0.083611
1650	0.0614828
1662	0.0505588
1674	0.0554606
1686	0.0725469
1698	0.130038
1710	0.595291
1722	0.422047
1734	0.407551
1746	0.209308
1758	0.301602
1770	0.252934
1782	0.0579115
1794	0.0381642
1806	0.032422
1818	0.0235988
1830	0.0192572
1842	0.0163161
1854	0.0142853
1866	0.0137951
1878	0.0130949
1890	0.0129548
1902	0.0130248
1914	0.0128848
1926	0.0132349
1938	0.013375
1950	0.0126747
1962	0.0121145
1974	0.0123246
1986	0.0124646
1998	0.0123246
2010	0.0121145
2022	0.0122545
2034	0.0126047
2046	0.013375
2058	0.0147755
2070	0.0151956
2082	0.013445
2094	0.0131649
2106	0.0128848
2118	0.0125347
2130	0.0118344
2142	0.0110641
2154	0.0109241
2166	0.010644
2178	0.0109941
2190	0.0109241
2202	0.010784
2214	0.010784
2226	0.010714
2238	0.0116943
2250	0.0120445
2262	0.0123946
2274	0.0137951
2286	0.0154057
2298	0.0184168
2310	0.0217781
2322	0.0197473
2334	0.0155458
2346	0.0226184
2358	0.0182768
2370	0.0165962
2382	0.0196073
2394	0.0116243
2406	0.0109941
2418	0.0100837
2430	0.0101538
2442	0.0105739
2454	0.0105739
2466	0.0100837
2478	0.0100137
2490	0.0102238
2502	0.0101538
2514	0.0103638
2526	0.0102238
2538	0.0105739
2550	0.0102238
2562	0.0105039
2574	0.0110641
2586	0.0114142
2598	0.0118344
2610	0.0114843
2622	0.0111341
2634	0.0112042
2646	0.0116243
2658	0.0119044
2670	0.0115543
2682	0.0116943
2694	0.0114843
2706	0.0114843
2718	0.0112042
2730	0.0112042
2742	0.0116943
2754	0.0121845
2766	0.0128848
2778	0.013375
2790	0.0147755
2802	0.0168062
2814	0.0195373
2826	0.0224783
2838	0.0271001
2850	0.0361334
2862	0.029761
2874	0.029761
2886	0.0383042
2898	0.0483179
2910	0.0534298
2922	0.0542701
2934	0.0640038
2946	0.0906136
2958	0.167922
2970	0.101888
2982	0.0552505
2994	0.0545503
3006	0.0554606
3018	0.0471975
3030	0.0439763
3042	0.0348729
3054	0.0272401
3066	0.0244391
3078	0.0232486
3090	0.0245091
3102	0.0221282
3114	0.0178566
3126	0.016176
3138	0.0147055
3150	0.0137251
3162	0.0130949
3174	0.0121845
3186	0.0116243
3198	0.0112742
3210	0.010644
3222	0.0105039
3234	0.0103638
3246	0.0109941
3258	0.0109941
3270	0.0110641
3282	0.010854
3294	0.0113442
3306	0.0112742
3318	0.0112742
3330	0.0111341
3342	0.0121145
3354	0.0113442
3366	0.0113442
3378	0.0109941
3390	0.0122545
3402	0.0137251
3414	0.0130248
3426	0.0119044
3438	0.0121845
3450	0.0117644
3462	0.0105039
3474	0.0104339
3486	0.010644
3498	0.0116943
3510	0.0110641
3522	0.0104339
3534	0.0103638
3546	0.0109941
3558	0.0113442
3570	0.0117644
3582	0.0109241
3594	0.0115543
3606	0.0110641
3618	0.0109241
3630	0.0124646
3642	0.0116243
3654	0.0119044
3666	0.00980364
3678	0.0119044
3690	0.0113442
3702	0.010784
3714	0.0120445
3726	0.0103638
3738	0.0130248
3750	0.0102238
3762	0.010854
3774	0.00987367
3786	0.00980364
3798	0.010784
3810	0.0111341
3822	0.010714
3834	0.0109241
3846	0.0100837
3858	0.0118344
3870	0.0113442
3882	0.0116943
3894	0.0116943
3906	0.0110641
3918	0.0116943
3930	0.0118344
3942	0.0114142
3954	0.0113442
3966	0.0123946
