Infrared Spectrum: Benzene, 1,3-dichloro-2-nitro-
Formula: C 6 H 3 Cl 2 N O 2
CAS: 601-88-7
Origin: Sadtler Research Labs Under US-EPA Contract
1/CM	ABSORBANCE
450	0
462	0.145211
474	0.188557
486	0.155686
498	0.163633
510	0.164356
522	0.162188
534	0.149907
546	0.166041
558	0.167847
570	0.169533
582	0.170737
594	0.164356
606	0.15677
618	0.158576
630	0.15665
642	0.154362
654	0.151833
666	0.15075
678	0.15087
690	0.153639
702	0.18651
714	0.214686
726	0.230218
738	0.201923
750	0.164356
762	0.188798
774	0.320644
786	0.265016
798	0.175794
810	0.423351
822	0.413598
834	0.1658
846	0.253336
858	0.23359
870	0.154723
882	0.148101
894	0.14509
906	0.145933
918	0.147739
930	0.147619
942	0.145813
954	0.145692
966	0.147739
978	0.148221
990	0.143886
1002	0.142321
1014	0.142803
1026	0.141358
1038	0.140395
1050	0.14196
1062	0.144609
1074	0.142441
1086	0.153399
1098	0.181213
1110	0.15966
1122	0.144368
1134	0.142321
1146	0.144248
1158	0.15665
1170	0.178804
1182	0.178202
1194	0.187233
1206	0.241055
1218	0.157372
1230	0.144729
1242	0.144007
1254	0.143886
1266	0.144488
1278	0.143886
1290	0.142923
1302	0.146776
1314	0.163272
1326	0.178082
1338	0.188919
1350	0.317995
1362	0.458269
1374	0.282354
1386	0.180972
1398	0.172543
1410	0.157492
1422	0.167245
1434	0.229135
1446	0.352552
1458	0.237683
1470	0.157974
1482	0.1717
1494	0.183019
1506	0.199033
1518	0.200598
1530	0.210833
1542	0.252132
1554	0.553872
1566	1.20407
1578	0.724971
1590	0.260079
1602	0.175915
1614	0.215769
1626	0.200116
1638	0.158094
1650	0.15075
1662	0.147499
1674	0.149907
1686	0.146295
1698	0.144488
1710	0.139431
1722	0.140876
1734	0.146054
1746	0.145692
1758	0.142201
1770	0.143886
1782	0.145211
1794	0.143646
1806	0.13919
1818	0.137505
1830	0.140033
1842	0.140274
1854	0.14208
1866	0.144368
1878	0.138107
1890	0.138709
1902	0.137746
1914	0.139431
1926	0.142201
1938	0.144248
1950	0.13907
1962	0.137746
1974	0.136903
1986	0.137384
1998	0.137144
2010	0.135819
2022	0.13618
2034	0.134735
2046	0.13594
2058	0.135337
2070	0.135578
2082	0.135337
2094	0.134495
2106	0.135458
2118	0.134374
2130	0.134495
2142	0.135217
2154	0.134254
2166	0.133652
2178	0.134133
2190	0.133531
2202	0.133652
2214	0.134133
2226	0.134133
2238	0.134374
2250	0.134495
2262	0.134495
2274	0.134735
2286	0.133531
2298	0.134013
2310	0.133893
2322	0.133411
2334	0.134133
2346	0.137384
2358	0.131123
2370	0.137505
2382	0.13594
2394	0.133411
2406	0.135578
2418	0.134374
2430	0.13305
2442	0.132809
2454	0.132809
2466	0.132689
2478	0.132689
2490	0.13317
2502	0.132689
2514	0.132568
2526	0.13317
2538	0.132448
2550	0.131725
2562	0.130882
2574	0.131725
2586	0.132448
2598	0.132086
2610	0.132448
2622	0.132809
2634	0.132448
2646	0.132448
2658	0.133652
2670	0.134133
2682	0.134133
2694	0.133652
2706	0.134735
2718	0.135217
2730	0.134495
2742	0.13317
2754	0.132929
2766	0.131846
2778	0.132327
2790	0.132207
2802	0.132809
2814	0.132929
2826	0.132929
2838	0.133531
2850	0.134495
2862	0.135819
2874	0.137866
2886	0.139431
2898	0.140395
2910	0.146295
2922	0.147258
2934	0.13895
2946	0.13594
2958	0.135097
2970	0.134133
2982	0.134254
2994	0.135699
3006	0.13594
3018	0.134495
3030	0.133531
3042	0.132929
3054	0.133893
3066	0.136662
3078	0.144488
3090	0.144609
3102	0.135337
3114	0.134013
3126	0.132327
3138	0.133411
3150	0.13317
3162	0.133652
3174	0.131966
3186	0.132086
3198	0.132448
3210	0.132207
3222	0.131725
3234	0.132086
3246	0.132086
3258	0.131725
3270	0.131364
3282	0.131966
3294	0.131966
3306	0.131003
3318	0.131966
3330	0.131364
3342	0.131484
3354	0.132448
3366	0.132327
3378	0.132086
3390	0.131364
3402	0.131966
3414	0.131966
3426	0.132327
3438	0.132327
3450	0.132327
3462	0.132448
3474	0.132809
3486	0.131364
3498	0.132207
3510	0.132568
3522	0.132689
3534	0.131846
3546	0.132207
3558	0.132448
3570	0.131966
3582	0.132086
3594	0.132689
3606	0.131966
3618	0.132568
3630	0.133893
3642	0.134013
3654	0.133411
3666	0.133291
3678	0.132448
3690	0.131846
3702	0.132448
3714	0.133652
3726	0.132689
3738	0.133411
3750	0.130882
3762	0.134254
3774	0.13305
3786	0.134615
3798	0.131605
3810	0.135097
3822	0.132929
3834	0.131123
3846	0.132327
3858	0.132086
3870	0.134254
3882	0.131605
3894	0.130882
3906	0.134615
3918	0.132689
3930	0.134615
3942	0.13317
3954	0.13305
3966	0.134013
