Infrared Spectrum: Benzene, 1-methyl-2,3-dinitro-
Formula: C 7 H 6 N 2 O 4
CAS: 602-01-7
Origin: Sadtler Research Labs Under US-EPA Contract
1/CM	ABSORBANCE
450	0.0134993
462	0.00947125
474	0.0087092
486	0.00609644
498	0.004028
510	0.00315709
522	0.00674963
534	0.00511665
546	0.00576985
558	0.0116486
570	0.00936239
582	0.0108865
594	0.0100156
606	0.00511665
618	0.00370141
630	0.004028
642	0.00359254
654	0.00348368
666	0.00457233
678	0.00696736
690	0.0163298
702	0.0627062
714	0.0525818
726	0.0458322
738	0.0628151
750	0.0802335
762	0.0517109
774	0.021773
786	0.0383205
798	0.183982
810	0.12857
822	0.0183982
834	0.0187248
846	0.0694559
858	0.058896
870	0.00631417
882	0.00326595
894	0.00424573
906	0.0106688
918	0.0271074
930	0.0218819
942	0.00391914
954	0.00272163
966	0.00337481
978	0.00413687
990	0.00304822
1002	0.0043546
1014	0.00555211
1026	0.00762055
1038	0.00827374
1050	0.00696736
1062	0.010451
1074	0.0219907
1086	0.0178539
1098	0.00892693
1110	0.0062053
1122	0.0062053
1134	0.00664076
1146	0.00609644
1158	0.00783828
1170	0.0100156
1182	0.00674963
1194	0.0109954
1206	0.00849147
1218	0.00522552
1230	0.00696736
1242	0.0100156
1254	0.0143702
1266	0.0181805
1278	0.0231882
1290	0.0401712
1302	0.0445258
1314	0.0401712
1326	0.07577
1338	0.21577
1350	0.384838
1362	0.405413
1374	0.186703
1386	0.0707622
1398	0.0605289
1410	0.0370141
1422	0.0337481
1434	0.0404978
1446	0.045941
1458	0.0522552
1470	0.0531261
1482	0.0418042
1494	0.0415864
1506	0.0546502
1518	0.0882895
1530	0.156004
1542	0.29829
1554	0.734839
1566	1.07972
1578	0.547264
1590	0.25605
1602	0.106252
1614	0.0489892
1626	0.0278694
1638	0.0214464
1650	0.0189425
1662	0.016112
1674	0.0125195
1686	0.00947125
1698	0.00947125
1710	0.00718509
1722	0.00642303
1734	0.00827374
1746	0.00468119
1758	0.00381027
1770	0.0043546
1782	0.00370141
1794	0.00326595
1806	0.00359254
1818	0.0043546
1830	0.00348368
1842	0.00272163
1854	0.00087092
1866	0.00185071
1878	0.00413687
1890	0.00489893
1902	0.00152411
1914	0.00141524
1926	0.00141524
1938	0.00272163
1950	0.00566098
1962	0.00359254
1974	0.00065319
1986	0.000326595
1998	0.000108865
2010	0.00021773
2022	0.000326595
2034	0.00021773
2046	0.00065319
2058	0.00021773
2070	0.00087092
2082	0.000762055
2094	0.000108865
2106	0.00021773
2118	0
2130	0
2142	0.000326595
2154	0.00021773
2166	0.00043546
2178	0.00043546
2190	0.00108865
2202	0.00119751
2214	0.000762055
2226	0.000326595
2238	0.00043546
2250	0.000326595
2262	0.000326595
2274	0.000544325
2286	0.00130638
2298	0.00272163
2310	0.00370141
2322	0.00381027
2334	0.00315709
2346	0.00348368
2358	0.004028
2370	0.00370141
2382	0.00479006
2394	0.00326595
2406	0.00381027
2418	0.00304822
2430	0.00195957
2442	0.00087092
2454	0.00130638
2466	0.00119751
2478	0.00206843
2490	0.00195957
2502	0.00195957
2514	0.00195957
2526	0.00152411
2538	0.00163297
2550	0.00195957
2562	0.00195957
2574	0.00185071
2586	0.00195957
2598	0.00239503
2610	0.00250389
2622	0.00206843
2634	0.00272163
2646	0.00326595
2658	0.00337481
2670	0.004028
2682	0.00566098
2694	0.0068585
2706	0.00707622
2718	0.00674963
2730	0.00511665
2742	0.00446346
2754	0.00457233
2766	0.00468119
2778	0.00457233
2790	0.00381027
2802	0.00424573
2814	0.00424573
2826	0.00511665
2838	0.0062053
2850	0.00762055
2862	0.011322
2874	0.0154588
2886	0.0199223
2898	0.0231882
2910	0.0252567
2922	0.0246035
2934	0.0272162
2946	0.0289581
2958	0.0207932
2970	0.0134993
2982	0.0149145
2994	0.0172007
3006	0.0162209
3018	0.0127372
3030	0.0127372
3042	0.0140436
3054	0.011322
3066	0.0123017
3078	0.0206844
3090	0.0215553
3102	0.0127372
3114	0.00576985
3126	0.00370141
3138	0.00315709
3150	0.00250389
3162	0.00239503
3174	0.00272163
3186	0.00283049
3198	0.00326595
3210	0.00304822
3222	0.00293935
3234	0.00206843
3246	0.00228616
3258	0.00141524
3270	0.00174184
3282	0.00185071
3294	0.00130638
3306	0.00108865
3318	0.00174184
3330	0.000979785
3342	0.00065319
3354	0.00130638
3366	0.00141524
3378	0.00130638
3390	0.00119751
3402	0.00152411
3414	0.00163297
3426	0.00152411
3438	0.00163297
3450	0.00206843
3462	0.00195957
3474	0.00163297
3486	0.00130638
3498	0.00206843
3510	0.0021773
3522	0.00195957
3534	0.00195957
3546	0.00206843
3558	0.00065319
3570	0.00250389
3582	0.0021773
3594	0.00087092
3606	0.00174184
3618	0.000979785
3630	0.00206843
3642	0.00087092
3654	0.00163297
3666	0.000979785
3678	0.000979785
3690	0.00021773
3702	0.000544325
3714	0
3726	0.00185071
3738	0.00152411
3750	0.00119751
3762	0.000544325
3774	0.00163297
3786	0.00130638
3798	0.00163297
3810	0.00206843
3822	0.000979785
3834	0.00108865
3846	0.00239503
3858	0.00108865
3870	0.000979785
3882	0.00228616
3894	0.00185071
3906	0.00195957
3918	0.00315709
3930	0.00206843
3942	0.00206843
3954	0.00326595
3966	0.00228616
