Infrared Spectrum: Benzene, 1,3,5-trimethyl-2-nitro-
Formula: C 9 H 11 N O 2
CAS: 603-71-4
Origin: Sadtler Research Labs Under US-EPA Contract
1/CM	ABSORBANCE
450	0.000176828
462	0.0114938
474	0.0122011
486	0.0196279
498	0.0213962
510	0.023695
522	0.0222803
534	0.0244023
546	0.0249327
558	0.0289998
570	0.0389022
582	0.0367802
594	0.0866457
606	0.109103
618	0.0341278
630	0.028823
642	0.027762
654	0.0298839
666	0.0298839
678	0.0295303
690	0.0351888
702	0.0358961
714	0.03289
726	0.0383717
738	0.048274
750	0.0337741
762	0.0272315
774	0.0302376
786	0.028823
798	0.0265242
810	0.0360729
822	0.126255
834	0.438003
846	0.28151
858	0.155255
870	0.0450911
882	0.0256401
894	0.0217498
906	0.0252864
918	0.0256401
930	0.0295303
942	0.0325364
954	0.0320059
966	0.0279388
978	0.0286461
990	0.0314754
1002	0.0378412
1014	0.0456216
1026	0.0491582
1038	0.0516338
1050	0.0468594
1062	0.0364266
1074	0.0332437
1086	0.0447375
1098	0.0641886
1110	0.0396095
1122	0.0270547
1134	0.0244023
1146	0.0238718
1158	0.0238718
1170	0.0321827
1182	0.0521643
1194	0.0346583
1206	0.0263474
1218	0.0245791
1230	0.0229876
1242	0.0254632
1254	0.0311217
1266	0.04014
1278	0.0583532
1290	0.0686093
1302	0.0610057
1314	0.0456216
1326	0.0509265
1338	0.0836396
1350	0.261352
1362	0.635166
1374	0.661337
1386	0.3144
1398	0.13934
1410	0.094603
1422	0.11706
1434	0.159499
1446	0.218383
1458	0.240663
1470	0.226517
1482	0.246321
1494	0.247559
1506	0.283809
1518	0.528008
1530	1.17308
1542	1.51648
1554	0.804391
1566	0.345168
1578	0.246675
1590	0.23412
1602	0.37293
1614	0.254632
1626	0.0643654
1638	0.0364266
1650	0.022634
1662	0.0199816
1674	0.0144999
1686	0.0136158
1698	0.0136158
1710	0.0235181
1722	0.0406704
1734	0.0291766
1746	0.0146767
1758	0.020512
1770	0.0167987
1782	0.012378
1794	0.0076036
1806	0.00848774
1818	0.00795726
1830	0.00512801
1842	0.00583532
1854	0.00654264
1866	0.00530484
1878	0.0076036
1890	0.00795726
1902	0.00866457
1914	0.00813409
1926	0.00689629
1938	0.00618898
1950	0.00724995
1962	0.00689629
1974	0.00530484
1986	0.00530484
1998	0.00389022
2010	0.00353656
2022	0.00300608
2034	0.00300608
2046	0.0031829
2058	0.00265242
2070	0.00265242
2082	0.0031829
2094	0.00212194
2106	0.00212194
2118	0.00247559
2130	0.00229876
2142	0.00194511
2154	0.00229876
2166	0.00282925
2178	0.0044207
2190	0.0031829
2202	0.00176828
2214	0.00141462
2226	0.0012378
2238	0.00088414
2250	0.00106097
2262	0.000353656
2274	0.000530484
2286	0.00088414
2298	0.00088414
2310	0.00159145
2322	0.00300608
2334	0.00300608
2346	0.00477436
2358	0.00636581
2370	0.00654264
2382	0.00583532
2394	0.0044207
2406	0.00548167
2418	0.00724995
2430	0.0076036
2442	0.00654264
2454	0.00671946
2466	0.00636581
2478	0.00530484
2490	0.00459753
2502	0.00353656
2514	0.00300608
2526	0.00335973
2538	0.00335973
2550	0.00353656
2562	0.00353656
2574	0.00265242
2586	0.00141462
2598	0.00194511
2610	0.00265242
2622	0.00353656
2634	0.00424387
2646	0.00353656
2658	0.0031829
2670	0.00335973
2682	0.00512801
2694	0.00724995
2706	0.00937188
2718	0.0118475
2730	0.0136158
2742	0.017506
2754	0.0198047
2766	0.0137926
2778	0.00919506
2790	0.00937188
2802	0.0116706
2814	0.015384
2826	0.0201584
2838	0.027762
2850	0.045268
2862	0.0857616
2874	0.142523
2886	0.145529
2898	0.130676
2910	0.134036
2922	0.190267
2934	0.317406
2946	0.301315
2958	0.180188
2970	0.137749
2982	0.154371
2994	0.169578
3006	0.155255
3018	0.154548
3030	0.176298
3042	0.192212
3054	0.127493
3066	0.0618898
3078	0.0413778
3090	0.0305912
3102	0.021573
3114	0.015384
3126	0.00972554
3138	0.00778043
3150	0.00512801
3162	0.00335973
3174	0.00247559
3186	0.00194511
3198	0.00159145
3210	0.00229876
3222	0.0012378
3234	0.00159145
3246	0.00141462
3258	0.00106097
3270	0.0012378
3282	0.00141462
3294	0.000707312
3306	0.0012378
3318	0.000530484
3330	0.000353656
3342	0.000530484
3354	0.00106097
3366	0.000530484
3378	0.000530484
3390	0.000530484
3402	0.000707312
3414	0.00088414
3426	0.0012378
3438	0.000530484
3450	0.0012378
3462	0.000707312
3474	0.00106097
3486	0.0012378
3498	0.000530484
3510	0.000707312
3522	0.000707312
3534	0.000176828
3546	0.00176828
3558	0.0012378
3570	0.00106097
3582	0.00106097
3594	0.00141462
3606	0.000530484
3618	0.0012378
3630	0.00212194
3642	0.00176828
3654	0.00229876
3666	0.00106097
3678	0.00300608
3690	0.000707312
3702	0.000707312
3714	0.00106097
3726	0.00106097
3738	0.000176828
3750	0.00106097
3762	0.000353656
3774	0.000707312
3786	0.000707312
3798	0.000176828
3810	0.000176828
3822	0.0012378
3834	0.000707312
3846	0.000353656
3858	0.00088414
3870	0.000707312
3882	0.0012378
3894	0.000176828
3906	0.000176828
3918	0.000176828
3930	0.000176828
3942	0.000176828
3954	0.00106097
3966	0.00088414
