Infrared Spectrum: Ethyl N,N-diphenylcarbamate
Formula: C 15 H 15 N O 2
CAS: 603-52-1
Origin: Sadtler Research Labs Under US-EPA Contract
1/CM	ABSORBANCE
450	0.0140469
462	0.00853713
474	0.0108379
486	0.0175586
498	0.0125332
510	0.0325743
522	0.0318477
534	0.0248848
546	0.00617579
558	0.018043
570	0.0110801
582	0.0124121
594	0.0142891
606	0.0228262
618	0.021252
630	0.0419591
642	0.0266407
654	0.0231895
666	0.0374786
678	0.0403243
690	0.135504
702	0.0851291
714	0.0285176
726	0.0204043
738	0.0393556
750	0.0719298
762	0.0540685
774	0.0397188
786	0.0389923
798	0.013502
810	0.0280938
822	0.0260958
834	0.0255508
846	0.0210098
858	0.0239766
870	0.0216153
882	0.0167715
894	0.0155606
906	0.0185879
918	0.018709
930	0.0142891
942	0.0208887
954	0.017377
966	0.0167715
978	0.0166504
990	0.0259747
1002	0.0310606
1014	0.0452892
1026	0.0548556
1038	0.0715666
1050	0.0616974
1062	0.190541
1074	0.153729
1086	0.0893674
1098	0.0707794
1110	0.0343907
1122	0.0230684
1134	0.0197383
1146	0.0185274
1158	0.0252481
1170	0.0352384
1182	0.0389317
1194	0.0712033
1206	0.197202
1218	0.136776
1230	0.0647853
1242	0.0671466
1254	0.0864611
1266	0.172619
1278	0.271251
1290	0.311272
1302	0.34536
1314	0.310424
1326	0.202409
1338	0.109408
1350	0.0546739
1362	0.0585489
1374	0.132235
1386	0.0517677
1398	0.0539474
1410	0.0433517
1422	0.0319688
1434	0.0274883
1446	0.0343301
1458	0.0405665
1470	0.0458341
1482	0.0783478
1494	0.166868
1506	0.0952404
1518	0.0281544
1530	0.0194356
1542	0.0202227
1554	0.0170743
1566	0.0207071
1578	0.0336641
1590	0.0821017
1602	0.0802248
1614	0.0362071
1626	0.0199805
1638	0.0188301
1650	0.0179825
1662	0.0176192
1674	0.0197989
1686	0.0231895
1698	0.0324532
1710	0.037963
1722	0.0845842
1734	0.391981
1746	0.3918
1758	0.048256
1770	0.0270645
1782	0.0225235
1794	0.0207071
1806	0.0181036
1818	0.0152578
1830	0.0123516
1842	0.0121699
1854	0.0136836
1866	0.0142285
1878	0.0127149
1890	0.0115039
1902	0.0104141
1914	0.00968752
1926	0.0131387
1938	0.0155
1950	0.0143496
1962	0.0101719
1974	0.00980861
1986	0.00877932
1998	0.00938478
2010	0.00877932
2022	0.0100508
2034	0.0091426
2046	0.00871877
2058	0.00883986
2070	0.00962697
2082	0.00720509
2094	0.00775002
2106	0.0079922
2118	0.00793166
2130	0.00696291
2142	0.00659962
2154	0.00750783
2166	0.00702345
2178	0.0081133
2190	0.0079922
2202	0.0081133
2214	0.00611525
2226	0.007084
2238	0.00659962
2250	0.00684181
2262	0.00557032
2274	0.00744728
2286	0.00635743
2298	0.00629689
2310	0.00750783
2322	0.0108379
2334	0.00896096
2346	0.0090215
2358	0.0149551
2370	0.00920314
2382	0.00653908
2394	0.00544923
2406	0.00617579
2418	0.00484376
2430	0.00508595
2442	0.00435938
2454	0.00472267
2466	0.00314844
2478	0.00460157
2490	0.00454102
2502	0.00532814
2514	0.00387501
2526	0.00466212
2538	0.00423829
2550	0.00441993
2562	0.0041172
2574	0.00563087
2586	0.00532814
2598	0.00405665
2610	0.00448048
2622	0.00375391
2634	0.00260352
2646	0.0019375
2658	0.00429884
2670	0.00236133
2682	0.00224024
2694	0.0020586
2706	0.00320899
2718	0.00217969
2730	0.00393556
2742	0.00387501
2754	0.00466212
2766	0.00314844
2778	0.00417774
2790	0.00466212
2802	0.00435938
2814	0.00454102
2826	0.00557032
2838	0.00696291
2850	0.00538868
2862	0.00920314
2874	0.0104746
2886	0.014168
2898	0.0138653
2910	0.0202227
2922	0.0219786
2934	0.0267012
2946	0.0323926
2958	0.0282149
2970	0.0319688
2982	0.0501329
2994	0.0446837
3006	0.0273672
3018	0.0177403
3030	0.0250059
3042	0.0438966
3054	0.0390528
3066	0.0396583
3078	0.059881
3090	0.0316661
3102	0.0236133
3114	0.0145918
3126	0.00944533
3138	0.00999025
3150	0.0060547
3162	0.00793166
3174	0.00696291
3186	0.00702345
3198	0.0039961
3210	0.00793166
3222	0.00526759
3234	0.00569142
3246	0.00351173
3258	0.00557032
3270	0.00435938
3282	0.0050254
3294	0.00744728
3306	0.00726564
3318	0.00666017
3330	0.00563087
3342	0.00793166
3354	0.00653908
3366	0.00672072
3378	0.00678126
3390	0.00762892
3402	0.00417774
3414	0.00478321
3426	0.00484376
3438	0.00726564
3450	0.00544923
3462	0.0100508
3474	0.00775002
3486	0.00641798
3498	0.00538868
3510	0.00756838
3522	0.00835549
3534	0.00617579
3546	0.00768947
3558	0.00659962
3570	0.00629689
3582	0.00429884
3594	0.00678126
3606	0.0060547
3618	0.00726564
3630	0.00635743
3642	0.00793166
3654	0.00617579
3666	0.00768947
3678	0.00950588
3690	0.011625
3702	0.00847658
3714	0.00944533
3726	0.00938478
3738	0.00938478
3750	0.00793166
3762	0.00926369
3774	0.00962697
3786	0.00768947
3798	0.00999025
3810	0.00950588
3822	0.0105352
3834	0.00890041
3846	0.0119883
3858	0.0108379
3870	0.0112617
3882	0.00865822
3894	0.0126543
3906	0.0104746
3918	0.00986916
3930	0.0114434
3942	0.0122305
3954	0.000363282
3966	0.00127149
