Infrared Spectrum: 2-Methyl-3-nitroaniline
Formula: C 7 H 8 N 2 O 2
CAS: 603-83-8
Origin: Sadtler Research Labs Under US-EPA Contract
1/CM	ABSORBANCE
450	0.016118
462	0.0156685
474	0.0193929
486	0.0163106
498	0.0168885
510	0.0131641
522	0.0114945
534	0.00751315
546	0.00526563
558	0.00777001
570	0.00732051
582	0.00995332
594	0.0108523
606	0.0120724
618	0.0172738
630	0.0256218
642	0.0248512
654	0.0238238
666	0.025686
678	0.0300526
690	0.048675
702	0.0820668
714	0.0856628
726	0.0945887
738	0.0832869
750	0.0552249
762	0.0532342
774	0.0871398
786	0.10268
798	0.0884883
810	0.0458495
822	0.0625454
834	0.071985
846	0.0129714
858	0.00372447
870	0.00398133
882	0.00468769
894	0.00712786
906	0.00834795
918	0.00179802
930	0
942	0.00147694
954	0.00353182
966	0.00353182
978	0.00410976
990	0.00436662
1002	0.00622885
1014	0.0109165
1026	0.0235669
1038	0.0346761
1050	0.0278693
1062	0.0213836
1074	0.0127146
1086	0.0106597
1098	0.0153474
1110	0.0249796
1122	0.021512
1134	0.0158611
1146	0.0127146
1158	0.0175949
1170	0.0170812
1182	0.0149621
1194	0.01554
1206	0.0174665
1218	0.0346119
1230	0.0339055
1242	0.0187508
1254	0.0181086
1266	0.0262639
1278	0.0631233
1290	0.146346
1302	0.154822
1314	0.0891304
1326	0.055546
1338	0.0747463
1350	0.199901
1362	0.333918
1374	0.185132
1386	0.0733977
1398	0.05317
1410	0.03763
1422	0.0299242
1434	0.0297315
1446	0.0470696
1458	0.0744252
1470	0.0995975
1482	0.10634
1494	0.0998543
1506	0.116871
1518	0.207093
1530	0.386446
1542	0.626995
1554	0.464082
1566	0.227257
1578	0.16728
1590	0.108588
1602	0.0724345
1614	0.107624
1626	0.228541
1638	0.196241
1650	0.066912
1662	0.0333276
1674	0.0204204
1686	0.0132283
1698	0.00911853
1710	0.0100175
1722	0.00956803
1734	0.00860481
1746	0.0105955
1758	0.0104028
1770	0.00931117
1782	0.00924696
1794	0.00616464
1806	0.00590778
1818	0.0064215
1830	0.006871
1842	0.00500877
1854	0.00308232
1866	0.00244017
1878	0.00295389
1890	0.00391711
1902	0.00821952
1914	0.00854059
1926	0.00417397
1938	0.00237595
1950	0.00166959
1962	0.00115587
1974	0.00115587
1986	0.00077058
1998	0.000706365
2010	0.00064215
2022	0.00077058
2034	0.000963225
2046	0.00064215
2058	0.00109165
2070	0.00141273
2082	0.00141273
2094	0.00102744
2106	0.000577935
2118	0.000577935
2130	0.000321075
2142	0.000321075
2154	0.000449505
2166	0.000577935
2178	0.000321075
2190	0.00064215
2202	0.000577935
2214	0.000706365
2226	0.00038529
2238	6.4215e-05
2250	0
2262	0.00025686
2274	0.00051372
2286	0.00141273
2298	0.00199066
2310	0.00308232
2322	0.00333918
2334	0.00205488
2346	0.00160537
2358	0.00224752
2370	0.00115587
2382	0.00314653
2394	0.00199066
2406	0.00192645
2418	0.00141273
2430	0.00141273
2442	0.00089901
2454	0.00064215
2466	0.0012843
2478	0.00134851
2490	0.00102744
2502	0.00077058
2514	0.00064215
2526	0.00109165
2538	0.000449505
2550	0.000321075
2562	0.00064215
2574	0.00186223
2586	0.00333918
2598	0.00353182
2610	0.00398133
2622	0.00353182
2634	0.00263281
2646	0.00218331
2658	0.00218331
2670	0.00218331
2682	0.00224752
2694	0.00224752
2706	0.00231174
2718	0.00288967
2730	0.00269703
2742	0.00250438
2754	0.0043024
2766	0.00436662
2778	0.0030181
2790	0.00321075
2802	0.00327496
2814	0.00404554
2826	0.00500877
2838	0.00667836
2850	0.00873324
2862	0.0130999
2874	0.0204846
2886	0.0242091
2898	0.0244659
2910	0.0240806
2922	0.0285757
2934	0.0369878
2946	0.035254
2958	0.0274198
2970	0.0181086
2982	0.0126504
2994	0.0114303
3006	0.0133567
3018	0.0182371
3030	0.0267777
3042	0.0310158
3054	0.0229248
3066	0.0219615
3078	0.0285757
3090	0.0217047
3102	0.00892588
3114	0.00526563
3126	0.00295389
3138	0.00308232
3150	0.00211909
3162	0.00263281
3174	0.00211909
3186	0.00244017
3198	0.0038529
3210	0.00500877
3222	0.00488034
3234	0.00372447
3246	0.00244017
3258	0.00244017
3270	0.00192645
3282	0.00141273
3294	0.00141273
3306	0.00089901
3318	0.00141273
3330	0.00199066
3342	0.00218331
3354	0.00282546
3366	0.00346761
3378	0.00539406
3390	0.00783423
3402	0.0132283
3414	0.0358962
3426	0.044501
3438	0.016118
3450	0.00622885
3462	0.00622885
3474	0.00764158
3486	0.0135494
3498	0.0317222
3510	0.0396849
3522	0.0189434
3534	0.00616464
3546	0.00417397
3558	0.00282546
3570	0.00410976
3582	0.00288967
3594	0.00147694
3606	0.00141273
3618	0.00109165
3630	0.00205488
3642	0.000834795
3654	0.00186223
3666	0.00211909
3678	0.00038529
3690	0.0012843
3702	0.00025686
3714	0.00077058
3726	0.00102744
3738	0.000834795
3750	0.000577935
3762	0.00147694
3774	0.00115587
3786	0.00141273
3798	0.00269703
3810	0.00038529
3822	0
3834	0.00109165
3846	0.00269703
3858	0.000577935
3870	0.0025686
3882	0.0030181
3894	0.00250438
3906	0.00231174
3918	0.00160537
3930	0.00199066
3942	0.00282546
3954	0.00051372
3966	0.000963225
