Infrared Spectrum: 2-Propenenitrile, 3-(2-thienyl)-
Formula: C 7 H 5 N S
CAS: 6041-28-7
Origin: Sadtler Research Labs Under US-EPA Contract
1/CM	ABSORBANCE
450	0.00899525
462	0.0165185
474	0.0125933
486	0.0237965
498	0.0085046
510	0.00580602
522	0.0135746
534	0.0252685
546	0.0029439
558	0.00049065
570	0.00793217
582	0.0152919
594	0.0263315
606	0.0230605
618	0.0187265
630	0.0251049
642	0.00932235
654	0.0108761
666	0.0143924
678	0.0613312
690	0.32203
702	0.81775
714	0.484353
726	0.145805
738	0.109906
750	0.0852095
762	0.0533991
774	0.0297661
786	0.0520089
798	0.0937959
810	0.098866
822	0.073761
834	0.0711442
846	0.0910156
858	0.145723
870	0.0780133
882	0.0201166
894	0.0155372
906	0.0199531
918	0.022161
930	0.0486561
942	0.14376
954	0.221774
966	0.0934688
978	0.0189718
990	0.0104672
1002	0.0128387
1014	0.0146377
1026	0.0212615
1038	0.0592051
1050	0.109088
1062	0.0403968
1074	0.0171728
1086	0.0131658
1098	0.00973122
1110	0.0124298
1122	0.0289483
1134	0.0281306
1146	0.0157008
1158	0.0169274
1170	0.013084
1182	0.0108761
1194	0.0369623
1206	0.10091
1218	0.104672
1230	0.0513547
1242	0.0583056
1254	0.0651747
1266	0.0818568
1278	0.0617401
1290	0.0330371
1302	0.0201984
1314	0.0152919
1326	0.0075233
1338	0.0052336
1350	0.0197895
1362	0.0773592
1374	0.0460393
1386	0.0290301
1398	0.0626396
1410	0.115712
1422	0.220956
1434	0.15848
1446	0.0333642
1458	0.0128387
1470	0.0230605
1482	0.0209344
1494	0.0116938
1506	0.016355
1518	0.0354903
1530	0.043259
1542	0.0353268
1554	0.0166003
1566	0.0201166
1578	0.0354903
1590	0.109824
1602	0.298152
1614	0.436351
1626	0.241482
1638	0.0354086
1650	0.0240419
1662	0.0195442
1674	0.0206073
1686	0.0369623
1698	0.0367987
1710	0.0363899
1722	0.0274764
1734	0.0188082
1746	0.0136564
1758	0.0136564
1770	0.00711442
1782	0.0161914
1794	0.0340184
1806	0.0198713
1818	0.00662377
1830	0.00204437
1842	0.000899525
1854	0.00122662
1866	0.000245325
1878	0.00171727
1890	0.00547892
1902	0.00973122
1914	0.0075233
1926	0.00367987
1938	0.00155372
1950	0.00122662
1962	0.00114485
1974	0.0009813
1986	0.00114485
1998	0.00171727
2010	0.00122662
2022	0.000408875
2034	0.000408875
2046	0.000572425
2058	0.00139018
2070	0.00212615
2082	0.00269857
2094	0.00384342
2106	0.00417052
2118	0.00367987
2130	0.0042523
2142	0.00351632
2154	0.0042523
2166	0.00834105
2178	0.00629667
2190	0.0042523
2202	0.0132475
2214	0.0824292
2226	0.163223
2238	0.0408057
2250	0.00629667
2262	0.0055607
2274	0.00695087
2286	0.0075233
2298	0.00482472
2310	0.00400697
2322	0.00376165
2334	0.00343455
2346	0.00515182
2358	0.00139018
2370	0.00417052
2382	0.00237148
2394	8.1775e-05
2406	0.000408875
2418	0.00049065
2430	0.00204437
2442	0.00417052
2454	0.0042523
2466	0.00596957
2478	0.0055607
2490	0.00351632
2502	0.00155372
2514	0.0009813
2526	0.000899525
2538	0.00114485
2550	0.00179905
2562	0.00179905
2574	0.00139018
2586	0.0013084
2598	0.00155372
2610	0.00245325
2622	0.0022897
2634	0.00269857
2646	0.00302567
2658	0.0022897
2670	0.00122662
2682	0.00049065
2694	0.000572425
2706	0.00122662
2718	0.0009813
2730	0.00204437
2742	0.00188082
2754	0.00171727
2766	0.00147195
2778	0.00155372
2790	0.00139018
2802	0.00237148
2814	0.0039252
2826	0.00515182
2838	0.00744152
2850	0.00776862
2862	0.00760507
2874	0.00760507
2886	0.0068691
2898	0.0039252
2910	0.00278035
2922	0.0029439
2934	0.00776862
2946	0.0126751
2958	0.0126751
2970	0.00973122
2982	0.00637845
2994	0.00498827
3006	0.00596957
3018	0.0104672
3030	0.0207709
3042	0.0313198
3054	0.0540533
3066	0.0518453
3078	0.0477566
3090	0.0685274
3102	0.0454669
3114	0.0155372
3126	0.00801395
3138	0.00335277
3150	0.00237148
3162	0.0022897
3174	0.00220792
3186	0.000899525
3198	0.0003271
3210	0.000899525
3222	0.0029439
3234	0.00466118
3246	0.0029439
3258	0.00139018
3270	0.00155372
3282	0.00122662
3294	0.00106307
3306	0.000408875
3318	0.00081775
3330	0.000408875
3342	0.00106307
3354	0.00114485
3366	0.00139018
3378	0.000899525
3390	0.000899525
3402	0.00016355
3414	0.00049065
3426	0.000899525
3438	0.00081775
3450	0.00114485
3462	0.000572425
3474	0.00049065
3486	0.00081775
3498	0.00155372
3510	0.0016355
3522	0.0013084
3534	0.00122662
3546	0.0013084
3558	0.00081775
3570	0.00147195
3582	0.000572425
3594	0.00081775
3606	0.00147195
3618	0.0013084
3630	0.0022897
3642	0.00106307
3654	0.00155372
3666	0.0009813
3678	0.0016355
3690	0.0016355
3702	0.0016355
3714	0.0016355
3726	0.00237148
3738	0.00417052
3750	0.00212615
3762	0.00171727
3774	0.00122662
3786	0.00147195
3798	0.0016355
3810	0.00286212
3822	0.00629667
3834	0.00825927
3846	0.00891347
3858	0.00474295
3870	0.0029439
3882	0.0013084
3894	0.0013084
3906	0.000572425
3918	0.00253502
3930	0.0026168
3942	0.00596957
3954	0.00834105
3966	0.00507005
