Infrared Spectrum: 1,2-Benzenedicarboxylic acid, bis(2-ethoxyethyl) ester
Formula: C 16 H 22 O 6
CAS: 605-54-9
Origin: Sadtler Research Labs Under US-EPA Contract
1/CM	ABSORBANCE
450	0.00718231
462	0.0144786
474	0.00980443
486	0.0213189
498	0.0192668
510	0.023257
522	0.023029
534	0.0128826
546	0.0101464
558	0.0139086
570	0.0129966
582	0.00820836
594	0.0045602
606	0.000570025
618	0.00125406
630	0.00159607
642	0.00547224
654	0.0199509
666	0.0090064
678	0.0111725
690	0.0289573
702	0.0595106
714	0.0507322
726	0.0623607
738	0.118565
750	0.116969
762	0.0611067
774	0.0501622
786	0.0494782
798	0.0343155
810	0.0297553
822	0.0313514
834	0.0401298
846	0.0510742
858	0.0563185
870	0.046286
882	0.0409278
894	0.0347715
906	0.0335175
918	0.0427519
930	0.0508462
942	0.0471981
954	0.045602
966	0.0484521
978	0.0548364
990	0.0396737
1002	0.04583
1014	0.0661229
1026	0.0994124
1038	0.186626
1050	0.210339
1062	0.325712
1074	0.535253
1086	0.294019
1098	0.340191
1110	0.632956
1122	1.03152
1134	0.898245
1146	0.528869
1158	0.273384
1170	0.164965
1182	0.121529
1194	0.0891519
1206	0.0824256
1218	0.101464
1230	0.167473
1242	0.351363
1254	0.620985
1266	0.971551
1278	1.07758
1290	0.792905
1302	0.326738
1314	0.145584
1326	0.102262
1338	0.102376
1350	0.0935981
1362	0.107735
1374	0.117311
1386	0.156073
1398	0.0985003
1410	0.0556344
1422	0.044918
1434	0.0525563
1446	0.090748
1458	0.0856178
1470	0.0568885
1482	0.0547224
1494	0.044462
1506	0.0242831
1518	0.0176708
1530	0.0147066
1542	0.0125406
1554	0.0137946
1566	0.0176708
1578	0.0406998
1590	0.0290713
1602	0.0351135
1614	0.0186968
1626	0.0169867
1638	0.0133386
1650	0.0169867
1662	0.0164167
1674	0.0194949
1686	0.0273612
1698	0.0391037
1710	0.069087
1722	0.136236
1734	0.336315
1746	1.01385
1758	0.661229
1770	0.211479
1782	0.0876698
1794	0.0494782
1806	0.0414978
1818	0.0289573
1830	0.0188108
1842	0.0151627
1854	0.0129966
1866	0.0126546
1878	0.0106025
1890	0.00809436
1902	0.00866438
1914	0.00980443
1926	0.0115145
1938	0.0173288
1950	0.0126546
1962	0.0148207
1974	0.0121985
1986	0.00946242
1998	0.00741033
2010	0.00615627
2022	0.0044462
2034	0.00387617
2046	0.00376217
2058	0.00387617
2070	0.0046742
2082	0.00592826
2094	0.00638428
2106	0.0067263
2118	0.00649829
2130	0.00558625
2142	0.00558625
2154	0.00524423
2166	0.00399018
2178	0.00353416
2190	0.00296413
2202	0.0021661
2214	0.00239411
2226	0.00273612
2238	0.00285013
2250	0.00364816
2262	0.00330614
2274	0.00353416
2286	0.00353416
2298	0.00273612
2310	0.0021661
2322	0.00239411
2334	0.00171008
2346	0.00091204
2358	0.00159607
2370	0
2382	0.00262211
2394	0.00250811
2406	0.00239411
2418	0.00171008
2430	0.00136806
2442	0.00068403
2454	0.00068403
2466	0
2478	0.000114005
2490	0.000570025
2502	0.000798035
2514	0.00102604
2526	0.00148207
2538	0.00136806
2550	0.00148207
2562	0.00182408
2574	0.00182408
2586	0.00205209
2598	0.00307814
2610	0.00330614
2622	0.00376217
2634	0.00353416
2646	0.00330614
2658	0.00364816
2670	0.00410418
2682	0.00524423
2694	0.00741033
2706	0.0107165
2718	0.0132246
2730	0.0164167
2742	0.0190388
2754	0.0192668
2766	0.0212049
2778	0.0248531
2790	0.0299833
2802	0.0352275
2814	0.045944
2826	0.0566605
2838	0.0721652
2850	0.114461
2862	0.187196
2874	0.238726
2886	0.228238
2898	0.186398
2910	0.155275
2922	0.136464
2934	0.156073
2946	0.194151
2958	0.219004
2970	0.216952
2982	0.249671
2994	0.1742
3006	0.0884679
3018	0.0483381
3030	0.0346575
3042	0.0281592
3054	0.022231
3066	0.0310094
3078	0.067263
3090	0.0278172
3102	0.0126546
3114	0.00889239
3126	0.00592826
3138	0.00524423
3150	0.00581425
3162	0.00524423
3174	0.00421819
3186	0.00399018
3198	0.00319214
3210	0.00330614
3222	0.00296413
3234	0.00273612
3246	0.00193808
3258	0.00193808
3270	0.00171008
3282	0.00159607
3294	0.00193808
3306	0.0022801
3318	0.0021661
3330	0.00250811
3342	0.00285013
3354	0.00296413
3366	0.00262211
3378	0.00262211
3390	0.00262211
3402	0.00285013
3414	0.00262211
3426	0.00307814
3438	0.00273612
3450	0.00296413
3462	0.00490222
3474	0.00661229
3486	0.00627028
3498	0.00364816
3510	0.0021661
3522	0.00193808
3534	0.00193808
3546	0.00102604
3558	0.000570025
3570	0.00136806
3582	0.00319214
3594	0.00171008
3606	0.00148207
3618	0.00262211
3630	0.00421819
3642	0.00205209
3654	0.00239411
3666	0.0044462
3678	0.00285013
3690	0.00364816
3702	0.00433219
3714	0.0046742
3726	0.00490222
3738	0.00250811
3750	0.0068403
3762	0.00524423
3774	0.0046742
3786	0.00319214
3798	0.00273612
3810	0.00627028
3822	0.0044462
3834	0.00478821
3846	0.00433219
3858	0.00330614
3870	0.00364816
3882	0.00421819
3894	0.00285013
3906	0.00490222
3918	0.00342015
3930	0.00353416
3942	0.0045602
3954	0.00433219
3966	0.00524423
