Infrared Spectrum: 1,2-Benzenedicarboxylic acid, bis(1-methylethyl) ester
Formula: C 14 H 18 O 4
CAS: 605-45-8
Origin: Sadtler Research Labs Under US-EPA Contract
1/CM	ABSORBANCE
450	0.00511613
462	0.0068748
474	0.00639516
486	0.00314429
498	0.0014922
510	0.00293111
522	0.00357063
534	0.0037838
546	0.0068215
558	0.00719456
570	0.00719456
582	0.00255806
594	0.00143891
606	0.00447661
618	0.00506283
630	0.00474308
642	0.00783407
654	0.0114047
666	0.00495625
678	0.00969933
690	0.0203579
702	0.025101
714	0.0266465
726	0.0349069
738	0.0638983
750	0.0489763
762	0.026913
774	0.0233423
786	0.0225429
798	0.0140694
810	0.0129502
822	0.0196651
834	0.0266465
846	0.0318692
858	0.0207843
870	0.0130568
882	0.0098592
894	0.0133765
906	0.0264866
918	0.0497224
930	0.0231292
942	0.0111915
954	0.0133233
966	0.00927298
978	0.00959274
990	0.0091664
1002	0.0115113
1014	0.0150286
1026	0.023289
1038	0.0534529
1050	0.058196
1062	0.181782
1074	0.188977
1086	0.0716258
1098	0.134138
1110	0.342301
1122	0.328125
1134	0.226122
1146	0.132593
1158	0.0585157
1170	0.0562774
1182	0.0708797
1194	0.0350668
1206	0.0295776
1218	0.0382111
1230	0.063845
1242	0.138135
1254	0.261082
1266	0.46706
1278	0.50218
1290	0.371665
1302	0.16281
1314	0.0666163
1326	0.0450326
1338	0.0452991
1350	0.0578229
1362	0.0533463
1374	0.0625127
1386	0.0705066
1398	0.034747
1410	0.0155616
1422	0.0139095
1434	0.0158813
1446	0.0261669
1458	0.0318159
1470	0.0366123
1482	0.0270196
1494	0.0188124
1506	0.0123107
1518	0.00996579
1530	0.00905981
1542	0.00831371
1554	0.00879334
1566	0.0117245
1578	0.0222232
1590	0.0170538
1602	0.018013
1614	0.0117245
1626	0.00943286
1638	0.00943286
1650	0.00980591
1662	0.0116712
1674	0.0141226
1686	0.0183328
1698	0.0267531
1710	0.0401296
1722	0.0931029
1734	0.301958
1746	0.472656
1758	0.181356
1770	0.0507349
1782	0.0230226
1794	0.0153484
1806	0.012737
1818	0.0106586
1830	0.00959274
1842	0.00746102
1854	0.00586223
1866	0.00522271
1878	0.00325087
1890	0.00330417
1902	0.00362392
1914	0.00421015
1926	0.00484966
1938	0.0068215
1950	0.00415685
1962	0.00564906
1974	0.00415685
1986	0.00319758
1998	0.00223831
2010	0.00218501
2022	0.00159879
2034	0.00170538
2046	0.00170538
2058	0.00117245
2070	0.0014922
2082	0.0015455
2094	0.00207843
2106	0.00250477
2118	0.00245148
2130	0.00245148
2142	0.00239819
2154	0.0014922
2166	0.00111915
2178	0.00101257
2190	0.000905981
2202	0.00133233
2214	0.00106586
2226	0.00127903
2238	0.00133233
2250	0.00122574
2262	0.00159879
2274	0.00143891
2286	0.00159879
2298	0.00234489
2310	0.00314429
2322	0.00421015
2334	0.00351734
2346	0.00298441
2358	0.00367722
2370	0.00250477
2382	0.00202513
2394	0.0014922
2406	0.00106586
2418	0.00101257
2430	0.00053293
2442	0.000213172
2454	0.000426344
2466	0
2478	0.000479637
2490	0.000479637
2502	0.00053293
2514	0.00101257
2526	0.00106586
2538	0.000479637
2550	0.000479637
2562	0.00106586
2574	0.000586223
2586	0.000586223
2598	0.00053293
2610	0.000692809
2622	0.000639516
2634	0.000639516
2646	0.000746102
2658	0.000692809
2670	0.000746102
2682	0.00117245
2694	0.000746102
2706	0.000959274
2718	0.00133233
2730	0.00122574
2742	0.00266465
2754	0.00223831
2766	0.0022916
2778	0.00223831
2790	0.00181196
2802	0.00197184
2814	0.00271794
2826	0.0038371
2838	0.00431673
2850	0.00490296
2862	0.00751431
2874	0.0140694
2886	0.0248345
2898	0.0208909
2910	0.020198
2922	0.0244615
2934	0.0443931
2946	0.0641648
2958	0.036932
2970	0.037838
2982	0.14032
2994	0.12284
3006	0.0410356
3018	0.0163077
3030	0.0117245
3042	0.0101257
3054	0.00852688
3066	0.0151885
3078	0.0321357
3090	0.0143358
3102	0.00618199
3114	0.00415685
3126	0.00330417
3138	0.00277124
3150	0.00330417
3162	0.00325087
3174	0.00330417
3186	0.00282453
3198	0.00234489
3210	0.00186525
3222	0.00138562
3234	0.000959274
3246	0.000905981
3258	0.00101257
3270	0.000426344
3282	0.000373051
3294	0.000426344
3306	0.000692809
3318	0.000959274
3330	0.000426344
3342	0.000959274
3354	0.000426344
3366	0.000959274
3378	0.000905981
3390	0.000959274
3402	0.000959274
3414	0.000639516
3426	0.000959274
3438	0.000959274
3450	0.0014922
3462	0.00298441
3474	0.00250477
3486	0.00101257
3498	0.000959274
3510	0
3522	0.000586223
3534	0.000586223
3546	0.000106586
3558	0.00106586
3570	5.3293e-05
3582	0.000639516
3594	5.3293e-05
3606	0.000106586
3618	0.000692809
3630	0.00053293
3642	0.00053293
3654	0.000639516
3666	0.00053293
3678	0.000373051
3690	0.000746102
3702	0.000639516
3714	0
3726	0
3738	0.000586223
3750	0.000586223
3762	0.000692809
3774	0.000106586
3786	0.000266465
3798	0.00111915
3810	0.00122574
3822	0.000213172
3834	0.000799395
3846	0.00053293
3858	0.000799395
3870	0.000692809
3882	0.000852688
3894	0.000266465
3906	0.000479637
3918	0.000746102
3930	0.000319758
3942	5.3293e-05
3954	0.000639516
3966	0.000799395
