Infrared Spectrum: Benzenepropanoic acid, .beta.-phenyl-
Formula: C 15 H 14 O 2
CAS: 606-83-7
Origin: Sadtler Research Labs Under US-EPA Contract
1/CM	ABSORBANCE
450	0.0160974
462	0.00897949
474	0.0100746
486	0.0036502
498	0.00233613
510	0.00996505
522	0.0117536
534	0.017667
546	0.0287636
558	0.0660686
570	0.13586
582	0.155499
594	0.123523
606	0.116587
618	0.0536944
630	0.0439119
642	0.0328153
654	0.0306252
666	0.0466496
678	0.0778223
690	0.174151
702	0.280226
714	0.0572351
726	0.0334358
738	0.0822755
750	0.108082
762	0.0290191
774	0.010038
786	0.0182875
798	0.0148198
810	0.00605933
822	0.00350419
834	0.00744641
846	0.00299316
858	0.000474526
870	0.0036502
882	0.00744641
894	0.00894299
906	0.0140533
918	0.0104396
930	0.00390571
942	0.0018251
954	0.0146373
966	0.0154038
978	0.00146008
990	0.0035772
1002	0.0135787
1014	0.00967303
1026	0.0258069
1038	0.0246388
1050	0.0118997
1062	0.0252594
1074	0.0826405
1086	0.0898679
1098	0.103118
1110	0.195651
1122	0.278401
1134	0.174151
1146	0.111988
1158	0.0879698
1170	0.0632215
1182	0.0687698
1194	0.0751211
1206	0.0720184
1218	0.0551545
1230	0.0524534
1242	0.0646085
1254	0.0661051
1266	0.0567241
1278	0.0474891
1290	0.0440214
1302	0.0414298
1314	0.0394222
1326	0.0377066
1338	0.0444229
1350	0.0481096
1362	0.0522344
1374	0.0765447
1386	0.0800124
1398	0.0527819
1410	0.0415393
1422	0.0394222
1434	0.0489857
1446	0.063112
1458	0.0348594
1470	0.0111331
1482	0.0242373
1494	0.119471
1506	0.0303332
1518	0.00434374
1530	0.00667987
1542	0.0073734
1554	0.00584032
1566	0.00759242
1578	0.0198206
1590	0.037305
1602	0.0536579
1614	0.018762
1626	0.0123377
1638	0.0159149
1650	0.0236533
1662	0.0273765
1674	0.0351514
1686	0.0521614
1698	0.0882618
1710	0.152177
1722	0.16028
1734	0.145898
1746	0.160974
1758	0.160645
1770	0.254236
1782	0.320196
1794	0.104797
1806	0.0608123
1818	0.0342024
1830	0.0134327
1842	0.00638785
1854	0.00474526
1866	0.00784793
1878	0.00755591
1890	0.00558481
1902	0.00167909
1914	0.00120457
1926	0.0035772
1938	0.0114981
1950	0.0108046
1962	0.00795744
1974	0.00251864
1986	0.00193461
1998	0.00164259
2010	0.00164259
2022	0.00146008
2034	0.00124107
2046	0.000693538
2058	0.000401522
2070	0.000693538
2082	0.000657036
2094	0.000401522
2106	0.000474526
2118	0.00054753
2130	0.000438024
2142	0
2154	0.00018251
2166	0.000474526
2178	0.00054753
2190	0.000511028
2202	0.00054753
2214	0.000985554
2226	0.00124107
2238	0.00153308
2250	0.00142358
2262	0.00204411
2274	0.00219012
2286	0.00262814
2298	0.00284716
2310	0.00459925
2322	0.00565781
2334	0.00532929
2346	0.00565781
2358	0.00525629
2370	0.00386921
2382	0.0054388
2394	0.00492777
2406	0.00565781
2418	0.00653386
2430	0.00678937
2442	0.00686238
2454	0.00762892
2466	0.00813995
2478	0.00865097
2490	0.00923501
2502	0.00963653
2514	0.0105856
2526	0.0113886
2538	0.0117901
2550	0.0120457
2562	0.0123742
2574	0.0126662
2586	0.0131407
2598	0.0136882
2610	0.0135057
2622	0.0135422
2634	0.0137248
2646	0.0140168
2658	0.0136517
2670	0.0135787
2682	0.0128487
2694	0.0127757
2706	0.0130312
2718	0.0130677
2730	0.0133232
2742	0.0137613
2754	0.0146008
2766	0.0150023
2778	0.0157324
2790	0.0166084
2802	0.0172289
2814	0.017667
2826	0.0193096
2838	0.0212442
2850	0.0233978
2862	0.0274495
2874	0.0298221
2886	0.0322678
2898	0.0366845
2910	0.0433279
2922	0.0513583
2934	0.0573811
2946	0.0502998
2958	0.0448975
2970	0.0473066
2982	0.0493507
2994	0.0488397
3006	0.0567971
3018	0.0779683
3030	0.131809
3042	0.121807
3054	0.0970588
3066	0.133597
3078	0.132502
3090	0.0934451
3102	0.0697188
3114	0.054972
3126	0.0419043
3138	0.0385461
3150	0.0379986
3162	0.0377431
3174	0.036502
3186	0.0353339
3198	0.0348594
3210	0.0349324
3222	0.0336913
3234	0.0333628
3246	0.0321218
3258	0.0310997
3270	0.0307712
3282	0.0297126
3294	0.0286541
3306	0.0276685
3318	0.0266465
3330	0.0255514
3342	0.0250039
3354	0.0238358
3366	0.0231788
3378	0.0216457
3390	0.0207331
3402	0.0197111
3414	0.0192001
3426	0.0204046
3438	0.0208426
3450	0.0208426
3462	0.0221567
3474	0.0204046
3486	0.018908
3498	0.0181415
3510	0.0150388
3522	0.0152213
3534	0.0134327
3546	0.0118631
3558	0.0114616
3570	0.116076
3582	0.0804504
3594	0.00620534
3606	0.00408822
3618	0.0036502
3630	0.00467226
3642	0.00255514
3654	0.00251864
3666	0.000657036
3678	0.00292016
3690	0.00240913
3702	0.00200761
3714	0.00295666
3726	0.00317567
3738	0.0036137
3750	0.00281065
3762	0.00138708
3774	0.00215362
3786	0.0018251
3798	0.00262814
3810	0.00167909
3822	0.00273765
3834	0.00343119
3846	0.00167909
3858	0.00386921
3870	0.00401522
3882	0.00463575
3894	0.00405172
3906	0.00565781
3918	0.00423423
3930	0.00470876
3942	0.00511028
3954	0.00324868
3966	0.00339469
