Infrared Spectrum: 1-Chloro-2,6-dinitrobenzene
Formula: C 6 H 3 Cl N 2 O 4
CAS: 606-21-3
Origin: Sadtler Research Labs Under US-EPA Contract
1/CM	ABSORBANCE
450	0.0168226
462	0.0256961
474	0.0189486
486	0.0107221
498	0.00591565
510	0.00702483
522	0.0069324
534	0.0114616
546	0.00600808
558	0.00101675
570	0.00443674
582	0.00748699
594	0.00175621
606	0.00369728
618	0.00286539
630	0.00628538
642	0.000369728
654	0.00286539
666	0.00508376
678	0.0153437
690	0.0389139
702	0.177562
714	0.166285
726	0.133842
738	0.0751472
750	0.0689543
762	0.0408549
774	0.0232004
786	0.0164529
798	0.0394685
810	0.0864239
822	0.0320739
834	0.0613748
846	0.027822
858	0.00776429
870	0.00970536
882	0.0113691
894	0.0292085
906	0.0824493
918	0.042149
930	0.00508376
942	0.00499133
954	0.00554592
966	0.00683997
978	0.0069324
990	0.00443674
1002	0.00563835
1014	0.0048989
1026	0.0066551
1038	0.0101675
1050	0.0343847
1062	0.0723743
1074	0.0300404
1086	0.00915077
1098	0.00831888
1110	0.014974
1122	0.0133102
1134	0.00785672
1146	0.00767186
1158	0.012848
1170	0.019041
1182	0.0142345
1194	0.0120162
1206	0.0141421
1218	0.0151588
1230	0.0110918
1242	0.00979779
1254	0.0111843
1266	0.0146967
1278	0.0268053
1290	0.0293934
1302	0.0268977
1314	0.0361409
1326	0.0786596
1338	0.274246
1350	0.587405
1362	0.324344
1374	0.120901
1386	0.0579549
1398	0.034015
1410	0.0297631
1422	0.0325361
1434	0.06461
1446	0.0647948
1458	0.0232929
1470	0.0195032
1482	0.0245869
1494	0.0398382
1506	0.0598959
1518	0.111381
1530	0.207602
1542	0.369173
1554	0.726331
1566	0.891507
1578	0.447833
1590	0.290606
1602	0.204922
1614	0.101305
1626	0.0430733
1638	0.0217215
1650	0.0114616
1662	0.00730213
1674	0.0048989
1686	0.00332755
1698	0.00286539
1710	0.00545349
1722	0.00942806
1734	0.00415944
1746	0.00369728
1758	0.00526862
1770	0.00702483
1782	0.0072097
1794	0.00591565
1806	0.00628538
1818	0.00517619
1830	0.00332755
1842	0.00157134
1854	0.00129405
1866	0.00221837
1878	0.00600808
1890	0.00582322
1902	0.00286539
1914	0.00175621
1926	0.00277296
1938	0.00591565
1950	0.00452917
1962	0.00184864
1974	0.00129405
1986	0.000277296
1998	0.000739456
2010	0.000647024
2022	0.000184864
2034	0.000739456
2046	0.000554592
2058	0.000369728
2070	0.000277296
2082	0.000647024
2094	0.000184864
2106	0.000184864
2118	0.000184864
2130	0.000277296
2142	0.000184864
2154	0.000184864
2166	0.000184864
2178	0.000739456
2190	0.000277296
2202	0.000277296
2214	0.000184864
2226	0.000184864
2238	0.000184864
2250	0.000277296
2262	0.00110918
2274	0.0023108
2286	0.00157134
2298	0.00157134
2310	0.00147891
2322	0.00092432
2334	0.000739456
2346	0.000647024
2358	0.000184864
2370	0.000184864
2382	0.00138648
2394	0.00157134
2406	0.00157134
2418	0.000647024
2430	0.000554592
2442	0.000554592
2454	0.000554592
2466	0.00110918
2478	0.00120162
2490	0.000277296
2502	0.000647024
2514	0.000647024
2526	0.000184864
2538	0.000184864
2550	0.000647024
2562	0.000554592
2574	0.000184864
2586	0.000184864
2598	0.000184864
2610	0.00046216
2622	0.000184864
2634	0.000554592
2646	0.00120162
2658	0.00166378
2670	0.0023108
2682	0.00425187
2694	0.00600808
2706	0.0066551
2718	0.00554592
2730	0.00397458
2742	0.00360485
2754	0.0025881
2766	0.0023108
2778	0.0023108
2790	0.00184864
2802	0.00138648
2814	0.00166378
2826	0.0020335
2838	0.00295782
2850	0.00415944
2862	0.00637781
2874	0.0089659
2886	0.011554
2898	0.015621
2910	0.0170999
2922	0.0134951
2934	0.00942806
2946	0.00610051
2958	0.00406701
2970	0.00249566
2982	0.00175621
2994	0.00184864
3006	0.0023108
3018	0.00194107
3030	0.0020335
3042	0.0020335
3054	0.00212594
3066	0.00221837
3078	0.0048989
3090	0.0106297
3102	0.00748699
3114	0.00286539
3126	0.0020335
3138	0.00221837
3150	0.00221837
3162	0.0025881
3174	0.00110918
3186	0.00147891
3198	0.00129405
3210	0.00120162
3222	0.00101675
3234	0.00110918
3246	0.00138648
3258	0.00120162
3270	0.00120162
3282	0.00175621
3294	0.00147891
3306	0.00138648
3318	0.00138648
3330	0.00194107
3342	0.00175621
3354	0.00175621
3366	0.00166378
3378	0.00268053
3390	0.00175621
3402	0.00157134
3414	0.00184864
3426	0.00194107
3438	0.00249566
3450	0.00221837
3462	0.00240323
3474	0.0020335
3486	0.00221837
3498	0.0023108
3510	0.00277296
3522	0.00286539
3534	0.0023108
3546	0.00240323
3558	0.00332755
3570	0.00295782
3582	0.00323512
3594	0.00268053
3606	0.00268053
3618	0.00129405
3630	0.00092432
3642	0.00240323
3654	0.00194107
3666	0.00194107
3678	0.00092432
3690	0.00110918
3702	0.00212594
3714	0.00184864
3726	0.00101675
3738	0.00092432
3750	0.000184864
3762	0.00157134
3774	0.00147891
3786	0.00221837
3798	0.00175621
3810	0.0023108
3822	0.00184864
3834	0.00138648
3846	0.000831888
3858	0.000277296
3870	0.000184864
3882	0.00120162
3894	0.00138648
3906	0.00212594
3918	0.0023108
3930	0.00332755
3942	0.00240323
3954	0
3966	0.000184864
