Infrared Spectrum: Benzene, 2-methyl-1,3-dinitro-
Formula: C 7 H 6 N 2 O 4
CAS: 606-20-2
Origin: Sadtler Research Labs Under US-EPA Contract
1/CM	ABSORBANCE
450	0.00304798
462	0.00322215
474	0.00322215
486	0.0046155
498	0.00435425
510	0.00435425
522	0.00505093
534	0.00574761
546	0.00740223
558	0.00914392
570	0.0123661
582	0.0106244
594	0.00844724
606	0.00923101
618	0.00766348
630	0.00888267
642	0.00853433
654	0.00836016
666	0.00731514
678	0.0136723
690	0.0404945
702	0.156927
714	0.1888
726	0.0953581
738	0.0585211
750	0.041017
762	0.0277801
774	0.0211617
786	0.0227292
798	0.0376207
810	0.0688842
822	0.0296089
834	0.031786
846	0.0376207
858	0.0146303
870	0.0209004
882	0.0793344
894	0.10067
906	0.0170687
918	0.00992769
930	0.00888267
942	0.00836016
954	0.00748931
966	0.00923101
978	0.00914392
990	0.00740223
1002	0.00478968
1014	0.00139336
1026	0.00017417
1038	0.00444134
1050	0.00775057
1062	0.0087085
1074	0.0171557
1086	0.0203779
1098	0.00853433
1110	0.0069668
1122	0.00705389
1134	0.00914392
1146	0.0093181
1158	0.0114081
1170	0.013324
1182	0.0117565
1194	0.0121919
1206	0.0135853
1218	0.0146303
1230	0.0139336
1242	0.0108856
1254	0.0120177
1266	0.0104502
1278	0.0233388
1290	0.0394495
1302	0.0304797
1314	0.0370111
1326	0.0626141
1338	0.15205
1350	0.407732
1362	0.474004
1374	0.168684
1386	0.0729772
1398	0.0613078
1410	0.0424975
1422	0.0372724
1434	0.0384045
1446	0.0362274
1458	0.0436296
1470	0.0463292
1482	0.0455455
1494	0.0611337
1506	0.104676
1518	0.191761
1530	0.321431
1542	0.627622
1554	0.87085
1566	0.486283
1578	0.238003
1590	0.143081
1602	0.0879559
1614	0.0728031
1626	0.0436296
1638	0.0218583
1650	0.0128886
1662	0.00966643
1674	0.00818599
1686	0.0052251
1698	0.00557344
1710	0.0063572
1722	0.00853433
1734	0.00757639
1746	0.00435425
1758	0.00365757
1770	0.00374465
1782	0.00357048
1794	0.00261255
1806	0.00235129
1818	0.00339632
1830	0.00444134
1842	0.00391882
1854	0.00269963
1866	0.00330923
1878	0.00627012
1890	0.00714097
1902	0.00365757
1914	0.00296089
1926	0.0034834
1938	0.00600886
1950	0.00505093
1962	0.00235129
1974	0.00130627
1986	0.00165461
1998	0.00104502
2010	0.00104502
2022	0.00148044
2034	0.000957935
2046	0.000609595
2058	0.000957935
2070	0.00087085
2082	0.000783765
2094	0.00069668
2106	0.000783765
2118	0.000783765
2130	0.000609595
2142	0.00052251
2154	0.00052251
2166	0.000783765
2178	0.00104502
2190	0.00104502
2202	0.000435425
2214	0.00017417
2226	0.00034834
2238	0.00034834
2250	0.00087085
2262	0.00069668
2274	0.00052251
2286	0.00052251
2298	0.00069668
2310	0.00130627
2322	0.00182878
2334	0.00121919
2346	0.00148044
2358	0.0017417
2370	0.00278672
2382	0.00278672
2394	0.00304798
2406	0.00261255
2418	0.00252546
2430	0.00243838
2442	0.00252546
2454	0.00209004
2466	0.00200295
2478	0.00156753
2490	0.00156753
2502	0.0017417
2514	0.00113211
2526	0.00156753
2538	0.00113211
2550	0.00121919
2562	0.00121919
2574	0.00165461
2586	0.0017417
2598	0.00235129
2610	0.00165461
2622	0.00121919
2634	0.00121919
2646	0.00148044
2658	0.00165461
2670	0.00278672
2682	0.00383174
2694	0.00487676
2706	0.00618303
2718	0.00583469
2730	0.00478968
2742	0.00391882
2754	0.00383174
2766	0.00339632
2778	0.00287381
2790	0.00330923
2802	0.00287381
2814	0.00313506
2826	0.00391882
2838	0.00539927
2850	0.0069668
2862	0.00914392
2874	0.0126273
2886	0.016372
2898	0.018462
2910	0.0167203
2922	0.0121048
2934	0.0100148
2946	0.00905684
2958	0.0093181
2970	0.0069668
2982	0.00627012
2994	0.0080989
3006	0.00853433
3018	0.0080989
3030	0.00600886
3042	0.00505093
3054	0.00357048
3066	0.00426716
3078	0.0069668
3090	0.00966643
3102	0.00679263
3114	0.00322215
3126	0.00165461
3138	0.00191587
3150	0.00235129
3162	0.00121919
3174	0.00165461
3186	0.00148044
3198	0.00087085
3210	0.00087085
3222	0.00121919
3234	0.00113211
3246	0.00052251
3258	0.00069668
3270	0.000783765
3282	0.00139336
3294	0.00052251
3306	0.00087085
3318	0.000435425
3330	0.000435425
3342	0.000609595
3354	0.00069668
3366	0.00113211
3378	0.000957935
3390	0.00104502
3402	0.00104502
3414	0.00052251
3426	0.000957935
3438	0.00148044
3450	0.00052251
3462	0.00121919
3474	0.00165461
3486	0.00113211
3498	0.00156753
3510	0.00121919
3522	0.00139336
3534	0.00113211
3546	0.00121919
3558	0.00069668
3570	0.00087085
3582	0.000261255
3594	0.00087085
3606	0.00087085
3618	0.000957935
3630	0.00087085
3642	0.00130627
3654	0.000957935
3666	0.00087085
3678	0.000957935
3690	0.00148044
3702	0.000957935
3714	0.00104502
3726	0.00104502
3738	0.00148044
3750	0.00148044
3762	0.00156753
3774	0.00200295
3786	0.00182878
3798	0.00165461
3810	0.00148044
3822	0.00113211
3834	0.00156753
3846	0.00165461
3858	0.00209004
3870	0.0017417
3882	0.00287381
3894	0.0017417
3906	0.0017417
3918	0.00165461
3930	0.00226421
3942	0.00235129
3954	0.00278672
3966	0.00235129
