Infrared Spectrum: Benzoic acid, 2-methoxy-, methyl ester
Formula: C 9 H 10 O 3
CAS: 606-45-1
Origin: Sadtler Research Labs Under US-EPA Contract
1/CM	ABSORBANCE
450	0.00413178
462	0.00307482
474	0
486	0.00134523
498	0.00855183
510	0.0154702
522	0.0144132
534	0.00980098
546	0.00816748
558	0.0129719
570	0.0221963
582	0.0215237
594	0.00903227
606	0.00326699
618	0.0040357
630	0.00451614
642	0.00912836
654	0.0438161
666	0.0408374
678	0.0144132
690	0.0237337
702	0.061112
714	0.0788882
726	0.0491971
738	0.0744682
750	0.188717
762	0.178243
774	0.0758134
786	0.0450653
798	0.0251751
810	0.0233494
822	0.0420865
834	0.0500618
846	0.0201785
858	0.0145093
870	0.0114345
882	0.00980098
894	0.0072066
906	0.0055731
918	0.00682225
930	0.0107619
942	0.0173919
954	0.0200824
966	0.0331504
978	0.0330543
990	0.0271929
1002	0.0451614
1014	0.100124
1026	0.16114
1038	0.188909
1050	0.191696
1062	0.125779
1074	0.243487
1086	0.488896
1098	0.350241
1110	0.165656
1122	0.254249
1134	0.338998
1146	0.153068
1158	0.143748
1170	0.116074
1182	0.114825
1194	0.129911
1206	0.114441
1218	0.15941
1230	0.323336
1242	0.721909
1254	0.959631
1266	0.607757
1278	0.457859
1290	0.650516
1302	0.725368
1314	0.3144
1326	0.100796
1338	0.0548662
1350	0.0389156
1362	0.03709
1374	0.0347839
1386	0.0310364
1398	0.030556
1410	0.0371861
1422	0.072066
1434	0.239259
1446	0.252135
1458	0.197653
1470	0.205917
1482	0.240508
1494	0.334098
1506	0.153356
1518	0.0451614
1530	0.0295951
1542	0.0320934
1554	0.0334386
1566	0.0509266
1578	0.0994511
1590	0.154798
1602	0.221387
1614	0.132313
1626	0.0428552
1638	0.0291147
1650	0.0248868
1662	0.0210433
1674	0.0245024
1686	0.0362252
1698	0.0608237
1710	0.101949
1722	0.205917
1734	0.489376
1746	0.653687
1758	0.563268
1770	0.254921
1782	0.0992589
1794	0.0417022
1806	0.0226768
1818	0.016431
1830	0.0140288
1842	0.0115306
1854	0.00922445
1866	0.0088401
1878	0.00835966
1890	0.00989706
1902	0.0129719
1914	0.0176802
1926	0.0160467
1938	0.0167193
1950	0.0119149
1962	0.00691834
1974	0.0048044
1986	0.00422787
1998	0.00509266
2010	0.00778313
2022	0.0117227
2034	0.0162389
2046	0.0171998
2058	0.016431
2070	0.0166232
2082	0.0147015
2094	0.0107619
2106	0.00768704
2118	0.00595746
2130	0.0048044
2142	0.00355526
2154	0.00345917
2166	0.0024022
2178	0.00192176
2190	0.00144132
2202	0.0016335
2214	0.00269046
2226	0.00288264
2238	0.00249829
2250	0.00365134
2262	0.00442005
2274	0.00595746
2286	0.00547702
2298	0.00499658
2310	0.00509266
2322	0.00547702
2334	0.00518875
2346	0.00442005
2358	0.00442005
2370	0.0055731
2382	0.00442005
2394	0.00422787
2406	0.00365134
2418	0.00211394
2430	0.0024022
2442	0.0016335
2454	0.00172958
2466	0.0016335
2478	0.00288264
2490	0.00393961
2502	0.00518875
2514	0.00518875
2526	0.00422787
2538	0.00365134
2550	0.00470831
2562	0.00432396
2574	0.00374743
2586	0.0031709
2598	0.00393961
2610	0.00326699
2622	0.00172958
2634	0.00144132
2646	0.00230611
2658	0.00105697
2670	0.000384352
2682	0.00153741
2694	0.0024022
2706	0.00221002
2718	0.0031709
2730	0.00278655
2742	0.00288264
2754	0.00345917
2766	0.00365134
2778	0.0048044
2790	0.00576528
2802	0.00749486
2814	0.0128758
2826	0.0251751
2838	0.0691834
2850	0.0982019
2862	0.0470831
2874	0.0376665
2886	0.0474675
2898	0.0609198
2910	0.074276
2922	0.0858066
2934	0.102045
2946	0.153933
2958	0.250405
2970	0.174784
2982	0.0875362
2994	0.0866714
3006	0.114537
3018	0.10291
3030	0.073123
3042	0.0608237
3054	0.0532328
3066	0.0614963
3078	0.084077
3090	0.0765821
3102	0.0345917
3114	0.0227729
3126	0.0159506
3138	0.0111462
3150	0.00951271
3162	0.00980098
3174	0.00922445
3186	0.00711051
3198	0.00807139
3210	0.00432396
3222	0.00442005
3234	0.00624572
3246	0.00586137
3258	0.00614963
3270	0.00566919
3282	0.00634181
3294	0.00634181
3306	0.00470831
3318	0.00547702
3330	0.0048044
3342	0.00634181
3354	0.00653398
3366	0.00509266
3378	0.00614963
3390	0.00528484
3402	0.00470831
3414	0.0055731
3426	0.00374743
3438	0.00663007
3450	0.0072066
3462	0.0064379
3474	0.00605354
3486	0.0072066
3498	0.00682225
3510	0.00259438
3522	0.00355526
3534	0.00230611
3546	0.00230611
3558	0.00172958
3570	0.00432396
3582	0.0048044
3594	0.00374743
3606	0.00442005
3618	0.00230611
3630	0.00470831
3642	0.00211394
3654	0.00153741
3666	0.00249829
3678	0.00259438
3690	0.00115306
3702	0.00048044
3714	0.00134523
3726	0
3738	0.00115306
3750	0.00326699
3762	0.00182567
3774	0.000576528
3786	0.000288264
3798	0.00182567
3810	0.00134523
3822	0.00182567
3834	0.00134523
3846	0.00259438
3858	0.00221002
3870	0.00355526
3882	0.00307482
3894	0.00518875
3906	0.00278655
3918	0.0040357
3930	0.00355526
3942	0.00393961
3954	0.00201785
3966	0.00297873
