Infrared Spectrum: Benzoic acid, 2-nitro-, methyl ester
Formula: C 8 H 7 N O 4
CAS: 606-27-9
Origin: Sadtler Research Labs Under US-EPA Contract
1/CM	ABSORBANCE
450	0.000981906
462	0.0148922
474	0.00883715
486	0.0076916
498	0.0104737
510	0.00621874
522	0.0080189
534	0.0142376
546	0.0180016
558	0.0201291
570	0.0274934
582	0.024875
594	0.00621874
606	0.00278207
618	0.00229111
630	0.00703699
642	0.0410764
654	0.0703699
666	0.0286389
678	0.0378034
690	0.0908263
702	0.213728
714	0.181162
726	0.222729
738	0.303736
750	0.16316
762	0.112756
774	0.191308
786	0.184107
798	0.0533502
810	0.0649694
822	0.144013
834	0.0687334
846	0.0800253
858	0.230093
870	0.0765887
882	0.023893
894	0.00949176
906	0.0086735
918	0.00981906
930	0.0106373
942	0.0256932
954	0.0711882
966	0.1067
978	0.0486043
990	0.0160378
1002	0.00883715
1014	0.0181653
1026	0.0517137
1038	0.121102
1050	0.0760977
1062	0.172161
1074	0.412728
1086	0.213728
1098	0.140576
1110	0.25595
1122	0.65444
1134	0.703536
1146	0.230257
1158	0.130103
1170	0.107846
1182	0.104737
1194	0.135012
1206	0.106209
1218	0.0862441
1230	0.133048
1242	0.294408
1254	0.782743
1266	0.867023
1278	0.896807
1290	1.43882
1302	1.32917
1314	0.396526
1326	0.20931
1338	0.273952
1350	0.620074
1362	0.881097
1374	0.361341
1386	0.162178
1398	0.0972087
1410	0.0752795
1422	0.076425
1434	0.241385
1446	0.327466
1458	0.143195
1470	0.112756
1482	0.12012
1494	0.0978633
1506	0.109973
1518	0.179852
1530	0.397508
1542	0.94263
1554	1.56238
1566	0.877333
1578	0.444149
1590	0.221093
1602	0.11701
1614	0.112101
1626	0.0868987
1638	0.0657877
1650	0.052041
1662	0.0427129
1674	0.0332212
1686	0.0299481
1698	0.0355123
1710	0.0541685
1722	0.1049
1734	0.258732
1746	0.692735
1758	1.59822
1770	0.998271
1782	0.299154
1794	0.0816618
1806	0.031421
1818	0.0292935
1830	0.0392762
1842	0.0307664
1854	0.021111
1866	0.0181653
1878	0.00883715
1890	0.00932811
1902	0.0122738
1914	0.0162014
1926	0.0202927
1938	0.0268388
1950	0.0183289
1962	0.0160378
1974	0.0127648
1986	0.00425493
1998	0.00327302
2010	0.00474588
2022	0.00572778
2034	0.00556413
2046	0.00474588
2058	0.00409128
2070	0.00703699
2082	0.0109646
2094	0.0116192
2106	0.0086735
2118	0.00818255
2130	0.00490953
2142	0.00261842
2154	0.00212746
2166	0.00147286
2178	0.000163651
2190	0.000327302
2202	0.000818255
2214	0.00180016
2226	0.00229111
2238	0.00196381
2250	0.00245477
2262	0.00327302
2274	0.00163651
2286	0.000818255
2298	0.000818255
2310	0.00130921
2322	0.00409128
2334	0.00572778
2346	0.00212746
2358	0.00245477
2370	0.00540048
2382	0.00392762
2394	0.00638239
2406	0.0073643
2418	0.00441858
2430	0.00278207
2442	0.00147286
2454	0.000490953
2466	0.000163651
2478	0.000327302
2490	0.000490953
2502	0.00147286
2514	0.000818255
2526	0.000327302
2538	0.00114556
2550	0.00114556
2562	0.00196381
2574	0.00360032
2586	0.00507318
2598	0.00425493
2610	0.00245477
2622	0.00196381
2634	0.00212746
2646	0.00229111
2658	0.00245477
2670	0.00229111
2682	0.00392762
2694	0.00605509
2706	0.00670969
2718	0.00621874
2730	0.00490953
2742	0.00425493
2754	0.00229111
2766	0.00180016
2778	0.00180016
2790	0.00196381
2802	0.00229111
2814	0.00409128
2826	0.00670969
2838	0.0152195
2850	0.0432039
2862	0.0340394
2874	0.0242203
2886	0.0358396
2898	0.0510591
2910	0.0538412
2922	0.0425493
2934	0.0361669
2946	0.0531866
2958	0.203745
2970	0.228784
2982	0.0476224
2994	0.0410764
3006	0.0574415
3018	0.0582598
3030	0.0517137
3042	0.0495863
3054	0.0374761
3066	0.0430402
3078	0.0895171
3090	0.0882079
3102	0.034694
3114	0.0158741
3126	0.00932811
3138	0.00638239
3150	0.00572778
3162	0.00572778
3174	0.00474588
3186	0.00425493
3198	0.00458223
3210	0.00261842
3222	0.00180016
3234	0.00130921
3246	0.00114556
3258	0.00130921
3270	0.000327302
3282	0.000981906
3294	0.000981906
3306	0.00114556
3318	0.000981906
3330	0.00147286
3342	0.00130921
3354	0.00147286
3366	0.00245477
3378	0.00130921
3390	0.00196381
3402	0.00147286
3414	0.00245477
3426	0.00229111
3438	0.00294572
3450	0.00343667
3462	0.00376397
3474	0.00589144
3486	0.0106373
3498	0.0168561
3510	0.013583
3522	0.00670969
3534	0.00360032
3546	0.00327302
3558	0.00278207
3570	0.00376397
3582	0.00376397
3594	0.00196381
3606	0.00343667
3618	0.00474588
3630	0.00130921
3642	0.00392762
3654	0.00196381
3666	0.00425493
3678	0.00196381
3690	0.00245477
3702	0.00540048
3714	0.00278207
3726	0.00540048
3738	0.00589144
3750	0.00425493
3762	0.00540048
3774	0.00523683
3786	0.00392762
3798	0.00409128
3810	0.00360032
3822	0.000490953
3834	0.000981906
3846	0.00327302
3858	0.00147286
3870	0.00261842
3882	0.00360032
3894	0.00130921
3906	0.00441858
3918	0.00490953
3930	0.00670969
3942	0.00507318
3954	0.00360032
3966	0.00261842
