Infrared Spectrum: Benzenamine, N,N-diethyl-2-methyl-
Formula: C 11 H 17 N
CAS: 606-46-2
Origin: Sadtler Research Labs Under US-EPA Contract
1/CM	ABSORBANCE
450	0.00625917
462	0.00687889
474	0.00142536
486	0.00638312
498	0.00359438
510	0.00625917
522	0.0122085
534	0.00638312
546	0.00941974
558	0.0205127
570	0.0343325
582	0.0226198
594	0.0172902
606	0.0104113
618	0.00756058
630	0.00725072
642	0.00563945
654	0.00477184
666	0.00390424
678	0.00551551
690	0.00898594
702	0.0275775
714	0.0801918
726	0.224091
738	0.0731889
750	0.0718875
762	0.165589
774	0.0578199
786	0.0362536
798	0.0294367
810	0.0252846
822	0.0153691
834	0.0092958
846	0.00849016
858	0.00849016
870	0.00687889
882	0.0081803
894	0.015431
906	0.0149972
918	0.0126423
930	0.0125803
942	0.0105972
954	0.00787044
966	0.0105972
978	0.0145014
990	0.0192733
1002	0.0292508
1014	0.0467269
1026	0.0543494
1038	0.0643269
1050	0.0933918
1062	0.0798199
1074	0.0694706
1086	0.0850876
1098	0.13169
1110	0.190874
1122	0.119606
1134	0.0677974
1146	0.059865
1158	0.0640171
1170	0.101634
1182	0.127848
1194	0.0821749
1206	0.055279
1218	0.0469748
1230	0.132806
1242	0.267905
1254	0.121093
1266	0.0470367
1278	0.0474086
1290	0.0720115
1302	0.0897974
1314	0.0646368
1326	0.0632114
1338	0.0757298
1350	0.0700903
1362	0.0780847
1374	0.148547
1386	0.207544
1398	0.0890538
1410	0.0362536
1422	0.0304902
1434	0.0510649
1446	0.114586
1458	0.132124
1470	0.105972
1482	0.170609
1494	0.32777
1506	0.132496
1518	0.0405917
1530	0.0262761
1542	0.0216902
1554	0.0169803
1566	0.022186
1578	0.0519945
1590	0.068603
1602	0.0820509
1614	0.0327832
1626	0.0142536
1638	0.00985355
1650	0.011093
1662	0.00855214
1674	0.0105972
1686	0.0173522
1698	0.0197071
1710	0.00948172
1722	0.00805636
1734	0.0109071
1746	0.00737467
1758	0.00805636
1770	0.0103493
1782	0.0120226
1794	0.0114028
1806	0.00910988
1818	0.010969
1830	0.00941974
1842	0.00638312
1854	0.00644509
1866	0.0073127
1878	0.00749861
1890	0.0114028
1902	0.0140676
1914	0.0103493
1926	0.0101634
1938	0.0149972
1950	0.00867608
1962	0.00539156
1974	0.00495776
1986	0.00433804
1998	0.00446198
2010	0.00328452
2022	0.00247888
2034	0.00210705
2046	0.00092958
2058	0.000247888
2070	0.00117747
2082	0.00229296
2094	0.00328452
2106	0.0026648
2118	0.00260282
2130	0.00365635
2142	0.00328452
2154	0.00291268
2166	0.00365635
2178	0.00501973
2190	0.00514368
2202	0.00365635
2214	0.00291268
2226	0.0026648
2238	0.00316057
2250	0.00316057
2262	0.00334649
2274	0.0030986
2286	0.00427607
2298	0.0046479
2310	0.00483382
2322	0.0042141
2334	0.0042141
2346	0.00285071
2358	0.00297466
2370	0.000371832
2382	0.00334649
2394	0.00440001
2406	0.00396621
2418	0.00378029
2430	0.00359438
2442	0.00347043
2454	0.00396621
2466	0.00384226
2478	0.0042141
2490	0.00371832
2502	0.00235494
2514	0.00136338
2526	0.00142536
2538	0.00285071
2550	0.00458593
2562	0.00687889
2574	0.00694086
2586	0.0077465
2598	0.00898594
2610	0.0101014
2622	0.0105972
2634	0.0105352
2646	0.0105972
2658	0.0140057
2670	0.0147493
2682	0.0143155
2694	0.0176
2706	0.0229296
2718	0.026648
2730	0.0322254
2742	0.033093
2754	0.0348902
2766	0.0410255
2778	0.0459832
2790	0.0599269
2802	0.109133
2814	0.230784
2826	0.268091
2838	0.18226
2850	0.123262
2862	0.110062
2874	0.144333
2886	0.183685
2898	0.163544
2910	0.195832
2922	0.244727
2934	0.335764
2946	0.354108
2958	0.250181
2970	0.415088
2982	0.607326
2994	0.231651
3006	0.0870707
3018	0.113905
3030	0.156231
3042	0.097296
3054	0.100333
3066	0.152513
3078	0.145696
3090	0.0660622
3102	0.0417072
3114	0.0270198
3126	0.0178479
3138	0.0149972
3150	0.0144395
3162	0.0140057
3174	0.0124564
3186	0.0104113
3198	0.00830425
3210	0.0077465
3222	0.00824228
3234	0.00830425
3246	0.00811833
3258	0.00644509
3270	0.00694086
3282	0.00849016
3294	0.00539156
3306	0.00607326
3318	0.00601128
3330	0.00514368
3342	0.0057634
3354	0.00359438
3366	0.00669298
3378	0.00446198
3390	0.00378029
3402	0.00563945
3414	0.00297466
3426	0.00582537
3438	0.0026648
3450	0.00347043
3462	0.00557748
3474	0.00582537
3486	0.00638312
3498	0.0073127
3510	0.0046479
3522	0.00489579
3534	0.00607326
3546	0.00495776
3558	0.0030986
3570	0.00632114
3582	0.00532959
3594	0.00446198
3606	0.00563945
3618	0.00749861
3630	0.00687889
3642	0.00694086
3654	0.00749861
3666	0.00725072
3678	0.00588734
3690	0.00656903
3702	0.00644509
3714	0.00588734
3726	0.0057634
3738	0.00725072
3750	0.00588734
3762	0.00452396
3774	0.00563945
3786	0.00570142
3798	0.0046479
3810	0.00520565
3822	0.00402818
3834	0.00501973
3846	0.00415212
3858	0.00625917
3870	0.00594931
3882	0.00563945
3894	0.00570142
3906	0.00694086
3918	0.0103493
3930	0.00991552
3942	0.00787044
3954	0.00601128
3966	0.00737467
