Infrared Spectrum: Vanillin, 6-bromo-,
Formula: C 8 H 7 Br O 3
CAS: 60632-40-8
Origin: Sadtler Research Labs Under US-EPA Contract
1/CM	ABSORBANCE
450	0.0643289
462	0.0513801
474	0.0845821
486	0.0851631
498	0.0437436
510	0.0214153
522	0.0120357
534	0.00589335
546	0.00738744
558	0.0222453
570	0.050218
582	0.0231584
594	0.0214153
606	0.0125338
618	0.0453207
630	0.108156
642	0.0141108
654	0.00348621
666	0.00356921
678	0
690	0.00099606
702	0.00207512
714	0.0102926
726	0.0598466
738	0.0754515
750	0.0261466
762	0.0113717
774	0.0125338
786	0.0127828
798	0.00929656
810	0.0137788
822	0.0304628
834	0.0690602
846	0.0549493
858	0.0347791
870	0.0576885
882	0.0951237
894	0.0351111
906	0.017099
918	0.0141108
930	0.0141939
942	0.015937
954	0.0272256
966	0.0708863
978	0.1138
990	0.0428306
1002	0.0241545
1014	0.0210003
1026	0.033534
1038	0.0761156
1050	0.0757836
1062	0.0232414
1074	0.0145259
1086	0.0137788
1098	0.016269
1110	0.0239054
1122	0.0425816
1134	0.137954
1146	0.348372
1158	0.225525
1170	0.136045
1182	0.181698
1194	0.230256
1206	0.501101
1218	0.231916
1230	0.0815939
1242	0.100602
1254	0.231999
1266	0.571904
1278	0.75767
1290	0.154721
1302	0.0438266
1314	0.0268106
1326	0.0258976
1338	0.0453207
1350	0.0811789
1362	0.0607597
1374	0.0562774
1386	0.2149
1398	0.247023
1410	0.1685
1422	0.190579
1434	0.0722143
1446	0.0734594
1458	0.0854951
1470	0.159038
1482	0.251588
1494	0.459682
1506	0.54609
1518	0.123428
1530	0.0321229
1542	0.0268936
1554	0.0518781
1566	0.106246
1578	0.182611
1590	0.20635
1602	0.234572
1614	0.131646
1626	0.0403404
1638	0.0205852
1650	0.016933
1662	0.0263956
1674	0.0390954
1686	0.121851
1698	0.485496
1710	0.42814
1722	0.128409
1734	0.0449057
1746	0.016269
1758	0.0112887
1770	0.00929656
1782	0.0104586
1794	0.0122847
1806	0.00904754
1818	0.00481429
1830	0.00224114
1842	0.00232414
1854	0.00315419
1866	0.00298818
1878	0.00282217
1890	0.00116207
1902	0.00066404
1914	0.000249015
1926	0.00157709
1938	0.00273917
1950	0.00182611
1962	0.0016601
1974	0.00240714
1986	0.00381823
1998	0.00473129
2010	0.00473129
2022	0.00390123
2034	0.00265616
2046	0.00182611
2058	0.00182611
2070	0.00224114
2082	0.00348621
2094	0.00390123
2106	0.00423326
2118	0.00439926
2130	0.00348621
2142	0.00199212
2154	0.00157709
2166	0.00199212
2178	0.00307118
2190	0.00282217
2202	0.00132808
2214	0.00083005
2226	0.0016601
2238	0.00199212
2250	0.00132808
2262	0.000415025
2274	0.00049803
2286	0.00157709
2298	0.00282217
2310	0.00298818
2322	0.00215813
2334	8.3005e-05
2346	0.00016601
2358	8.3005e-05
2370	8.3005e-05
2382	0.00290517
2394	0.00207512
2406	0.00290517
2418	0.00282217
2430	0.00174311
2442	0.00149409
2454	0.00174311
2466	0.00232414
2478	0.00240714
2490	0.0016601
2502	0.00174311
2514	0.00307118
2526	0.00489729
2538	0.00614237
2550	0.00547833
2562	0.00381823
2574	0.00348621
2586	0.0032372
2598	0.00381823
2610	0.0049803
2622	0.00589335
2634	0.00464828
2646	0.0032372
2658	0.00298818
2670	0.00315419
2682	0.00448227
2694	0.00688941
2706	0.0123677
2718	0.0131148
2730	0.0122017
2742	0.0134468
2754	0.0131148
2766	0.0156879
2778	0.0131978
2790	0.0116207
2802	0.0139448
2814	0.0146919
2826	0.0148579
2838	0.0223283
2850	0.049554
2862	0.154389
2874	0.0627518
2886	0.016933
2898	0.0153559
2910	0.0204192
2922	0.0290517
2934	0.0261466
2946	0.0454037
2958	0.0716333
2970	0.0539532
2982	0.0414195
2994	0.0209173
3006	0.0268936
3018	0.0582695
3030	0.0245695
3042	0.0107076
3054	0.00937956
3066	0.0100436
3078	0.01602
3090	0.0134468
3102	0.00539532
3114	0.00381823
3126	0.00249015
3138	0.00240714
3150	0.00190911
3162	0.00215813
3174	0.00307118
3186	0.00240714
3198	0.00174311
3210	0.00107906
3222	0.00107906
3234	0.00083005
3246	0.00124508
3258	0.00149409
3270	0.00207512
3282	0.0016601
3294	0.0016601
3306	0.00083005
3318	0.00099606
3330	0.0016601
3342	0.00207512
3354	0.00199212
3366	0.00406724
3378	0.00979459
3390	0.00971159
3402	0.00381823
3414	0.00182611
3426	0.00132808
3438	0.00149409
3450	0.000913055
3462	0.000913055
3474	0.000747045
3486	0.00107906
3498	0.0016601
3510	0.00224114
3522	0.0034032
3534	0.00655739
3546	0.015854
3558	0.0917205
3570	0.374436
3582	0.203196
3594	0.0257315
3606	0.00813449
3618	0.00481429
3630	0.00282217
3642	0.00780247
3654	0.00448227
3666	0.00215813
3678	0.000747045
3690	0.00116207
3702	8.3005e-05
3714	0.000249015
3726	0.000913055
3738	0.000415025
3750	0.00240714
3762	0.000913055
3774	0.00066404
3786	0.00016601
3798	0.00107906
3810	0.00149409
3822	0.00141108
3834	0.000415025
3846	0.00132808
3858	0.00282217
3870	0.00215813
3882	0.00224114
3894	0.00099606
3906	0.00099606
3918	0.00307118
3930	0.00273917
3942	0.00149409
3954	0.000747045
3966	0.00224114
