Infrared Spectrum: Propionic acid, 3-tetradecyloxy-, methyl ester
Formula: C 18 H 36 O 3
CAS: 6064-97-7
Origin: Sadtler Research Labs Under US-EPA Contract
1/CM	ABSORBANCE
450	0.0312314
462	0.0268059
474	0.0227597
486	0.00455195
498	0.0217482
510	0.0136558
522	0.0180813
534	0.0195987
546	0.00531061
558	0.0123914
570	0.0189665
582	0.0240242
594	0.0203573
606	0.0175756
618	0.00139087
630	0.0171962
642	0.0118856
654	0.00960967
666	0.0101154
678	0.00935678
690	0.012265
702	0.0268059
714	0.0355305
726	0.0346454
738	0.021116
750	0.00771302
762	0.0130236
774	0.00973611
786	0.0102419
798	0.00644859
810	0.0166905
822	0.0214953
834	0.0352776
846	0.0386916
858	0.0241506
870	0.0206102
882	0.0158054
894	0.0169434
906	0.0149203
918	0.015426
930	0.0179549
942	0.0249093
954	0.0308521
966	0.0389444
978	0.0462781
990	0.0593018
1002	0.0740956
1014	0.0896481
1026	0.0981198
1038	0.0926827
1050	0.110638
1062	0.156031
1074	0.198768
1086	0.202815
1098	0.287911
1110	0.462149
1122	0.448114
1134	0.270714
1146	0.17702
1158	0.203067
1170	0.31105
1182	0.35796
1194	0.332672
1206	0.250104
1218	0.188653
1230	0.188021
1242	0.201424
1254	0.211666
1266	0.188147
1278	0.134662
1290	0.115822
1302	0.111143
1314	0.111523
1326	0.111396
1338	0.108741
1350	0.143766
1362	0.171077
1374	0.166778
1386	0.0919241
1398	0.0557614
1410	0.0614513
1422	0.0743485
1434	0.15464
1446	0.161088
1458	0.171077
1470	0.143513
1482	0.0661297
1494	0.027691
1506	0.0155525
1518	0.009989
1530	0.00682792
1542	0.00543705
1554	0.00543705
1566	0.00480483
1578	0.00480483
1590	0.00379329
1602	0.00316108
1614	0.00290819
1626	0.0026553
1638	0.00278175
1650	0.0035404
1662	0.00632215
1674	0.00923034
1686	0.0160583
1698	0.0283232
1710	0.0498185
1722	0.0909125
1734	0.197125
1746	0.42371
1758	0.445712
1770	0.285761
1782	0.113546
1794	0.045393
1806	0.0164376
1818	0.00531061
1830	0.0017702
1842	0.000126443
1854	0.000126443
1866	0.000379329
1878	0.000252886
1890	0.000126443
1902	0.000379329
1914	0.00101154
1926	0.00113799
1938	0.0017702
1950	0.0017702
1962	0.0026553
1974	0.00252886
1986	0.00303463
1998	0.00341396
2010	0.00442551
2022	0.00543705
2034	0.00594282
2046	0.00682792
2058	0.00606926
2070	0.00505772
2082	0.00467839
2094	0.00391973
2106	0.00303463
2118	0.00240242
2130	0.00202309
2142	0.00202309
2154	0.00189665
2166	0.00164376
2178	0.0017702
2190	0.00139087
2202	0.00139087
2214	0.000885101
2226	0.000632215
2238	0.000252886
2250	0.000505772
2262	0.000758658
2274	0.00151732
2286	0.00240242
2298	0.00290819
2310	0.00429906
2322	0.00341396
2334	0.00328752
2346	0.00429906
2358	0.00404618
2370	0.00303463
2382	0.00290819
2394	0.00189665
2406	0.00240242
2418	0.00227597
2430	0.00227597
2442	0.00240242
2454	0.00240242
2466	0.00252886
2478	0.00278175
2490	0.0035404
2502	0.00379329
2514	0.00429906
2526	0.00568994
2538	0.00619571
2550	0.00644859
2562	0.00695437
2574	0.00796591
2586	0.00948323
2598	0.0112534
2610	0.0118856
2622	0.0135294
2634	0.0141616
2646	0.0158054
2658	0.0180813
2670	0.0206102
2682	0.0226333
2694	0.0242771
2706	0.0251622
2718	0.0283232
2730	0.0316107
2742	0.0337603
2754	0.0347718
2766	0.0373007
2778	0.0441286
2790	0.0572787
2802	0.0718196
2814	0.0854755
2826	0.114431
2838	0.188021
2850	0.413342
2862	0.687091
2874	0.545475
2886	0.405376
2898	0.42371
2910	0.592006
2922	0.92708
2934	1.26443
2946	0.813661
2958	0.515382
2970	0.36934
2982	0.17702
2994	0.111143
3006	0.0783947
3018	0.0575316
3030	0.0451402
3042	0.0305992
3054	0.0212424
3066	0.0160583
3078	0.0132765
3090	0.0113799
3102	0.00986255
3114	0.00847168
3126	0.00670148
3138	0.00531061
3150	0.00531061
3162	0.00480483
3174	0.00404618
3186	0.00341396
3198	0.00278175
3210	0.00240242
3222	0.00113799
3234	0.00113799
3246	0.000505772
3258	0.00151732
3270	0.00113799
3282	0.00139087
3294	0.00139087
3306	0.000885101
3318	0.00139087
3330	0.000885101
3342	0.00164376
3354	0.0017702
3366	0.00202309
3378	0.00214953
3390	0.00214953
3402	0.00227597
3414	0.00240242
3426	0.00189665
3438	0.00189665
3450	0.00328752
3462	0.00467839
3474	0.00442551
3486	0.00480483
3498	0.00480483
3510	0.00366685
3522	0.00164376
3534	0.00151732
3546	0.00214953
3558	0.00240242
3570	0.0017702
3582	0.00113799
3594	0
3606	0.00164376
3618	0.0017702
3630	0.000126443
3642	0.00101154
3654	0.00101154
3666	0.00290819
3678	0.00139087
3690	0.000505772
3702	0.00379329
3714	0.00316108
3726	0.00290819
3738	0.00366685
3750	0.00164376
3762	0.00151732
3774	0.00227597
3786	0.0026553
3798	0.00278175
3810	0.00113799
3822	0.00366685
3834	0.00303463
3846	0.00151732
3858	0.00101154
3870	0.00139087
3882	0.00227597
3894	0.00202309
3906	0.00151732
3918	0.00303463
3930	0
3942	0.00252886
3954	0.00568994
3966	0.0035404
