Infrared Spectrum: Propanedioic acid, (phenylmethyl)-, diethyl ester
Formula: C 14 H 18 O 4
CAS: 607-81-8
Origin: Sadtler Research Labs Under US-EPA Contract
1/CM	ABSORBANCE
450	0
462	0.0301784
474	0.0134028
486	0.0294683
498	0.0168644
510	0.0235214
522	0.0578715
534	0.0438474
546	0.0309772
558	0.0419835
570	0.0239652
582	0.0205036
594	0.0289358
606	0.0230776
618	0.0292908
630	0.0273381
642	0.0220125
654	0.0263617
666	0.0312435
678	0.0485517
690	0.107755
702	0.153377
714	0.0628421
726	0.0582266
738	0.0782863
750	0.0874286
762	0.0448238
774	0.03293
786	0.0324862
798	0.0330187
810	0.0282257
822	0.0300009
834	0.035504
846	0.0429598
858	0.0711855
870	0.068434
882	0.0385218
894	0.0290245
906	0.0303559
918	0.0277819
930	0.0284032
942	0.030711
954	0.0333738
966	0.0394094
978	0.0430486
990	0.0480192
1002	0.069144
1014	0.116009
1026	0.190568
1038	0.296192
1050	0.266191
1062	0.211781
1074	0.160123
1086	0.150714
1098	0.194828
1110	0.193497
1122	0.21906
1134	0.39658
1146	0.60632
1158	0.584662
1170	0.497944
1182	0.424628
1194	0.410249
1206	0.432705
1218	0.493328
1230	0.518802
1242	0.451345
1254	0.408474
1266	0.403769
1278	0.352111
1290	0.270185
1302	0.2369
1314	0.219148
1326	0.212136
1338	0.208053
1350	0.138554
1362	0.11308
1374	0.18826
1386	0.0951507
1398	0.0751797
1410	0.0627533
1422	0.0552975
1434	0.0671913
1446	0.108553
1458	0.10163
1470	0.0923104
1482	0.0726057
1494	0.0832569
1506	0.0541436
1518	0.026273
1530	0.0237877
1542	0.0214799
1554	0.02219
1566	0.0213912
1578	0.0245865
1590	0.030711
1602	0.0450901
1614	0.0331075
1626	0.0207698
1638	0.0216574
1650	0.0219237
1662	0.0265392
1674	0.0279594
1686	0.0355928
1698	0.0476641
1710	0.0765111
1722	0.119737
1734	0.265836
1746	0.727122
1758	0.836652
1770	0.619722
1782	0.213379
1794	0.0994112
1806	0.0600905
1818	0.0418947
1830	0.0304447
1842	0.0248528
1854	0.022545
1866	0.0226338
1878	0.022545
1890	0.0222788
1902	0.0189059
1914	0.017752
1926	0.0183733
1938	0.0211249
1950	0.0210361
1962	0.0188171
1974	0.0147342
1986	0.0154442
1998	0.0165981
2010	0.0174857
2022	0.0197935
2034	0.0208586
2046	0.0192609
2058	0.0189946
2070	0.0183733
2082	0.0150004
2094	0.0134915
2106	0.0162431
2118	0.019616
2130	0.0241427
2142	0.0193497
2154	0.0141128
2166	0.0132252
2178	0.0126039
2190	0.0119826
2202	0.0128702
2214	0.0126039
2226	0.013314
2238	0.0137578
2250	0.013669
2262	0.0135803
2274	0.0153555
2286	0.0167756
2298	0.0189946
2310	0.0188171
2322	0.0135803
2334	0.0174857
2346	0.026983
2358	0.0118938
2370	0.0371017
2382	0.0317761
2394	0.017397
2406	0.0165981
2418	0.0167756
2430	0.0167756
2442	0.017397
2454	0.0165094
2466	0.0165981
2478	0.0176632
2490	0.0166869
2502	0.0169532
2514	0.0175745
2526	0.0176632
2538	0.0176632
2550	0.0175745
2562	0.0174857
2574	0.0183733
2586	0.0193497
2598	0.0188171
2610	0.0193497
2622	0.0167756
2634	0.0149117
2646	0.0153555
2658	0.0126039
2670	0.0132252
2682	0.0162431
2694	0.0181958
2706	0.0183733
2718	0.0192609
2730	0.0212136
2742	0.0213912
2754	0.0216574
2766	0.0229888
2778	0.0243202
2790	0.0242315
2802	0.0243202
2814	0.0260954
2826	0.0273381
2838	0.0285807
2850	0.0327524
2862	0.0409184
2874	0.0521909
2886	0.0666588
2898	0.0678126
2910	0.0833456
2922	0.0919554
2934	0.119382
2946	0.172461
2958	0.131454
2970	0.159058
2982	0.247463
2994	0.240717
3006	0.146276
3018	0.101186
3030	0.118938
3042	0.11237
3054	0.0677239
3066	0.095062
3078	0.10163
3090	0.0666588
3102	0.0473091
3114	0.0378118
3126	0.0264505
3138	0.0222788
3150	0.0208586
3162	0.0200598
3174	0.0206811
3186	0.0186396
3198	0.0180183
3210	0.0184621
3222	0.0165981
3234	0.0165094
3246	0.0172194
3258	0.0181958
3270	0.0183733
3282	0.0175745
3294	0.0159768
3306	0.0175745
3318	0.0181958
3330	0.0181958
3342	0.0189946
3354	0.0172194
3366	0.0173082
3378	0.0175745
3390	0.018107
3402	0.0171307
3414	0.0184621
3426	0.0173082
3438	0.018107
3450	0.0178408
3462	0.0168644
3474	0.019971
3486	0.0236989
3498	0.0212136
3510	0.0200598
3522	0.0165981
3534	0.0154442
3546	0.015178
3558	0.0140241
3570	0.0148229
3582	0.0161543
3594	0.0164206
3606	0.0142016
3618	0.0125152
3630	0.0170419
3642	0.0156218
3654	0.017752
3666	0.0157105
3678	0.0180183
3690	0.0143791
3702	0.0166869
3714	0.0172194
3726	0.0181958
3738	0.0179295
3750	0.0179295
3762	0.0175745
3774	0.0161543
3786	0.0192609
3798	0.0150892
3810	0.0186396
3822	0.0165981
3834	0.015888
3846	0.0183733
3858	0.0171307
3870	0.0150892
3882	0.0146454
3894	0.0122489
3906	0.0183733
3918	0.0119826
3930	0.0119826
3942	0.0139353
3954	0.0141128
3966	0.0117163
