Infrared Spectrum: Butanoic acid, 2-ethyl-3-oxo-, ethyl ester
Formula: C 8 H 14 O 3
CAS: 607-97-6
Origin: Sadtler Research Labs Under US-EPA Contract
1/CM	ABSORBANCE
450	0.000477235
462	0.00419967
474	0.00534503
486	0.0149852
498	0.00267252
510	0.00706308
522	0.00878112
534	0.010881
546	0.0141262
558	0.0148897
570	0.0109764
582	0.0212847
594	0.0241481
606	0.0192803
618	0.010881
630	0.00830389
642	0.00419967
654	0.00524959
666	0
678	0.00448601
690	0.00458146
702	0.00171805
714	0.00534503
726	0.00687218
738	0.00878112
750	0.0123127
762	0.0165123
774	0.0188985
786	0.0212847
798	0.0223346
810	0.0267252
822	0.0255798
834	0.0208074
846	0.0200439
858	0.0290159
870	0.0246253
882	0.0124081
894	0.0119309
906	0.0182304
918	0.0259616
930	0.03417
942	0.0342655
954	0.0335019
966	0.039706
978	0.0355063
990	0.0351245
1002	0.0465781
1014	0.0852342
1026	0.167223
1038	0.174191
1050	0.16226
1062	0.13878
1074	0.116827
1086	0.180777
1098	0.222487
1110	0.241481
1122	0.264484
1134	0.343991
1146	0.493747
1158	0.504247
1170	0.547293
1182	0.569055
1194	0.496611
1206	0.402023
1218	0.413476
1230	0.387324
1242	0.359263
1254	0.38112
1266	0.37358
1278	0.291209
1290	0.21237
1302	0.183735
1314	0.171518
1326	0.169323
1338	0.196812
1350	0.221055
1362	0.268302
1374	0.228596
1386	0.133721
1398	0.100887
1410	0.0751168
1422	0.0708217
1434	0.0813208
1446	0.103369
1458	0.123318
1470	0.123127
1482	0.0727306
1494	0.0354108
1506	0.02348
1518	0.018994
1530	0.0178486
1542	0.0168941
1554	0.0168941
1566	0.0160351
1578	0.0157488
1590	0.0156533
1602	0.0192803
1614	0.0282523
1626	0.0470554
1638	0.0572682
1650	0.0419012
1662	0.0378925
1674	0.0423785
1686	0.0591771
1698	0.100697
1710	0.21571
1722	0.58404
1734	0.95447
1746	0.762622
1758	0.669083
1770	0.398014
1782	0.147657
1794	0.0628041
1806	0.0348382
1818	0.020712
1830	0.0129808
1842	0.00964015
1854	0.00811299
1866	0.00763576
1878	0.00687218
1890	0.00696763
1902	0.00563137
1914	0.00458146
1926	0.00477235
1938	0.00496324
1950	0.00439056
1962	0.00458146
1974	0.00515414
1986	0.0048678
1998	0.00419967
2010	0.00477235
2022	0.00439056
2034	0.00553593
2046	0.00477235
2058	0.00343609
2070	0.00429511
2082	0.00439056
2094	0.00381788
2106	0.00439056
2118	0.00410422
2130	0.00334064
2142	0.00334064
2154	0.00267252
2166	0.00257707
2178	0.00219528
2190	0.00219528
2202	0.0016226
2214	0.00152715
2226	0.00200439
2238	0.00190894
2250	0.00229073
2262	0.00190894
2274	0.00229073
2286	0.00286341
2298	0.00391333
2310	0.00496324
2322	0.00687218
2334	0.00372243
2346	0.00286341
2358	0.00591771
2370	0
2382	0.00171805
2394	0.0030543
2406	0.00276796
2418	0.00353154
2430	0.00267252
2442	0.00248162
2454	0.00171805
2466	0.00276796
2478	0.00257707
2490	0.00219528
2502	0.00133626
2514	0.00104992
2526	0.00133626
2538	0.00171805
2550	0.00152715
2562	0.00152715
2574	0.00104992
2586	0.000572682
2598	0.000668129
2610	0.00133626
2622	0.0014317
2634	0.00171805
2646	0.0032452
2658	0.00114536
2670	0.00133626
2682	0.00267252
2694	0.000286341
2706	0.000286341
2718	0.0014317
2730	0.00295886
2742	0.00496324
2754	0.00668129
2766	0.00811299
2778	0.00849478
2790	0.00839934
2802	0.00983104
2814	0.0103083
2826	0.0142216
2838	0.0183258
2850	0.024339
2862	0.0318793
2874	0.0563137
2886	0.120168
2898	0.119595
2910	0.108905
2922	0.122363
2934	0.155865
2946	0.225637
2958	0.210938
2970	0.290063
2982	0.428366
2994	0.304476
3006	0.153192
3018	0.0887657
3030	0.0491552
3042	0.0307339
3054	0.0226209
3066	0.0182304
3078	0.0181349
3090	0.0176577
3102	0.0136489
3114	0.0107855
3126	0.010881
3138	0.0110719
3150	0.00906747
3162	0.0079221
3174	0.00849478
3186	0.00687218
3198	0.00687218
3210	0.00658584
3222	0.00515414
3234	0.00582227
3246	0.0062995
3258	0.00734942
3270	0.00668129
3282	0.00563137
3294	0.00314975
3306	0.0064904
3318	0.00248162
3330	0.00343609
3342	0.00334064
3354	0.00276796
3366	0.00257707
3378	0.00248162
3390	0.0032452
3402	0.00410422
3414	0.00448601
3426	0.00591771
3438	0.00906747
3450	0.0121218
3462	0.0148897
3474	0.0132671
3486	0.00763576
3498	0.00668129
3510	0.00419967
3522	0.00257707
3534	0.0032452
3546	0.00209983
3558	0.0030543
3570	0.00238617
3582	0.00104992
3594	0.00314975
3606	0.000859023
3618	0.00133626
3630	0.00343609
3642	0.00362699
3654	0.0032452
3666	0.00343609
3678	0.00200439
3690	0.00419967
3702	0.0030543
3714	0.00372243
3726	0.00257707
3738	0.00343609
3750	0.00400877
3762	0.00343609
3774	0.00219528
3786	0.00286341
3798	0.00448601
3810	0.00458146
3822	0.00448601
3834	0.00496324
3846	0.0030543
3858	0.00286341
3870	0.00362699
3882	0.00419967
3894	0.00458146
3906	0.00505869
3918	0.0046769
3930	0.00524959
3942	0.00381788
3954	0.0030543
3966	0.00295886
