Infrared Spectrum: Benzene, 1,3,5-tribromo-2-methoxy-
Formula: C 7 H 5 Br 3 O
CAS: 607-99-8
Origin: Sadtler Research Labs Under US-EPA Contract
1/CM	ABSORBANCE
450	0.00235158
462	0.00181408
474	0.00665161
486	0.0131688
498	0.020358
510	0.0198205
522	0.0166626
534	0.0230455
546	0.0266064
558	0.0375581
570	0.0554973
582	0.0180736
594	0.0192158
606	0.0185439
618	0.0254643
630	0.0233814
642	0.048241
654	0.162461
666	0.0352737
678	0.0279502
690	0.0298315
702	0.0272783
714	0.026808
726	0.0722943
738	0.341785
750	0.109584
762	0.0223064
774	0.0220377
786	0.0178048
798	0.0226424
810	0.0331237
822	0.0931898
834	0.0209627
846	0.0239861
858	0.13404
870	0.040044
882	0.0161923
894	0.0153189
906	0.0144454
918	0.0160579
930	0.0182079
942	0.0125642
954	0.0155876
966	0.0151845
978	0.0395065
990	0.113951
1002	0.279838
1014	0.130748
1026	0.0215673
1038	0.0176033
1050	0.0240533
1062	0.0574457
1074	0.0567067
1086	0.0285549
1098	0.0267408
1110	0.0399097
1122	0.0266064
1134	0.0177376
1146	0.0163267
1158	0.0184095
1170	0.0198205
1182	0.0254643
1194	0.0444113
1206	0.0292268
1218	0.0380284
1230	0.0673224
1242	0.121409
1254	0.314507
1266	0.178922
1278	0.0758553
1290	0.0431347
1302	0.0307049
1314	0.04038
1326	0.0224408
1338	0.023583
1350	0.0541535
1362	0.086135
1374	0.183087
1386	0.0564379
1398	0.123962
1410	0.669461
1422	0.203311
1434	0.0805584
1446	0.0751162
1458	0.360665
1470	0.388279
1482	0.0926523
1494	0.0307049
1506	0.0195517
1518	0.0322502
1530	0.103402
1542	0.149426
1554	0.0792147
1566	0.122417
1578	0.0227095
1590	0.0159907
1602	0.0113548
1614	0.0113548
1626	0.0104813
1638	0.00812975
1650	0.00980945
1662	0.00819694
1674	0.00705474
1686	0.00530785
1698	0.00705474
1710	0.011086
1722	0.0245236
1734	0.0260018
1746	0.0148485
1758	0.00940632
1770	0.00792818
1782	0.0072563
1794	0.00564379
1806	0.00685318
1818	0.00826412
1830	0.00772662
1842	0.00584536
1854	0.00530785
1866	0.00564379
1878	0.00631567
1890	0.00658442
1902	0.00913757
1914	0.00974226
1926	0.00759224
1938	0.0061813
1950	0.00611411
1962	0.00658442
1974	0.00705474
1986	0.00913757
1998	0.0118251
2010	0.00927194
2022	0.00591254
2034	0.00497191
2046	0.00517348
2058	0.00678599
2070	0.00833131
2082	0.00732349
2094	0.00517348
2106	0.00477035
2118	0.0050391
2130	0.00416566
2142	0.00396409
2154	0.00356096
2166	0.00309065
2178	0.00362815
2190	0.00302346
2202	0.00477035
2214	0.00510629
2226	0.00591254
2238	0.00611411
2250	0.00382972
2262	0.00430003
2274	0.00530785
2286	0.00792818
2298	0.00692036
2310	0.00752506
2322	0.00463597
2334	0.00329221
2346	0.00463597
2358	0.00349378
2370	0.00597973
2382	0.00685318
2394	0.00416566
2406	0.00262033
2418	0.00322502
2430	0.00255314
2442	0.00262033
2454	0.00255314
2466	0.00356096
2478	0.00430003
2490	0.00456878
2502	0.00597973
2514	0.00550942
2526	0.0028219
2538	0.00235158
2550	0.00241877
2562	0.00329221
2574	0.00382972
2586	0.00329221
2598	0.00329221
2610	0.00241877
2622	0.00228439
2634	0.00275471
2646	0.00268752
2658	0.00268752
2670	0.00315784
2682	0.00208283
2694	0.00255314
2706	0.0022172
2718	0.0022172
2730	0.0022172
2742	0.0028219
2754	0.00396409
2766	0.00510629
2778	0.00403128
2790	0.00416566
2802	0.00611411
2814	0.0111532
2826	0.0169314
2838	0.0186111
2850	0.0256658
2862	0.0253971
2874	0.0210298
2886	0.0327206
2898	0.0311752
2910	0.0237174
2922	0.0260689
2934	0.0334596
2946	0.0931226
2958	0.0825069
2970	0.0469644
2982	0.0337284
2994	0.0212314
3006	0.0272111
3018	0.0460238
3030	0.0241877
3042	0.0190814
3054	0.0153861
3066	0.0148485
3078	0.0151845
3090	0.0120267
3102	0.00980945
3114	0.0083985
3126	0.00456878
3138	0.00430003
3150	0.00356096
3162	0.00315784
3174	0.00188126
3186	0.00215002
3198	0.00134376
3210	0.00188126
3222	0.00107501
3234	0.00268752
3246	0.00241877
3258	0.00268752
3270	0.00141095
3282	0.00215002
3294	0.00174689
3306	0.0016797
3318	0.0022172
3330	0.00275471
3342	0.00342659
3354	0.00228439
3366	0.0028219
3378	0.0016797
3390	0.00322502
3402	0.000537504
3414	0.00315784
3426	0.00423284
3438	0.00248596
3450	0.00288908
3462	0.00268752
3474	0.00194845
3486	0.000806256
3498	0.00288908
3510	0.00255314
3522	0.00302346
3534	0.00409847
3546	0.00692036
3558	0.00396409
3570	0.00235158
3582	0.00255314
3594	0.00255314
3606	0.00262033
3618	0.00174689
3630	0.00403128
3642	0.00302346
3654	0.00302346
3666	0.00248596
3678	0.00423284
3690	0.00268752
3702	0.00376253
3714	0.0038969
3726	0.00430003
3738	0.00268752
3750	0.00215002
3762	0.00275471
3774	0.00490472
3786	0.00510629
3798	0.00349378
3810	0.00665161
3822	0.00564379
3834	0.00497191
3846	0.00349378
3858	0.00147814
3870	0.00248596
3882	0.0072563
3894	0.00799537
3906	0.00759224
3918	0.00382972
3930	0.00497191
3942	0.00309065
3954	0.000873444
3966	0.00107501
