Infrared Spectrum: Benzoic acid, 2-hydroxy-, 1-methylethyl ester
Formula: C 10 H 12 O 3
CAS: 607-85-2
Origin: Sadtler Research Labs Under US-EPA Contract
1/CM	ABSORBANCE
450	0
462	0.0134386
474	0.0251652
486	0.0138666
498	0.00171192
510	0.0152361
522	0.0447667
534	0.0301298
546	0.0151505
558	0.0145513
570	0.0204574
582	0.0105283
594	0.0186599
606	0.0157497
618	0.0156641
630	0.017376
642	0.0186599
654	0.0345808
666	0.0759237
678	0.0551238
690	0.0910741
702	0.169737
714	0.125826
726	0.0759237
738	0.0647106
750	0.217328
762	0.156469
774	0.0330401
786	0.0275619
798	0.0494745
810	0.0395454
822	0.0195159
834	0.038775
846	0.0320129
858	0.0571781
870	0.0659945
882	0.0178896
894	0.01652
906	0.0362071
918	0.0817442
930	0.0386894
942	0.0185743
954	0.0196015
966	0.0145513
978	0.0157497
990	0.0130962
1002	0.0206286
1014	0.022255
1026	0.0643682
1038	0.0748109
1050	0.0418564
1062	0.056579
1074	0.134043
1086	0.339303
1098	0.253707
1110	0.582481
1122	0.317133
1134	0.236331
1146	0.237443
1158	0.546787
1170	0.238727
1182	0.233249
1194	0.221779
1206	0.42293
1218	0.583765
1230	0.283237
1242	0.342812
1254	0.608588
1266	0.241638
1278	0.222892
1290	0.378591
1302	0.85596
1314	0.443302
1326	0.274763
1338	0.17958
1350	0.189424
1362	0.293252
1374	0.254135
1386	0.232907
1398	0.182919
1410	0.179666
1422	0.140891
1434	0.0881639
1446	0.0651386
1458	0.106053
1470	0.206458
1482	0.317304
1494	0.216815
1506	0.0938132
1518	0.0520424
1530	0.0293594
1542	0.0255932
1554	0.0321841
1566	0.0434828
1578	0.0972371
1590	0.153987
1602	0.136782
1614	0.215445
1626	0.142689
1638	0.0540111
1650	0.071815
1662	0.122488
1674	0.296333
1686	0.707023
1698	0.515288
1710	0.143716
1722	0.0591468
1734	0.0598316
1746	0.0826001
1758	0.0426268
1770	0.0191735
1782	0.0136098
1794	0.0132674
1806	0.0166056
1818	0.0128394
1830	0.0106139
1842	0.00932996
1854	0.00607732
1866	0.00616291
1878	0.00505016
1890	0.00590612
1902	0.00701887
1914	0.0100147
1926	0.0160065
1938	0.0104427
1950	0.0128394
1962	0.00599172
1974	0.00496457
1986	0.00470778
1998	0.0042798
2010	0.0042798
2022	0.00385182
2034	0.00282467
2046	0.00325265
2058	0.00316705
2070	0.00273907
2082	0.0041942
2094	0.00376622
2106	0.00410861
2118	0.00410861
2130	0.00299586
2142	0.00359503
2154	0.00359503
2166	0.00376622
2178	0.00342384
2190	0.00291026
2202	0.00231109
2214	0.0021399
2226	0.00325265
2238	0.00393742
2250	0.00350944
2262	0.00299586
2274	0.00410861
2286	0.00402301
2298	0.00453659
2310	0.0042798
2322	0.00547814
2334	0.00539255
2346	0.00368063
2358	0.00470778
2370	0.00496457
2382	0.00547814
2394	0.00530695
2406	0.0042798
2418	0.00402301
2430	0.0042798
2442	0.00487897
2454	0.00547814
2466	0.00547814
2478	0.00539255
2490	0.00547814
2502	0.0065053
2514	0.00607732
2526	0.00659089
2538	0.00719006
2550	0.00719006
2562	0.00727566
2574	0.0063341
2586	0.0063341
2598	0.0063341
2610	0.00727566
2622	0.00830281
2634	0.008474
2646	0.00753245
2658	0.00667649
2670	0.00659089
2682	0.0085596
2694	0.00898758
2706	0.00932996
2718	0.00967235
2730	0.0101859
2742	0.0112987
2754	0.0119834
2766	0.0127538
2778	0.013353
2790	0.0123258
2802	0.0122402
2814	0.0119834
2826	0.0142089
2838	0.0154073
2850	0.0142945
2862	0.0167768
2874	0.0231109
2886	0.037919
2898	0.0380902
2910	0.0359503
2922	0.0392886
2934	0.0590612
2946	0.090475
2958	0.0621427
2970	0.0527271
2982	0.164772
2994	0.255076
3006	0.0794331
3018	0.0399733
3030	0.0353511
3042	0.0354367
3054	0.0469066
3066	0.0649674
3078	0.0732702
3090	0.0580341
3102	0.0509296
3114	0.0356079
3126	0.0310713
3138	0.029873
3150	0.0314137
3162	0.0354367
3174	0.0446811
3186	0.0555518
3198	0.0683056
3210	0.0924437
3222	0.129164
3234	0.157925
3246	0.153816
3258	0.131818
3270	0.107765
3282	0.0912453
3294	0.0824289
3306	0.0768652
3318	0.0719862
3330	0.0683912
3342	0.0642826
3354	0.0583765
3366	0.0528983
3378	0.0445099
3390	0.0365495
3402	0.0310713
3414	0.0257644
3426	0.0228541
3438	0.0219126
3450	0.0260212
3462	0.0461362
3474	0.0546102
3486	0.0336392
3498	0.0257644
3510	0.0207142
3522	0.0163488
3534	0.012497
3546	0.00932996
3558	0.00778924
3570	0.0064197
3582	0.00487897
3594	0.00513576
3606	0.00470778
3618	0.00359503
3630	0.00539255
3642	0.00376622
3654	0.00273907
3666	0.00291026
3678	0.00402301
3690	0.00291026
3702	0.00239669
3714	0.00342384
3726	0.00368063
3738	0.00470778
3750	0.00393742
3762	0.00453659
3774	0.00496457
3786	0.00445099
3798	0.00547814
3810	0.00470778
3822	0.00564934
3834	0.00582053
3846	0.0041942
3858	0.00573493
3870	0.0063341
3882	0.0042798
3894	0.00530695
3906	0.00539255
3918	0.00547814
3930	0.00402301
3942	0.00522136
3954	0.00179752
3966	0.00196871
