Infrared Spectrum: Carbamic acid, diallyl-, ethyl ester
Formula: C 9 H 15 N O 2
CAS: 60728-51-0
Origin: Sadtler Research Labs Under US-EPA Contract
1/CM	ABSORBANCE
450	0
462	0.028746
474	0.0453547
486	0.0404269
498	0.0371416
510	0.0333088
522	0.0410657
534	0.0401531
546	0.0430733
558	0.0354077
570	0.0419782
582	0.0297498
594	0.0350427
606	0.03267
618	0.0323962
630	0.0363203
642	0.0405181
654	0.0342214
666	0.0421607
678	0.0443509
690	0.0507389
702	0.0497351
714	0.0410657
726	0.0386017
738	0.0495526
750	0.0425258
762	0.0469974
774	0.0741919
786	0.0562143
798	0.0442596
810	0.0375066
822	0.0377804
834	0.0385105
846	0.042617
858	0.0496438
870	0.045811
882	0.0626023
894	0.0499176
906	0.071363
918	0.156506
930	0.147836
942	0.100474
954	0.0849603
966	0.0724581
978	0.062511
990	0.0904357
1002	0.0823138
1014	0.0727318
1026	0.0843215
1038	0.0721843
1050	0.0698116
1062	0.0724581
1074	0.0804887
1086	0.104489
1098	0.152217
1110	0.173845
1122	0.124566
1134	0.118087
1146	0.16773
1158	0.205967
1170	0.14811
1182	0.121281
1194	0.123288
1206	0.128216
1218	0.135517
1230	0.30854
1242	0.736627
1254	0.426444
1266	0.135608
1278	0.0960024
1290	0.120368
1302	0.118908
1314	0.090892
1326	0.0699029
1338	0.0862379
1350	0.0987401
1362	0.10239
1374	0.10239
1386	0.186256
1398	0.181601
1410	0.287733
1422	0.250683
1434	0.159243
1446	0.144916
1458	0.221755
1470	0.193374
1482	0.129859
1494	0.0742832
1506	0.0545717
1518	0.0459023
1530	0.0449897
1542	0.045446
1554	0.0431646
1566	0.0389667
1578	0.0366853
1590	0.0351339
1602	0.0338563
1614	0.035499
1626	0.0405181
1638	0.0554843
1650	0.06461
1662	0.0432558
1674	0.0499176
1686	0.0619635
1698	0.0851428
1710	0.21637
1722	0.779061
1734	0.646556
1746	0.150665
1758	0.0731881
1770	0.0517427
1782	0.0424345
1794	0.0399706
1806	0.0368678
1818	0.0354077
1830	0.0361378
1842	0.0378717
1854	0.0373241
1866	0.0328525
1878	0.0288372
1890	0.0290197
1902	0.0286547
1914	0.0275596
1926	0.0281072
1938	0.0278334
1950	0.0271946
1962	0.0272858
1974	0.0285634
1986	0.0284722
1998	0.0270121
2010	0.0267383
2022	0.0264645
2034	0.025917
2046	0.0263733
2058	0.0257345
2070	0.0252782
2082	0.0258257
2094	0.0260082
2106	0.0252782
2118	0.0250044
2130	0.0242744
2142	0.0245481
2154	0.0236356
2166	0.0239093
2178	0.0240918
2190	0.0231793
2202	0.023453
2214	0.0229055
2226	0.0232705
2238	0.023088
2250	0.0235443
2262	0.0236356
2274	0.023088
2286	0.0228142
2298	0.0229968
2310	0.0233618
2322	0.0233618
2334	0.0232705
2346	0.0250957
2358	0.0242744
2370	0.0247306
2382	0.023088
2394	0.0225405
2406	0.0228142
2418	0.0225405
2430	0.0222667
2442	0.0217192
2454	0.0214454
2466	0.0209891
2478	0.0217192
2490	0.0219017
2502	0.0213541
2514	0.0208066
2526	0.0209891
2538	0.0210804
2550	0.0208979
2562	0.0210804
2574	0.0210804
2586	0.0209891
2598	0.0204416
2610	0.0201678
2622	0.0210804
2634	0.0208979
2646	0.0211716
2658	0.0214454
2670	0.0211716
2682	0.0213541
2694	0.0213541
2706	0.0216279
2718	0.0219929
2730	0.0219017
2742	0.0222667
2754	0.0228142
2766	0.0238181
2778	0.0248219
2790	0.0244569
2802	0.0249132
2814	0.025552
2826	0.0267383
2838	0.029111
2850	0.0337651
2862	0.0399706
2874	0.0470886
2886	0.0570356
2898	0.0592258
2910	0.0705417
2922	0.0828614
2934	0.0922608
2946	0.0987401
2958	0.0835914
2970	0.0954548
2982	0.13652
2994	0.145464
3006	0.0856903
3018	0.0659788
3030	0.0487312
3042	0.0348602
3054	0.0331263
3066	0.0385105
3078	0.0536591
3090	0.0868767
3102	0.0541154
3114	0.0284722
3126	0.0275596
3138	0.0251869
3150	0.025552
3162	0.0244569
3174	0.023453
3186	0.0238181
3198	0.023088
3210	0.0225405
3222	0.022358
3234	0.0228142
3246	0.0219929
3258	0.022358
3270	0.0222667
3282	0.0221755
3294	0.0226317
3306	0.0222667
3318	0.0219929
3330	0.0225405
3342	0.0216279
3354	0.0222667
3366	0.0224492
3378	0.022358
3390	0.0222667
3402	0.0229055
3414	0.0232705
3426	0.025552
3438	0.0257345
3450	0.0242744
3462	0.0229055
3474	0.023088
3486	0.0218104
3498	0.0229968
3510	0.0236356
3522	0.0238181
3534	0.0240918
3546	0.0238181
3558	0.0222667
3570	0.0247306
3582	0.022358
3594	0.0243656
3606	0.0226317
3618	0.0225405
3630	0.0244569
3642	0.0229968
3654	0.0261908
3666	0.0243656
3678	0.0201678
3690	0.0237268
3702	0.0231793
3714	0.0247306
3726	0.0212629
3738	0.0211716
3750	0.0273771
3762	0.0212629
3774	0.022358
3786	0.0215367
3798	0.023088
3810	0.0226317
3822	0.0240918
3834	0.0222667
3846	0.022723
3858	0.0214454
3870	0.0235443
3882	0.0254607
3894	0.022358
3906	0.0235443
3918	0.023453
3930	0.0236356
3942	0.0251869
3954	0.0252782
3966	0.023088
