Infrared Spectrum: Phenol, 2,6-dibromo-
Formula: C 6 H 4 Br 2 O
CAS: 608-33-3
Origin: Sadtler Research Labs Under US-EPA Contract
1/CM	ABSORBANCE
450	0.00165918
462	0.0127757
474	0.0142689
486	0.0116143
498	0.0248877
510	0.0617215
522	0.0744972
534	0.0137712
546	0.0132734
558	0.0199931
570	0.0517664
582	0.0469548
594	0.0149326
606	0.00555825
618	0.0190806
630	0.0125268
642	0.0275424
654	0.0442171
666	0.0238922
678	0.0561632
690	0.0296164
702	0.129333
714	0.449306
726	0.337975
738	0.103533
750	0.28596
762	0.341542
774	0.113073
786	0.0833738
798	0.0351746
810	0.0206568
822	0.0584861
834	0.108013
846	0.0406499
858	0.0296993
870	0.016094
882	0.00912549
894	0.0127757
906	0.010204
918	0.010204
930	0.0082959
942	0.0240581
954	0.0208227
966	0.0135223
978	0.0174214
990	0.0111165
1002	0.0111995
1014	0.0311926
1026	0.0574906
1038	0.0675286
1050	0.0725062
1062	0.136716
1074	0.125268
1086	0.0778985
1098	0.0488629
1110	0.0674457
1122	0.0975598
1134	0.203084
1146	0.385925
1158	0.10038
1170	0.298486
1182	0.307944
1194	0.134062
1206	0.14916
1218	0.103699
1230	0.272188
1242	0.259413
1254	0.242738
1266	0.229796
1278	0.133398
1290	0.0532597
1302	0.0671138
1314	0.217436
1326	0.505884
1338	0.209969
1350	0.0289527
1362	0.0155133
1374	0.0194954
1386	0.0325199
1398	0.0269617
1410	0.0403181
1422	0.0876047
1434	0.294919
1446	0.704073
1458	0.645338
1470	0.39812
1482	0.134891
1494	0.0536745
1506	0.0305289
1518	0.0204079
1530	0.0131075
1542	0.018251
1554	0.0550018
1566	0.148331
1578	0.175458
1590	0.0710959
1602	0.0322711
1614	0.0131075
1626	0.00771519
1638	0.00854478
1650	0.0272935
1662	0.0131075
1674	0.00978916
1686	0.00730039
1698	0.00804702
1710	0.010038
1722	0.00796406
1734	0.00671968
1746	0.00456274
1758	0.00622193
1770	0.010204
1782	0.0158452
1794	0.00804702
1806	0.00481162
1818	0.00655376
1830	0.0132734
1842	0.0265469
1854	0.0109506
1866	0.00613897
1878	0.00547529
1890	0.010204
1902	0.0154304
1914	0.00954029
1926	0.00638784
1938	0.00705152
1950	0.00597305
1962	0.0050605
1974	0.00282061
1986	0.00199102
1998	0.00149326
2010	0.00257173
2022	0.00472866
2034	0.00514346
2046	0.00589009
2058	0.00472866
2070	0.00539233
2082	0.00414795
2094	0.00522642
2106	0.00547529
2118	0.00381611
2130	0.00481162
2142	0.00398203
2154	0.00348428
2166	0.00348428
2178	0.00373316
2190	0.00257173
2202	0.00439683
2214	0.00638784
2226	0.00522642
2238	0.00547529
2250	0.0050605
2262	0.00456274
2274	0.00771519
2286	0.00912549
2298	0.0124439
2310	0.0144349
2322	0.0117802
2334	0.0105358
2346	0.00580713
2358	0.00945733
2370	0.00240581
2382	0.00555825
2394	0.00879365
2406	0.00812998
2418	0.0082959
2430	0.00630488
2442	0.00539233
2454	0.00497754
2466	0.00705152
2478	0.00738335
2490	0.0106188
2502	0.0155963
2514	0.0113654
2526	0.00954029
2538	0.00796406
2550	0.00746631
2562	0.0064708
2574	0.00431387
2586	0.00555825
2598	0.00530938
2610	0.00472866
2622	0.00580713
2634	0.00597305
2646	0.00929141
2658	0.00605601
2670	0.00564121
2682	0.00754927
2694	0.00414795
2706	0.00431387
2718	0.00389907
2730	0.00456274
2742	0.00705152
2754	0.00945733
2766	0.0112824
2778	0.0097062
2790	0.00812998
2802	0.00456274
2814	0.0036502
2826	0.00630488
2838	0.00655376
2850	0.00796406
2862	0.0111165
2874	0.00937437
2886	0.00904253
2898	0.00879365
2910	0.00713447
2922	0.00721743
2934	0.00763223
2946	0.00945733
2958	0.00630488
2970	0.00754927
2982	0.00945733
2994	0.00821294
3006	0.0116972
3018	0.0125268
3030	0.0170896
3042	0.0172555
3054	0.0152645
3066	0.0244729
3078	0.0554166
3090	0.0541722
3102	0.0164259
3114	0.0124439
3126	0.0179191
3138	0.0130246
3150	0.0107847
3162	0.00763223
3174	0.00730039
3186	0.00796406
3198	0.00746631
3210	0.0125268
3222	0.0097062
3234	0.0147667
3246	0.0119461
3258	0.00730039
3270	0.00837886
3282	0.00497754
3294	0.0145178
3306	0.00920845
3318	0.00929141
3330	0.0114483
3342	0.00920845
3354	0.00821294
3366	0.0115313
3378	0.00746631
3390	0.00265469
3402	0.0131075
3414	0.00887661
3426	0.00962324
3438	0.00273765
3450	0.00381611
3462	0.00746631
3474	0.0109506
3486	0.00978916
3498	0.014103
3510	0.0151815
3522	0.0187487
3534	0.108344
3546	0.767951
3558	0.437194
3570	0.113903
3582	0.0297823
3594	0.0151815
3606	0.0107017
3618	0.00887661
3630	0.0032354
3642	0.00522642
3654	0.00887661
3666	0.00638784
3678	0.00721743
3690	0.00854478
3702	0.00580713
3714	0.00862774
3726	0.00920845
3738	0.00671968
3750	0.00779815
3762	0.00630488
3774	0.00522642
3786	0.0106188
3798	0.0146837
3810	0.0118631
3822	0.0112824
3834	0.0125268
3846	0.00978916
3858	0.0126927
3870	0.00522642
3882	0.00572417
3894	0.00348428
3906	0.0107847
3918	0.0131905
3930	0.024307
3942	0.0184169
3954	0
3966	0.000912549
