Infrared Spectrum: Benzenamine, 2,3-dichloro-
Formula: C 6 H 5 Cl 2 N
CAS: 608-27-5
Origin: Sadtler Research Labs Under US-EPA Contract
1/CM	ABSORBANCE
450	0.115897
462	0.100278
474	0.0534214
486	0.043801
498	0.0361047
510	0.0390474
522	0.0411979
534	0.0361047
546	0.0530819
558	0.0640604
570	0.1039
582	0.146117
594	0.0899789
606	0.0823958
618	0.0890734
630	0.0883944
642	0.0852253
654	0.105032
666	0.132874
678	0.199538
690	0.293139
702	0.374403
714	0.227381
726	0.169092
738	0.234398
750	0.343957
762	0.53727
774	0.414356
786	0.19818
798	0.113294
810	0.0835276
822	0.072549
834	0.0660977
846	0.0563641
858	0.051271
870	0.0516105
882	0.0779817
894	0.175091
906	0.403038
918	0.247414
930	0.0297666
942	0.0165244
954	0.0196935
966	0.016864
978	0.0121104
990	0.0255789
1002	0.0358784
1014	0.0380288
1026	0.112728
1038	0.187541
1050	0.090658
1062	0.0434615
1074	0.0683613
1086	0.155511
1098	0.252054
1110	0.199085
1122	0.127555
1134	0.081943
1146	0.0363311
1158	0.0318039
1170	0.0313511
1182	0.0339543
1194	0.0791135
1206	0.111823
1218	0.0355388
1230	0.00565905
1242	0.00928084
1254	0.0210517
1266	0.0451592
1278	0.0914502
1290	0.138647
1302	0.266428
1314	0.248885
1326	0.0586278
1338	0.0105258
1350	0.00792267
1362	0.00871494
1374	0.00350861
1386	0.00124499
1398	0.00452724
1410	0.028748
1422	0.0547796
1434	0.262127
1446	0.475587
1458	0.816375
1470	0.853158
1482	0.162754
1494	0.0576091
1506	0.050026
1518	0.0513842
1530	0.053761
1542	0.0769631
1554	0.128008
1566	0.167847
1578	0.308531
1590	0.427032
1602	0.510107
1614	0.997917
1626	1.04772
1638	0.41594
1650	0.117256
1662	0.0595332
1674	0.0382552
1686	0.0251262
1698	0.0199199
1710	0.0306721
1722	0.0323698
1734	0.016864
1746	0.0117708
1758	0.00905448
1770	0.00486678
1782	0.00452724
1794	0.00633814
1806	0.0158453
1818	0.0135817
1830	0.00430088
1842	0.00384815
1854	0.00565905
1866	0.00520633
1878	0.0089413
1890	0.018788
1902	0.0320302
1914	0.0209385
1926	0.00690404
1938	0.00497996
1950	0.00486678
1962	0.00565905
1974	0.00543269
1986	0.00622495
1998	0.00769631
2010	0.00814903
2022	0.00724358
2034	0.00588541
2046	0.00430088
2058	0.00339543
2070	0.00147135
2082	0.000905448
2094	0.00215044
2106	0.00248998
2118	0.00362179
2130	0.00441406
2142	0.00452724
2154	0.00407452
2166	0.00486678
2178	0.00497996
2190	0.00780949
2202	0.00916766
2214	0.00746995
2226	0.00441406
2238	0.00316907
2250	0.00260316
2262	0.00294271
2274	0.00350861
2286	0.00339543
2298	0.00565905
2310	0.00860176
2322	0.00973357
2334	0.00803585
2346	0.00577223
2358	0.00679086
2370	0.00701722
2382	0.00554587
2394	0.00497996
2406	0.00588541
2418	0.00373497
2430	0.00260316
2442	0.00248998
2454	0.0018109
2466	0.0018109
2478	0.00248998
2490	0.00316907
2502	0.00396133
2514	0.00430088
2526	0.00452724
2538	0.00430088
2550	0.00577223
2562	0.00814903
2574	0.00939402
2586	0.00758313
2598	0.00724358
2610	0.00939402
2622	0.00780949
2634	0.00486678
2646	0.00441406
2658	0.00554587
2670	0.00316907
2682	0.0018109
2694	0.00226362
2706	0.00339543
2718	0.00362179
2730	0.00396133
2742	0.00441406
2754	0.00486678
2766	0.00350861
2778	0.00192408
2790	0.00124499
2802	0
2814	0.000905448
2826	0.00169772
2838	0.00124499
2850	0.00203726
2862	0.00260316
2874	0.00192408
2886	0.00169772
2898	0.00305589
2910	0.00339543
2922	0.00554587
2934	0.00531951
2946	0.00282952
2958	0.00192408
2970	0.00135817
2982	0.00215044
2994	0.00509315
3006	0.014374
3018	0.0336148
3030	0.046291
3042	0.0335016
3054	0.0714172
3066	0.115445
3078	0.10175
3090	0.0517237
3102	0.0122235
3114	0.00271634
3126	0.0023768
3138	0.00339543
3150	0.00520633
3162	0.00792267
3174	0.0105258
3186	0.0125631
3198	0.0117708
3210	0.00645132
3222	0.00430088
3234	0.0023768
3246	0.00215044
3258	0.00373497
3270	0.00362179
3282	0.00101863
3294	0.00113181
3306	0.00215044
3318	0.00226362
3330	0.00294271
3342	0.00294271
3354	0.00565905
3366	0.00746995
3378	0.0116576
3390	0.0252394
3402	0.0888471
3414	0.191729
3426	0.177241
3438	0.086923
3450	0.022523
3462	0.0172035
3474	0.0244471
3486	0.0503655
3498	0.121896
3510	0.171356
3522	0.126084
3534	0.090658
3546	0.0304457
3558	0.0113181
3570	0.00803585
3582	0.00973357
3594	0.00701722
3606	0.00792267
3618	0.00611177
3630	0.00554587
3642	0.00611177
3654	0.00837539
3666	0.0071304
3678	0.0071304
3690	0.0071304
3702	0.0095072
3714	0.0133554
3726	0.0095072
3738	0.00837539
3750	0.00803585
3762	0.00746995
3774	0.00622495
3786	0.00837539
3798	0.0129026
3810	0.00995993
3822	0.0108654
3834	0.0123367
3846	0.0122235
3858	0.0113181
3870	0.0114313
3882	0.00973357
3894	0.00509315
3906	0.00464042
3918	0.00735677
3930	0.010639
3942	0.0095072
3954	0.00792267
3966	0.00860176
