Infrared Spectrum: Benzene, 1,3,5-trimethyl-2,4-dinitro-
Formula: C 9 H 10 N 2 O 4
CAS: 608-50-4
Origin: Sadtler Research Labs Under US-EPA Contract
1/CM	ABSORBANCE
450	0
462	0.0101284
474	0.0141797
486	0.00939175
498	0.0112333
510	0.0116016
522	0.0119699
534	0.0143639
546	0.014548
558	0.0173103
570	0.0132589
582	0.0151005
594	0.0132589
606	0.0138114
618	0.0243081
630	0.0786329
642	0.12062
654	0.0453014
666	0.0261496
678	0.0219141
690	0.0228348
702	0.0235715
714	0.0220982
726	0.0239398
738	0.0294643
750	0.0263337
762	0.0432757
774	0.0493527
786	0.0235715
798	0.0180469
810	0.0215458
822	0.09447
834	0.119883
846	0.0390402
858	0.226139
870	0.177523
882	0.0287277
894	0.0156529
906	0.0160212
918	0.0147322
930	0.0138114
942	0.0151005
954	0.0143639
966	0.0138114
978	0.0138114
990	0.0151005
1002	0.0167578
1014	0.0219141
1026	0.0305692
1038	0.0333315
1050	0.0265179
1062	0.0239398
1074	0.0213616
1086	0.0197043
1098	0.0174944
1110	0.0163895
1122	0.0173103
1134	0.0259654
1146	0.0349889
1158	0.0211775
1170	0.0162054
1182	0.0152846
1194	0.0167578
1206	0.0163895
1218	0.016942
1230	0.0246764
1242	0.018231
1254	0.0191518
1266	0.0232032
1278	0.0263337
1290	0.0263337
1302	0.0294643
1314	0.0364621
1326	0.060586
1338	0.125776
1350	0.352283
1362	0.614515
1374	0.515626
1386	0.189124
1398	0.151005
1410	0.113069
1422	0.092076
1434	0.0948383
1446	0.118041
1458	0.132037
1470	0.138114
1482	0.130564
1494	0.158739
1506	0.191334
1518	0.226323
1530	0.510838
1542	1.49679
1554	1.53012
1566	0.450252
1578	0.201831
1590	0.195938
1602	0.212696
1614	0.0985213
1626	0.0537724
1638	0.0366462
1650	0.0211775
1662	0.0173103
1674	0.0154688
1686	0.014548
1698	0.0136272
1710	0.0139956
1722	0.0158371
1734	0.0171261
1746	0.0110491
1758	0.0112333
1770	0.0136272
1782	0.0132589
1794	0.0106808
1806	0.0104967
1818	0.00976006
1830	0.00902345
1842	0.00939175
1854	0.0095759
1866	0.00939175
1878	0.0103125
1890	0.00994421
1902	0.0112333
1914	0.0104967
1926	0.00994421
1938	0.00994421
1950	0.0101284
1962	0.0103125
1974	0.0103125
1986	0.00976006
1998	0.0104967
2010	0.0103125
2022	0.00994421
2034	0.00994421
2046	0.00939175
2058	0.00976006
2070	0.00976006
2082	0.00939175
2094	0.00939175
2106	0.00939175
2118	0.0088393
2130	0.00902345
2142	0.00976006
2154	0.0101284
2166	0.0104967
2178	0.00976006
2190	0.0092076
2202	0.0088393
2214	0.00865514
2226	0.0088393
2238	0.0092076
2250	0.0095759
2262	0.00976006
2274	0.00976006
2286	0.00994421
2298	0.0117857
2310	0.0132589
2322	0.0134431
2334	0.0117857
2346	0.0139956
2358	0.0143639
2370	0.0162054
2382	0.0149163
2394	0.0134431
2406	0.0152846
2418	0.014548
2430	0.0134431
2442	0.0119699
2454	0.0116016
2466	0.0112333
2478	0.0112333
2490	0.0110491
2502	0.0114174
2514	0.0112333
2526	0.0106808
2538	0.0110491
2550	0.0106808
2562	0.0114174
2574	0.0112333
2586	0.010865
2598	0.0106808
2610	0.0104967
2622	0.0106808
2634	0.010865
2646	0.0103125
2658	0.0112333
2670	0.0119699
2682	0.0143639
2694	0.0163895
2706	0.0176786
2718	0.0191518
2730	0.0195201
2742	0.0176786
2754	0.016942
2766	0.0167578
2778	0.0143639
2790	0.0136272
2802	0.0139956
2814	0.0151005
2826	0.0163895
2838	0.019336
2850	0.0237556
2862	0.0324108
2874	0.0462222
2886	0.0565347
2898	0.0594811
2910	0.0543248
2922	0.0488003
2934	0.0661106
2946	0.096864
2958	0.0670313
2970	0.0526675
2982	0.0585603
2994	0.0633483
3006	0.0534041
3018	0.0414342
3030	0.0401451
3042	0.0416184
3054	0.0360938
3066	0.027807
3078	0.023019
3090	0.018231
3102	0.0156529
3114	0.0139956
3126	0.0119699
3138	0.0119699
3150	0.0106808
3162	0.0106808
3174	0.0104967
3186	0.00994421
3198	0.00976006
3210	0.0101284
3222	0.00976006
3234	0.0095759
3246	0.0095759
3258	0.0095759
3270	0.00976006
3282	0.00976006
3294	0.00976006
3306	0.00902345
3318	0.0092076
3330	0.00994421
3342	0.0092076
3354	0.0095759
3366	0.00939175
3378	0.00976006
3390	0.0092076
3402	0.0095759
3414	0.00902345
3426	0.00939175
3438	0.0092076
3450	0.00976006
3462	0.0095759
3474	0.00939175
3486	0.00976006
3498	0.00939175
3510	0.0095759
3522	0.00865514
3534	0.0095759
3546	0.0088393
3558	0.0095759
3570	0.0101284
3582	0.00902345
3594	0.00902345
3606	0.0095759
3618	0.00939175
3630	0.0092076
3642	0.00902345
3654	0.00865514
3666	0.0101284
3678	0.00865514
3690	0.0103125
3702	0.0092076
3714	0.00865514
3726	0.00939175
3738	0.0095759
3750	0.0092076
3762	0.00939175
3774	0.00902345
3786	0.00939175
3798	0.00865514
3810	0.0095759
3822	0.00865514
3834	0.00902345
3846	0.00902345
3858	0.0101284
3870	0.0088393
3882	0.00865514
3894	0.0088393
3906	0.00865514
3918	0.00902345
3930	0.0103125
3942	0.0092076
3954	0.0092076
3966	0.0110491
