Infrared Spectrum: Benzene, pentachloro-
Formula: C 6 H Cl 5
CAS: 608-93-5
Origin: Sadtler Research Labs Under US-EPA Contract
1/CM	ABSORBANCE
450	0.0166006
462	0.0234668
474	0.0308545
486	0.0285078
498	0.0229453
510	0.0294638
522	0.0445
534	0.0275517
546	0.0436308
558	0.11238
570	0.0441523
582	0.0159922
594	0.00947363
606	0.0216416
618	0.012168
630	0.0157314
642	0.0132109
654	0.0165137
666	0.0750068
678	0.384942
690	0.226237
702	0.0514531
714	0.0154707
726	0.0106904
738	0.0190342
750	0.0157314
762	0.0162529
774	0.0269433
786	0.0289424
798	0.0420664
810	0.105253
822	0.335836
834	0.069705
846	0.0167744
858	0.0988212
870	0.0812646
882	0.0168613
894	0.0117334
906	0.00669238
918	0.00269433
930	0.00478027
942	0.0155576
954	0.00677929
966	0.00790917
978	0.00695312
990	0.00834374
1002	0.020251
1014	0.0189473
1026	0.00860449
1038	0.0104297
1050	0.0211201
1062	0.0110381
1074	0.0330273
1086	0.145059
1098	0.0568418
1110	0.0132109
1122	0.0186865
1134	0.0122549
1146	0.00156445
1158	0.0767451
1170	0.270042
1182	0.020251
1194	0.0274648
1206	0.0650117
1218	0.0140801
1230	0.0450215
1242	0.00999511
1254	0.00999511
1266	0.0135586
1278	0.00112988
1290	0.00730078
1302	0.056581
1314	0.120028
1326	0.397979
1338	0.436048
1350	0.0852626
1362	0.0458037
1374	0.074833
1386	0.350263
1398	0.86914
1410	0.194687
1422	0.0763974
1434	0.0650117
1446	0.0360693
1458	0.0358086
1470	0.012168
1482	0.00799609
1494	0.0112988
1506	0.0378076
1518	0.0863925
1530	0.114726
1542	0.0969091
1554	0.0982128
1566	0.0494541
1578	0.0264219
1590	0.0185127
1602	0.0243359
1614	0.0190342
1626	0.0219023
1638	0.0192949
1650	0.0125156
1662	0.00399804
1674	0.0103428
1686	0.0199033
1698	0.0184258
1710	0.00895214
1722	0.0188603
1734	0.0271172
1746	0.00512793
1758	0.00738769
1770	0.00790917
1782	0.00634472
1794	0.00938671
1806	0.000347656
1818	0.00252051
1830	0.00321582
1842	0.0049541
1854	0.00199902
1866	0.00391113
1878	0.00338965
1890	0.0049541
1902	0.00443261
1914	0.0043457
1926	0.00425879
1938	0.00260742
1950	0.00591015
1962	0.00260742
1974	0.00382422
1986	0.0043457
1998	0.00356347
2010	0.00443261
2022	0.00269433
2034	0.00538867
2046	0.00382422
2058	0.00599707
2070	0.00417187
2082	0.00399804
2094	0.00408496
2106	0.00304199
2118	0.00617089
2130	0.00330273
2142	0.00599707
2154	0.00338965
2166	0.00443261
2178	0.00408496
2190	0.00512793
2202	0.00738769
2214	0.00486718
2226	0.00608398
2238	0.00295508
2250	0.00451953
2262	0.00460644
2274	0.00382422
2286	0.00478027
2298	0.0031289
2310	0.00712695
2322	0.000521484
2334	0.00443261
2346	0.00295508
2358	0.000260742
2370	0.00173828
2382	0.0055625
2394	0.00547558
2406	0.00217285
2418	0.00712695
2430	0.000956054
2442	0.00451953
2454	0.00269433
2466	0.00443261
2478	0.00512793
2490	0.00304199
2502	0.00478027
2514	0.000608398
2526	0.00425879
2538	0.00252051
2550	0.00478027
2562	0.00599707
2574	0.00391113
2586	0.0049541
2598	0.00399804
2610	0.00478027
2622	0.00391113
2634	0.00391113
2646	0.00399804
2658	0.00382422
2670	0.0049541
2682	0.00408496
2694	0.00721386
2706	0.00425879
2718	0.00617089
2730	0.0049541
2742	0.00886523
2754	0.00643164
2766	0.00564941
2778	0.0043457
2790	0.00460644
2802	0.0049541
2814	0.00269433
2826	0.00564941
2838	0.00269433
2850	0.00408496
2862	0.0043457
2874	0.00391113
2886	0.00704003
2898	0.00260742
2910	0.00538867
2922	0.00391113
2934	0.00443261
2946	0.0055625
2958	0.00634472
2970	0.00582324
2982	0.00417187
2994	0.00564941
3006	0.00347656
3018	0.00443261
3030	0.00147754
3042	0.00451953
3054	0.00634472
3066	0.00695312
3078	0.00956054
3090	0.00564941
3102	0.00895214
3114	0.0049541
3126	0.00686621
3138	0.00338965
3150	0.00382422
3162	0.0055625
3174	0.00330273
3186	0.00234668
3198	0.0049541
3210	0.00451953
3222	0.00295508
3234	0.00382422
3246	0.00269433
3258	0.00478027
3270	0.00625781
3282	0.00425879
3294	0.00417187
3306	0.00278125
3318	0.00356347
3330	0.00591015
3342	0.00338965
3354	0.00399804
3366	0.00408496
3378	0.00608398
3390	0.00199902
3402	0.00486718
3414	0.0031289
3426	0.00391113
3438	0.00208594
3450	0.0043457
3462	0.00382422
3474	0.00521484
3486	0.00321582
3498	0.00130371
3510	0.00469336
3522	0.00356347
3534	0.0043457
3546	0.00591015
3558	0.00347656
3570	0.00886523
3582	0.00269433
3594	0.00599707
3606	0.00399804
3618	0.00651855
3630	0.0130371
3642	0.00295508
3654	0.0074746
3666	0.00295508
3678	0.0139932
3690	0.008083
3702	0.00521484
3714	0.00704003
3726	0.0049541
3738	0.0158183
3750	0.0146016
3762	0.00643164
3774	0.00104297
3786	0.00208594
3798	0.00547558
3810	0.00530175
3822	0.00816992
3834	0.00425879
3846	0.00191211
3858	0.0049541
3870	0.00365039
3882	0.00278125
3894	0.00260742
3906	0.0012168
3918	0.000260742
3930	0.000260742
3942	0.000260742
3954	0.000260742
3966	0.000260742
