Infrared Spectrum: Benzenamine, 2,6-dibromo-
Formula: C 6 H 5 Br 2 N
CAS: 608-30-0
Origin: Sadtler Research Labs Under US-EPA Contract
1/CM	ABSORBANCE
450	0.0379498
462	0.047599
474	0.0492162
486	0.0325053
498	0.017789
510	0.0115898
522	0.00334217
534	0.00231796
546	0.00549841
558	0.00657653
570	0.0150937
582	0.0110507
594	0.00684606
606	0.00911011
618	0.0122367
630	0.016603
642	0.0283546
654	0.0284624
666	0.0534208
678	0.0761692
690	0.0758996
702	0.16533
714	0.258911
726	0.125278
738	0.14781
750	0.21088
762	0.147649
774	0.0611294
786	0.0369256
798	0.0310499
810	0.0253358
822	0.0199452
834	0.0171421
846	0.0240421
858	0.0259288
870	0.0136382
882	0.0123984
894	0.0099187
906	0.00743903
918	0.00512107
930	0.00803199
942	0.0152554
954	0.00813981
966	0.0098648
978	0.00819371
990	0.00517498
1002	0.00609138
1014	0.0155249
1026	0.0404834
1038	0.0511029
1050	0.12614
1062	0.241661
1074	0.0858723
1086	0.107812
1098	0.0921254
1110	0.0158484
1122	0.0107273
1134	0.00393514
1146	0.00619919
1158	0.00285702
1170	0
1182	0.00247968
1194	0.00436639
1206	0.00280311
1218	0.00867887
1230	0.034392
1242	0.0210772
1254	0.00905621
1266	0.0123445
1278	0.0231796
1290	0.0532591
1302	0.0434482
1314	0.00431248
1326	0.00339608
1338	0.00285702
1350	0.00226405
1362	0.00754684
1374	0.0102421
1386	0.0155788
1398	0.0132609
1410	0.0153093
1422	0.0332061
1434	0.0568169
1446	0.257078
1458	0.53906
1470	0.209694
1482	0.0371412
1494	0.0215085
1506	0.0287319
1518	0.021778
1530	0.0210233
1542	0.078541
1554	0.11606
1566	0.113957
1578	0.0525044
1590	0.0595122
1602	0.165545
1614	0.36489
1626	0.260258
1638	0.0929339
1650	0.0415615
1662	0.0160101
1674	0.0144468
1686	0.0247968
1698	0.0218319
1710	0.00851715
1722	0.0115898
1734	0.0256593
1746	0.0112664
1758	0.0109429
1770	0.0133148
1782	0.0104039
1794	0.0142312
1806	0.00296483
1818	0.0026953
1830	0.0148781
1842	0.00981089
1854	0.0018328
1866	0.00398904
1878	0.00560622
1890	0.0098648
1902	0.0036117
1914	0.00215624
1926	0.00237186
1938	0.00226405
1950	0.00237186
1962	0.00156327
1974	0.00156327
1986	0.00145546
1998	0.00161718
2010	0.0017789
2022	0.00188671
2034	0.00242577
2046	0.0017789
2058	0.00199452
2070	0.00161718
2082	0.00167109
2094	0.00274921
2106	0.00258749
2118	0.00312655
2130	0.00301874
2142	0.00264139
2154	0.00237186
2166	0.00242577
2178	0.0017789
2190	0.00194062
2202	0.00194062
2214	0.00194062
2226	0.00258749
2238	0.00210233
2250	0.00210233
2262	0.00247968
2274	0.00307264
2286	0.00501326
2298	0.00813981
2310	0.00975699
2322	0.0107273
2334	0.00959527
2346	0.0122367
2358	0.0140695
2370	0.0102421
2382	0.00458201
2394	0.00258749
2406	0.00161718
2418	0.0026953
2430	0.00215624
2442	0.00274921
2454	0.00280311
2466	0.00237186
2478	0.00199452
2490	0.00221015
2502	0.00328827
2514	0.00592966
2526	0.00609138
2538	0.0045281
2550	0.0035578
2562	0.00312655
2574	0.00415076
2586	0.00512107
2598	0.00587575
2610	0.00528279
2622	0.00339608
2634	0.00344998
2646	0.00231796
2658	0.00247968
2670	0.00253358
2682	0.00210233
2694	0.00221015
2706	0.00296483
2718	0.00274921
2730	0.00377342
2742	0.00328827
2754	0.00301874
2766	0.00253358
2778	0.00291092
2790	0.00247968
2802	0.00296483
2814	0.00242577
2826	0.0035578
2838	0.00301874
2850	0.00344998
2862	0.00404295
2874	0.00409686
2886	0.00409686
2898	0.00555232
2910	0.0045281
2922	0.00436639
2934	0.00431248
2946	0.00415076
2958	0.00415076
2970	0.00420467
2982	0.00409686
2994	0.00339608
3006	0.00382733
3018	0.00398904
3030	0.00393514
3042	0.00425857
3054	0.00684606
3066	0.0208077
3078	0.0302952
3090	0.0150398
3102	0.00614528
3114	0.00706169
3126	0.00566013
3138	0.00555232
3150	0.00463592
3162	0.00506716
3174	0.00468982
3186	0.00512107
3198	0.00318045
3210	0.00334217
3222	0.00393514
3234	0.00350389
3246	0.0036117
3258	0.00339608
3270	0.00247968
3282	0.0035578
3294	0.00301874
3306	0.00377342
3318	0.00339608
3330	0.00442029
3342	0.0044742
3354	0.0044742
3366	0.00646872
3378	0.0113203
3390	0.0283007
3402	0.068245
3414	0.0777325
3426	0.0377881
3438	0.0110507
3450	0.0101882
3462	0.0140156
3474	0.0250663
3486	0.0442029
3498	0.1035
3510	0.135035
3522	0.0709942
3534	0.0255514
3546	0.01035
3558	0.00673825
3570	0.0119132
3582	0.00679216
3594	0.00592966
3606	0.00512107
3618	0.00840934
3630	0.0168726
3642	0.00560622
3654	0.00943355
3666	0.00560622
3678	0.0180046
3690	0.0148781
3702	0.00857105
3714	0.0112124
3726	0.00889449
3738	0.0171421
3750	0.0174655
3762	0.00878668
3774	0.00566013
3786	0.00592966
3798	0.00981089
3810	0.0101343
3822	0.0153632
3834	0.0142312
3846	0.0138538
3858	0.0180046
3870	0.0188671
3882	0.014932
3894	0.0143929
3906	0.0156327
3918	0.0125601
3930	0.0115359
3942	0.00964917
3954	0.00274921
3966	0.00334217
