Infrared Spectrum: Benzene, 1-iodo-2-nitro-
Formula: C 6 H 4 I N O 2
CAS: 609-73-4
Origin: Sadtler Research Labs Under US-EPA Contract
1/CM	ABSORBANCE
450	0.0425193
462	0.0243082
474	0.00216607
486	0.0145207
498	0.0198958
510	0.0197353
522	0.0146812
534	0.00810272
546	0.0162054
558	0.0198958
570	0.0129964
582	0.0140394
594	0.0202969
606	0.0158846
618	0.0162857
630	0.0358606
642	0.0711596
654	0.0242279
666	0.0208585
678	0.0325713
690	0.105897
702	0.111433
714	0.0899322
726	0.228401
738	0.159487
750	0.0981954
762	0.107421
774	0.153631
786	0.0633777
798	0.0263138
810	0.023185
822	0.0173286
834	0.0354594
846	0.164622
858	0.151786
870	0.0241477
882	0.0144405
894	0.0162054
906	0.0136382
918	0.0140394
930	0.0162054
942	0.0173286
954	0.0203772
966	0.0113919
978	0.0117129
990	0.0165263
1002	0.0222223
1014	0.0726036
1026	0.183073
1038	0.0785403
1050	0.0294426
1062	0.0201365
1074	0.0158846
1086	0.0159648
1098	0.0146009
1110	0.0164461
1122	0.0156439
1134	0.0154834
1146	0.012114
1158	0.0178099
1170	0.0176495
1182	0.0134778
1194	0.00730047
1206	0.0105095
1218	0.0129162
1230	0.016045
1242	0.0328922
1254	0.0597676
1266	0.0251104
1278	0.0320098
1290	0.0437226
1302	0.0378662
1314	0.0510231
1326	0.0679506
1338	0.158364
1350	0.447655
1362	0.455598
1374	0.113197
1386	0.0647416
1398	0.0414763
1410	0.0285601
1422	0.0380267
1434	0.0521462
1446	0.0517451
1458	0.118893
1470	0.0879266
1482	0.0355397
1494	0.0561575
1506	0.095548
1518	0.191738
1530	0.333094
1542	0.584359
1554	0.790778
1566	0.39928
1578	0.34938
1590	0.397595
1602	0.141597
1614	0.0453271
1626	0.0312075
1638	0.0226234
1650	0.0177297
1662	0.0129964
1674	0.013558
1686	0.00874452
1698	0.0073807
1710	0.0122744
1722	0.0141998
1734	0.0106699
1746	0.00826317
1758	0.00746093
1770	0.00617733
1782	0.00778183
1794	0.0105897
1806	0.016045
1818	0.0106699
1830	0.00842363
1842	0.0100281
1854	0.00689935
1866	0.00593665
1878	0.00537507
1890	0.00722025
1902	0.00714002
1914	0.0101084
1926	0.0155637
1938	0.00890497
1950	0.00986767
1962	0.0115524
1974	0.00553552
1986	0.0035299
1998	0.00336945
2010	0.00336945
2022	0.0035299
2034	0.00361013
2046	0.0035299
2058	0.003209
2070	0.00240675
2082	0.0022463
2094	0.00248697
2106	0.00240675
2118	0.00232652
2130	0.00296832
2142	0.00184517
2154	0.00208585
2166	0.0025672
2178	0.00264743
2190	0.00232652
2202	0.0019254
2214	0.00200563
2226	0.00184517
2238	0.00200563
2250	0.00248697
2262	0.00296832
2274	0.0035299
2286	0.00441237
2298	0.00497395
2310	0.0060971
2322	0.00553552
2334	0.00465305
2346	0.0038508
2358	0.00433215
2370	0.00401125
2382	0.00649822
2394	0.0060971
2406	0.00497395
2418	0.00401125
2430	0.00377057
2442	0.00216607
2454	0.00304855
2466	0.00328922
2478	0.00272765
2490	0.00296832
2502	0.00272765
2514	0.00264743
2526	0.0025672
2538	0.003209
2550	0.00240675
2562	0.0028881
2574	0.0035299
2586	0.00497395
2598	0.00601687
2610	0.0054553
2622	0.00369035
2634	0.0022463
2646	0.003209
2658	0.0038508
2670	0.00465305
2682	0.0051344
2694	0.00714002
2706	0.00778183
2718	0.00714002
2730	0.00529485
2742	0.00465305
2754	0.00377057
2766	0.0028881
2778	0.00441237
2790	0.00393103
2802	0.00441237
2814	0.00425193
2826	0.00497395
2838	0.006418
2850	0.00794228
2862	0.0106699
2874	0.0133976
2886	0.0162857
2898	0.018532
2910	0.0145207
2922	0.0113117
2934	0.009627
2946	0.00697958
2958	0.00561575
2970	0.0054553
2982	0.00505418
2994	0.00585643
3006	0.00553552
3018	0.00529485
3030	0.00521462
3042	0.006418
3054	0.00858408
3066	0.0285601
3078	0.073085
3090	0.0363419
3102	0.00842363
3114	0.00393103
3126	0.00425193
3138	0.00633777
3150	0.0057762
3162	0.00433215
3174	0.00369035
3186	0.0022463
3198	0.00304855
3210	0.00272765
3222	0.00232652
3234	0.00264743
3246	0.00184517
3258	0.00361013
3270	0.00312877
3282	0.00248697
3294	0.0038508
3306	0.0038508
3318	0.00336945
3330	0.0028881
3342	0.0028881
3354	0.00296832
3366	0.00264743
3378	0.00312877
3390	0.00505418
3402	0.003209
3414	0.00401125
3426	0.00465305
3438	0.00312877
3450	0.00441237
3462	0.00425193
3474	0.003209
3486	0.00553552
3498	0.00433215
3510	0.00457282
3522	0.00633777
3534	0.0048135
3546	0.00657845
3558	0.00553552
3570	0.0044926
3582	0.00344968
3594	0.0038508
3606	0.00441237
3618	0.00441237
3630	0.00489372
3642	0.00465305
3654	0.00465305
3666	0.0028881
3678	0.0038508
3690	0.00344968
3702	0.0051344
3714	0.0070598
3726	0.00914565
3738	0.00657845
3750	0.00264743
3762	0.00697958
3774	0.00818295
3786	0.00665868
3798	0.00457282
3810	0.00561575
3822	0.00304855
3834	0.00730047
3846	0.0054553
3858	0.0057762
3870	0.00136382
3882	0.0067389
3894	0.00633777
3906	0.0105095
3918	0.0028881
3930	0.0019254
3942	0.00569597
3954	0.00914565
3966	0.0054553
