Infrared Spectrum: Phenol, 2,4-dichloro-6-nitro-
Formula: C 6 H 3 Cl 2 N O 3
CAS: 609-89-2
Origin: Sadtler Research Labs Under US-EPA Contract
1/CM	ABSORBANCE
450	0.00525443
462	0.0106119
474	0.00530594
486	0.00370901
498	0.00252419
510	0.0073665
522	0.00556351
534	0.00757256
546	0.0161239
558	0.0337932
570	0.0264267
582	0.0133421
594	0.0151966
606	0.023851
618	0.047805
630	0.0315266
642	0.0365234
654	0.0438899
666	0.0531624
678	0.068256
690	0.0763953
702	0.0580563
714	0.0619198
726	0.152275
738	0.104625
750	0.0532655
762	0.153357
774	0.150215
786	0.0311145
798	0.0173087
810	0.0151451
822	0.0105089
834	0.00849981
846	0.0152997
858	0.0532655
870	0.0618683
882	0.0628986
894	0.0445596
906	0.0713984
918	0.0178238
930	0.0084483
942	0.00638774
954	0.00721196
966	0.0080877
978	0.00679985
990	0.00664531
1002	0.00880889
1014	0.0102513
1026	0.00963312
1038	0.0116422
1050	0.011024
1062	0.0150421
1074	0.0320932
1086	0.0613017
1098	0.0407476
1110	0.0336902
1122	0.0512049
1134	0.0895828
1146	0.196268
1158	0.243507
1170	0.115752
1182	0.0568199
1194	0.0307023
1206	0.0275085
1218	0.0747983
1230	0.222489
1242	0.346123
1254	0.299142
1266	0.112249
1278	0.0693378
1290	0.0535746
1302	0.099422
1314	0.150678
1326	0.252831
1338	0.331029
1350	0.230216
1362	0.123994
1374	0.075365
1386	0.0583654
1398	0.157736
1410	0.329947
1422	0.189211
1434	0.137748
1446	0.126621
1458	0.211413
1470	0.209507
1482	0.0692348
1494	0.0497625
1506	0.0555836
1518	0.0861314
1530	0.134864
1542	0.333553
1554	0.485416
1566	0.143054
1578	0.0566654
1590	0.0380688
1602	0.0572321
1614	0.105449
1626	0.0452293
1638	0.0109725
1650	0.0095816
1662	0.0117452
1674	0.0122603
1686	0.0073665
1698	0.00633622
1710	0.0058726
1722	0.00659379
1734	0.0122603
1746	0.0140118
1758	0.0185966
1770	0.0229752
1782	0.013033
1794	0.00875738
1806	0.00664531
1818	0.00494534
1830	0.00278176
1842	0.0022151
1854	0.00159693
1866	0.00247267
1878	0.00180299
1890	0.00309084
1902	0.00298781
1914	0.0029363
1926	0.00278176
1938	0.00164845
1950	0.000669682
1962	0.00077271
1974	0.000875738
1986	0.000463626
1998	0.00077271
2010	0.00123634
2022	0.00175148
2034	0.00113331
2046	0.00118482
2058	0.00118482
2070	0.00108179
2082	0.000669682
2094	0.000669682
2106	0.000824224
2118	0.00051514
2130	5.1514e-05
2142	0
2154	0.000412112
2166	0.000669682
2178	0.00103028
2190	0.00133936
2202	0.00123634
2214	0.00118482
2226	0.00144239
2238	0.00175148
2250	0.00190602
2262	0.00175148
2274	0.00211207
2286	0.0025757
2298	0.00623319
2310	0.00932403
2322	0.00963312
2334	0.00741802
2346	0.00716045
2358	0.0111785
2370	0.00427566
2382	0.00365749
2394	0.00154542
2406	0.00154542
2418	0.00211207
2430	0.00169996
2442	0.00200905
2454	0.00154542
2466	0.00139088
2478	0.00175148
2490	0.00216359
2502	0.00206056
2514	0.00236964
2526	0.00345144
2538	0.00473929
2550	0.00386355
2562	0.0032969
2574	0.00288478
2586	0.00252419
2598	0.00226662
2610	0.00226662
2622	0.00226662
2634	0.00226662
2646	0.00190602
2658	0.00164845
2670	0.00226662
2682	0.00262721
2694	0.00360598
2706	0.00437869
2718	0.00406961
2730	0.00314235
2742	0.00206056
2754	0.00200905
2766	0.00252419
2778	0.00350295
2790	0.00453323
2802	0.00633622
2814	0.00669682
2826	0.00654228
2838	0.00695439
2850	0.00839678
2862	0.0102513
2874	0.0109725
2886	0.0112301
2898	0.0113331
2910	0.0115907
2922	0.0112301
2934	0.00942706
2946	0.00623319
2958	0.00576957
2970	0.00468777
2982	0.00432718
2994	0.00473929
3006	0.0051514
3018	0.00556351
3030	0.00463626
3042	0.00463626
3054	0.00412112
3066	0.00468777
3078	0.00592411
3090	0.0118482
3102	0.0254994
3114	0.0200905
3126	0.00927252
3138	0.0108695
3150	0.0136512
3162	0.0163299
3174	0.0225116
3186	0.0306508
3198	0.0423445
3210	0.0544503
3222	0.0637743
3234	0.069956
3246	0.069853
3258	0.0651137
3270	0.0586744
3282	0.0520291
3294	0.0477535
3306	0.0430657
3318	0.0414688
3330	0.0397688
3342	0.0360598
3354	0.033072
3366	0.0294145
3378	0.0259631
3390	0.0225116
3402	0.0200905
3414	0.0174632
3426	0.0150421
3438	0.0139088
3450	0.012724
3462	0.0120028
3474	0.0114876
3486	0.0121058
3498	0.0118482
3510	0.0110755
3522	0.0103543
3534	0.00989069
3546	0.0104058
3558	0.0132906
3570	0.01293
3582	0.00793316
3594	0.00535746
3606	0.0044302
3618	0.00386355
3630	0.00417263
3642	0.00231813
3654	0.00283327
3666	0.00144239
3678	0.00206056
3690	0.00123634
3702	0.00128785
3714	5.1514e-05
3726	0.00025757
3738	5.1514e-05
3750	5.1514e-05
3762	5.1514e-05
3774	5.1514e-05
3786	5.1514e-05
3798	0.000103028
3810	5.1514e-05
3822	5.1514e-05
3834	0.000360598
3846	0.000103028
3858	5.1514e-05
3870	5.1514e-05
3882	5.1514e-05
3894	5.1514e-05
3906	5.1514e-05
3918	5.1514e-05
3930	5.1514e-05
3942	5.1514e-05
3954	5.1514e-05
3966	5.1514e-05
