Infrared Spectrum: Phenol, 3,4,5-trichloro-
Formula: C 6 H 3 Cl 3 O
CAS: 609-19-8
Origin: Sadtler Research Labs Under US-EPA Contract
1/CM	ABSORBANCE
450	0.0292526
462	0.0420337
474	0.0184966
486	0.010711
498	0.011071
510	0.0136362
522	0.011341
534	0.0175516
546	0.0327629
558	0.0262823
570	0.0103059
582	0.0273624
594	0.0346531
606	0.0151663
618	0.00873078
630	0.00526547
642	0.0301077
654	0.124886
666	0.067056
678	0.0193067
690	0.0255623
702	0.0130062
714	0.0119711
726	0.00823573
738	0.00315028
750	0.00810072
762	0.00891079
774	0.0171465
786	0.0232671
798	0.0360482
810	0.258908
822	0.217909
834	0.0999089
846	0.0800621
858	0.0971186
870	0.0438789
882	0.0205668
894	0.0237621
906	0.0148513
918	0.0127361
930	0.0218719
942	0.101619
954	0.166785
966	0.0187667
978	0.00990088
990	0.010801
1002	0.00733565
1014	0.00427538
1026	0.00585052
1038	0.00742566
1050	0.011296
1062	0.00972086
1074	0.00967586
1086	0.0141763
1098	0.0239871
1110	0.0351481
1122	0.0539148
1134	0.284245
1146	0.305397
1158	0.10972
1170	0.130062
1182	0.195227
1194	0.359357
1206	0.148198
1218	0.130197
1230	0.0986038
1242	0.055895
1254	0.0939684
1266	0.195857
1278	0.115255
1290	0.0286225
1302	0.0188567
1314	0.0163815
1326	0.0175066
1338	0.0147613
1350	0.011701
1362	0.0188567
1374	0.0439689
1386	0.0719164
1398	0.11764
1410	0.367728
1422	0.401841
1434	0.213589
1446	0.21998
1458	0.0801521
1470	0.0251572
1482	0.022547
1494	0.0170565
1506	0.0186767
1518	0.023042
1530	0.0520246
1542	0.0829424
1554	0.0737616
1566	0.209359
1578	0.34077
1590	0.269664
1602	0.369483
1614	0.1162
1626	0.033663
1638	0.0215569
1650	0.0150313
1662	0.0121061
1674	0.0102159
1686	0.011386
1698	0.0126011
1710	0.0141763
1722	0.00868577
1734	0.00625556
1746	0.00643557
1758	0.0055805
1770	0.00526547
1782	0.00297026
1794	0.00252022
1806	0.00189017
1818	0.00162014
1830	0.00283525
1842	0.00193517
1854	0.00130512
1866	0.00202518
1878	0.00153014
1890	0.000990088
1902	0.00090008
1914	0.00180016
1926	0.00193517
1938	0.00252022
1950	0.00189017
1962	0.000945084
1974	0.00153014
1986	0.00180016
1998	0.00139512
2010	0.00247522
2022	0.00247522
2034	0.00288026
2046	0.00180016
2058	0.00162014
2070	0.00166515
2082	0.00211519
2094	0.00319528
2106	0.00144013
2118	0.000945084
2130	0.0011251
2142	0.00148513
2154	0.000720064
2166	0.00130512
2178	0.00261023
2190	0.0022052
2202	0.00315028
2214	0.00391535
2226	0.00396035
2238	0.00216019
2250	0.00252022
2262	0.0011251
2274	0.00130512
2286	0.00211519
2298	0.00436539
2310	0.0067956
2322	0.00756067
2334	0.00495044
2346	0.00652558
2358	0.00513046
2370	0.00648058
2382	0.00531047
2394	0.00324029
2406	0.00319528
2418	0.00355532
2430	0.00319528
2442	0.00346531
2454	0.0045454
2466	0.00378034
2478	0.00274524
2490	0.00328529
2502	0.00283525
2514	0.00283525
2526	0.00315028
2538	0.00373533
2550	0.00463541
2562	0.00319528
2574	0.00144013
2586	0.00166515
2598	0.00171015
2610	0.00189017
2622	0.00139512
2634	0.00135012
2646	0.00144013
2658	0.00238521
2670	0.00256523
2682	0.00382534
2694	0.00477042
2706	0.00292526
2718	0.00315028
2730	0.00198018
2742	0.00301527
2754	0.0022502
2766	0.00135012
2778	0.000855076
2790	0.000990088
2802	0.000765068
2814	0.0011251
2826	0.000855076
2838	0.00306027
2850	0.00283525
2862	0.00157514
2874	0.00202518
2886	0.0011701
2898	0.00126011
2910	0.00166515
2922	0.00103509
2934	0.00184516
2946	0.00265524
2958	0.00234021
2970	0.00292526
2982	0.00360032
2994	0.00261023
3006	0.00265524
3018	0.00297026
3030	0.00274524
3042	0.00423038
3054	0.00553549
3066	0.011701
3078	0.00913581
3090	0.00531047
3102	0.00508545
3114	0.00360032
3126	0.00414037
3138	0.00477042
3150	0.00486043
3162	0.00391535
3174	0.00396035
3186	0.00427538
3198	0.00405036
3210	0.00400536
3222	0.00405036
3234	0.00441039
3246	0.00418537
3258	0.00409536
3270	0.00400536
3282	0.00486043
3294	0.0045004
3306	0.00522046
3318	0.00486043
3330	0.00522046
3342	0.00684061
3354	0.00810072
3366	0.00760568
3378	0.00841575
3390	0.00688561
3402	0.00657058
3414	0.00697562
3426	0.00589552
3438	0.00468042
3450	0.00459041
3462	0.00531047
3474	0.00175516
3486	0.00135012
3498	0.00517546
3510	0.00378034
3522	0.00373533
3534	0.00396035
3546	0.00162014
3558	0.00396035
3570	0.00756067
3582	0.00715564
3594	0.00607554
3606	0.00711063
3618	0.00990088
3630	0.0233571
3642	0.153644
3654	0.324209
3666	0.0612054
3678	0.00639057
3690	0.00274524
3702	0.00706563
3714	0.00378034
3726	0.00553549
3738	0.00477042
3750	0.00198018
3762	0.0078757
3774	0.0106209
3786	0.00891079
3798	0.00994588
3810	0.0126461
3822	0.0173265
3834	0.0147613
3846	0.00765068
3858	0.00805572
3870	0.00837074
3882	0.0078307
3894	0.0103509
3906	0.0045454
3918	0.00850576
3930	0.00603054
3942	0.00706563
3954	0.011341
3966	0.00463541
