Infrared Spectrum: 3-Ethyl-2-pentanol
Formula: C 7 H 16 O
CAS: 609-27-8
Origin: Sadtler Research Labs Under US-EPA Contract
1/CM	ABSORBANCE
450	0.0323662
462	0.01592
474	0.0065785
486	0.0146043
498	0.0184198
510	0.0136833
522	0.0126307
534	0.00539437
546	0.00947304
558	0.00907833
570	0.00710478
582	0.00973618
594	0.0139464
606	0.0124991
618	0.0121044
630	0.0115782
642	0.00868362
654	0.011315
666	0.0111834
678	0.0102625
690	0.0109203
702	0.00934147
714	0.013157
726	0.0180251
738	0.0259193
750	0.0230247
762	0.0246036
774	0.0273666
786	0.0246036
798	0.0185514
810	0.0218406
822	0.0318399
834	0.0372343
846	0.0327609
858	0.048944
870	0.0876256
882	0.0749949
894	0.0381553
906	0.0432865
918	0.0647324
930	0.109729
942	0.129728
954	0.0671007
966	0.0343398
978	0.0332872
990	0.0530227
1002	0.109072
1014	0.16512
1026	0.16341
1038	0.141438
1050	0.123939
1062	0.135517
1074	0.196171
1086	0.223274
1098	0.185251
1110	0.146832
1122	0.13657
1134	0.128544
1146	0.13657
1158	0.133675
1170	0.0976249
1182	0.0672323
1194	0.0599959
1206	0.0718372
1218	0.0936778
1230	0.119729
1242	0.14328
1254	0.141043
1266	0.110387
1278	0.0855205
1290	0.0746002
1302	0.0681533
1314	0.0643377
1326	0.0661797
1338	0.0781526
1350	0.0851258
1362	0.106177
1374	0.190776
1386	0.26485
1398	0.179988
1410	0.0852574
1422	0.0539437
1434	0.0574961
1446	0.0923621
1458	0.17512
1470	0.196566
1482	0.112624
1494	0.0447338
1506	0.029077
1518	0.0209196
1530	0.0148674
1542	0.0127623
1554	0.0118413
1566	0.0102625
1578	0.00907833
1590	0.0092099
1602	0.00842048
1614	0.00842048
1626	0.00618379
1638	0.00697321
1650	0.00671007
1662	0.00802577
1674	0.00618379
1686	0.00710478
1698	0.00749949
1710	0.0165778
1722	0.0259193
1734	0.0271034
1746	0.0224985
1758	0.0147358
1770	0.0101309
1782	0.00763106
1794	0.00513123
1806	0.00486809
1818	0.00407867
1830	0.00236826
1842	0.00302611
1854	0.00236826
1866	0.00302611
1878	0.00315768
1890	0.00236826
1902	0.00210512
1914	0.0026314
1926	0.00184198
1938	0.00184198
1950	0.00144727
1962	0.00065785
1974	0.00065785
1986	0.00013157
1998	0
2010	0.00118413
2022	0.00144727
2034	0.00157884
2046	0.00210512
2058	0.00197355
2070	0.00197355
2082	0.00157884
2094	0.00144727
2106	0.00144727
2118	0.0013157
2130	0.00118413
2142	0.0013157
2154	0.00157884
2166	0.00157884
2178	0.0013157
2190	0.00157884
2202	0.00184198
2214	0.00171041
2226	0.00157884
2238	0.00210512
2250	0.00210512
2262	0.00210512
2274	0.00223669
2286	0.00289454
2298	0.00381553
2310	0.00381553
2322	0.00421024
2334	0.00368396
2346	0.00315768
2358	0.00565751
2370	0.00355239
2382	0.00421024
2394	0.00513123
2406	0.0052628
2418	0.00447338
2430	0.00381553
2442	0.00355239
2454	0.00355239
2466	0.00381553
2478	0.00407867
2490	0.0039471
2502	0.00355239
2514	0.00368396
2526	0.00328925
2538	0.00342082
2550	0.00460495
2562	0.00565751
2574	0.00697321
2586	0.00868362
2598	0.0106572
2610	0.0124991
2622	0.0135517
2634	0.0146043
2646	0.0151305
2658	0.0160515
2670	0.0164462
2682	0.0177619
2694	0.0185514
2706	0.0197355
2718	0.0215775
2730	0.0259193
2742	0.0307874
2754	0.0303927
2766	0.0274981
2778	0.029077
2790	0.0331556
2802	0.0388131
2814	0.0474968
2826	0.0603906
2838	0.0851258
2850	0.130649
2862	0.243668
2874	0.494572
2886	0.710478
2898	0.58917
2910	0.475626
2922	0.559567
2934	0.736792
2946	0.782973
2958	0.834812
2970	1.29018
2982	1.05993
2994	0.416814
3006	0.142753
3018	0.0724951
3030	0.0511807
3042	0.0414445
3054	0.0347345
3066	0.0293401
3078	0.026314
3090	0.0230247
3102	0.0193408
3114	0.0171041
3126	0.0156568
3138	0.0152621
3150	0.0153937
3162	0.01592
3174	0.0144727
3186	0.0121044
3198	0.00868362
3210	0.00710478
3222	0.0052628
3234	0.00407867
3246	0.00328925
3258	0.00249983
3270	0.0026314
3282	0.00236826
3294	0.00236826
3306	0.00184198
3318	0.00184198
3330	0.00223669
3342	0.00210512
3354	0.00144727
3366	0.00144727
3378	0.00249983
3390	0.00302611
3402	0.00368396
3414	0.00447338
3426	0.00447338
3438	0.00499966
3450	0.00552594
3462	0.00513123
3474	0.00513123
3486	0.00421024
3498	0.00447338
3510	0.00460495
3522	0.00368396
3534	0.00342082
3546	0.0039471
3558	0.00381553
3570	0.00513123
3582	0.00486809
3594	0.00473652
3606	0.00684164
3618	0.00907833
3630	0.0180251
3642	0.0478915
3654	0.0886782
3666	0.078942
3678	0.0243404
3690	0.00947304
3702	0.00776263
3714	0.00592065
3726	0.00671007
3738	0.00421024
3750	0.00289454
3762	0.00473652
3774	0.00407867
3786	0.0039471
3798	0.00276297
3810	0.00460495
3822	0.00302611
3834	0.0039471
3846	0.00552594
3858	0.00578908
3870	0.00499966
3882	0.00671007
3894	0.00460495
3906	0.00578908
3918	0.00539437
3930	0.00460495
3942	0.00355239
3954	0.00249983
3966	0.00381553
