Infrared Spectrum: Butanoic acid, 2-bromo-3-methyl-, ethyl ester
Formula: C 7 H 13 Br O 2
CAS: 609-12-1
Origin: Sadtler Research Labs Under US-EPA Contract
1/CM	ABSORBANCE
450	0
462	0.0201779
474	0.0295908
486	0.00218421
498	0.0300589
510	0.0280307
522	0.0225182
534	0.0331272
546	0.0258985
558	0.0240263
570	0.030787
582	0.0225182
594	0.02049
606	0.0251704
618	0.0253264
630	0.0370276
642	0.0292268
654	0.0290708
666	0.0230382
678	0.0224142
690	0.0261065
702	0.0223622
714	0.0276667
726	0.0241303
738	0.0180457
750	0.0138853
762	0.0109731
774	0.0153935
786	0.00868484
798	0.00946491
810	0.0124292
822	0.0113891
834	0.0164336
846	0.0182538
858	0.0162776
870	0.0248584
882	0.0127412
894	0.00582456
906	0.0138853
918	0.0242343
930	0.020802
942	0.0154975
954	0.0191378
966	0.0263145
978	0.0225182
990	0.0178897
1002	0.0216341
1014	0.0454004
1026	0.126112
1038	0.196787
1050	0.114567
1062	0.051693
1074	0.0537212
1086	0.0608979
1098	0.0986535
1110	0.14291
1122	0.176089
1134	0.207968
1146	0.397214
1158	0.301941
1170	0.159655
1182	0.1232
1194	0.109627
1206	0.181549
1218	0.189766
1230	0.137397
1242	0.210724
1254	0.313642
1266	0.273494
1278	0.175621
1290	0.218109
1302	0.184514
1314	0.117167
1326	0.072443
1338	0.0588697
1350	0.0612619
1362	0.0638621
1374	0.130637
1386	0.0861723
1398	0.0676585
1410	0.0319311
1422	0.0230902
1434	0.0247544
1446	0.0390038
1458	0.0634981
1470	0.0845601
1482	0.0592857
1494	0.0195539
1506	0.00863283
1518	0.00702068
1530	0.00655263
1542	0.00660464
1554	0.00639662
1566	0.00598058
1578	0.00561654
1590	0.00613659
1602	0.00561654
1614	0.00587657
1626	0.00587657
1638	0.00634461
1650	0.00644862
1662	0.00754072
1674	0.00800877
1686	0.0111811
1698	0.0176817
1710	0.0282907
1722	0.0486247
1734	0.127464
1746	0.354882
1758	0.511937
1770	0.234283
1782	0.0691146
1794	0.0318791
1806	0.0176297
1818	0.0114411
1830	0.0082688
1842	0.00702068
1854	0.0062926
1866	0.00670865
1878	0.00644862
1890	0.00748872
1902	0.00748872
1914	0.00587657
1926	0.00499248
1938	0.0051485
1950	0.0041604
1962	0.00483646
1974	0.00462845
1986	0.00483646
1998	0.0052005
2010	0.00504449
2022	0.00473245
2034	0.00457644
2046	0.00426441
2058	0.00343233
2070	0.00358835
2082	0.00473245
2094	0.00540852
2106	0.00540852
2118	0.00509649
2130	0.00468045
2142	0.00431641
2154	0.00431641
2166	0.00405639
2178	0.00431641
2190	0.00384837
2202	0.00379636
2214	0.0041604
2226	0.00374436
2238	0.00400439
2250	0.0041604
2262	0.00426441
2274	0.00447243
2286	0.00395238
2298	0.00343233
2310	0.00322431
2322	0.00343233
2334	0.00405639
2346	0.0041604
2358	0.00260025
2370	0.00587657
2382	0.00442043
2394	0.00374436
2406	0.0042124
2418	0.00405639
2430	0.00390038
2442	0.00405639
2454	0.00384837
2466	0.00374436
2478	0.00426441
2490	0.00457644
2502	0.00400439
2514	0.00478446
2526	0.00390038
2538	0.00431641
2550	0.0041604
2562	0.00400439
2574	0.00317231
2586	0.00291228
2598	0.00348433
2610	0.0041604
2622	0.00509649
2634	0.00457644
2646	0.00400439
2658	0.00551253
2670	0.00483646
2682	0.0031203
2694	0.00301629
2706	0.00296429
2718	0.00405639
2730	0.0062406
2742	0.00676065
2754	0.00650063
2766	0.00676065
2778	0.0072287
2790	0.00686466
2802	0.00650063
2814	0.00847682
2826	0.010817
2838	0.0119091
2850	0.0130013
2862	0.0192419
2874	0.0403039
2886	0.0895526
2898	0.072443
2910	0.0710908
2922	0.0784235
2934	0.0957932
2946	0.148162
2958	0.115919
2970	0.218473
2982	0.307194
2994	0.226014
3006	0.0963653
3018	0.0451923
3030	0.0224662
3042	0.0147174
3054	0.0120652
3066	0.010453
3078	0.00904887
3090	0.00816479
3102	0.00811278
3114	0.00837281
3126	0.00717669
3138	0.00769674
3150	0.00780075
3162	0.00842481
3174	0.00790476
3186	0.00806078
3198	0.0082688
3210	0.00587657
3222	0.00494047
3234	0.00390038
3246	0.00447243
3258	0.00270426
3270	0.00410839
3282	0.00457644
3294	0.0041604
3306	0.00306829
3318	0.00291228
3330	0.00400439
3342	0.00462845
3354	0.00306829
3366	0.00447243
3378	0.00452444
3390	0.00327632
3402	0.00462845
3414	0.00447243
3426	0.00436842
3438	0.00530451
3450	0.00457644
3462	0.00504449
3474	0.00759273
3486	0.00816479
3498	0.0072807
3510	0.00644862
3522	0.00686466
3534	0.00410839
3546	0.0051485
3558	0.00426441
3570	0.00780075
3582	0.00972494
3594	0.00546052
3606	0.00702068
3618	0.00681265
3630	0.00572055
3642	0.00670865
3654	0.00738471
3666	0.00613659
3678	0.00878884
3690	0.00660464
3702	0.00785275
3714	0.00748872
3726	0.00587657
3738	0.00868484
3750	0.00499248
3762	0.00639662
3774	0.00998496
3786	0.00618859
3798	0.00821679
3810	0.00670865
3822	0.00546052
3834	0.00691666
3846	0.00670865
3858	0.010245
3870	0.00556453
3882	0.0072287
3894	0.00639662
3906	0.00795676
3918	0.00691666
3930	0.00644862
3942	0.00702068
3954	0.00582456
3966	0.00431641
