Infrared Spectrum: Propanedioic acid, methyl-, diethyl ester
Formula: C 8 H 14 O 4
CAS: 609-08-5
Origin: Sadtler Research Labs Under US-EPA Contract
1/CM	ABSORBANCE
450	0.0042627
462	0.00670665
474	0.00414903
486	0.0020461
498	0.00460372
510	0.0014209
522	0.00471739
534	0.000682032
546	0.003467
558	0.00449004
570	0.0102305
582	0.0109125
594	0.00983263
606	0.0079002
618	0.010742
630	0.00903692
642	0.0108557
654	0.00983263
666	0.00807071
678	0.017676
690	0.0164256
702	0.0127881
714	0.0144363
726	0.00829806
738	0.0111967
750	0.0106283
762	0.0151752
774	0.0146637
786	0.0152889
798	0.0154594
810	0.0165393
822	0.0149479
834	0.0160278
846	0.0226207
858	0.0414903
870	0.0412629
882	0.0198358
894	0.0123902
906	0.013186
918	0.0160278
930	0.0154026
942	0.01455
954	0.0134701
966	0.0141522
978	0.0152889
990	0.0172781
1002	0.0261446
1014	0.0458667
1026	0.0892325
1038	0.127597
1050	0.119185
1062	0.0893462
1074	0.127142
1086	0.188696
1098	0.21592
1110	0.159141
1122	0.140669
1134	0.185626
1146	0.279974
1158	0.326523
1170	0.272699
1182	0.269062
1194	0.255591
1206	0.238598
1218	0.244167
1230	0.21268
1242	0.224445
1254	0.244167
1266	0.20137
1278	0.142602
1290	0.110376
1302	0.135895
1314	0.180966
1326	0.192219
1338	0.120435
1350	0.0553014
1362	0.0546762
1374	0.0923585
1386	0.0756487
1398	0.0512661
1410	0.0346131
1422	0.0296684
1434	0.0300094
1446	0.0432522
1458	0.070022
1470	0.0776948
1482	0.046094
1494	0.0229617
1506	0.0172781
1518	0.0134701
1530	0.0121629
1542	0.0106283
1554	0.0103442
1566	0.00937794
1578	0.00977579
1590	0.00903692
1602	0.00846856
1614	0.00892325
1626	0.0099463
1638	0.00880958
1650	0.00926427
1662	0.0105147
1674	0.0125608
1686	0.0164256
1698	0.021484
1710	0.0344995
1722	0.0576885
1734	0.12987
1746	0.395635
1758	0.564893
1770	0.442411
1782	0.185342
1794	0.0676348
1806	0.0374549
1818	0.0236438
1830	0.0163119
1842	0.0121629
1854	0.00949161
1866	0.00835489
1878	0.00829806
1890	0.00824122
1902	0.00835489
1914	0.0077297
1926	0.00704766
1938	0.00664981
1950	0.0071045
1962	0.00653614
1974	0.0064793
1986	0.00602462
1998	0.00539942
2010	0.00585411
2022	0.00574044
2034	0.00574044
2046	0.00534258
2058	0.00511524
2070	0.00562676
2082	0.00602462
2094	0.00500157
2106	0.00494473
2118	0.00500157
2130	0.00437637
2142	0.00380801
2154	0.00375118
2166	0.003467
2178	0.00375118
2190	0.00312598
2202	0.00267129
2214	0.00306914
2226	0.00306914
2238	0.003467
2250	0.003467
2262	0.00335332
2274	0.00329649
2286	0.00329649
2298	0.00420586
2310	0.00562676
2322	0.00653614
2334	0.00619512
2346	0.00704766
2358	0.00841173
2370	0.00608145
2382	0.00358067
2394	0.0028418
2406	0.00278496
2418	0.00278496
2430	0.00267129
2442	0.0020461
2454	0.00210293
2466	0.00244395
2478	0.00198926
2490	0.0022166
2502	0.00176192
2514	0.00130723
2526	0.00147774
2538	0.00125039
2550	0.00119356
2562	0.00119356
2574	0.00107988
2586	0.000738868
2598	0.00125039
2610	0.00153457
2622	0.00147774
2634	0.00125039
2646	0.00085254
2658	0.000738868
2670	0.000341016
2682	0.00028418
2694	0.000795704
2706	0.000966212
2718	0.00119356
2730	0.00170508
2742	0.00176192
2754	0.00227344
2766	0.0022166
2778	0.00323965
2790	0.00272813
2802	0.00267129
2814	0.00380801
2826	0.00471739
2838	0.00528575
2850	0.00676348
2862	0.00835489
2874	0.0151752
2886	0.0304073
2898	0.0345563
2910	0.0384211
2922	0.0402967
2934	0.0478559
2946	0.0886642
2958	0.0828669
2970	0.0775243
2982	0.134133
2994	0.17551
3006	0.111569
3018	0.0468329
3030	0.0196084
3042	0.0100031
3054	0.00687716
3066	0.0048879
3078	0.00323965
3090	0.00318282
3102	0.00295547
3114	0.00295547
3126	0.00301231
3138	0.00261446
3150	0.00233028
3162	0.00238711
3174	0.00198926
3186	0.00181875
3198	0.00193242
3210	0.00147774
3222	0.00147774
3234	0.000795704
3246	0.000738868
3258	0.00085254
3270	0.00102305
3282	5.6836e-05
3294	0.000397852
3306	0
3318	0.000966212
3330	0.000966212
3342	0.000966212
3354	0.000795704
3366	0.000909376
3378	5.6836e-05
3390	0.000966212
3402	0.000966212
3414	0.00085254
3426	0.00056836
3438	0.000113672
3450	0.00102305
3462	0.000511524
3474	0.0014209
3486	0.00358067
3498	0.00562676
3510	0.00449004
3522	0.00255762
3534	0.00113672
3546	0.000682032
3558	0.000170508
3570	0.000625196
3582	0.00113672
3594	0.000170508
3606	0.000113672
3618	0.000170508
3630	0.000170508
3642	0.000227344
3654	0.000682032
3666	0.000170508
3678	0.000113672
3690	0.00085254
3702	0.00113672
3714	0.000738868
3726	0.000738868
3738	0.000682032
3750	0.00125039
3762	0.000682032
3774	0.000625196
3786	0.00130723
3798	0.00125039
3810	0.000795704
3822	0.000738868
3834	0.00130723
3846	0.00119356
3858	0.00125039
3870	0.000795704
3882	0.000738868
3894	0.000454688
3906	0.000341016
3918	0.000341016
3930	0.00085254
3942	0.000795704
3954	0
3966	5.6836e-05
