Infrared Spectrum: Furamide
Formula: C 5 H 5 N O 2
CAS: 609-38-1
Origin: Sadtler Research Labs Under US-EPA Contract
1/CM	ABSORBANCE
450	0.0412941
462	0.0285005
474	0.036354
486	0.0485142
498	0.0354673
510	0.0190003
522	0.0124136
534	0.00861349
546	0.00848682
558	0.0122869
570	0.016467
582	0.0267272
594	0.0597878
606	0.0461075
618	0.0634612
630	0.0633345
642	0.0758747
654	0.162263
666	0.180503
678	0.100702
690	0.0354673
702	0.0203937
714	0.0328073
726	0.0966484
738	0.232818
750	0.278292
762	0.216604
774	0.16505
786	0.130089
798	0.116535
810	0.0763814
822	0.0628278
834	0.0811948
846	0.0771414
858	0.0761281
870	0.0701746
882	0.0900617
894	0.116029
906	0.0989285
918	0.119956
930	0.0963951
942	0.0457275
954	0.0234338
966	0.0201404
978	0.0292605
990	0.0808148
1002	0.16695
1014	0.155423
1026	0.0424341
1038	0.0171003
1050	0.0211537
1062	0.0538343
1074	0.0630812
1086	0.0624478
1098	0.0329339
1110	0.0207737
1122	0.0163403
1134	0.0250805
1146	0.0296405
1158	0.0448408
1170	0.105515
1182	0.109822
1194	0.0320473
1206	0.0214071
1218	0.0557344
1230	0.0678946
1242	0.053581
1254	0.0404074
1266	0.0385074
1278	0.0286272
1290	0.0219137
1302	0.0407874
1314	0.113875
1326	0.33846
1338	0.660199
1350	0.666912
1362	0.287539
1374	0.128442
1386	0.113622
1398	0.0610545
1410	0.0230538
1422	0.00937351
1434	0.00190003
1446	0.00405341
1458	0.00316672
1470	0.0404074
1482	0.111089
1494	0.117929
1506	0.0665012
1518	0.020267
1530	0.0149469
1542	0.0192537
1554	0.074988
1566	0.15631
1578	0.243458
1590	0.466395
1602	0.588758
1614	0.447015
1626	0.115269
1638	0.0507943
1650	0.035974
1662	0.0430675
1674	0.0485142
1686	0.0703013
1698	0.17683
1710	0.629925
1722	1.18512
1734	1.26669
1746	0.408888
1758	0.0936084
1770	0.0225471
1782	0.0205204
1794	0.0212804
1806	0.0271072
1818	0.0149469
1830	0.00443341
1842	0.00240671
1854	0.00430675
1866	0.00304006
1878	0.00620678
1890	0.00468675
1902	0.00658679
1914	0.00760014
1926	0.00684013
1938	0.00443341
1950	0.00392674
1962	0.00468675
1974	0.00557344
1986	0.0073468
1998	0.00861349
2010	0.00886683
2022	0.00620678
2034	0.00506676
2046	0.00494009
2058	0.00557344
2070	0.00696679
2082	0.00684013
2094	0.00494009
2106	0.00405341
2118	0.00342006
2130	0.00430675
2142	0.00443341
2154	0.00405341
2166	0.00316672
2178	0.00316672
2190	0.00304006
2202	0.0036734
2214	0.00418008
2226	0.00418008
2238	0.00519343
2250	0.00582677
2262	0.0057001
2274	0.00430675
2286	0.00329339
2298	0.00354673
2310	0.00443341
2322	0.00278672
2334	0.00228004
2346	0.00316672
2358	0.0036734
2370	0.0036734
2382	0.00468675
2394	0.00456008
2406	0.00418008
2418	0.00418008
2430	0.00329339
2442	0.0036734
2454	0.00380007
2466	0.00342006
2478	0.00304006
2490	0.00253338
2502	0.00215337
2514	0.0016467
2526	0.00139336
2538	0.00126669
2550	0.00177337
2562	0.00278672
2574	0.00253338
2586	0.0020267
2598	0.00152003
2610	0.00126669
2622	0.00152003
2634	0.00240671
2646	0.00342006
2658	0.00443341
2670	0.00494009
2682	0.00380007
2694	0.00266005
2706	0.00228004
2718	0.00215337
2730	0.0020267
2742	0.00190003
2754	0.00190003
2766	0.00316672
2778	0.00481342
2790	0.00658679
2802	0.00696679
2814	0.0057001
2826	0.00456008
2838	0.00316672
2850	0.00228004
2862	0.00291339
2874	0.00278672
2886	0.00177337
2898	0.00266005
2910	0.00304006
2922	0.00240671
2934	0.00139336
2946	0.00215337
2958	0.00228004
2970	0.00240671
2982	0.0016467
2994	0.0016467
3006	0.00139336
3018	0.00126669
3030	0.00228004
3042	0.00418008
3054	0.00418008
3066	0.0036734
3078	0.00253338
3090	0.00215337
3102	0.00304006
3114	0.00494009
3126	0.0103869
3138	0.0127936
3150	0.0112735
3162	0.00950017
3174	0.00595344
3186	0.00456008
3198	0.00405341
3210	0.00443341
3222	0.0036734
3234	0.00380007
3246	0.00392674
3258	0.00380007
3270	0.00430675
3282	0.00430675
3294	0.00620678
3306	0.00620678
3318	0.00646012
3330	0.00620678
3342	0.00671346
3354	0.00709346
3366	0.00747347
3378	0.00924684
3390	0.0140603
3402	0.0283739
3414	0.0573811
3426	0.090695
3438	0.136549
3450	0.106529
3462	0.053201
3474	0.016467
3486	0.0134269
3498	0.019127
3510	0.0296405
3522	0.0544677
3534	0.0653612
3546	0.0792948
3558	0.142503
3570	0.124009
3582	0.0409141
3594	0.00582677
3606	0.00354673
3618	0.00342006
3630	0.00291339
3642	0.00380007
3654	0.00215337
3666	0.00291339
3678	0.0020267
3690	0.00253338
3702	0.00278672
3714	0.00392674
3726	0.0036734
3738	0.0036734
3750	0.00342006
3762	0.00291339
3774	0.00316672
3786	0.00342006
3798	0.00240671
3810	0.00304006
3822	0.00316672
3834	0.00177337
3846	0.0020267
3858	0.00278672
3870	0.00316672
3882	0.0036734
3894	0.0020267
3906	0.00329339
3918	0.00329339
3930	0.0036734
3942	0.0020267
3954	0.00392674
3966	0.00392674
