Infrared Spectrum: Hexyl chloroformate
Formula: C 7 H 13 Cl O 2
CAS: 6092-54-2
Origin: Sadtler Research Labs Under US-EPA Contract
1/CM	ABSORBANCE
450	0.00921652
462	0.00696682
474	0.0133531
486	0.0153851
498	0.00566054
510	0.00587825
522	0.00761995
534	0.00573311
546	0.00515254
558	0.00515254
570	0.00283027
582	0.00290284
594	0.00283027
606	0.00297541
618	0.00217713
630	0.00195942
642	0.00319312
654	0.00384626
666	0.00457197
678	0.00972451
690	0.0195216
702	0.015893
714	0.0089988
726	0.00936166
738	0.00798281
750	0.00732967
762	0.00936166
774	0.0104502
786	0.0150222
798	0.028085
810	0.0392609
822	0.0516706
834	0.0640802
846	0.0457197
858	0.0252547
870	0.0169816
882	0.0156753
894	0.016909
906	0.0165462
918	0.0140788
930	0.0109582
942	0.0113211
954	0.0121919
966	0.0131354
978	0.0149496
990	0.017925
1002	0.0151673
1014	0.0128451
1026	0.0124822
1038	0.0155302
1050	0.0148771
1062	0.0161833
1074	0.016909
1086	0.0193765
1098	0.0267061
1110	0.049566
1122	0.114952
1134	0.287163
1146	0.670193
1158	0.650091
1170	0.385642
1182	0.120758
1194	0.0601614
1206	0.0436877
1218	0.0360678
1230	0.0323667
1242	0.0338907
1254	0.043978
1266	0.0563877
1278	0.0398415
1290	0.0285204
1302	0.0232953
1314	0.0182153
1326	0.0133531
1338	0.0102325
1350	0.0105228
1362	0.0114662
1374	0.0171268
1386	0.0264884
1398	0.0146593
1410	0.00791024
1422	0.00573311
1434	0.00892623
1446	0.0153851
1458	0.0282301
1470	0.0397689
1482	0.0205376
1494	0.00645882
1506	0.00232227
1518	0.00116114
1530	0.00072571
1542	7.2571e-05
1554	0.000870852
1566	0.00108856
1578	0.00108856
1590	0.000798281
1602	0.000870852
1614	0.000943423
1626	0.00072571
1638	0.000653139
1650	0.000653139
1662	0.00159656
1674	0.0017417
1686	0.00217713
1698	0.00297541
1710	0.00471711
1722	0.00667653
1734	0.0107405
1746	0.023005
1758	0.0499288
1770	0.0812795
1782	0.209658
1794	0.440216
1806	0.183605
1818	0.0612499
1830	0.026561
1842	0.0115388
1854	0.00602339
1866	0.00341084
1878	0.0027577
1890	0.00239484
1902	0.00181427
1914	0.00181427
1926	0.00195942
1938	0.00195942
1950	0.00217713
1962	0.00239484
1974	0.00232227
1986	0.0022497
1998	0.00195942
2010	0.00188685
2022	0.00166913
2034	0.00188685
2046	0.00159656
2058	0.00195942
2070	0.00181427
2082	0.0017417
2094	0.00137885
2106	0.00108856
2118	0.00123371
2130	0.00116114
2142	0.00116114
2154	0.000943423
2166	0.000943423
2178	0.00108856
2190	0.00108856
2202	0.000798281
2214	0.00108856
2226	0.00116114
2238	0.00101599
2250	0.00130628
2262	0.00217713
2274	0.00283027
2286	0.00355598
2298	0.00428169
2310	0.00515254
2322	0.00457197
2334	0.00297541
2346	0.00290284
2358	0.00297541
2370	0.00290284
2382	0.00283027
2394	0.00152399
2406	0.00130628
2418	0.000870852
2430	0.000870852
2442	0.000580568
2454	0.000653139
2466	0.000507997
2478	0.000653139
2490	0.000507997
2502	0.000653139
2514	0.000507997
2526	0.000580568
2538	0.000943423
2550	0.000798281
2562	0.000870852
2574	0.000798281
2586	0.00123371
2598	0.00152399
2610	0.00130628
2622	0.00130628
2634	0.00137885
2646	0.00152399
2658	0.00123371
2670	0.00188685
2682	0.00217713
2694	0.00217713
2706	0.00210456
2718	0.00210456
2730	0.00232227
2742	0.00319312
2754	0.00297541
2766	0.00290284
2778	0.00341084
2790	0.00341084
2802	0.00435426
2814	0.00537025
2826	0.00754738
2838	0.0113936
2850	0.0210456
2862	0.0534848
2874	0.0754738
2886	0.0693779
2898	0.0499288
2910	0.0632819
2922	0.098116
2934	0.155883
2946	0.172501
2958	0.123371
2970	0.17359
2982	0.102688
2994	0.0407849
3006	0.0231501
3018	0.0120468
3030	0.00740224
3042	0.0055154
3054	0.00428169
3066	0.00377369
3078	0.00333827
3090	0.00326569
3102	0.00239484
3114	0.0027577
3126	0.00246741
3138	0.00217713
3150	0.00246741
3162	0.00239484
3174	0.0017417
3186	0.00188685
3198	0.00166913
3210	0.0017417
3222	0.00152399
3234	0.00137885
3246	0.00159656
3258	0.000798281
3270	0.00108856
3282	0.00130628
3294	0.00130628
3306	0.00145142
3318	0.000435426
3330	0.00123371
3342	0.000507997
3354	0.000870852
3366	0.000870852
3378	0.000870852
3390	0.00116114
3402	0.00137885
3414	0.00145142
3426	0.00145142
3438	0.000798281
3450	0.00130628
3462	0.00137885
3474	0.00072571
3486	0.00116114
3498	0.00130628
3510	0.000798281
3522	0.000943423
3534	0.00130628
3546	0.0017417
3558	0.0027577
3570	0.00268513
3582	0.000580568
3594	0.00072571
3606	0.00159656
3618	0.00123371
3630	0.00188685
3642	0.00181427
3654	0.00181427
3666	0.00217713
3678	0.00232227
3690	0.0017417
3702	0.00239484
3714	0.00137885
3726	0.00210456
3738	0.00217713
3750	0.00232227
3762	0.000870852
3774	0.00159656
3786	0.0017417
3798	0.00232227
3810	0.00210456
3822	0.0017417
3834	0.00203199
3846	0.00137885
3858	0.00261256
3870	0.00253998
3882	0.00239484
3894	0.0017417
3906	0.00253998
3918	0.00195942
3930	0.00203199
3942	0.00283027
3954	0.00253998
3966	0.000943423
