Infrared Spectrum: Trihexyl phosphite
Formula: C 18 H 39 O 3 P
CAS: 6095-42-7
Origin: Sadtler Research Labs Under US-EPA Contract
1/CM	ABSORBANCE
450	0.00331873
462	0.046831
474	0.0068833
486	0.0301144
498	0.0387185
510	0.0260582
522	0.0287623
534	0.0274103
546	0.0210186
558	0.0372435
570	0.0201582
582	0.00909578
594	0.0164707
606	0.0156103
618	0.00725204
630	0.0135208
642	0.00442498
654	0.0197895
666	0.0280248
678	0.0383498
690	0.0706767
702	0.13742
714	0.256403
726	0.251609
738	0.244972
750	0.243251
762	0.250257
774	0.293278
786	0.274471
798	0.222232
810	0.165937
822	0.13828
834	0.143443
846	0.144303
858	0.147499
870	0.126972
882	0.115787
894	0.110501
906	0.114926
918	0.144303
930	0.295367
942	0.455404
954	0.415825
966	0.406729
978	0.413858
990	0.516247
1002	0.859797
1014	0.980747
1026	0.713036
1038	0.636828
1050	0.630559
1062	0.484043
1074	0.329907
1086	0.234278
1098	0.135699
1110	0.101529
1122	0.0947682
1134	0.0784204
1146	0.0639163
1158	0.0457248
1170	0.0372435
1182	0.0294998
1194	0.0442498
1206	0.0537143
1218	0.0583851
1230	0.0608434
1242	0.0565414
1254	0.0601059
1266	0.07166
1278	0.092187
1290	0.0844433
1302	0.0813704
1314	0.057033
1326	0.040931
1338	0.0456018
1350	0.0505185
1362	0.0561726
1374	0.0905891
1386	0.159422
1398	0.0660059
1410	0.0363831
1422	0.0360144
1434	0.0561726
1446	0.084935
1458	0.131151
1470	0.156718
1482	0.090712
1494	0.0401935
1506	0.0255665
1518	0.0186832
1530	0.0188061
1542	0.0162249
1554	0.0169624
1566	0.0173312
1578	0.0156103
1590	0.016102
1602	0.0137666
1614	0.0121687
1626	0.0126603
1638	0.0122916
1650	0.011677
1662	0.0133978
1674	0.0117999
1686	0.00934162
1698	0.0113083
1710	0.0125374
1722	0.0147499
1734	0.0140124
1746	0.0137666
1758	0.0147499
1770	0.0125374
1782	0.00983328
1794	0.00884995
1806	0.00872704
1818	0.00762079
1830	0.00651455
1842	0.00503956
1854	0.0038104
1866	0.00454789
1878	0.00417914
1890	0.00319582
1902	0.00208957
1914	0.00245832
1926	0.00319582
1938	0.00282707
1950	0.00208957
1962	0.0023354
1974	0.0030729
1986	0.00282707
1998	0.00294998
2010	0.00294998
2022	0.00393331
2034	0.00417914
2046	0.00356456
2058	0.0030729
2070	0.00245832
2082	0.00208957
2094	0.00208957
2106	0.000983328
2118	0.000491664
2130	0.000860412
2142	0.000860412
2154	0.000983328
2166	0.000983328
2178	0.00061458
2190	0.00122916
2202	0.00110624
2214	0.000860412
2226	0.000368748
2238	0.000368748
2250	0.000737496
2262	0.000983328
2274	0.00061458
2286	0.00061458
2298	0.00172082
2310	0.0038104
2322	0.00503956
2334	0.00356456
2346	0.00442498
2358	0.00553122
2370	0.00700621
2382	0.00417914
2394	0.00270415
2406	0.0030729
2418	0.00417914
2430	0.00417914
2442	0.00356456
2454	0.00147499
2466	0.00122916
2478	0.000983328
2490	0.00110624
2502	0.000491664
2514	0.00061458
2526	0.00172082
2538	0.00258124
2550	0.00245832
2562	0.00319582
2574	0.00430206
2586	0.00602288
2598	0.0061458
2610	0.00626872
2622	0.00626872
2634	0.00811246
2646	0.00934162
2658	0.0109395
2670	0.0124145
2682	0.0148728
2694	0.0158562
2706	0.0159791
2718	0.0170853
2730	0.023354
2742	0.0285165
2754	0.0280248
2766	0.0243374
2778	0.0247061
2790	0.0294998
2802	0.0372435
2814	0.0481831
2826	0.0682184
2838	0.107797
2850	0.212891
2862	0.4173
2874	0.568486
2886	0.551647
2898	0.447045
2910	0.579918
2922	0.837427
2934	1.18725
2946	1.17065
2958	0.946699
2970	0.947314
2982	0.410662
2994	0.174049
3006	0.0950141
3018	0.0646538
3030	0.0469539
3042	0.0358915
3054	0.0285165
3066	0.0231082
3078	0.0213874
3090	0.0180687
3102	0.0156103
3114	0.0135208
3126	0.0115541
3138	0.0113083
3150	0.010202
3162	0.00934162
3174	0.00798954
3186	0.00823537
3198	0.00811246
3210	0.00602288
3222	0.00405623
3234	0.00405623
3246	0.00331873
3258	0.00294998
3270	0.000737496
3282	0.000368748
3294	0.00172082
3306	0.00208957
3318	0.00258124
3330	0.00110624
3342	0.00221249
3354	0.00294998
3366	0.0030729
3378	0.00245832
3390	0.00208957
3402	0.00245832
3414	0.00270415
3426	0.00294998
3438	0.00208957
3450	0.0023354
3462	0.00319582
3474	0.00270415
3486	0.00208957
3498	0.00061458
3510	0.00258124
3522	0.00270415
3534	0.00172082
3546	0.00122916
3558	0.00172082
3570	0.00245832
3582	0.00221249
3594	0.00270415
3606	0.00196666
3618	0.0030729
3630	0.00319582
3642	0.00577705
3654	0.00553122
3666	0.00712913
3678	0.00737496
3690	0.00516247
3702	0.00331873
3714	0.00221249
3726	0.0030729
3738	0.00356456
3750	0.00196666
3762	0.0023354
3774	0.00196666
3786	0.00417914
3798	0.0030729
3810	0.00442498
3822	0.00221249
3834	0.00147499
3846	0.00331873
3858	0.00503956
3870	0.00503956
3882	0.00270415
3894	0.0038104
3906	0.00479372
3918	0.00626872
3930	0.00430206
3942	0.0023354
3954	0.00110624
3966	0.0054083
