Infrared Spectrum: 2',4'-Dinitroacetanilide
Formula: C 8 H 7 N 3 O 5
CAS: 610-53-7
Origin: Sadtler Research Labs Under US-EPA Contract
1/CM	ABSORBANCE
450	0.0217081
462	0.0126743
474	0.00728098
486	0.0276408
498	0.00889898
510	0.0458432
522	0.0512365
534	0.0246744
546	0.0423376
558	0.0188766
570	0.0164496
582	0.0318206
594	0.0501579
606	0.0275059
618	0.0318206
630	0.0374836
642	0.0417982
654	0.048405
666	0.0647198
678	0.0802256
690	0.069439
702	0.0656637
714	0.127148
726	0.144676
738	0.12553
750	0.0699783
762	0.0238654
774	0.0207643
786	0.0167193
798	0.014562
810	0.0223823
822	0.0550119
834	0.158833
846	0.143732
858	0.0339779
870	0.0140226
882	0.0141575
894	0.0237306
906	0.0795515
918	0.0788773
930	0.0226519
942	0.0196856
954	0.0248093
966	0.0254834
978	0.0434162
990	0.082383
1002	0.0765851
1014	0.0354611
1026	0.0280453
1038	0.0343824
1050	0.0439556
1062	0.0883156
1074	0.100316
1086	0.047596
1098	0.0338431
1110	0.0334386
1122	0.0600007
1134	0.0986978
1146	0.224497
1158	0.0724053
1170	0.0496185
1182	0.0800908
1194	0.166114
1206	0.41151
1218	0.507916
1230	0.199823
1242	0.124181
1254	0.160856
1266	0.283554
1278	0.372274
1290	0.318206
1302	0.265621
1314	0.206294
1326	0.399645
1338	1.19152
1350	0.913359
1362	0.353532
1374	0.317532
1386	0.277486
1398	0.308498
1410	0.193216
1422	0.130788
1434	0.155867
1446	0.231643
1458	0.340723
1470	0.271688
1482	0.297846
1494	0.684547
1506	1.30316
1518	0.837987
1530	0.396139
1542	0.422027
1554	0.287464
1566	0.227463
1578	0.224227
1590	0.413668
1602	0.780818
1614	0.650165
1626	0.209261
1638	0.0883156
1650	0.0461129
1662	0.0386971
1674	0.0285846
1686	0.0279104
1698	0.0281801
1710	0.0632367
1722	0.0910123
1734	0.221126
1746	0.446297
1758	0.115956
1770	0.050832
1782	0.0299329
1794	0.0180676
1806	0.0253486
1818	0.0198205
1830	0.0103821
1842	0.00620232
1854	0.00593265
1866	0.00337083
1878	0.00337083
1890	0.00229216
1902	0.00404499
1914	0.001618
1926	0.00242699
1938	0.00498882
1950	0.00606749
1962	0.00350566
1974	0.00229216
1986	0.001618
1998	0.000943831
2010	0.0012135
2022	0.000943831
2034	0.00148316
2046	0.00175283
2058	0.00215733
2070	0.000943831
2082	0.00175283
2094	0.00269666
2106	0.00310116
2118	0.00377532
2130	0.00337083
2142	0.00269666
2154	0.00337083
2166	0.00377532
2178	0.00229216
2190	0.00175283
2202	0.0020225
2214	0.00188766
2226	0.00188766
2238	0.00148316
2250	0.00215733
2262	0.0012135
2274	0.001618
2286	0.000943831
2298	0.00107866
2310	0
2322	0.00188766
2334	0.0012135
2346	0.00377532
2358	0.00229216
2370	0.0020225
2382	0.00269666
2394	0.00269666
2406	0.00364049
2418	0.00404499
2430	0.00364049
2442	0.00404499
2454	0.00471916
2466	0.00539332
2478	0.00471916
2490	0.00431466
2502	0.00377532
2514	0.00323599
2526	0.00417982
2538	0.00444949
2550	0.00539332
2562	0.00593265
2574	0.00579782
2586	0.00566299
2598	0.00647198
2610	0.00674165
2622	0.00485399
2634	0.00458432
2646	0.00485399
2658	0.00485399
2670	0.00593265
2682	0.00606749
2694	0.00620232
2706	0.00512365
2718	0.00539332
2730	0.00660682
2742	0.00674165
2754	0.00714615
2766	0.00701132
2778	0.00647198
2790	0.00674165
2802	0.00768548
2814	0.00822481
2826	0.00984281
2838	0.0109215
2850	0.0126743
2862	0.013753
2874	0.0156406
2886	0.0173935
2898	0.0138878
2910	0.0126743
2922	0.012944
2934	0.015371
2946	0.0171238
2958	0.0141575
2970	0.012135
2982	0.0101125
2994	0.00943831
3006	0.0103821
3018	0.0114608
3030	0.0134833
3042	0.013753
3054	0.0148316
3066	0.0164496
3078	0.0203598
3090	0.0250789
3102	0.0382926
3114	0.0455736
3126	0.0384274
3138	0.0279104
3150	0.0111911
3162	0.00795515
3174	0.00755065
3186	0.00714615
3198	0.00782031
3210	0.00849448
3222	0.00943831
3234	0.00835965
3246	0.00903381
3258	0.00782031
3270	0.00862931
3282	0.0109215
3294	0.0124046
3306	0.0167193
3318	0.0213036
3330	0.0280453
3342	0.0392364
3354	0.0691693
3366	0.119732
3378	0.154519
3390	0.140226
3402	0.0965404
3414	0.0551467
3426	0.0279104
3438	0.0179328
3450	0.0102473
3462	0.00984281
3474	0.00889898
3486	0.00808998
3498	0.00525849
3510	0.00458432
3522	0.00417982
3534	0.00458432
3546	0.00539332
3558	0.00404499
3570	0.00444949
3582	0.00283149
3594	0.00404499
3606	0.00296633
3618	0.00323599
3630	0.00175283
3642	0.00269666
3654	0.00579782
3666	0.0012135
3678	0.00269666
3690	0.00269666
3702	0.00364049
3714	0.00458432
3726	0.000674165
3738	0.00431466
3750	0.00391016
3762	0.00256183
3774	0.00337083
3786	0.000539332
3798	0.00296633
3810	0.00242699
3822	0.00444949
3834	0.00323599
3846	0.00377532
3858	0.00188766
3870	0.00229216
3882	0.00674165
3894	0.00404499
3906	0.00566299
3918	0.00539332
3930	0.00391016
3942	0.00283149
3954	0.00444949
3966	0.00552815
