Infrared Spectrum: Benzene, 1-ethoxy-2,4-dinitro-
Formula: C 8 H 8 N 2 O 5
CAS: 610-54-8
Origin: Sadtler Research Labs Under US-EPA Contract
1/CM	ABSORBANCE
450	0.00975897
462	0.0112999
474	8.5605e-05
486	0.0033386
498	0.00419465
510	0.00779006
522	0.00821808
534	0.00376662
546	0.00256815
558	0.00017121
570	0.00145529
582	0.00291057
594	0.00205452
606	0.00111286
618	0.00744764
630	0.0271368
642	0.04032
654	0.0195179
666	0.019946
678	0.0585538
690	0.0708809
702	0.0559857
714	0.06155
726	0.0567561
738	0.0744764
750	0.0631765
762	0.0282497
774	0.0216581
786	0.0167786
798	0.0124983
810	0.0223429
822	0.0737915
834	0.151007
846	0.0318451
858	0.0112143
870	0.00975897
882	0.0124127
894	0.028164
906	0.0646318
918	0.0875739
930	0.109489
942	0.0320163
954	0.0112999
966	0.0108718
978	0.0112999
990	0.0172922
1002	0.0324443
1014	0.0757604
1026	0.160509
1038	0.146299
1050	0.0816672
1062	0.124983
1074	0.152976
1086	0.0655734
1098	0.057441
1110	0.0490517
1122	0.0449426
1134	0.082352
1146	0.132174
1158	0.0523903
1170	0.0167786
1182	0.0147241
1194	0.0189187
1206	0.0255103
1218	0.0337284
1230	0.0590675
1242	0.122244
1254	0.222915
1266	0.355004
1278	0.4585
1290	0.461069
1302	0.211359
1314	0.160338
1326	0.170953
1338	0.43787
1350	0.85605
1362	0.396437
1374	0.127038
1386	0.0864611
1398	0.120275
1410	0.0779005
1422	0.065231
1434	0.0503357
1446	0.055472
1458	0.0710522
1470	0.133373
1482	0.206479
1494	0.288831
1506	0.17121
1518	0.166416
1530	0.286349
1542	0.638528
1554	0.748188
1566	0.346358
1578	0.18602
1590	0.235671
1602	0.494369
1614	0.492828
1626	0.123956
1638	0.0511062
1650	0.0310746
1662	0.0176346
1674	0.0104438
1686	0.00864611
1698	0.00761885
1710	0.00350981
1722	0.00256815
1734	0.0033386
1746	0.0017121
1758	0.00154089
1770	0.00299618
1782	0.00239694
1794	0.00282497
1806	0.00410904
1818	0.00522191
1830	0.00376662
1842	0.00136968
1854	0.000428025
1866	0.00068484
1878	0.00085605
1890	0.00273936
1902	0.00573553
1914	0.00582114
1926	0.00419465
1938	0.00316738
1950	0.00205452
1962	0.00154089
1974	0.00111286
1986	0.000770445
1998	0.000428025
2010	8.5605e-05
2022	0.000428025
2034	0.00145529
2046	0.00231134
2058	0.00291057
2070	0.00453706
2082	0.00487949
2094	0.00291057
2106	0.00136968
2118	0.000941655
2130	0.000770445
2142	0.00051363
2154	0.000428025
2166	0.000599235
2178	0.000599235
2190	0.000770445
2202	0.000941655
2214	0.00085605
2226	0.000428025
2238	0.00017121
2250	8.5605e-05
2262	0.000770445
2274	0.00214013
2286	0.00188331
2298	0.00188331
2310	0.00214013
2322	0.00256815
2334	0.00291057
2346	0.00291057
2358	0.00111286
2370	0.00350981
2382	0.00402344
2394	0.00273936
2406	0.00265376
2418	0.00273936
2430	0.00256815
2442	0.00265376
2454	0.00231134
2466	0.00291057
2478	0.00376662
2490	0.00419465
2502	0.00368102
2514	0.00368102
2526	0.00410904
2538	0.00522191
2550	0.00633477
2562	0.00736203
2574	0.00633477
2586	0.00573553
2598	0.00624917
2610	0.00582114
2622	0.00487949
2634	0.00410904
2646	0.00359541
2658	0.00325299
2670	0.0033386
2682	0.00376662
2694	0.00496509
2706	0.00539312
2718	0.00539312
2730	0.00564993
2742	0.0068484
2754	0.00761885
2766	0.00607796
2778	0.00633477
2790	0.00642038
2802	0.00599235
2814	0.00667719
2826	0.00813248
2838	0.0104438
2850	0.0114711
2862	0.0168642
2874	0.0264519
2886	0.0381798
2898	0.0464835
2910	0.0423745
2922	0.0311602
2934	0.0390359
2946	0.0673711
2958	0.0505926
2970	0.0375806
2982	0.0475108
2994	0.0826088
3006	0.0622348
3018	0.0217437
3030	0.0124127
3042	0.00958776
3054	0.00821808
3066	0.00779006
3078	0.0119847
3090	0.0325299
3102	0.0368958
3114	0.0147241
3126	0.00633477
3138	0.0034242
3150	0.00273936
3162	0.00136968
3174	0.00111286
3186	0.00102726
3198	0.00179771
3210	0.00231134
3222	0.00291057
3234	0.00273936
3246	0.00231134
3258	0.00214013
3270	0.00214013
3282	0.00154089
3294	0.00154089
3306	0.00119847
3318	0.00111286
3330	0.00119847
3342	0.00128407
3354	0.00119847
3366	0.00154089
3378	0.00085605
3390	0.00222573
3402	0.00188331
3414	0.00102726
3426	0.00128407
3438	0.00102726
3450	0.00068484
3462	0.000941655
3474	0.000428025
3486	0.00085605
3498	0.00128407
3510	0.00128407
3522	0.000941655
3534	0.00085605
3546	0.000941655
3558	0.00051363
3570	0.00051363
3582	0.00136968
3594	0
3606	0.00205452
3618	0
3630	0.00085605
3642	0.00085605
3654	0.000770445
3666	0.000256815
3678	0.000941655
3690	0.00085605
3702	0.00145529
3714	0.0017121
3726	0.00145529
3738	0.00128407
3750	0.00111286
3762	0.00119847
3774	0.00179771
3786	0.000941655
3798	0.0017121
3810	0.00051363
3822	8.5605e-05
3834	0.0017121
3846	0.00154089
3858	0.000256815
3870	0.000770445
3882	0.0016265
3894	0.00034242
3906	0.000428025
3918	0.00214013
3930	0.00051363
3942	0
3954	0.00017121
3966	0.00085605
