Infrared Spectrum: Ethyl 2-nitrobenzoate
Formula: C 9 H 9 N O 4
CAS: 610-34-4
Origin: Sadtler Research Labs Under US-EPA Contract
1/CM	ABSORBANCE
450	0.0125232
462	0.00961727
474	0.00511999
486	0.00747241
498	0.008787
510	0.0130075
522	0.0127308
534	0.0125232
546	0.0169513
558	0.0158443
570	0.0217945
582	0.0199264
594	0.0142529
606	0.0148756
618	0.0155675
630	0.0176432
642	0.0307199
654	0.0383307
666	0.0240778
678	0.033695
690	0.0631004
702	0.100393
714	0.0773533
726	0.105513
738	0.131459
750	0.0747933
762	0.0591566
774	0.102676
786	0.0871781
798	0.0317578
810	0.026361
822	0.0300972
834	0.0511999
846	0.0984559
858	0.0925749
870	0.0701576
882	0.0373621
894	0.0239394
906	0.020134
918	0.0172973
930	0.0179891
942	0.0204108
954	0.0256691
966	0.0220713
978	0.0231091
990	0.0291978
1002	0.046841
1014	0.0747241
1026	0.0595717
1038	0.105029
1050	0.0568042
1062	0.100739
1074	0.243407
1086	0.120666
1098	0.113193
1110	0.17062
1122	0.410014
1134	0.325119
1146	0.116929
1158	0.0814355
1170	0.0778376
1182	0.0608863
1194	0.0444885
1206	0.0394377
1218	0.0466334
1230	0.0736863
1242	0.177816
1254	0.467095
1266	0.385175
1278	0.444263
1290	0.69189
1302	0.431947
1314	0.16979
1326	0.0982484
1338	0.114231
1350	0.242231
1362	0.395761
1374	0.236765
1386	0.103645
1398	0.0698117
1410	0.0536215
1422	0.0459415
1434	0.0509231
1446	0.0754852
1458	0.0684279
1470	0.0703652
1482	0.0778376
1494	0.0585339
1506	0.0623393
1518	0.0828884
1530	0.159619
1542	0.395208
1554	0.647194
1566	0.359298
1578	0.165016
1590	0.0914679
1602	0.0608171
1614	0.0606096
1626	0.0466334
1638	0.0387458
1650	0.0327264
1662	0.027814
1674	0.0280215
1686	0.0341794
1698	0.0385383
1710	0.0472561
1722	0.0736863
1734	0.161833
1746	0.43762
1758	0.609002
1770	0.252609
1782	0.0745166
1794	0.0345945
1806	0.0229016
1818	0.0232475
1830	0.026361
1842	0.0213102
1854	0.0171589
1866	0.0161902
1878	0.013561
1890	0.0138378
1902	0.0134227
1914	0.013561
1926	0.0140454
1938	0.0184043
1950	0.0145297
1962	0.0155675
1974	0.0156367
1986	0.0122465
1998	0.0114162
2010	0.0103784
2022	0.0100324
2034	0.00989403
2046	0.00947889
2058	0.00913295
2070	0.00885619
2082	0.00920214
2094	0.00961727
2106	0.00989403
2118	0.0103784
2130	0.0100324
2142	0.0103092
2154	0.00996322
2166	0.008787
2178	0.00823349
2190	0.00823349
2202	0.00809511
2214	0.00809511
2226	0.00857944
2238	0.00802592
2250	0.00837187
2262	0.00871781
2274	0.00837187
2286	0.00781836
2298	0.00864863
2310	0.00920214
2322	0.0103092
2334	0.0105859
2346	0.00899457
2358	0.0111394
2370	0.0103784
2382	0.00913295
2394	0.00920214
2406	0.0101016
2418	0.00913295
2430	0.00830268
2442	0.00712647
2454	0.00698809
2466	0.00636539
2478	0.00636539
2490	0.0062962
2502	0.00678052
2514	0.00608863
2526	0.00657296
2538	0.00608863
2550	0.00595025
2562	0.00595025
2574	0.00636539
2586	0.00595025
2598	0.00595025
2610	0.00615782
2622	0.00608863
2634	0.00560431
2646	0.00518918
2658	0.00546593
2670	0.00539674
2682	0.00643458
2694	0.00671133
2706	0.0069189
2718	0.0069189
2730	0.00747241
2742	0.00664214
2754	0.00601944
2766	0.0062962
2778	0.00671133
2790	0.00671133
2802	0.0062962
2814	0.00664214
2826	0.00733403
2838	0.00678052
2850	0.00228324
2862	0.00304432
2874	0.0121773
2886	0.0253924
2898	0.0255999
2910	0.024908
2922	0.0148064
2934	0.0188194
2946	0.0510615
2958	0.0377772
2970	0.0443501
2982	0.0891846
2994	0.114715
3006	0.0632387
3018	0.0378464
3030	0.0211718
3042	0.0169513
3054	0.0151524
3066	0.0200648
3078	0.0406139
3090	0.0398529
3102	0.0166745
3114	0.00892538
3126	0.00747241
3138	0.0075416
3150	0.0081643
3162	0.00802592
3174	0.00705728
3186	0.00643458
3198	0.00733403
3210	0.00671133
3222	0.00581188
3234	0.00484323
3246	0.00539674
3258	0.00525836
3270	0.00491242
3282	0.00498161
3294	0.00498161
3306	0.0050508
3318	0.00484323
3330	0.00463566
3342	0.00470485
3354	0.0056735
3366	0.00560431
3378	0.00511999
3390	0.00518918
3402	0.00477404
3414	0.00608863
3426	0.00525836
3438	0.00491242
3450	0.00539674
3462	0.00636539
3474	0.00788755
3486	0.00982484
3498	0.00837187
3510	0.00761079
3522	0.00581188
3534	0.00539674
3546	0.00553512
3558	0.00546593
3570	0.00761079
3582	0.00539674
3594	0.00518918
3606	0.00574269
3618	0.0062962
3630	0.00906376
3642	0.0056735
3654	0.0062962
3666	0.00553512
3678	0.00982484
3690	0.00837187
3702	0.00595025
3714	0.00774917
3726	0.00761079
3738	0.0101708
3750	0.00906376
3762	0.00657296
3774	0.00643458
3786	0.00622701
3798	0.00719566
3810	0.00684971
3822	0.00774917
3834	0.00795674
3846	0.00733403
3858	0.00705728
3870	0.00740322
3882	0.00781836
3894	0.00705728
3906	0.00636539
3918	0.00601944
3930	0.00698809
3942	0.00657296
3954	0
3966	0.000553512
