Infrared Spectrum: Benzoic acid, 2-chloro-, methyl ester
Formula: C 8 H 7 Cl O 2
CAS: 610-96-8
Origin: Sadtler Research Labs Under US-EPA Contract
1/CM	ABSORBANCE
450	0.045292
462	0.0445178
474	0.0472275
486	0.0162587
498	0.00619378
510	0.00606474
522	0.0112262
534	0.0118714
546	0.00554859
558	0.00361304
570	0.00412918
582	0.00232267
594	0.00322593
606	0.00180652
618	0.0216782
630	0.006968
642	0.0229686
654	0.0615506
666	0.0160006
678	0.0152264
690	0.0378078
702	0.0509696
714	0.0584538
726	0.123746
738	0.274333
750	0.454726
762	0.125037
774	0.0376788
786	0.0325173
798	0.0286462
810	0.0343238
822	0.0758738
834	0.0594861
846	0.0215492
858	0.0116133
870	0.010452
882	0.0101939
894	0.00606474
906	0.00567763
918	0.00554859
930	0.00709704
942	0.0179361
954	0.0343238
966	0.0594861
978	0.045292
990	0.0116133
1002	0.0135489
1014	0.0376788
1026	0.062712
1038	0.168006
1050	0.375498
1062	0.398079
1074	0.0814223
1086	0.0861967
1098	0.191104
1110	0.403241
1122	0.763125
1134	0.64983
1146	0.278204
1158	0.157167
1170	0.129424
1182	0.115101
1194	0.143618
1206	0.0816804
1218	0.0612926
1230	0.134198
1242	0.529181
1254	0.844289
1266	0.396015
1278	0.631636
1290	1.15824
1302	1.08481
1314	0.288656
1326	0.0980681
1338	0.0581957
1350	0.0375498
1362	0.0331625
1374	0.031227
1386	0.0307108
1398	0.0329044
1410	0.0387111
1422	0.0756157
1434	0.325173
1446	0.380401
1458	0.116649
1470	0.143489
1482	0.134457
1494	0.0529052
1506	0.0269687
1518	0.0203878
1530	0.0198717
1542	0.0247751
1554	0.0267107
1566	0.0480018
1578	0.0745834
1590	0.116908
1602	0.154586
1614	0.0470985
1626	0.0237428
1638	0.0193555
1650	0.0254203
1662	0.0216782
1674	0.0229686
1686	0.0318721
1698	0.0508406
1710	0.0909711
1722	0.178974
1734	0.432403
1746	0.956938
1758	0.885968
1770	0.534084
1782	0.212911
1794	0.0670992
1806	0.0335496
1818	0.0238718
1830	0.0141941
1842	0.0154844
1854	0.0114843
1866	0.00787126
1878	0.00683896
1890	0.00825837
1902	0.00761318
1914	0.0132908
1926	0.024388
1938	0.0198717
1950	0.0158716
1962	0.0134198
1974	0.00374207
1986	0.00180652
1998	0.00232267
2010	0.00412918
2022	0.006968
2034	0.00464533
2046	0.00270978
2058	0.00335496
2070	0.00812933
2082	0.010452
2094	0.00967777
2106	0.00722607
2118	0.00606474
2130	0.00503244
2142	0.00219363
2154	0.000774222
2166	0.00116133
2178	0.00116133
2190	0.000774222
2202	0.0010323
2214	0.00167748
2226	0.00154844
2238	0.000774222
2250	0.00129037
2262	0.00232267
2274	0.00167748
2286	0.00154844
2298	0.00167748
2310	0.000903259
2322	0.00283881
2334	0.00232267
2346	0.000903259
2358	0.00219363
2370	0.00167748
2382	0.00193556
2394	0.00193556
2406	0.00283881
2418	0.00206459
2430	0.00116133
2442	0.0010323
2454	0.000387111
2466	0
2478	0.000387111
2490	0.000387111
2502	0.000774222
2514	0.000645185
2526	0.0010323
2538	0.00154844
2550	0.00232267
2562	0.00296785
2574	0.00374207
2586	0.00322593
2598	0.00270978
2610	0.00206459
2622	0.00154844
2634	0.00167748
2646	0.00219363
2658	0.00206459
2670	0.0010323
2682	0.0010323
2694	0.0010323
2706	0.00129037
2718	0.00206459
2730	0.00219363
2742	0.00141941
2754	0.00141941
2766	0.00141941
2778	0.00154844
2790	0.00129037
2802	0.00193556
2814	0.00309689
2826	0.00516148
2838	0.0135489
2850	0.0436145
2862	0.020904
2874	0.0134198
2886	0.0166458
2898	0.0287753
2910	0.0357432
2922	0.0356142
2934	0.0301947
2946	0.0469695
2958	0.211234
2970	0.189426
2982	0.0441307
2994	0.0514858
3006	0.0668412
3018	0.059228
3030	0.0603893
3042	0.0474856
3054	0.0339367
3066	0.0650346
3078	0.112778
3090	0.0852935
3102	0.0303237
3114	0.014065
3126	0.0109681
3138	0.0108391
3150	0.0110972
3162	0.00580666
3174	0.00335496
3186	0.00296785
3198	0.0024517
3210	0.00193556
3222	0.00154844
3234	0.00193556
3246	0.00180652
3258	0.00141941
3270	0.00116133
3282	0.00154844
3294	0.00116133
3306	0.00141941
3318	0.00141941
3330	0.0010323
3342	0.00180652
3354	0.00193556
3366	0.00193556
3378	0.00180652
3390	0.00180652
3402	0.00141941
3414	0.00116133
3426	0.00116133
3438	0.00206459
3450	0.00232267
3462	0.00387111
3474	0.00606474
3486	0.00464533
3498	0.00567763
3510	0.00503244
3522	0.00167748
3534	0.000774222
3546	0.000387111
3558	0.00167748
3570	0.00735511
3582	0.00658089
3594	0.00167748
3606	0.0010323
3618	0.00116133
3630	0.000774222
3642	0.00154844
3654	0.00167748
3666	0.00193556
3678	0.00141941
3690	0.00258074
3702	0.0024517
3714	0.00206459
3726	0.00167748
3738	0.00232267
3750	0.00296785
3762	0.00219363
3774	0.00232267
3786	0.00270978
3798	0.00219363
3810	0.00270978
3822	0.00219363
3834	0.00193556
3846	0.00116133
3858	0.00193556
3870	0.00258074
3882	0.00180652
3894	0.00206459
3906	0.00206459
3918	0.00206459
3930	0.0024517
3942	0.00232267
3954	0.00296785
3966	0.00258074
