Infrared Spectrum: Benzene, 4-methyl-1,2-dinitro-
Formula: C 7 H 6 N 2 O 4
CAS: 610-39-9
Origin: Sadtler Research Labs Under US-EPA Contract
1/CM	ABSORBANCE
450	0
462	0.0555821
474	0.0738199
486	0.0616614
498	0.0602139
510	0.0712145
522	0.0602139
534	0.0683196
546	0.0723725
558	0.0764254
570	0.0845311
582	0.0848206
594	0.0741094
606	0.073241
618	0.0839521
630	0.0822152
642	0.0593455
654	0.0564506
666	0.0932158
678	0.103348
690	0.0651353
702	0.0593455
714	0.0680301
726	0.0691881
738	0.101321
750	0.108848
762	0.0969792
774	0.0717935
786	0.137218
798	0.285437
810	0.135192
822	0.188168
834	0.389364
846	0.489817
858	0.129402
870	0.057898
882	0.0749779
894	0.0746884
906	0.0625298
918	0.0836626
930	0.0642668
942	0.0497923
954	0.0521082
966	0.0532662
978	0.0497923
990	0.0489238
1002	0.0492133
1014	0.0497923
1026	0.0471869
1038	0.0552926
1050	0.0639773
1062	0.0610824
1074	0.0636878
1086	0.0581875
1098	0.0550031
1110	0.0561611
1122	0.0555821
1134	0.0746884
1146	0.0770043
1158	0.057898
1170	0.0622403
1182	0.0605034
1194	0.0555821
1206	0.0631088
1218	0.086847
1230	0.073241
1242	0.0712145
1254	0.0723725
1266	0.0749779
1278	0.0842416
1290	0.116085
1302	0.139534
1314	0.18759
1326	0.251277
1338	0.543662
1350	1.22281
1362	1.27578
1374	0.525424
1386	0.267489
1398	0.242882
1410	0.165299
1422	0.14214
1434	0.150824
1446	0.119559
1458	0.1928
1470	0.145324
1482	0.162693
1494	0.203511
1506	0.231303
1518	0.314676
1530	0.491844
1542	1.00337
1554	2.8949
1566	2.64333
1578	1.31805
1590	0.721988
1602	0.378074
1614	0.239119
1626	0.195985
1638	0.16472
1650	0.167036
1662	0.100164
1674	0.127376
1686	0.131428
1698	0.14185
1710	0.0827941
1722	0.0851101
1734	0.133165
1746	0.100743
1758	0.085689
1770	0.103348
1782	0.086268
1794	0.0906104
1806	0.0622403
1818	0.0555821
1830	0.0781623
1842	0.0770043
1854	0.0518187
1866	0.0639773
1878	0.0515292
1890	0.0605034
1902	0.0535556
1914	0.0683196
1926	0.0619509
1938	0.0515292
1950	0.0500818
1962	0.0474764
1974	0.0497923
1986	0.0480553
1998	0.0495028
2010	0.0489238
2022	0.0509502
2034	0.0457394
2046	0.0495028
2058	0.0466079
2070	0.0474764
2082	0.0486343
2094	0.0474764
2106	0.0471869
2118	0.0480553
2130	0.0474764
2142	0.0489238
2154	0.0489238
2166	0.0471869
2178	0.0486343
2190	0.0489238
2202	0.0471869
2214	0.0489238
2226	0.0474764
2238	0.0468974
2250	0.0477658
2262	0.0468974
2274	0.0477658
2286	0.0489238
2298	0.0468974
2310	0.0466079
2322	0.0468974
2334	0.0457394
2346	0.0489238
2358	0.0500818
2370	0.0466079
2382	0.0500818
2394	0.0529767
2406	0.0538451
2418	0.0538451
2430	0.0518187
2442	0.0492133
2454	0.0492133
2466	0.0489238
2478	0.0497923
2490	0.0509502
2502	0.0506607
2514	0.0500818
2526	0.0500818
2538	0.0495028
2550	0.0495028
2562	0.0497923
2574	0.0492133
2586	0.0509502
2598	0.0529767
2610	0.0532662
2622	0.0532662
2634	0.0532662
2646	0.0532662
2658	0.0558716
2670	0.057319
2682	0.059056
2694	0.0625298
2706	0.0622403
2718	0.0596349
2730	0.0570295
2742	0.0547136
2754	0.0555821
2766	0.0541346
2778	0.0526872
2790	0.0532662
2802	0.0538451
2814	0.0541346
2826	0.0564506
2838	0.0596349
2850	0.0651353
2862	0.0770043
2874	0.0940842
2886	0.101611
2898	0.109138
2910	0.114638
2922	0.11348
2934	0.129981
2946	0.131139
2958	0.0984266
2970	0.0810572
2982	0.0723725
2994	0.072083
3006	0.0819257
3018	0.0830836
3030	0.0778728
3042	0.0882944
3054	0.0975581
3066	0.0807677
3078	0.0738199
3090	0.0677407
3102	0.0616614
3114	0.058477
3126	0.0538451
3138	0.0521082
3150	0.0495028
3162	0.0489238
3174	0.0500818
3186	0.0492133
3198	0.0509502
3210	0.0515292
3222	0.0495028
3234	0.0497923
3246	0.0489238
3258	0.0477658
3270	0.0492133
3282	0.0489238
3294	0.0489238
3306	0.0492133
3318	0.0489238
3330	0.0486343
3342	0.0500818
3354	0.0486343
3366	0.0495028
3378	0.0500818
3390	0.0492133
3402	0.0506607
3414	0.0506607
3426	0.0486343
3438	0.0495028
3450	0.0500818
3462	0.0486343
3474	0.0495028
3486	0.0486343
3498	0.0477658
3510	0.0497923
3522	0.0474764
3534	0.0477658
3546	0.0495028
3558	0.0489238
3570	0.0477658
3582	0.0509502
3594	0.0468974
3606	0.0486343
3618	0.0489238
3630	0.0477658
3642	0.0506607
3654	0.0541346
3666	0.0480553
3678	0.0506607
3690	0.0521082
3702	0.0489238
3714	0.0509502
3726	0.0506607
3738	0.0509502
3750	0.0521082
3762	0.0506607
3774	0.0521082
3786	0.0529767
3798	0.0506607
3810	0.0495028
3822	0.0521082
3834	0.0495028
3846	0.0495028
3858	0.0521082
3870	0.0492133
3882	0.0486343
3894	0.0532662
3906	0.0497923
3918	0.0526872
3930	0.0532662
3942	0.0506607
3954	0.0535556
3966	0.0497923
