Infrared Spectrum: Benzene, 1-ethoxy-2-nitro-
Formula: C 8 H 9 N O 3
CAS: 610-67-3
Origin: Sadtler Research Labs Under US-EPA Contract
1/CM	ABSORBANCE
450	0.0019481
462	0.0185955
474	0.0285131
486	0.0118657
498	0.021252
510	0.0419727
522	0.0451605
534	0.0288673
546	0.0180642
558	0.0313467
570	0.0249711
582	0.0364826
594	0.0394933
606	0.0293986
618	0.0164703
630	0.0146993
642	0.0232001
654	0.103249
666	0.184538
678	0.0940401
690	0.0651728
702	0.0943943
714	0.0989989
726	0.107145
738	0.313467
750	0.497297
762	0.319665
774	0.184892
786	0.0834141
798	0.0648186
810	0.0494109
822	0.0368368
834	0.0575575
846	0.301778
858	0.327635
870	0.0658812
882	0.0378994
894	0.0660583
906	0.152129
918	0.168776
930	0.126272
942	0.0736736
954	0.0396704
966	0.0309925
978	0.0276276
990	0.040733
1002	0.0765072
1014	0.166297
1026	0.36766
1038	0.614006
1050	0.467013
1062	0.176746
1074	0.134242
1086	0.24245
1098	0.303904
1110	0.230584
1122	0.157796
1134	0.115823
1146	0.165766
1158	0.202425
1170	0.140263
1182	0.0541926
1194	0.0586201
1206	0.0807576
1218	0.145399
1230	0.335959
1242	0.769854
1254	1.01956
1266	0.869207
1278	0.940401
1290	0.764718
1302	0.465065
1314	0.306206
1326	0.202425
1338	0.261931
1350	0.658281
1362	1.10865
1374	0.521914
1386	0.248117
1398	0.31754
1410	0.187726
1422	0.112813
1434	0.106614
1446	0.167005
1458	0.232001
1470	0.383244
1482	0.647478
1494	0.698128
1506	0.501724
1518	0.537321
1530	0.8244
1542	1.56928
1554	1.53776
1566	0.639508
1578	0.456387
1590	0.584961
1602	0.919149
1614	0.900731
1626	0.2699
1638	0.097405
1650	0.0614537
1662	0.0446292
1674	0.0396704
1686	0.0320551
1698	0.0299299
1710	0.0233772
1722	0.0208978
1734	0.023023
1746	0.0187726
1758	0.0157619
1770	0.0154077
1782	0.0198352
1794	0.019481
1806	0.0175329
1818	0.0173558
1830	0.0145222
1842	0.0131054
1854	0.0115115
1866	0.0120428
1878	0.014168
1890	0.0166474
1902	0.0242627
1914	0.0256795
1926	0.0201894
1938	0.0272734
1950	0.0224917
1962	0.0113344
1974	0.0072611
1986	0.0047817
1998	0.005313
2010	0.0063756
2022	0.0086779
2034	0.010626
2046	0.0120428
2058	0.0132825
2070	0.0154077
2082	0.0154077
2094	0.0099176
2106	0.0060214
2118	0.0044275
2130	0.0044275
2142	0.0047817
2154	0.0037191
2166	0.0037191
2178	0.0028336
2190	0.0023023
2202	0.0021252
2214	0.001771
2226	0.001771
2238	0.0023023
2250	0.0024794
2262	0.0037191
2274	0.0046046
2286	0.0061985
2298	0.0074382
2310	0.0069069
2322	0.0085008
2334	0.0074382
2346	0.0054901
2358	0.0085008
2370	0.0077924
2382	0.0095634
2394	0.0125741
2406	0.0116886
2418	0.0100947
2430	0.007084
2442	0.0077924
2454	0.0079695
2466	0.0076153
2478	0.008855
2490	0.0109802
2502	0.012397
2514	0.0127512
2526	0.0125741
2538	0.0138138
2550	0.0148764
2562	0.015939
2574	0.0138138
2586	0.0097405
2598	0.0086779
2610	0.0077924
2622	0.0069069
2634	0.0065527
2646	0.007084
2658	0.0074382
2670	0.0074382
2682	0.0085008
2694	0.0102718
2706	0.0132825
2718	0.0157619
2730	0.0175329
2742	0.0191268
2754	0.0196581
2766	0.0187726
2778	0.0187726
2790	0.0180642
2802	0.0173558
2814	0.0205436
2826	0.0269192
2838	0.0341803
2850	0.0437437
2862	0.0614537
2874	0.0949256
2886	0.156911
2898	0.196758
2910	0.174798
2922	0.155848
2934	0.202602
2946	0.251128
2958	0.184892
2970	0.156379
2982	0.23696
2994	0.34198
3006	0.204019
3018	0.086779
3030	0.0609224
3042	0.0648186
3054	0.0630476
3066	0.0715484
3078	0.137607
3090	0.142565
3102	0.0485254
3114	0.0208978
3126	0.0125741
3138	0.0093863
3150	0.0081466
3162	0.0065527
3174	0.0065527
3186	0.0076153
3198	0.0069069
3210	0.0067298
3222	0.005313
3234	0.0058443
3246	0.0042504
3258	0.0046046
3270	0.0028336
3282	0.0033649
3294	0.0033649
3306	0.0038962
3318	0.0030107
3330	0.0037191
3342	0.003542
3354	0.003542
3366	0.0038962
3378	0.0031878
3390	0.0031878
3402	0.0046046
3414	0.0042504
3426	0.003542
3438	0.0031878
3450	0.0037191
3462	0.0033649
3474	0.0030107
3486	0.0042504
3498	0.003542
3510	0.0040733
3522	0.003542
3534	0.0040733
3546	0.0042504
3558	0.0049588
3570	0.003542
3582	0.0042504
3594	0.0040733
3606	0.0031878
3618	0.0023023
3630	0.0024794
3642	0.0044275
3654	0.0040733
3666	0.0040733
3678	0.003542
3690	0.0042504
3702	0.0051359
3714	0.003542
3726	0.0047817
3738	0.0042504
3750	0.0056672
3762	0.0061985
3774	0.0030107
3786	0.0063756
3798	0.0040733
3810	0.0063756
3822	0.0026565
3834	0.0049588
3846	0.005313
3858	0.0058443
3870	0.001771
3882	0.0065527
3894	0.005313
3906	0.0049588
3918	0.0067298
3930	0.0033649
3942	0.005313
3954	0.0061985
3966	0.0063756
