Infrared Spectrum: Methanone, (4-methoxyphenyl)phenyl-
Formula: C 14 H 12 O 2
CAS: 611-94-9
Origin: Sadtler Research Labs Under US-EPA Contract
1/CM	ABSORBANCE
450	0.0155475
462	0.0139807
474	0.0062672
486	0.0132575
498	0.0155475
510	0.0144628
522	0.00445935
534	0.00241046
546	0.00361569
558	0.0166322
570	0.00819556
582	0.00542354
594	0.0726754
606	0.198381
618	0.0335054
630	0.0216941
642	0.0112086
654	0.00349517
666	0.0147038
678	0.0560432
690	0.148725
702	0.230199
714	0.0483297
726	0.0292871
738	0.0894281
750	0.0453166
762	0.00903922
774	0.0110881
786	0.0451961
798	0.029046
810	0.0112086
822	0.0113292
834	0.0541148
846	0.126911
858	0.033867
870	0.00554406
882	0.00638772
894	0.0147038
906	0.0423036
918	0.176687
930	0.191391
942	0.133178
954	0.0295281
966	0.0151859
978	0.00554406
990	0.00855713
1002	0.0273587
1014	0.0302513
1026	0.0923206
1038	0.167889
1050	0.0855713
1062	0.0284434
1074	0.0218147
1086	0.0139807
1098	0.0180784
1110	0.0365185
1122	0.0347106
1134	0.0433883
1146	0.181026
1158	0.13137
1170	0.496073
1182	0.202599
1194	0.0530301
1206	0.0502581
1218	0.0748448
1230	0.163068
1242	0.498483
1254	1.20523
1266	0.607918
1278	0.642508
1290	0.346022
1302	0.413514
1314	0.301428
1326	0.126067
1338	0.0312155
1350	0.0173553
1362	0.0127754
1374	0.00964184
1386	0.00699033
1398	0.0089187
1410	0.0441114
1422	0.0462808
1434	0.0295281
1446	0.0929232
1458	0.0602615
1470	0.0824377
1482	0.0517044
1494	0.0818351
1506	0.268043
1518	0.0908743
1530	0.020971
1542	0.0219352
1554	0.0388084
1566	0.0752064
1578	0.166081
1590	0.297089
1602	0.562601
1614	0.360966
1626	0.0803888
1638	0.0442319
1650	0.054838
1662	0.118836
1674	0.487395
1686	0.321073
1698	0.068216
1710	0.0273587
1722	0.0221762
1734	0.0143422
1746	0.00711086
1758	0.00903922
1770	0.0139807
1782	0.0110881
1794	0.00831609
1806	0.0137396
1818	0.00976236
1830	0.00506197
1842	0.00554406
1854	0.00879818
1866	0.00879818
1878	0.010606
1890	0.0132575
1902	0.0162706
1914	0.0141012
1926	0.0100034
1938	0.00988289
1950	0.0132575
1962	0.015668
1974	0.0121728
1986	0.00650824
1998	0.0057851
2010	0.00554406
2022	0.00747243
2034	0.00952132
2046	0.015668
2058	0.0154269
2070	0.0142217
2082	0.0112086
2094	0.00771347
2106	0.00566458
2118	0.00361569
2130	0.00228994
2142	0.00168732
2154	0.00192837
2166	0.00265151
2178	0.00325412
2190	0.00445935
2202	0.00421831
2214	0.00373621
2226	0.00325412
2238	0.00253098
2250	0.00301308
2262	0.0031336
2274	0.00385674
2286	0.00590563
2298	0.00686981
2310	0.0062672
2322	0.00385674
2334	0.00132575
2346	0.00228994
2358	0.00590563
2370	0.00650824
2382	0.00590563
2394	0.00674929
2406	0.00831609
2418	0.00783399
2430	0.00566458
2442	0.00361569
2454	0.00361569
2466	0.0031336
2478	0.00337464
2490	0.00325412
2502	0.00409778
2514	0.00554406
2526	0.00566458
2538	0.00686981
2550	0.0109676
2562	0.0114497
2574	0.0073519
2586	0.0057851
2598	0.00530301
2610	0.00482092
2622	0.00361569
2634	0.00277203
2646	0.00180784
2658	0.00108471
2670	0.000361569
2682	0.000482092
2694	0
2706	0.000241046
2718	0.00108471
2730	0.00192837
2742	0.00373621
2754	0.0047004
2766	0.00349517
2778	0.0031336
2790	0.0031336
2802	0.00506197
2814	0.00711086
2826	0.0119318
2838	0.0282024
2850	0.0717112
2862	0.0269972
2874	0.015909
2886	0.0154269
2898	0.0192837
2910	0.0331438
2922	0.0413394
2934	0.0449551
2946	0.0790631
2958	0.0826788
2970	0.0659261
2982	0.0360364
2994	0.0325412
3006	0.0661671
3018	0.0895486
3030	0.0542354
3042	0.0658056
3054	0.0535122
3066	0.0941285
3078	0.114617
3090	0.0797862
3102	0.0482092
3114	0.0227788
3126	0.0116907
3138	0.0073519
3150	0.00674929
3162	0.00638772
3174	0.00325412
3186	0.00180784
3198	0.00120523
3210	0.000843661
3222	0.000723138
3234	0.000964184
3246	0.000723138
3258	0.000482092
3270	0.000602615
3282	0.000361569
3294	0.000241046
3306	0.000482092
3318	0.00132575
3330	0.0057851
3342	0.00638772
3354	0.00120523
3366	0.00132575
3378	0.0015668
3390	0.0015668
3402	0.00144628
3414	0.00192837
3426	0.00216941
3438	0.00265151
3450	0.00265151
3462	0.00265151
3474	0.00241046
3486	0.00265151
3498	0.00216941
3510	0.00265151
3522	0.00301308
3534	0.00228994
3546	0.00373621
3558	0.00385674
3570	0.0031336
3582	0.00301308
3594	0.00349517
3606	0.00241046
3618	0.00301308
3630	0.0031336
3642	0.00228994
3654	0.00253098
3666	0.00289255
3678	0.00433883
3690	0.00289255
3702	0.00325412
3714	0.00204889
3726	0.00421831
3738	0.00349517
3750	0.00289255
3762	0.00204889
3774	0.00409778
3786	0.00421831
3798	0.00168732
3810	0.00144628
3822	0.00228994
3834	0.0015668
3846	0.00289255
3858	0.00337464
3870	0.00325412
3882	0.00301308
3894	0.00301308
3906	0.00482092
3918	0.00216941
3930	0.00373621
3942	0.00253098
3954	0.00385674
3966	0.00277203
