Infrared Spectrum: N-Methyl-O-toluidine
Formula: C 8 H 11 N
CAS: 611-21-2
Origin: Sadtler Research Labs Under US-EPA Contract
1/CM	ABSORBANCE
450	0
462	0.0983021
474	0.180765
486	0.16434
498	0.122354
510	0.0981345
522	0.0995592
534	0.0849773
546	0.0975479
558	0.123192
570	0.126376
582	0.114476
594	0.0972964
606	0.1009
618	0.120426
630	0.118247
642	0.116152
654	0.113638
666	0.108275
678	0.110454
690	0.109029
702	0.145903
714	0.254513
726	0.263731
738	0.396477
750	0.441479
762	0.231048
774	0.109197
786	0.0909273
798	0.0883294
810	0.0920168
822	0.100146
834	0.0931062
846	0.0819603
858	0.0781053
870	0.0776025
882	0.0764292
894	0.0751722
906	0.0785243
918	0.0891675
930	0.0830498
942	0.0778539
954	0.0777701
966	0.0839716
978	0.107437
990	0.109616
1002	0.0888322
1014	0.0817089
1026	0.0910949
1038	0.137774
1050	0.153361
1062	0.139115
1074	0.125371
1086	0.0916816
1098	0.104001
1110	0.11389
1122	0.100313
1134	0.0951175
1146	0.118499
1158	0.208756
1170	0.233059
1182	0.138947
1194	0.105928
1206	0.099643
1218	0.0952851
1230	0.10266
1242	0.144059
1254	0.314516
1266	0.385917
1278	0.223757
1290	0.229288
1302	0.381643
1314	0.4243
1326	0.260547
1338	0.125455
1350	0.0961232
1362	0.0945309
1374	0.115985
1386	0.124952
1398	0.103163
1410	0.101822
1422	0.157468
1434	0.207247
1446	0.220237
1458	0.246132
1470	0.338065
1482	0.393208
1494	0.366391
1506	0.62015
1518	0.830414
1530	0.435529
1542	0.146238
1554	0.121181
1566	0.122354
1578	0.206325
1590	0.337563
1602	0.471314
1614	0.47123
1626	0.214706
1638	0.10618
1650	0.0945309
1662	0.0968774
1674	0.0902569
1686	0.0956204
1698	0.110202
1710	0.0982183
1722	0.0857315
1734	0.078692
1746	0.0886646
1758	0.0898379
1770	0.0805356
1782	0.0815413
1794	0.0837202
1806	0.0813737
1818	0.0778539
1830	0.0787758
1842	0.0796138
1854	0.0783567
1866	0.0866533
1878	0.092771
1890	0.0822117
1902	0.0818765
1914	0.0881618
1926	0.0836364
1938	0.0761778
1950	0.0754236
1962	0.0740827
1974	0.0735799
1986	0.0743341
1998	0.0742503
2010	0.0746694
2022	0.0728257
2034	0.0724067
2046	0.0726581
2058	0.0734961
2070	0.0739989
2082	0.0745856
2094	0.0745856
2106	0.075256
2118	0.0753398
2130	0.0754236
2142	0.0757588
2154	0.0737475
2166	0.0725743
2178	0.0725743
2190	0.0728257
2202	0.0735799
2214	0.0740827
2226	0.0745856
2238	0.0735799
2250	0.0738313
2262	0.0742503
2274	0.0740827
2286	0.0736637
2298	0.0734961
2310	0.0754236
2322	0.0758426
2334	0.0745018
2346	0.0739151
2358	0.0764292
2370	0.07182
2382	0.07182
2394	0.07182
2406	0.0734123
2418	0.075256
2430	0.0750884
2442	0.0735799
2454	0.0726581
2466	0.0727419
2478	0.0734961
2490	0.0726581
2502	0.0721552
2514	0.0726581
2526	0.0734961
2538	0.0745018
2550	0.0780215
2562	0.0820441
2574	0.084223
2586	0.0825469
2598	0.0806194
2610	0.0800328
2622	0.0785243
2634	0.0763454
2646	0.075256
2658	0.0745018
2670	0.0755912
2682	0.0770159
2694	0.0765969
2706	0.0778539
2718	0.079949
2730	0.0874076
2742	0.0961232
2754	0.0942795
2766	0.0909273
2778	0.0945309
2790	0.102911
2802	0.126879
2814	0.193839
2826	0.255518
2838	0.206744
2850	0.164088
2862	0.226103
2874	0.288286
2886	0.324321
2898	0.358597
2910	0.382062
2922	0.412651
2934	0.384912
2946	0.327422
2958	0.277391
2970	0.300102
2982	0.355916
2994	0.273452
3006	0.171547
3018	0.222081
3030	0.253842
3042	0.218896
3054	0.239093
3066	0.273955
3078	0.263815
3090	0.208421
3102	0.1454
3114	0.114644
3126	0.101068
3138	0.0921844
3150	0.0845582
3162	0.0807033
3174	0.0796976
3186	0.0796138
3198	0.0796976
3210	0.0770159
3222	0.0765969
3234	0.0761778
3246	0.0734961
3258	0.074837
3270	0.0755074
3282	0.0734123
3294	0.0746694
3306	0.0742503
3318	0.0735799
3330	0.0753398
3342	0.0743341
3354	0.0738313
3366	0.0750884
3378	0.0741665
3390	0.076094
3402	0.0753398
3414	0.0765131
3426	0.0779377
3438	0.0831336
3450	0.107437
3462	0.149004
3474	0.143221
3486	0.100565
3498	0.0841392
3510	0.0782729
3522	0.0765131
3534	0.0784405
3546	0.0765131
3558	0.0766807
3570	0.0790272
3582	0.0787758
3594	0.0784405
3606	0.076094
3618	0.0784405
3630	0.0797814
3642	0.0761778
3654	0.0796138
3666	0.0779377
3678	0.0779377
3690	0.075675
3702	0.0762616
3714	0.0800328
3726	0.0786082
3738	0.074418
3750	0.0771835
3762	0.0797814
3774	0.0764292
3786	0.0775187
3798	0.0814575
3810	0.0766807
3822	0.0769321
3834	0.0760102
3846	0.0781053
3858	0.07953
3870	0.0843906
3882	0.0770997
3894	0.0765969
3906	0.0802842
3918	0.0760102
3930	0.0755912
3942	0.0777701
3954	0.0807033
3966	0.0828822
