Infrared Spectrum: Benzonitrile, 2-hydroxy-
Formula: C 7 H 5 N O
CAS: 611-20-1
Origin: Sadtler Research Labs Under US-EPA Contract
1/CM	ABSORBANCE
450	0.077842
462	0.0382311
474	0.0841327
486	0.113192
498	0.0459422
510	0.0213071
522	0.0286936
534	0.0684669
546	0.0452523
558	0.0392457
570	0.0174921
582	0.0208201
594	0.0308852
606	0.0272325
618	0.0232146
630	0.0234175
642	0.0203737
654	0.0185068
666	0.0141236
678	0.0185879
690	0.029343
702	0.0372976
714	0.0632314
726	0.0730124
738	0.135594
750	0.274273
762	0.197446
774	0.095253
786	0.0259744
798	0.0194402
810	0.01526
822	0.0175327
834	0.0491079
846	0.0545057
858	0.0502036
870	0.0232146
882	0.0219159
894	0.0144077
906	0.0159905
918	0.0137583
930	0.0195214
942	0.0290589
954	0.0262991
966	0.0209824
978	0.0151382
990	0.0125002
1002	0.0103898
1014	0.0207795
1026	0.0456175
1038	0.0424519
1050	0.0147729
1062	0.00994332
1074	0.0198055
1086	0.0394486
1098	0.0364047
1110	0.0258932
1122	0.0336856
1134	0.0499601
1146	0.110513
1158	0.114084
1170	0.114084
1182	0.134986
1194	0.157186
1206	0.260069
1218	0.370095
1230	0.311652
1242	0.198582
1254	0.134012
1266	0.0912351
1278	0.0571843
1290	0.123338
1302	0.153614
1314	0.105399
1326	0.0838892
1338	0.102315
1350	0.102355
1362	0.046551
1374	0.0307228
1386	0.028166
1398	0.0286936
1410	0.0262991
1422	0.0256903
1434	0.0313316
1446	0.0596194
1458	0.111203
1470	0.163476
1482	0.312748
1494	0.312302
1506	0.11936
1518	0.0375005
1530	0.0258932
1542	0.0302358
1554	0.043913
1566	0.0961053
1578	0.134499
1590	0.136203
1602	0.127518
1614	0.148703
1626	0.111284
1638	0.0370947
1650	0.0219565
1662	0.0245945
1674	0.0399762
1686	0.0478091
1698	0.0362018
1710	0.023377
1722	0.0252033
1734	0.0317375
1746	0.0214289
1758	0.0170863
1770	0.0191561
1782	0.0181821
1794	0.0216724
1806	0.0198055
1818	0.0142047
1830	0.0148947
1842	0.0153817
1854	0.0123784
1866	0.0127437
1878	0.014083
1890	0.0147324
1902	0.0151788
1914	0.0182227
1926	0.0164369
1938	0.0155035
1950	0.0165993
1962	0.0125813
1974	0.00803583
1986	0.00921279
1998	0.00746764
2010	0.00848226
2022	0.0104709
2034	0.0101462
2046	0.00937513
2058	0.00795466
2070	0.0105115
2082	0.00978098
2094	0.0103086
2106	0.00998391
2118	0.00872577
2130	0.00868519
2142	0.00900987
2154	0.00722413
2166	0.00746764
2178	0.00860402
2190	0.00896929
2202	0.0168022
2214	0.0480932
2226	0.072566
2238	0.0466727
2250	0.0136771
2262	0.0105521
2274	0.0103492
2286	0.00929396
2298	0.0102274
2310	0.0122567
2322	0.0133525
2334	0.0160717
2346	0.0198461
2358	0.00909104
2370	0.0148541
2382	0.0127843
2394	0.00787349
2406	0.00982157
2418	0.0086446
2430	0.00888812
2442	0.00905045
2454	0.0097404
2466	0.0103086
2478	0.00953748
2490	0.0089287
2502	0.0101057
2514	0.0115261
2526	0.0105521
2538	0.0105115
2550	0.00986215
2562	0.00779232
2574	0.00722413
2586	0.00718354
2598	0.00767056
2610	0.00742706
2622	0.0070212
2634	0.00677769
2646	0.00616892
2658	0.00637185
2670	0.00718354
2682	0.00880695
2694	0.00994332
2706	0.0100245
2718	0.00953748
2730	0.0105115
2742	0.00831992
2754	0.0062095
2766	0.00726471
2778	0.00677769
2790	0.00600658
2802	0.00564132
2814	0.00600658
2826	0.00629067
2838	0.00556014
2850	0.00523546
2862	0.00499196
2874	0.00531664
2886	0.00430201
2898	0.00446435
2910	0.00434259
2922	0.00551956
2934	0.00762998
2946	0.00775174
2958	0.00576307
2970	0.00629067
2982	0.00754881
2994	0.0086446
3006	0.00957806
3018	0.0135554
3030	0.0187503
3042	0.0239046
3054	0.0327115
3066	0.0408691
3078	0.0439536
3090	0.0461046
3102	0.0358771
3114	0.0215912
3126	0.0138801
3138	0.0129872
3150	0.0138801
3162	0.0138395
3174	0.0159499
3186	0.015057
3198	0.0159905
3210	0.0146512
3222	0.0137583
3234	0.0148947
3246	0.0153411
3258	0.0149759
3270	0.0147324
3282	0.0138801
3294	0.014083
3306	0.0145294
3318	0.0136771
3330	0.015747
3342	0.0142453
3354	0.0163558
3366	0.0152194
3378	0.01526
3390	0.020536
3402	0.0138395
3414	0.00714296
3426	0.0108768
3438	0.0216724
3450	0.0232552
3462	0.0206984
3474	0.0148541
3486	0.0139207
3498	0.0148541
3510	0.0165587
3522	0.017208
3534	0.0182632
3546	0.020049
3558	0.0260962
3570	0.0756504
3582	0.267617
3594	0.270296
3606	0.0599035
3618	0.0265832
3630	0.0251221
3642	0.0436695
3654	0.0406662
3666	0.0311287
3678	0.0195214
3690	0.0201302
3702	0.0239046
3714	0.0245133
3726	0.0287342
3738	0.0270702
3750	0.0463887
3762	0.065423
3774	0.0472815
3786	0.0243916
3798	0.0302358
3810	0.0300735
3822	0.0335232
3834	0.0324274
3846	0.026989
3858	0.0271514
3870	0.0280848
3882	0.0307228
3894	0.0303982
3906	0.0316969
3918	0.0295865
3930	0.0311693
3942	0.0303576
3954	0.0301141
3966	0.032955
