Infrared Spectrum: Benzamide, N,N-dimethyl-
Formula: C 9 H 11 N O
CAS: 611-74-5
Origin: Sadtler Research Labs Under US-EPA Contract
1/CM	ABSORBANCE
450	0.0687492
462	0.00976069
474	0.0169751
486	0.012307
498	0.0362843
510	0.0152776
522	0.00891194
534	0.026948
546	0.066203
558	0.0734174
570	0.0244017
582	0.0148532
594	0.0197336
606	0.0197336
618	0.0237652
630	0.104821
642	0.131769
654	0.0375575
666	0.0456206
678	0.0859365
690	0.231498
702	0.444536
714	0.414829
726	0.191182
738	0.159778
750	0.12795
762	0.106731
774	0.118189
786	0.150654
798	0.0855122
810	0.0335259
822	0.0207945
834	0.0173995
846	0.0195214
858	0.0171873
870	0.0180361
882	0.0184604
894	0.0239774
906	0.034799
918	0.0496522
930	0.0509254
942	0.0294943
954	0.0250383
966	0.030343
978	0.0343746
990	0.038194
1002	0.04944
1014	0.099941
1026	0.248261
1038	0.181209
1050	0.215584
1062	0.493552
1074	0.738206
1086	0.426712
1098	0.146198
1110	0.080844
1122	0.0553813
1134	0.0647176
1146	0.0649298
1158	0.0679005
1170	0.074054
1182	0.0831781
1194	0.0867853
1206	0.172722
1218	0.250595
1230	0.177602
1242	0.145562
1254	0.238925
1266	0.410586
1278	0.301521
1290	0.122433
1302	0.0853
1314	0.0891194
1326	0.107368
1338	0.153837
1350	0.245927
1362	0.509254
1374	1.06604
1386	1.53964
1398	0.833691
1410	0.335683
1422	0.185029
1434	0.230862
1446	0.423105
1458	0.410798
1470	0.299611
1482	0.298974
1494	0.328681
1506	0.306613
1518	0.186302
1530	0.136862
1542	0.134528
1554	0.142379
1566	0.146623
1578	0.147259
1590	0.118401
1602	0.122433
1614	0.13474
1626	0.164022
1638	0.241259
1650	0.420983
1662	1.09956
1674	1.95787
1686	1.43185
1698	0.393186
1710	0.157232
1722	0.0927266
1734	0.0719321
1746	0.0511375
1758	0.0430744
1770	0.0475303
1782	0.04265
1794	0.0407403
1806	0.0401037
1818	0.0203701
1830	0.0165507
1842	0.0131557
1854	0.00806318
1866	0.012307
1878	0.0167629
1890	0.0218555
1902	0.0163386
1914	0.0125192
1926	0.00785099
1938	0.0169751
1950	0.0246139
1962	0.019097
1974	0.0101851
1986	0.00509254
1998	0.00509254
2010	0.0038194
2022	0.00488035
2034	0.00403159
2046	0.0038194
2058	0.00339502
2070	0.00488035
2082	0.00700224
2094	0.00954851
2106	0.00912413
2118	0.00657786
2130	0.0057291
2142	0.00551691
2154	0.00318284
2166	0.00318284
2178	0.00297065
2190	0.00318284
2202	0.00233408
2214	0.00169751
2226	0.00127313
2238	0.000848756
2250	0.000848756
2262	0.000424378
2274	0.000848756
2286	0.00169751
2298	0.00233408
2310	0.00488035
2322	0.00679005
2334	0.00530472
2346	0.00297065
2358	0.00254627
2370	0.00275846
2382	0.00360721
2394	0.0038194
2406	0.00339502
2418	0.00339502
2430	0.00339502
2442	0.00275846
2454	0.00318284
2466	0.00254627
2478	0.00169751
2490	0.00148532
2502	0.00169751
2514	0.00212189
2526	0.00275846
2538	0.00254627
2550	0.00254627
2562	0.00297065
2574	0.00339502
2586	0.00275846
2598	0.00297065
2610	0.00339502
2622	0.00403159
2634	0.00424378
2646	0.00403159
2658	0.0038194
2670	0.00403159
2682	0.00445597
2694	0.00551691
2706	0.00700224
2718	0.00806318
2730	0.0103973
2742	0.0135801
2754	0.0171873
2766	0.0220677
2778	0.0290699
2790	0.0409525
2802	0.0649298
2814	0.0874219
2826	0.0937875
2838	0.104821
2850	0.134528
2862	0.185878
2874	0.209431
2886	0.23362
2898	0.27627
2910	0.338017
2922	0.431168
2934	0.495249
2946	0.418225
2958	0.266934
2970	0.157656
2982	0.101426
2994	0.0782977
3006	0.080844
3018	0.121584
3030	0.178663
3042	0.179512
3054	0.145349
3066	0.239561
3078	0.257385
3090	0.158717
3102	0.0948485
3114	0.0481669
3126	0.0212189
3138	0.0142167
3150	0.0114582
3162	0.00976069
3174	0.00509254
3186	0.00275846
3198	0.00148532
3210	0.000424378
3222	0.000848756
3234	0.000212189
3246	0.000848756
3258	0.00127313
3270	0.00169751
3282	0.00233408
3294	0.00445597
3306	0.00848756
3318	0.015702
3330	0.0218555
3342	0.0167629
3354	0.00721443
3366	0.00318284
3378	0.00212189
3390	0.00275846
3402	0.00127313
3414	0.00106094
3426	0.00169751
3438	0.00106094
3450	0.00212189
3462	0.00106094
3474	0.00127313
3486	0.0019097
3498	0.000424378
3510	0.00148532
3522	0.00169751
3534	0.000212189
3546	0.00148532
3558	0.00254627
3570	0.00169751
3582	0.0019097
3594	0.000636567
3606	0.00212189
3618	0.00212189
3630	0.00148532
3642	0.00297065
3654	0.00169751
3666	0.00318284
3678	0.000848756
3690	0.00148532
3702	0.00339502
3714	0.00339502
3726	0.00148532
3738	0
3750	0
3762	0.00106094
3774	0.000424378
3786	0.00127313
3798	0.00318284
3810	0.00233408
3822	0.000212189
3834	0
3846	0.000424378
3858	0
3870	0.000636567
3882	0.00360721
3894	0.000212189
3906	0
3918	0.00148532
3930	0
3942	0.00127313
3954	0.00339502
3966	0.00339502
