Infrared Spectrum: Quinoline, 8-methyl-
Formula: C 10 H 9 N
CAS: 611-32-5
Origin: Sadtler Research Labs Under US-EPA Contract
1/CM	ABSORBANCE
450	0.00189546
462	0.0040617
474	0.0132141
486	0.017709
498	0.000162468
510	0.00449495
522	0.0126725
534	0.0155969
546	0.0152178
558	0.0358513
570	0.0428374
582	0.00649872
594	0.00465742
606	0.00904405
618	0.0112103
630	0.00698612
642	0.00465742
654	0.00341183
666	0.00465742
678	0.0147304
690	0.0366636
702	0.019442
714	0.00606547
726	0.00969392
738	0.0357971
750	0.0872453
762	0.0623877
774	0.229351
786	0.54156
798	0.273759
810	0.176765
822	0.176278
834	0.0758726
846	0.0176007
858	0.0244785
870	0.0355263
882	0.0173299
894	0.00714859
906	0.00850249
918	0.0094773
930	0.00633625
942	0.0072569
954	0.0115894
966	0.0221498
978	0.0261573
990	0.0139722
1002	0.00871912
1014	0.0190629
1026	0.0297858
1038	0.023937
1050	0.0174924
1062	0.0496069
1074	0.0955312
1086	0.0500401
1098	0.0175465
1110	0.0123476
1122	0.0375843
1134	0.0421875
1146	0.0180881
1158	0.0246951
1170	0.0224206
1182	0.00958561
1194	0.00985639
1206	0.0122393
1218	0.0138639
1230	0.0181964
1242	0.0206876
1254	0.0176549
1266	0.01251
1278	0.0100189
1290	0.0115352
1302	0.0257241
1314	0.043054
1326	0.0248576
1338	0.0324394
1350	0.0563222
1362	0.0973183
1374	0.117898
1386	0.104034
1398	0.0771723
1410	0.0246951
1422	0.0425666
1434	0.0549142
1446	0.048957
1458	0.0702403
1470	0.0881118
1482	0.106471
1494	0.238774
1506	0.219169
1518	0.0599507
1530	0.03401
1542	0.0291901
1554	0.03818
1566	0.0621169
1578	0.0845917
1590	0.0860539
1602	0.0972642
1614	0.0791761
1626	0.0554557
1638	0.0296775
1650	0.0170591
1662	0.00834002
1674	0.00915236
1686	0.0116435
1698	0.0130516
1710	0.0199294
1722	0.0168967
1734	0.0133765
1746	0.0146221
1758	0.0161926
1770	0.015976
1782	0.0187921
1794	0.0123476
1806	0.00519898
1818	0.00584885
1830	0.00796093
1842	0.0142972
1854	0.0178715
1866	0.0126725
1878	0.0177632
1890	0.018413
1902	0.014568
1914	0.0269155
1926	0.033685
1938	0.0282153
1950	0.0156511
1962	0.00525313
1974	0.00303274
1986	0.00265364
1998	0.00373676
2010	0.0031952
2022	0.00200377
2034	0.00211208
2046	0.00314105
2058	0.00362845
2070	0.00265364
2082	0.0035743
2094	0.00411586
2106	0.00417001
2118	0.00373676
2130	0.0031952
2142	0.0031952
2154	0.00341183
2166	0.00341183
2178	0.00276196
2190	0.00276196
2202	0.00330352
2214	0.00281611
2226	0.00287027
2238	0.00433248
2250	0.00655288
2262	0.00790678
2274	0.00704028
2286	0.00671534
2298	0.00568638
2310	0.005903
2322	0.00720275
2334	0.00595716
2346	0.00411586
2358	0.00666119
2370	0.00189546
2382	0.00297858
2394	0.00352014
2406	0.0035743
2418	0.00460326
2430	0.00444079
2442	0.00465742
2454	0.00476573
2466	0.00314105
2478	0.00314105
2490	0.00324936
2502	0.00324936
2514	0.00276196
2526	0.00216624
2538	0.00227455
2550	0.00227455
2562	0.00081234
2574	0.000379092
2586	0.000866496
2598	0.00113728
2610	0.00189546
2622	0.00297858
2634	0.00249118
2646	0.00146221
2658	0.00346598
2670	0.00308689
2682	0.000974808
2694	5.4156e-05
2706	0.000324936
2718	0.000649872
2730	0.00167884
2742	0.00308689
2754	0.000974808
2766	0.000108312
2778	0.000595716
2790	0.00173299
2802	0.00379092
2814	0.005903
2826	0.00920652
2838	0.0151095
2850	0.0292984
2862	0.0402379
2874	0.0363928
2886	0.034714
2898	0.0433248
2910	0.0570263
2922	0.0872453
2934	0.161331
2946	0.140372
2958	0.0850791
2970	0.0997554
2982	0.108474
2994	0.0917944
3006	0.111182
3018	0.162847
3030	0.197507
3042	0.268451
3054	0.304357
3066	0.271863
3078	0.204493
3090	0.118277
3102	0.0632542
3114	0.0327644
3126	0.00974808
3138	0.00709444
3150	0.00649872
3162	0.00704028
3174	0.00796093
3186	0.00958561
3198	0.011102
3210	0.00974808
3222	0.00823171
3234	0.00877327
3246	0.00720275
3258	0.00633625
3270	0.00622794
3282	0.00584885
3294	0.00536144
3306	0.00660703
3318	0.00736522
3330	0.00796093
3342	0.00958561
3354	0.0094773
3366	0.00915236
3378	0.00752768
3390	0.00698612
3402	0.00519898
3414	0.00411586
3426	0.00346598
3438	0.00352014
3450	0.00395339
3462	0.00346598
3474	0.00379092
3486	0.00254533
3498	0.00362845
3510	0.00346598
3522	0.00227455
3534	0.00276196
3546	0.0040617
3558	0.00216624
3570	0.00509066
3582	0.0031952
3594	0.00324936
3606	0.00438664
3618	0.00373676
3630	0.00579469
3642	0.00395339
3654	0.00373676
3666	0.00346598
3678	0.00027078
3690	0.000866496
3702	0.000433248
3714	5.4156e-05
3726	0.000379092
3738	0.00124559
3750	5.4156e-05
3762	0.00081234
3774	0.000108312
3786	0.000487404
3798	0.00119143
3810	0.00162468
3822	0.00276196
3834	0.00146221
3846	0.000379092
3858	0.00211208
3870	0.00249118
3882	0.00194962
3894	0.00124559
3906	0.000379092
3918	0.00167884
3930	0.00341183
3942	0.00227455
3954	5.4156e-05
3966	0.00081234
