Infrared Spectrum: Benzene, 1-chloro-2-(chloromethyl)-
Formula: C 7 H 6 Cl 2
CAS: 611-19-8
Origin: Sadtler Research Labs Under US-EPA Contract
1/CM	ABSORBANCE
450	0.0119804
462	0.00783902
474	0.00192278
486	0.0097618
498	0.00732135
510	0.00924413
522	0.00643391
534	7.3953e-05
546	0.00658182
558	0.0136074
570	0.0695898
582	0.0619726
594	0.0086525
606	0.00473299
618	0.00724739
630	0.00732135
642	0.00872645
654	0.0238868
666	0.117363
678	0.23665
690	0.256765
702	0.174011
714	0.081792
726	0.242862
738	0.73953
750	0.497334
762	0.176452
774	0.0394169
786	0.0147906
798	0.0129418
810	0.0461467
822	0.167725
834	0.0766893
846	0.0179706
858	0.0184143
870	0.0101316
882	0.00828274
894	0.0163436
906	0.0218901
918	0.0121283
930	0.00746925
942	0.0161218
954	0.0145687
966	0.00591624
978	0.00406742
990	0.00828274
1002	0.0195975
1014	0.0281761
1026	0.0603456
1038	0.189837
1050	0.301654
1062	0.253881
1074	0.0397128
1086	0.00917017
1098	0.0150125
1110	0.0309124
1122	0.104274
1134	0.0977659
1146	0.0277324
1158	0.0177487
1170	0.0158999
1182	0.017379
1194	0.0228515
1206	0.033057
1218	0.0288417
1230	0.0184143
1242	0.0255877
1254	0.0647828
1266	0.152639
1278	0.189172
1290	0.133485
1302	0.0599019
1314	0.0190059
1326	0.00680368
1338	0.00680368
1350	0.00510276
1362	0.00917017
1374	0.00880041
1386	0.00732135
1398	0.0122762
1410	0.023591
1422	0.0366807
1434	0.10346
1446	0.27407
1458	0.192352
1470	0.178596
1482	0.208326
1494	0.101759
1506	0.0270668
1518	0.0107232
1530	0.00709949
1542	0.00717344
1554	0.0116846
1566	0.0324654
1578	0.0731395
1590	0.0731395
1602	0.0554648
1614	0.0176748
1626	0.0122022
1638	0.006286
1650	0.00584229
1662	0.00436323
1674	0.00813483
1686	0.00968784
1698	0.0134594
1710	0.0153083
1722	0.0134594
1734	0.00983575
1746	0.00665577
1758	0.00495485
1770	0.00665577
1782	0.00569438
1794	0.0148646
1806	0.0177487
1818	0.00835669
1830	0.0105753
1842	0.00887436
1854	0.00347579
1866	0.00369765
1878	0.00562043
1890	0.00746925
1902	0.00732135
1914	0.0176748
1926	0.0156041
1938	0.00946598
1950	0.015678
1962	0.00746925
1974	0.00103534
1986	0.000295812
1998	0.000813483
2010	0.000813483
2022	0.00170092
2034	0.00229254
2046	0.0012572
2058	0.00118325
2070	0.00207068
2082	0.00110929
2094	0.000221859
2106	0.000295812
2118	0
2130	0.000517671
2142	0.00110929
2154	0.000665577
2166	0.000591624
2178	0.00170092
2190	0.000517671
2202	0.000813483
2214	0.000961389
2226	0.000443718
2238	0.000665577
2250	0.00177487
2262	0.00229254
2274	0.00192278
2286	0.00303207
2298	0.00310603
2310	0.00325393
2322	0.00776506
2334	0.00650786
2346	0.0048809
2358	0.00414137
2370	0.00192278
2382	0.00103534
2394	0.00199673
2406	0.00192278
2418	0.00162697
2430	0.0025144
2442	0.0023665
2454	0.00103534
2466	0.00147906
2478	0.00207068
2490	0.00162697
2502	0.00192278
2514	0.00184883
2526	0.00147906
2538	0.00229254
2550	0.00192278
2562	0.00184883
2574	0.00295812
2586	0.00325393
2598	0.00207068
2610	0.00303207
2622	0.00325393
2634	0.00295812
2646	0.0036237
2658	0.00347579
2670	0.00184883
2682	0.00133115
2694	0.00310603
2706	0.00406742
2718	0.00473299
2730	0.00414137
2742	0.00340184
2754	0.00295812
2766	0.00288417
2778	0.00266231
2790	0.00221859
2802	0.0025144
2814	0.00192278
2826	0.00207068
2838	0.00451113
2850	0.00532462
2862	0.00621205
2874	0.0113148
2886	0.0139771
2898	0.00769111
2910	0.00562043
2922	0.00525066
2934	0.00621205
2946	0.0120543
2958	0.0233691
2970	0.0474778
2982	0.0776507
2994	0.0403044
3006	0.0177487
3018	0.0272147
3030	0.0498443
3042	0.036163
3054	0.0323175
3066	0.0909622
3078	0.17549
3090	0.114183
3102	0.0357933
3114	0.00931808
3126	0.00599019
3138	0.00806088
3150	0.00983575
3162	0.00769111
3174	0.00480694
3186	0.00288417
3198	0.00317998
3210	0.00414137
3222	0.00281021
3234	0.00354974
3246	0.00332789
3258	0.00266231
3270	0.00295812
3282	0.00340184
3294	0.00199673
3306	0.00295812
3318	0.00473299
3330	0.00310603
3342	0.00340184
3354	0.00473299
3366	0.00317998
3378	0.00325393
3390	0.00525066
3402	0.00369765
3414	0.00258836
3426	0.00384556
3438	0.00340184
3450	0.00288417
3462	0.00421532
3474	0.0037716
3486	0.00317998
3498	0.00332789
3510	0.0036237
3522	0.00347579
3534	0.00414137
3546	0.00391951
3558	0.00369765
3570	0.00510276
3582	0.0048809
3594	0.00281021
3606	0.00576833
3618	0.00221859
3630	0.0037716
3642	0.00473299
3654	0.00428927
3666	0.00258836
3678	0.00451113
3690	0.00436323
3702	0.00221859
3714	0.0037716
3726	0.00517671
3738	0.00229254
3750	0.00436323
3762	0.00391951
3774	0.00443718
3786	0.00480694
3798	0.00414137
3810	0.0050288
3822	0.00406742
3834	0.0036237
3846	0.00258836
3858	0.00317998
3870	0.00421532
3882	0.00495485
3894	0.00606415
3906	0.00547252
3918	0.00473299
3930	0.00517671
3942	0.00465904
3954	0.00317998
3966	0.00288417
