Infrared Spectrum: Methyl 2-furoate
Formula: C 6 H 6 O 3
CAS: 611-13-2
Origin: Sadtler Research Labs Under US-EPA Contract
1/CM	ABSORBANCE
450	0
462	0.0064463
474	0.0167604
486	0.0232067
498	0.0148265
510	0.0108666
522	0.0169446
534	0.0137214
546	0.0156553
558	0.0123401
570	0.0198914
582	0.0295609
594	0.051202
606	0.0455845
618	0.0510179
630	0.0407038
642	0.0312185
654	0.0279033
666	0.0271665
678	0.0300213
690	0.0359151
702	0.0299292
714	0.0293767
726	0.0444795
738	0.12119
750	0.27185
762	0.248275
774	0.139701
786	0.103417
798	0.0845386
810	0.0489919
822	0.0434665
834	0.0502811
846	0.0396908
858	0.0402433
870	0.0512941
882	0.0794737
894	0.0929188
906	0.0802104
918	0.0806708
930	0.0455845
942	0.0395066
954	0.0473343
966	0.0721065
978	0.10047
990	0.109495
1002	0.10268
1014	0.108114
1026	0.0766189
1038	0.0443874
1050	0.0420851
1062	0.0507416
1074	0.09826
1086	0.1141
1098	0.103878
1110	0.263838
1122	0.523532
1134	0.354086
1146	0.108114
1158	0.123493
1170	0.333182
1182	0.368728
1194	0.308041
1206	0.207387
1218	0.0977996
1230	0.171656
1242	0.138872
1254	0.0626212
1266	0.108574
1278	0.228844
1290	0.665719
1302	0.9209
1314	0.360072
1326	0.0789211
1338	0.0475184
1350	0.0424535
1362	0.0442032
1374	0.0528597
1386	0.0906166
1398	0.0966024
1410	0.0493602
1422	0.0422693
1434	0.106732
1446	0.138964
1458	0.074685
1470	0.119164
1482	0.216411
1494	0.170182
1506	0.0545173
1518	0.0332445
1530	0.0301134
1542	0.0265219
1554	0.0370202
1566	0.0813155
1578	0.166775
1590	0.159132
1602	0.0539647
1614	0.0347179
1626	0.0338891
1638	0.0300213
1650	0.027627
1662	0.0339812
1674	0.0393224
1686	0.0422693
1698	0.0500049
1710	0.0594901
1722	0.101852
1734	0.305278
1746	0.553369
1758	0.642512
1770	0.486972
1782	0.175339
1794	0.0708172
1806	0.0486235
1818	0.0497286
1830	0.0407959
1842	0.0244038
1854	0.0197073
1866	0.0205361
1878	0.0211807
1890	0.0215491
1902	0.0209965
1914	0.019431
1926	0.0185101
1938	0.0162999
1950	0.0159316
1962	0.0167604
1974	0.0176813
1986	0.0169446
1998	0.0149186
2010	0.012248
2022	0.0129847
2034	0.013261
2046	0.0129847
2058	0.0125242
2070	0.0131689
2082	0.0161157
2094	0.0198914
2106	0.0178655
2118	0.0137214
2130	0.0115112
2142	0.0108666
2154	0.0108666
2166	0.010222
2178	0.00994572
2190	0.0106824
2202	0.0117875
2214	0.0121559
2226	0.0106824
2238	0.00994572
2250	0.00966945
2262	0.009209
2274	0.00957736
2286	0.00966945
2298	0.0107745
2310	0.0116033
2322	0.0111429
2334	0.0115112
2346	0.0111429
2358	0.0105904
2370	0.0119717
2382	0.00985363
2394	0.00884064
2406	0.00976154
2418	0.00902482
2430	0.0082881
2442	0.00773556
2454	0.00810392
2466	0.00948527
2478	0.00865646
2490	0.00856437
2502	0.00847228
2514	0.00773556
2526	0.00773556
2538	0.00727511
2550	0.00773556
2562	0.00819601
2574	0.00791974
2586	0.00690675
2598	0.00791974
2610	0.00709093
2622	0.00589376
2634	0.00570958
2646	0.00681466
2658	0.00745929
2670	0.00626212
2682	0.00469659
2694	0.00386778
2706	0.00322315
2718	0.00303897
2730	0.00331524
2742	0.00257852
2754	0.00377569
2766	0.00432823
2778	0.00442032
2790	0.00478868
2802	0.00432823
2814	0.00497286
2826	0.0073672
2838	0.0109587
2850	0.025601
2862	0.0273507
2874	0.0134451
2886	0.0130768
2898	0.0182338
2910	0.0233909
2922	0.0236671
2934	0.0205361
2946	0.0323236
2958	0.112902
2970	0.108942
2982	0.0310343
2994	0.0318631
3006	0.0380332
3018	0.0325078
3030	0.0297451
3042	0.0246801
3054	0.0150107
3066	0.0115112
3078	0.00948527
3090	0.00874855
3102	0.00791974
3114	0.00847228
3126	0.0107745
3138	0.0105904
3150	0.00727511
3162	0.00764347
3174	0.00580167
3186	0.00543331
3198	0.00524913
3210	0.00543331
3222	0.00626212
3234	0.00782765
3246	0.00709093
3258	0.00524913
3270	0.00497286
3282	0.00589376
3294	0.00635421
3306	0.0064463
3318	0.00681466
3330	0.00755138
3342	0.00745929
3354	0.00626212
3366	0.00617003
3378	0.00663048
3390	0.00580167
3402	0.00663048
3414	0.00617003
3426	0.00580167
3438	0.00663048
3450	0.00727511
3462	0.00930109
3474	0.00911691
3486	0.00884064
3498	0.00791974
3510	0.00856437
3522	0.00718302
3534	0.00598585
3546	0.0055254
3558	0.00506495
3570	0.00589376
3582	0.00598585
3594	0.00617003
3606	0.00506495
3618	0.00405196
3630	0.00359151
3642	0.00359151
3654	0.00313106
3666	0.00478868
3678	0.00239434
3690	0.00221016
3702	0.00313106
3714	0.00285479
3726	0.00303897
3738	0.00239434
3750	0.00221016
3762	0.00230225
3774	0.00239434
3786	0.00230225
3798	0.00221016
3810	0.00221016
3822	0.00221016
3834	0.00221016
3846	0.00221016
3858	0.00221016
3870	0.00221016
3882	0.00221016
3894	0.00221016
3906	0.00221016
3918	0.00221016
3930	0.00221016
3942	0.00221016
3954	0.00221016
3966	0.00221016
