Infrared Spectrum: Benzene, 2,4-dichloro-1-nitro-
Formula: C 6 H 3 Cl 2 N O 2
CAS: 611-06-3
Origin: Sadtler Research Labs Under US-EPA Contract
1/CM	ABSORBANCE
450	0.00133668
462	0.00363576
474	0.00807352
486	0.00967753
498	0.00839432
510	0.0132598
522	0.0351278
534	0.0943693
546	0.0608454
558	0.0061487
570	0.0193016
582	0.0300485
594	0.0127251
606	0.0106399
618	0.00662991
630	0.00785965
642	0.0153985
654	0.012939
666	0.0155054
678	0.0212264
690	0.0179649
702	0.00914286
714	0.00983793
726	0.0119766
738	0.025183
750	0.0322941
762	0.0196224
774	0.0240067
786	0.0593484
798	0.0710576
810	0.0414369
822	0.0983793
834	0.0735706
846	0.0497243
858	0.252257
870	0.364752
882	0.0535205
894	0.0116558
906	0.00973099
918	0.00919632
930	0.0106934
942	0.00807352
954	0.00887552
966	0.00839432
978	0.00887552
990	0.00876859
1002	0.00957059
1014	0.00930326
1026	0.00743191
1038	0.0211729
1050	0.0574236
1062	0.0385497
1074	0.029193
1086	0.0318663
1098	0.0723943
1110	0.132598
1122	0.050259
1134	0.0620217
1146	0.0821788
1158	0.0272682
1170	0.017858
1182	0.0149708
1194	0.0140618
1206	0.0109073
1218	0.00946366
1230	0.00887552
1242	0.0142222
1254	0.015452
1266	0.0142757
1278	0.0263058
1290	0.0268404
1302	0.0292999
1314	0.0410092
1326	0.0675288
1338	0.195368
1350	0.361704
1362	0.256535
1374	0.113297
1386	0.0715923
1398	0.0484946
1410	0.0452331
1422	0.0255572
1434	0.0373734
1446	0.089878
1458	0.127145
1470	0.164946
1482	0.0452865
1494	0.038122
1506	0.0657109
1518	0.107308
1530	0.178901
1542	0.346092
1554	0.42811
1566	0.324384
1578	0.448802
1590	0.478957
1602	0.149921
1614	0.0414904
1626	0.0296742
1638	0.0263592
1650	0.0262523
1662	0.0164144
1674	0.0109607
1686	0.0127251
1698	0.0109073
1710	0.00769925
1722	0.00855472
1734	0.0150242
1746	0.0132063
1758	0.00962406
1770	0.0122974
1782	0.00876859
1794	0.00818045
1806	0.00609524
1818	0.00711111
1830	0.00807352
1842	0.00636257
1854	0.0058279
1866	0.0058279
1878	0.00705764
1890	0.0108003
1902	0.00924979
1914	0.00662991
1926	0.00588137
1938	0.00540017
1950	0.00411696
1962	0.00395656
1974	0.0048655
1986	0.00406349
1998	0.00481203
2010	0.00481203
2022	0.00422389
2034	0.00368922
2046	0.00374269
2058	0.00406349
2070	0.00352882
2082	0.00395656
2094	0.00352882
2106	0.00384962
2118	0.00342189
2130	0.00331495
2142	0.00374269
2154	0.00358229
2166	0.00368922
2178	0.00315455
2190	0.00352882
2202	0.00320802
2214	0.00363576
2226	0.00294069
2238	0.00283375
2250	0.00384962
2262	0.00363576
2274	0.00449123
2286	0.00459816
2298	0.00657644
2310	0.00892899
2322	0.0101587
2334	0.0100518
2346	0.0122439
2358	0.0142222
2370	0.0126717
2382	0.00705764
2394	0.00358229
2406	0.00363576
2418	0.00406349
2430	0.00358229
2442	0.00310109
2454	0.00240602
2466	0.00240602
2478	0.00240602
2490	0.00278028
2502	0.00315455
2514	0.00315455
2526	0.00368922
2538	0.00267335
2550	0.00213868
2562	0.00256642
2574	0.00240602
2586	0.00213868
2598	0.00304762
2610	0.00235255
2622	0.00374269
2634	0.00261988
2646	0.00411696
2658	0.00395656
2670	0.00395656
2682	0.00497243
2694	0.00545363
2706	0.00491896
2718	0.00390309
2730	0.00331495
2742	0.00224561
2754	0.00160401
2766	0.00171094
2778	0.000641604
2790	0.00112281
2802	0.00181788
2814	0.00208521
2826	0.00245948
2838	0.00358229
2850	0.00374269
2862	0.00497243
2874	0.00652297
2886	0.00802005
2898	0.00812698
2910	0.00657644
2922	0.00657644
2934	0.0047051
2946	0.00427736
2958	0.00208521
2970	0.00197828
2982	0.00139014
2994	0.000427736
3006	0.00187134
3018	0.00304762
3030	0.00213868
3042	0.00176441
3054	0.00187134
3066	0.00245948
3078	0.00176441
3090	0.00336842
3102	0.00604177
3114	0.00251295
3126	0.00101587
3138	0.00181788
3150	0.00203175
3162	0.00106934
3174	0.000802005
3186	0.000320802
3198	0.00101587
3210	0.000481203
3222	0.00160401
3234	0.000374269
3246	0.000374269
3258	0.00192481
3270	0.000213868
3282	0.00176441
3294	0.00160401
3306	0.00203175
3318	0.00187134
3330	0.00181788
3342	0.00133668
3354	0.00213868
3366	0.00219215
3378	0.00187134
3390	0.00187134
3402	0.00139014
3414	0.00165748
3426	0.00203175
3438	0.00144361
3450	0.00171094
3462	0.00165748
3474	0.00267335
3486	0.00288722
3498	0.00192481
3510	0.00155054
3522	0.00304762
3534	0.00251295
3546	0.00208521
3558	0.00187134
3570	0.00433083
3582	0.00235255
3594	0.00160401
3606	0.00267335
3618	0.00315455
3630	0.00572097
3642	0.00256642
3654	0.00363576
3666	0.00235255
3678	0.00443776
3690	0.0051863
3702	0.0051863
3714	0.00267335
3726	0.00417043
3738	0.0051863
3750	0.00556057
3762	0.00181788
3774	0.00261988
3786	0.00160401
3798	0.000908939
3810	0.000106934
3822	0.00144361
3834	0.00165748
3846	0.00192481
3858	0.000641604
3870	0.00251295
3882	0.00117627
3894	0.000962406
3906	0.00165748
3918	0.000106934
3930	0.000160401
3942	0.000748538
3954	5.3467e-05
3966	0.000106934
