Infrared Spectrum: 1-Propanone, 2-methyl-1-phenyl-
Formula: C 10 H 12 O
CAS: 611-70-1
Origin: Sadtler Research Labs Under US-EPA Contract
1/CM	ABSORBANCE
450	0
462	0.0234593
474	0.0251088
486	0.0254295
498	0.0284078
510	0.0230928
522	0.0186025
534	0.0252921
546	0.025063
558	0.0184651
570	0.0206186
582	0.0216266
594	0.0186025
606	0.0199771
618	0.0203895
630	0.0354639
642	0.0561741
654	0.035693
666	0.0387171
678	0.0604811
690	0.153402
702	0.231798
714	0.134525
726	0.0593356
738	0.0346392
750	0.0276289
762	0.0235968
774	0.0298282
786	0.051638
798	0.0383963
810	0.0206644
822	0.0170905
834	0.0184651
846	0.0183734
858	0.024055
870	0.0328522
882	0.0203436
894	0.0191982
906	0.0219015
918	0.0290492
930	0.0328064
942	0.0338602
954	0.0459565
966	0.11606
978	0.296999
990	0.129484
1002	0.0572279
1014	0.02937
1026	0.0242383
1038	0.0205727
1050	0.0192898
1062	0.0217182
1074	0.0259794
1086	0.0356014
1098	0.0424284
1110	0.0375716
1122	0.0281787
1134	0.0288202
1146	0.0406415
1158	0.0928751
1170	0.0865979
1182	0.0461397
1194	0.0460481
1206	0.116426
1218	0.36252
1230	0.264421
1242	0.0776632
1254	0.0416953
1266	0.040504
1278	0.043299
1290	0.0484765
1302	0.0409622
1314	0.0334937
1326	0.0401374
1338	0.0613516
1350	0.0981901
1362	0.0709278
1374	0.0674914
1386	0.101306
1398	0.0601145
1410	0.0273998
1422	0.0262543
1434	0.0335853
1446	0.0813287
1458	0.0859106
1470	0.0886139
1482	0.0588316
1494	0.0309278
1506	0.0246964
1518	0.0241924
1530	0.022268
1542	0.0223139
1554	0.0221306
1566	0.0257961
1578	0.0440321
1590	0.0498969
1602	0.0536082
1614	0.0342268
1626	0.02937
1638	0.0273998
1650	0.0284994
1662	0.036701
1674	0.0521878
1686	0.123161
1698	0.416678
1710	0.384513
1722	0.095945
1734	0.0445819
1746	0.0284994
1758	0.0241008
1770	0.0233219
1782	0.0197938
1794	0.0201145
1806	0.0245132
1818	0.0231386
1830	0.0188316
1842	0.0185109
1854	0.0177778
1866	0.0170447
1878	0.0183734
1890	0.0213058
1902	0.0229553
1914	0.0213058
1926	0.0180527
1938	0.0184651
1950	0.0219931
1962	0.0241008
1974	0.0218557
1986	0.0172279
1998	0.0166781
2010	0.0163574
2022	0.016449
2034	0.0166323
2046	0.0164032
2058	0.0159908
2070	0.016449
2082	0.0160366
2094	0.0154868
2106	0.0149828
2118	0.0155326
2130	0.0148912
2142	0.0153035
2154	0.0152119
2166	0.0151661
2178	0.015441
2190	0.0154868
2202	0.0152119
2214	0.0153035
2226	0.0160366
2238	0.0157159
2250	0.0164948
2262	0.0165407
2274	0.0157159
2286	0.0158076
2298	0.016449
2310	0.0178236
2322	0.0192898
2334	0.0190607
2346	0.0208935
2358	0.020252
2370	0.0190607
2382	0.0176861
2394	0.0161283
2406	0.0153035
2418	0.0162199
2430	0.0171363
2442	0.017732
2454	0.0169072
2466	0.0166323
2478	0.0164032
2490	0.016449
2502	0.0162657
2514	0.0165407
2526	0.0165407
2538	0.0169072
2550	0.0173196
2562	0.0173654
2574	0.0168614
2586	0.0175487
2598	0.0175487
2610	0.0168156
2622	0.0173196
2634	0.0174112
2646	0.0168156
2658	0.0171821
2670	0.0173196
2682	0.0170447
2694	0.0176861
2706	0.0170447
2718	0.018236
2730	0.0189232
2742	0.0197022
2754	0.0198854
2766	0.0192898
2778	0.0205269
2790	0.0201604
2802	0.0211684
2814	0.0229553
2826	0.025063
2838	0.0242383
2850	0.0262085
2862	0.0317984
2874	0.0564948
2886	0.0933791
2898	0.0720275
2910	0.0662543
2922	0.0919129
2934	0.119679
2946	0.137915
2958	0.106483
2970	0.175487
2982	0.292096
2994	0.130355
3006	0.0510882
3018	0.0395418
3030	0.0503551
3042	0.0626804
3054	0.0585567
3066	0.0845819
3078	0.108958
3090	0.0765177
3102	0.06126
3114	0.0363803
3126	0.0255212
3138	0.023551
3150	0.0214891
3162	0.0237342
3174	0.021764
3186	0.0215349
3198	0.0213058
3210	0.0207102
3222	0.0196564
3234	0.0188316
3246	0.019244
3258	0.0196105
3270	0.0198396
3282	0.0184192
3294	0.0205727
3306	0.0191523
3318	0.0180527
3330	0.0191523
3342	0.0184192
3354	0.0212142
3366	0.0195647
3378	0.0257045
3390	0.0256586
3402	0.0215349
3414	0.0171821
3426	0.01874
3438	0.0186483
3450	0.0173196
3462	0.0173654
3474	0.020756
3486	0.0169072
3498	0.017457
3510	0.017732
3522	0.0171821
3534	0.0164948
3546	0.0182818
3558	0.0184192
3570	0.0175029
3582	0.0180985
3594	0.0181443
3606	0.015945
3618	0.018236
3630	0.0187858
3642	0.020252
3654	0.0209393
3666	0.0205727
3678	0.0207102
3690	0.0175029
3702	0.0175487
3714	0.0205269
3726	0.0198854
3738	0.020252
3750	0.019748
3762	0.0196105
3774	0.0176403
3786	0.0194273
3798	0.017732
3810	0.0166323
3822	0.0198396
3834	0.0199771
3846	0.0200229
3858	0.0218557
3870	0.0208476
3882	0.0212142
3894	0.0234593
3906	0.0198854
3918	0.0183734
3930	0.0209393
3942	0.0189232
3954	0.0183734
3966	0.0197938
