Infrared Spectrum: 1-Propanol, 2-diethylamino-,
Formula: C 7 H 17 N O
CAS: 611-12-1
Origin: Sadtler Research Labs Under US-EPA Contract
1/CM	ABSORBANCE
450	0.0359781
462	0.0517477
474	0.0619104
486	0.0671669
498	0.0563034
510	0.0478929
522	0.0489442
534	0.0373798
546	0.0266331
558	0.015536
570	0.0102795
582	0.00619104
594	0.00256986
606	0.0019858
618	0.00210262
630	0.00408842
642	0.0101626
654	0.0177554
666	0.0266331
678	0.0408842
690	0.0497619
702	0.0539671
714	0.0510468
726	0.0429868
738	0.0327074
750	0.0261659
762	0.0413514
774	0.049061
786	0.0302543
798	0.0237128
810	0.0213766
822	0.0151856
834	0.0314224
846	0.0544344
858	0.0263995
870	0.00957858
882	0.0105131
894	0.0176386
906	0.0242969
918	0.0307216
930	0.0511637
942	0.0475425
954	0.0316561
966	0.0279181
978	0.0515141
990	0.0686855
1002	0.0706713
1014	0.0557193
1026	0.0649475
1038	0.122653
1050	0.230003
1062	0.337236
1074	0.340741
1086	0.291329
1098	0.219373
1110	0.154542
1122	0.164004
1134	0.205823
1146	0.208276
1158	0.124054
1170	0.0855064
1182	0.0897116
1194	0.151505
1206	0.202085
1218	0.105948
1230	0.0651811
1242	0.0837542
1254	0.142043
1266	0.205823
1278	0.212481
1290	0.19052
1302	0.153141
1314	0.139357
1326	0.174284
1338	0.191104
1350	0.161201
1362	0.158514
1374	0.26528
1386	0.340624
1398	0.254183
1410	0.176853
1422	0.106883
1434	0.0945009
1446	0.139006
1458	0.190988
1470	0.17697
1482	0.10957
1494	0.0429868
1506	0.0205589
1518	0.0100458
1530	0.00642466
1542	0.00303711
1554	0.00280349
1566	0.00151856
1578	0.00245305
1590	0.00256986
1602	0.00245305
1614	0.00175218
1626	0.0019858
1638	0.00186899
1650	0.00338755
1662	0.00443886
1674	0.00747597
1686	0.00747597
1698	0.0158864
1710	0.0216102
1722	0.0177554
1734	0.00817684
1746	0.00175218
1758	0.00245305
1770	0.00432204
1782	0.00338755
1794	0.00455567
1806	0.00397161
1818	0.00210262
1830	0.00128493
1842	0.00163537
1854	0.00221943
1866	0.00128493
1878	0.000934496
1890	0.000934496
1902	0.000467248
1914	0.000116812
1926	0
1938	0.000700872
1950	0.00105131
1962	0.0019858
1974	0.00221943
1986	0.00233624
1998	0.00175218
2010	0.00128493
2022	0.000934496
2034	0.000350436
2046	0.000817684
2058	0.000934496
2070	0.00105131
2082	0.00116812
2094	0.000817684
2106	0.000934496
2118	0.00105131
2130	0.00105131
2142	0.00105131
2154	0.00116812
2166	0.00140174
2178	0.00163537
2190	0.00186899
2202	0.0019858
2214	0.00151856
2226	0.00140174
2238	0.00163537
2250	0.00256986
2262	0.00327074
2274	0.00397161
2286	0.00408842
2298	0.00420523
2310	0.00572379
2322	0.00619104
2334	0.00327074
2346	0.00327074
2358	0.00245305
2370	0.000817684
2382	0.00280349
2394	0.00245305
2406	0.00268668
2418	0.00303711
2430	0.00420523
2442	0.00397161
2454	0.00338755
2466	0.00303711
2478	0.00268668
2490	0.00268668
2502	0.0029203
2514	0.00408842
2526	0.00572379
2538	0.00689191
2550	0.00864409
2562	0.0101626
2574	0.0124989
2586	0.0143679
2598	0.0153024
2610	0.0170546
2622	0.0205589
2634	0.0261659
2646	0.0325905
2658	0.037263
2670	0.0390152
2682	0.0411178
2694	0.0453231
2706	0.052799
2718	0.0643634
2730	0.0762782
2742	0.0850391
2754	0.0980053
2766	0.121835
2778	0.153841
2790	0.220541
2802	0.355926
2814	0.520164
2826	0.554273
2838	0.442367
2850	0.31913
2862	0.272289
2874	0.358262
2886	0.452413
2898	0.417136
2910	0.392605
2922	0.42578
2934	0.550652
2946	0.642933
2958	0.607306
2970	0.920829
2982	1.13308
2994	0.534532
3006	0.156294
3018	0.0752269
3030	0.0495283
3042	0.039132
3054	0.0331746
3066	0.0286189
3078	0.0245305
3090	0.0218438
3102	0.019274
3114	0.0172882
3126	0.0164705
3138	0.0150687
3150	0.0137838
3162	0.0133166
3174	0.0131998
3186	0.0133166
3198	0.0124989
3210	0.0108635
3222	0.00864409
3234	0.00724234
3246	0.00665828
3258	0.00700872
3270	0.00654147
3282	0.00770959
3294	0.00735916
3306	0.00759278
3318	0.00841046
3330	0.0101626
3342	0.011214
3354	0.0123821
3366	0.0141343
3378	0.0154192
3390	0.0181059
3402	0.0205589
3414	0.0259323
3426	0.032941
3438	0.0339923
3450	0.0328242
3462	0.0341091
3474	0.0325905
3486	0.0412346
3498	0.0745261
3510	0.110504
3522	0.0968371
3534	0.065882
3546	0.0496451
3558	0.0412346
3570	0.0357445
3582	0.0281517
3594	0.0233624
3606	0.0164705
3618	0.0141343
3630	0.015536
3642	0.0164705
3654	0.0182227
3666	0.0116812
3678	0.00619104
3690	0.00280349
3702	0.0019858
3714	0.0019858
3726	0.00151856
3738	0.00210262
3750	0.00105131
3762	0
3774	0.000934496
3786	0.00128493
3798	0.00210262
3810	0.00128493
3822	0.00233624
3834	0.000934496
3846	0.00058406
3858	0.00186899
3870	0.000700872
3882	0.00186899
3894	0.00315392
3906	0.00362117
3918	0.00362117
3930	0.00268668
3942	0.00350436
3954	0.00350436
3966	0.00315392
