Infrared Spectrum: Benzenamine, 3-methyl-4-nitro-
Formula: C 7 H 8 N 2 O 2
CAS: 611-05-2
Origin: Sadtler Research Labs Under US-EPA Contract
1/CM	ABSORBANCE
450	0
462	0.0237738
474	0.0321481
486	0.0270304
498	0.0365213
510	0.027077
522	0.0247973
534	0.0243321
546	0.0242855
558	0.0354048
570	0.0374983
582	0.0409876
594	0.0555031
606	0.0691812
618	0.0908614
630	0.0424764
642	0.0434999
654	0.0469892
666	0.0741127
678	0.107284
690	0.0933271
702	0.0574106
714	0.0535026
726	0.046431
738	0.0499668
750	0.0740662
762	0.0606673
774	0.0409876
786	0.0369866
798	0.0418716
810	0.057178
822	0.0688555
834	0.116775
846	0.137758
858	0.0722052
870	0.0371727
882	0.0183305
894	0.0147946
906	0.0151668
918	0.0186096
930	0.0221919
942	0.0354048
954	0.035777
966	0.019354
978	0.0172604
990	0.0176791
1002	0.019447
1014	0.0243321
1026	0.0215871
1038	0.0214476
1050	0.0214941
1062	0.0268909
1074	0.0460588
1086	0.0466636
1098	0.0313107
1110	0.0211219
1122	0.0186096
1134	0.0162834
1146	0.0224711
1158	0.0361957
1170	0.0278679
1182	0.0210288
1194	0.0178652
1206	0.0171674
1218	0.0175395
1230	0.0207962
1242	0.0286588
1254	0.0556427
1266	0.166416
1278	0.11189
1290	0.0829523
1302	0.153204
1314	0.182421
1326	0.15204
1338	0.287611
1350	0.46524
1362	0.178094
1374	0.0631331
1386	0.0521999
1398	0.0461983
1410	0.0391267
1422	0.0480593
1434	0.0580154
1446	0.0544331
1458	0.0591785
1470	0.0555031
1482	0.0846272
1494	0.151947
1506	0.156786
1518	0.238482
1530	0.379403
1542	0.28268
1554	0.144457
1566	0.128732
1578	0.154506
1590	0.245833
1602	0.229782
1614	0.228526
1626	0.362422
1638	0.262721
1650	0.0873721
1662	0.0423368
1674	0.0323807
1686	0.0275887
1698	0.0257743
1710	0.023262
1722	0.0209823
1734	0.0224711
1746	0.01847
1758	0.0180048
1770	0.0198192
1782	0.0184235
1794	0.0196331
1806	0.0181909
1818	0.0173535
1830	0.01847
1842	0.0180513
1854	0.0181909
1866	0.0195866
1878	0.0193075
1890	0.0212615
1902	0.0196331
1914	0.017493
1926	0.0173535
1938	0.0169347
1950	0.0167952
1962	0.0171674
1974	0.0182374
1986	0.0181444
1998	0.0187492
2010	0.0196331
2022	0.0190283
2034	0.0200518
2046	0.0196331
2058	0.0197727
2070	0.0191679
2082	0.0189353
2094	0.0191214
2106	0.0180048
2118	0.0173535
2130	0.0181909
2142	0.0186561
2154	0.019354
2166	0.0194005
2178	0.0190748
2190	0.0190748
2202	0.017493
2214	0.0171674
2226	0.0173069
2238	0.0172139
2250	0.0179117
2262	0.0176791
2274	0.0181909
2286	0.0179583
2298	0.0181909
2310	0.0192609
2322	0.0200518
2334	0.0180048
2346	0.019447
2358	0.0195401
2370	0.0165625
2382	0.0164695
2394	0.0177256
2406	0.0185166
2418	0.0204706
2430	0.0198192
2442	0.0195866
2454	0.0175395
2466	0.0175861
2478	0.0168882
2490	0.0166556
2502	0.0165625
2514	0.0159577
2526	0.016516
2538	0.0153064
2550	0.0161438
2562	0.0183305
2574	0.0187492
2586	0.0191679
2598	0.0189353
2610	0.0197262
2622	0.0207497
2634	0.0203775
2646	0.0190748
2658	0.0175861
2670	0.0187026
2682	0.0190748
2694	0.0192144
2706	0.0185631
2718	0.019354
2730	0.0202845
2742	0.0198657
2754	0.0202379
2766	0.0199588
2778	0.0192144
2790	0.019354
2802	0.0199123
2814	0.0199588
2826	0.0208428
2838	0.0223315
2850	0.0243786
2862	0.0280074
2874	0.0294497
2886	0.0272631
2898	0.0255882
2910	0.0272631
2922	0.0296358
2934	0.0393128
2946	0.0483384
2958	0.0409876
2970	0.0333577
2982	0.0380101
2994	0.0409876
3006	0.0335903
3018	0.0370331
3030	0.0478267
3042	0.038708
3054	0.035777
3066	0.0363352
3078	0.0321016
3090	0.0240994
3102	0.0185166
3114	0.0193075
3126	0.0182839
3138	0.017493
3150	0.0177722
3162	0.0186561
3174	0.0180513
3186	0.0190748
3198	0.0202379
3210	0.0218663
3222	0.0224246
3234	0.0200518
3246	0.0177722
3258	0.017493
3270	0.0160973
3282	0.0160973
3294	0.0156321
3306	0.0162369
3318	0.015446
3330	0.0155855
3342	0.0154925
3354	0.0161438
3366	0.0166091
3378	0.0178187
3390	0.0195401
3402	0.0284262
3414	0.0512694
3426	0.0603416
3438	0.0558753
3450	0.036754
3462	0.0185166
3474	0.0192144
3486	0.0215871
3498	0.0313107
3510	0.0337764
3522	0.0303336
3534	0.032055
3546	0.0248903
3558	0.0189818
3570	0.018377
3582	0.0187957
3594	0.0202845
3606	0.0192609
3618	0.01847
3630	0.0197727
3642	0.0200518
3654	0.0178187
3666	0.0190748
3678	0.0187026
3690	0.0177256
3702	0.0196331
3714	0.0216337
3726	0.0184235
3738	0.019447
3750	0.0220059
3762	0.0182374
3774	0.0180978
3786	0.0175861
3798	0.0171674
3810	0.0147016
3822	0.0197262
3834	0.0244716
3846	0.0214476
3858	0.0182839
3870	0.0199123
3882	0.0221919
3894	0.0191214
3906	0.0169813
3918	0.0171208
3930	0.0207497
3942	0.0182839
3954	0.0218663
3966	0.0202379
