Infrared Spectrum: Benzene, 1-ethyl-2-methyl-
Formula: C 9 H 12
CAS: 611-14-3
Origin: Sadtler Research Labs Under US-EPA Contract
1/CM	ABSORBANCE
450	0.0156802
462	0.0244927
474	0.00826554
486	0.00832631
498	0.0111828
510	0.00413277
522	0.00528751
534	0.00705002
546	0.012763
558	0.00790088
570	0.00711079
582	0.007597
594	0.00844786
606	0.00589527
618	0.00467975
630	0.00504441
642	0.00370734
654	0.00230949
666	0.000364656
678	0.00352501
690	0.00534829
702	0.00881252
714	0.0564609
726	0.185124
738	0.265834
750	0.278354
762	0.155222
774	0.0451566
786	0.0224263
798	0.022244
810	0.0133099
822	0.00917718
834	0.00613838
846	0.00498363
858	0.00601682
870	0.00595605
882	0.00449742
894	0.00309958
906	0.00316035
918	0.0045582
930	0.00844786
942	0.00972416
954	0.0164703
966	0.0207854
978	0.0145862
990	0.0115474
1002	0.00832631
1014	0.00832631
1026	0.0193268
1038	0.0302057
1050	0.0519027
1062	0.0605329
1074	0.0261337
1086	0.00765778
1098	0.00504441
1110	0.0078401
1122	0.0177466
1134	0.0182328
1146	0.00844786
1158	0.00437587
1170	0.00546984
1182	0.00516596
1194	0.00382889
1206	0.00395044
1218	0.00486208
1230	0.00546984
1242	0.00698924
1254	0.00674614
1266	0.00553062
1278	0.00625993
1290	0.00723234
1302	0.00917718
1314	0.0151332
1326	0.0219401
1338	0.0179289
1350	0.0113043
1362	0.0137962
1374	0.0297802
1386	0.0407199
1398	0.0262552
1410	0.0170781
1422	0.02115
1434	0.0349462
1446	0.0784618
1458	0.144465
1470	0.149631
1482	0.129818
1494	0.152305
1506	0.0890976
1518	0.0237026
1530	0.0149509
1542	0.0109397
1554	0.00844786
1566	0.00826554
1578	0.0149509
1590	0.022791
1602	0.0337307
1614	0.0291117
1626	0.00905562
1638	0.00419354
1650	0.00443665
1662	0.00516596
1674	0.00638148
1686	0.00747545
1698	0.00613838
1710	0.00504441
1722	0.00522674
1734	0.00309958
1746	0.00218794
1758	0.00224871
1770	0.00316035
1782	0.00875174
1794	0.0117905
1806	0.00522674
1818	0.00540906
1830	0.00832631
1842	0.00352501
1854	0.00164095
1866	0.00553062
1878	0.00577372
1890	0.00875174
1902	0.0173212
1914	0.0121552
1926	0.00498363
1938	0.0124591
1950	0.0093595
1962	0.00091164
1974	0.000425432
1986	0.000486208
1998	0.000425432
2010	0.000790088
2022	0.00109397
2034	0.00139785
2046	0.00103319
2058	0.000850864
2070	0.00103319
2082	0.00109397
2094	0.0012763
2106	0.000546984
2118	6.0776e-05
2130	0.000182328
2142	0
2154	0.000364656
2166	0.00030388
2178	0.000243104
2190	0.000486208
2202	0.000972416
2214	0.00091164
2226	0.000668536
2238	0.000243104
2250	0.000546984
2262	0.000486208
2274	0.000790088
2286	0.00091164
2298	0.00121552
2310	0.00139785
2322	0.00273492
2334	0.00206638
2346	0.00237026
2358	0.000546984
2370	0.000243104
2382	0.000668536
2394	0.000850864
2406	0.00158018
2418	0.00230949
2430	0.00273492
2442	0.00255259
2454	0.0015194
2466	0.00139785
2478	0.0012763
2490	0.00115474
2502	0.00139785
2514	0.00170173
2526	0.0015194
2538	0.00182328
2550	0.0015194
2562	0.00200561
2574	0.00267414
2586	0.00273492
2598	0.00285647
2610	0.00267414
2622	0.00249182
2634	0.00370734
2646	0.00316035
2658	0.00237026
2670	0.00188406
2682	0.00206638
2694	0.00255259
2706	0.0032819
2718	0.00425432
2730	0.00765778
2742	0.0124591
2754	0.0116082
2766	0.00917718
2778	0.0105142
2790	0.011669
2802	0.0120336
2814	0.0138569
2826	0.0196914
2838	0.0296587
2850	0.0466152
2862	0.0801028
2874	0.171328
2886	0.269967
2898	0.223656
2910	0.184881
2922	0.200682
2934	0.286984
2946	0.363319
2958	0.348307
2970	0.560598
2982	0.523889
2994	0.172118
3006	0.119911
3018	0.214114
3030	0.251673
3042	0.165189
3054	0.152062
3066	0.206942
3078	0.206152
3090	0.110795
3102	0.0529967
3114	0.0403553
3126	0.0220617
3138	0.0143431
3150	0.0134315
3162	0.0134923
3174	0.0108789
3186	0.00650303
3198	0.00425432
3210	0.0027957
3222	0.00182328
3234	0.00133707
3246	0.0017625
3258	0.0015194
3270	0.0017625
3282	0.0017625
3294	0.00188406
3306	0.00139785
3318	0.00103319
3330	0.00139785
3342	0.0012763
3354	0.00164095
3366	0.00200561
3378	0.00121552
3390	0.00170173
3402	0.00164095
3414	0.0015194
3426	0.0015194
3438	0.00170173
3450	0.00170173
3462	0.00206638
3474	0.00145862
3486	0.00206638
3498	0.00170173
3510	0.0015194
3522	0.00145862
3534	0.0012763
3546	0.00145862
3558	0.00164095
3570	0.0017625
3582	0.000790088
3594	0.00206638
3606	0.00267414
3618	0.00170173
3630	0.00200561
3642	0.00194483
3654	0.00188406
3666	0.00212716
3678	0.00218794
3690	0.00115474
3702	0.00188406
3714	0.00212716
3726	0.00139785
3738	0.00243104
3750	0.00273492
3762	0.00212716
3774	0.0017625
3786	0.0017625
3798	0.0015194
3810	0.00109397
3822	0.00194483
3834	0.00230949
3846	0.00194483
3858	0.00297802
3870	0.00200561
3882	0.00419354
3894	0.00243104
3906	0.00164095
3918	0.00352501
3930	0.0017625
3942	0.00364656
3954	0.000972416
3966	0.0012763
