Infrared Spectrum: .alpha.-Phenyl-o-toluic acid
Formula: C 14 H 12 O 2
CAS: 612-35-1
Origin: Sadtler Research Labs Under US-EPA Contract
1/CM	ABSORBANCE
450	0.00752723
462	0.0150545
474	0.0131568
486	0.00493381
498	0.00847604
510	0.0138526
522	0.0272625
534	0.0340939
546	0.0342204
558	0.0449736
570	0.0729951
582	0.074703
594	0.0382687
606	0.0391542
618	0.0361813
630	0.0810284
642	0.0960196
654	0.0223919
666	0.015434
678	0.0265667
690	0.0652781
702	0.098107
714	0.11158
726	0.203109
738	0.217467
750	0.113161
762	0.0538924
774	0.0220124
786	0.0118285
798	0.0101206
810	0.00936159
822	0.00803326
834	0.00461754
846	0.00366873
858	0.00094881
870	0.000126508
882	0.0016446
894	0.000695794
906	0.00221389
918	0.00246691
930	0.00423802
942	0.00196087
954	0.00455429
966	0.00183437
978	0.00145484
990	0.00341572
1002	0.00708445
1014	0.0132201
1026	0.0385217
1038	0.0795103
1050	0.177111
1062	0.203678
1074	0.090896
1086	0.0668595
1098	0.0798265
1110	0.104875
1122	0.144915
1134	0.0802693
1146	0.0447206
1158	0.0659107
1170	0.128406
1182	0.246627
1194	0.160349
1206	0.0694529
1218	0.0432025
1230	0.0347264
1242	0.0339674
1254	0.0370036
1266	0.0457959
1278	0.0565491
1290	0.0573081
1302	0.059775
1314	0.0563593
1326	0.0566756
1338	0.0881128
1350	0.0781187
1362	0.0331451
1374	0.0237835
1386	0.0175214
1398	0.0111327
1410	0.00885556
1422	0.0125875
1434	0.0256811
1446	0.0537026
1458	0.0403561
1470	0.0137261
1482	0.0352325
1494	0.0891249
1506	0.0247323
1518	0.00752723
1530	0.0105634
1542	0.00841278
1554	0.00929834
1566	0.0185967
1578	0.0327656
1590	0.0328288
1602	0.0584467
1614	0.0233407
1626	0.00879231
1638	0.00676818
1650	0.00885556
1662	0.0094881
1674	0.0175846
1686	0.0328921
1698	0.051805
1710	0.0659739
1722	0.0877966
1734	0.122839
1746	0.274016
1758	0.63254
1770	0.158135
1782	0.0834953
1794	0.0588262
1806	0.0310577
1818	0.0148647
1830	0.00898207
1842	0.00461754
1854	0.00430127
1866	0.00373199
1878	0.00259341
1890	0.00309945
1902	0.00366873
1914	0.00392175
1926	0.00651516
1938	0.0105634
1950	0.00822302
1962	0.00683143
1974	0.00208738
1986	0.00120183
1998	0.00101206
2010	0.00063254
2022	0.000759048
2034	0.000695794
2046	0.000379524
2058	0.000189762
2070	0.00063254
2082	0.000253016
2094	0.000569286
2106	0.00120183
2118	0.00094881
2130	0.000759048
2142	0.00063254
2154	0.000695794
2166	0.000885556
2178	0.00101206
2190	0.000379524
2202	0.000126508
2214	0.00031627
2226	0.000442778
2238	0.000379524
2250	0.000126508
2262	0.000189762
2274	0.00031627
2286	0.00094881
2298	0.000379524
2310	0.000695794
2322	0.00107532
2334	0.000442778
2346	0.00246691
2358	0.000189762
2370	0.000126508
2382	0.00196087
2394	0.00227714
2406	0.00177111
2418	0.0016446
2430	0.00196087
2442	0.00208738
2454	0.00196087
2466	0.00253016
2478	0.00246691
2490	0.00227714
2502	0.00221389
2514	0.00253016
2526	0.00221389
2538	0.00227714
2550	0.00189762
2562	0.00196087
2574	0.00221389
2586	0.00227714
2598	0.00271992
2610	0.00221389
2622	0.00227714
2634	0.00271992
2646	0.00221389
2658	0.00170786
2670	0.00177111
2682	0.00113857
2694	0.000695794
2706	0.00107532
2718	0.00120183
2730	0.00158135
2742	0.00189762
2754	0.00253016
2766	0.00309945
2778	0.00335246
2790	0.00335246
2802	0.0031627
2814	0.00354222
2826	0.00423802
2838	0.00537659
2850	0.00790675
2862	0.0116387
2874	0.0112592
2886	0.0108164
2898	0.0127141
2910	0.0175214
2922	0.0275155
2934	0.0263769
2946	0.0158135
2958	0.0112592
2970	0.0116387
2982	0.0122713
2994	0.0141689
3006	0.0191027
3018	0.0331451
3030	0.074703
3042	0.0702752
3054	0.0479465
3066	0.0875435
3078	0.103926
3090	0.0545882
3102	0.0277053
3114	0.0186599
3126	0.00847604
3138	0.00670492
3150	0.00695794
3162	0.00556635
3174	0.00474405
3186	0.0031627
3198	0.00322595
3210	0.00297294
3222	0.00196087
3234	0.00202413
3246	0.00120183
3258	0.00139159
3270	0.0015181
3282	0.00120183
3294	0.0015181
3306	0.00113857
3318	0.00113857
3330	0.00145484
3342	0.00158135
3354	0.00126508
3366	0.00113857
3378	0.000379524
3390	0.000569286
3402	0.00031627
3414	0.000506032
3426	0.000885556
3438	0.00094881
3450	0.00189762
3462	0.00177111
3474	0.00189762
3486	0.00347897
3498	0.00290968
3510	0.00139159
3522	0.00208738
3534	0.00360548
3546	0.00600913
3558	0.0317535
3570	0.119677
3582	0.141373
3594	0.023151
3606	0.00455429
3618	0.00297294
3630	0.00354222
3642	0.00107532
3654	0.0016446
3666	0.00031627
3678	0.00158135
3690	0.00202413
3702	0.00132833
3714	0.00139159
3726	0.00177111
3738	0.00259341
3750	0.00183437
3762	0.000126508
3774	0.000506032
3786	0.00094881
3798	0.00063254
3810	0.000379524
3822	0.00120183
3834	0.00145484
3846	0.000126508
3858	0.00031627
3870	0.00063254
3882	0.00265667
3894	0.000379524
3906	0.00284643
3918	0.00094881
3930	0.00094881
3942	0.00158135
3954	0.00031627
3966	0.000759048
