Infrared Spectrum: Benzenemethanol, 2-nitro-
Formula: C 7 H 7 N O 3
CAS: 612-25-9
Origin: Sadtler Research Labs Under US-EPA Contract
1/CM	ABSORBANCE
450	0.0249014
462	0.0323863
474	0.0215908
486	0.0187121
498	0.0178484
510	0.0105075
522	0.00676513
534	0.0033106
546	0.0059015
558	0.0112272
570	0.00633332
582	0.0126666
594	0.0436135
606	0.0470681
618	0.0126666
630	0.00230302
642	0.000143939
654	0.0214469
666	0.0682271
678	0.0757119
690	0.0470681
702	0.0870831
714	0.115871
726	0.269454
738	0.292484
750	0.179204
762	0.0761437
774	0.125515
786	0.191727
798	0.100613
810	0.0676513
822	0.0267727
834	0.0135303
846	0.0863634
858	0.206121
870	0.0885225
882	0.0156894
894	0.00762877
906	0.00820452
918	0.0133863
930	0.0270605
942	0.0715377
954	0.124219
966	0.0775831
978	0.0397272
990	0.0441893
1002	0.0728331
1014	0.163371
1026	0.399575
1038	0.556324
1050	0.337249
1062	0.131848
1074	0.0663559
1086	0.0626135
1098	0.0375681
1110	0.021159
1122	0.0217348
1134	0.0434696
1146	0.0664998
1158	0.0643407
1170	0.080318
1182	0.12278
1194	0.166537
1206	0.141492
1218	0.0639089
1230	0.0374241
1242	0.0335378
1254	0.037856
1266	0.0539771
1278	0.0890982
1290	0.146242
1302	0.171
1314	0.130121
1326	0.1425
1338	0.366469
1350	0.853702
1362	0.836717
1374	0.338976
1386	0.233901
1398	0.204249
1410	0.111121
1422	0.0624695
1434	0.0545529
1446	0.077871
1458	0.0932725
1470	0.104068
1482	0.117454
1494	0.133719
1506	0.212742
1518	0.389499
1530	0.861907
1542	1.43939
1554	0.941649
1566	0.431961
1578	0.256067
1590	0.15459
1602	0.121053
1614	0.119469
1626	0.0634771
1638	0.0253333
1650	0.0178484
1662	0.0105075
1674	0.00906816
1686	0.01425
1698	0.0158333
1710	0.014106
1722	0.0241818
1734	0.0189999
1746	0.00791664
1758	0.00532574
1770	0.0033106
1782	0.000143939
1794	0.00172727
1806	0.00532574
1818	0.00892422
1830	0.00791664
1842	0.0059015
1854	0.0051818
1866	0.00201515
1878	0
1890	0.00187121
1902	0.00431817
1914	0.00546968
1926	0.011803
1938	0.0133863
1950	0.00964391
1962	0.0145378
1974	0.0102197
1986	0.00374241
1998	0.00359847
2010	0.0033106
2022	0.00374241
2034	0.00489393
2046	0.0059015
2058	0.00705301
2070	0.00647725
2082	0.00345454
2094	0.00187121
2106	0.00143939
2118	0.00129545
2130	0.00129545
2142	0.000863634
2154	0.000719695
2166	0.00129545
2178	0.000863634
2190	0.000143939
2202	0.000431817
2214	0.00100757
2226	0.00187121
2238	0.00215908
2250	0.00115151
2262	0.000719695
2274	0.00158333
2286	0.00302272
2298	0.00474999
2310	0.00633332
2322	0.00777271
2334	0.00734089
2346	0.00633332
2358	0.00532574
2370	0.00474999
2382	0.00762877
2394	0.00633332
2406	0.00546968
2418	0.00431817
2430	0.0051818
2442	0.00460605
2454	0.00316666
2466	0.00187121
2478	0.00201515
2490	0.0033106
2502	0.00345454
2514	0.00215908
2526	0.00201515
2538	0.00172727
2550	0.00129545
2562	0.00201515
2574	0.00201515
2586	0.00273484
2598	0.00302272
2610	0.00273484
2622	0.00302272
2634	0.00374241
2646	0.00388635
2658	0.00503786
2670	0.00662119
2682	0.00791664
2694	0.00863634
2706	0.00820452
2718	0.00719695
2730	0.00834846
2742	0.00935603
2754	0.00906816
2766	0.00834846
2778	0.00878028
2790	0.00978785
2802	0.0115151
2814	0.01425
2826	0.0184242
2838	0.0231742
2850	0.0295075
2862	0.0403029
2874	0.0575756
2886	0.080174
2898	0.0952876
2910	0.0780149
2922	0.066068
2934	0.0813255
2946	0.106083
2958	0.110833
2970	0.0932725
2982	0.0539771
2994	0.0264848
3006	0.0191439
3018	0.0184242
3030	0.0221666
3042	0.0297954
3054	0.0342575
3066	0.0646286
3078	0.122924
3090	0.0965831
3102	0.0256211
3114	0.00734089
3126	0.00417423
3138	0.00359847
3150	0.00345454
3162	0.00345454
3174	0.0025909
3186	0.00201515
3198	0.00187121
3210	0.00172727
3222	0.00143939
3234	0.00115151
3246	0.000863634
3258	0.000719695
3270	0.000575756
3282	0.000575756
3294	0.000719695
3306	0.000431817
3318	0.000719695
3330	0.000719695
3342	0.000575756
3354	0.00115151
3366	0.00316666
3378	0.00273484
3390	0.00201515
3402	0.00201515
3414	0.00187121
3426	0.00143939
3438	0.00187121
3450	0.00129545
3462	0.00115151
3474	0.00129545
3486	0.00143939
3498	0.00403029
3510	0.00474999
3522	0.00532574
3534	0.00474999
3546	0.00359847
3558	0.00431817
3570	0.00575756
3582	0.00748483
3594	0.0132424
3606	0.0257651
3618	0.0794543
3630	0.119325
3642	0.091977
3654	0.0780149
3666	0.0886664
3678	0.0928407
3690	0.0580074
3702	0.021303
3714	0.0110833
3726	0.00993179
3738	0.0084924
3750	0.00489393
3762	0.00403029
3774	0.0025909
3786	0.00215908
3798	0.00215908
3810	0.00100757
3822	0.00129545
3834	0.00100757
3846	0.00158333
3858	0.00115151
3870	0.00244696
3882	0.000719695
3894	0.00287878
3906	0.00187121
3918	0.00158333
3930	0.00287878
3942	0.0025909
3954	0.00158333
3966	0.00172727
