Infrared Spectrum: 3,3'-Dimethylbiphenyl
Formula: C 14 H 14
CAS: 612-75-9
Origin: Sadtler Research Labs Under US-EPA Contract
1/CM	ABSORBANCE
450	0.0654013
462	0.0498584
474	0.0426925
486	0.0160476
498	0.0731728
510	0.0794303
522	0.0936612
534	0.0858897
546	0.0781183
558	0.0725672
570	0.0674199
582	0.0819535
594	0.0791276
606	0.0768062
618	0.0957807
630	0.16532
642	0.0782192
654	0.0739802
666	0.0751914
678	0.10436
690	0.326199
702	0.495859
714	0.199232
726	0.0957807
738	0.0984048
750	0.134436
762	0.467095
774	1.00928
786	0.415823
798	0.212554
810	0.173192
822	0.070044
834	0.0680255
846	0.0639884
858	0.0758979
870	0.130702
882	0.167339
894	0.109709
906	0.0830637
918	0.0642911
930	0.0592447
942	0.0622726
954	0.0599512
966	0.065906
978	0.065906
990	0.0705487
1002	0.0719617
1014	0.0612633
1026	0.0604559
1038	0.0755951
1050	0.0912389
1062	0.0901287
1074	0.0867981
1086	0.142107
1098	0.16098
1110	0.0912389
1122	0.0563178
1134	0.0541983
1146	0.0516751
1158	0.0499594
1170	0.0524826
1182	0.0523816
1194	0.0486473
1206	0.0524826
1218	0.0538956
1230	0.0485464
1242	0.0475371
1254	0.0507668
1266	0.0540974
1278	0.0528863
1290	0.0528863
1302	0.0570243
1314	0.0618689
1326	0.0536937
1338	0.0545011
1350	0.0582355
1362	0.0748886
1374	0.0796322
1386	0.104864
1398	0.125756
1410	0.131913
1422	0.139583
1434	0.153108
1446	0.153108
1458	0.178441
1470	0.290874
1482	0.387261
1494	0.234254
1506	0.148465
1518	0.130803
1530	0.132518
1542	0.12505
1554	0.125151
1566	0.159769
1578	0.270992
1590	0.372424
1602	0.633323
1614	0.409566
1626	0.0972946
1638	0.0510696
1650	0.0440046
1662	0.040674
1674	0.0531891
1686	0.0657041
1698	0.0414814
1710	0.0313886
1722	0.0291682
1734	0.0338109
1746	0.0399675
1758	0.0510696
1770	0.0541983
1782	0.054703
1794	0.0501612
1806	0.0371415
1818	0.0282598
1830	0.0309849
1842	0.0465278
1854	0.05329
1866	0.05329
1878	0.0361322
1890	0.0243236
1902	0.0214977
1914	0.0272506
1926	0.0517761
1938	0.0545011
1950	0.0223051
1962	0.0164513
1974	0.014029
1986	0.0123132
1998	0.0110012
2010	0.0107993
2022	0.0103956
2034	0.00867981
2046	0.00847795
2058	0.00847795
2070	0.00867981
2082	0.0082761
2094	0.00696403
2106	0.00585382
2118	0.00605568
2130	0.00494547
2142	0.0043399
2154	0.00403712
2166	0.00423898
2178	0.00474362
2190	0.00545011
2202	0.00312877
2214	0.00242227
2226	0.00161485
2238	0.00121114
2250	0.000807424
2262	0.000908352
2274	0.00211949
2286	0.00302784
2298	0.00454176
2310	0.00464269
2322	0.00403712
2334	0.0057529
2346	0.00898259
2358	0.00524826
2370	0.00635846
2382	0.00797331
2394	0.00555104
2406	0.00605568
2418	0.00545011
2430	0.00333062
2442	0.0032297
2454	0.00333062
2466	0.0032297
2478	0.00454176
2490	0.00403712
2502	0.00353248
2514	0.00282598
2526	0.0025232
2538	0.00222042
2550	0.00343155
2562	0.00211949
2574	0.00343155
2586	0.00555104
2598	0.00474362
2610	0.00403712
2622	0.0025232
2634	0.00262413
2646	0.00302784
2658	0.00363341
2670	0.00403712
2682	0.00423898
2694	0.00343155
2706	0.00423898
2718	0.0057529
2730	0.0115058
2742	0.0273515
2754	0.0188735
2766	0.00918445
2778	0.00928538
2790	0.0109002
2802	0.0145336
2814	0.0198828
2826	0.0263422
2838	0.0379489
2850	0.0654013
2862	0.136051
2874	0.238493
2886	0.218105
2898	0.200443
2910	0.239401
2922	0.371011
2934	0.512613
2946	0.333466
2958	0.191965
2970	0.130197
2982	0.129692
2994	0.184194
3006	0.209022
3018	0.30016
3030	0.560251
3042	0.635645
3054	0.533707
3066	0.508172
3078	0.273212
3090	0.153411
3102	0.122527
3114	0.0757969
3126	0.0311868
3138	0.0164513
3150	0.0114049
3162	0.0102947
3174	0.00878074
3186	0.00746867
3198	0.00615661
3210	0.00484454
3222	0.00333062
3234	0.00524826
3246	0.00464269
3258	0.00545011
3270	0.0050464
3282	0.00393619
3294	0.00393619
3306	0.00484454
3318	0.00393619
3330	0.00363341
3342	0.00474362
3354	0.0057529
3366	0.00595475
3378	0.00494547
3390	0.00454176
3402	0.0057529
3414	0.00625754
3426	0.00474362
3438	0.00363341
3450	0.00565197
3462	0.00514733
3474	0.00312877
3486	0.00343155
3498	0.00121114
3510	0.00272506
3522	0.0032297
3534	0.00050464
3546	0.00272506
3558	0.00423898
3570	0.00333062
3582	0.00343155
3594	0.00403712
3606	0.00312877
3618	0.00444083
3630	0.00272506
3642	0.00615661
3654	0.00514733
3666	0.00656032
3678	0.00454176
3690	0.0043399
3702	0.00423898
3714	0.0057529
3726	0.00343155
3738	0.00524826
3750	0.000302784
3762	0.0032297
3774	0.00464269
3786	0.00373434
3798	0.00111021
3810	0.00373434
3822	0.00464269
3834	0.00211949
3846	0.00464269
3858	0.00403712
3870	0.00605568
3882	0.00565197
3894	0.0082761
3906	0.00585382
3918	0.0101937
3930	0.00736774
3942	0.00847795
3954	0.00777146
3966	0.0110012
