Infrared Spectrum: Quinoline, 2-chloro-
Formula: C 9 H 6 Cl N
CAS: 612-62-4
Origin: Sadtler Research Labs Under US-EPA Contract
1/CM	ABSORBANCE
450	0.0263306
462	0.0337734
474	0.0471845
486	0.0205028
498	0.00610871
510	0.00645978
522	0.0148154
534	0.00919817
546	0.00442355
558	0.00863645
570	0.00519591
582	0.0256285
594	0.162478
606	0.092754
618	0.0273839
630	0.0713384
642	0.0317372
654	0.00961946
666	0.0146749
678	0.0113046
690	0.0189581
702	0.0125685
714	0.0160792
726	0.0412864
738	0.165356
750	0.233956
762	0.104269
774	0.0904369
786	0.0753407
798	0.101531
810	0.286267
822	0.314984
834	0.101742
846	0.112063
858	0.22855
870	0.0388991
882	0.016992
894	0.0143941
906	0.0183963
918	0.0317372
930	0.0576465
942	0.162337
954	0.0680383
966	0.0264008
978	0.0203624
990	0.0150962
1002	0.0141834
1014	0.0182559
1026	0.00863645
1038	0.0148856
1050	0.0197304
1062	0.0265413
1074	0.0660723
1086	0.420377
1098	0.614451
1110	0.0367927
1122	0.0854517
1134	0.621894
1146	0.539813
1158	0.0564529
1170	0.0320883
1182	0.0287179
1194	0.0403034
1206	0.0497122
1218	0.0476058
1230	0.0458504
1242	0.046061
1254	0.0387587
1266	0.0491505
1278	0.0500633
1290	0.172518
1302	0.14689
1314	0.0588402
1326	0.059121
1338	0.0704959
1350	0.0412162
1362	0.0359501
1374	0.0260498
1386	0.0297009
1398	0.0344054
1410	0.112344
1422	0.268221
1434	0.0665638
1446	0.0884709
1458	0.121472
1470	0.0987925
1482	0.0818005
1494	0.303048
1506	0.194636
1518	0.0450078
1530	0.0331415
1542	0.0353181
1554	0.158897
1566	0.315055
1578	0.247648
1590	0.341666
1602	0.3298
1614	0.207626
1626	0.141062
1638	0.0402332
1650	0.0254178
1662	0.0206432
1674	0.0210645
1686	0.0221879
1698	0.0510463
1710	0.106937
1722	0.0661425
1734	0.0233816
1746	0.0256285
1758	0.0289286
1770	0.0275243
1782	0.0216262
1794	0.0115153
1806	0.0169218
1818	0.0173431
1830	0.0120068
1842	0.0173431
1854	0.0108131
1866	0.00526612
1878	0.00526612
1890	0.00758322
1902	0.0131302
1914	0.0175537
1926	0.0230305
1938	0.0195198
1950	0.0204326
1962	0.0154473
1974	0.00449376
1986	0.00351075
1998	0.00301925
2010	0.00252774
2022	0.00365118
2034	0.00463419
2046	0.00519591
2058	0.00582785
2070	0.00428312
2082	0.00456398
2094	0.00484484
2106	0.00365118
2118	0.00379161
2130	0.00266817
2142	0.00315968
2154	0.00344054
2166	0.0028086
2178	0.00238731
2190	0.00266817
2202	0.0028086
2214	0.00308946
2226	0.00505548
2238	0.00617892
2250	0.00470441
2262	0.00463419
2274	0.0056172
2286	0.00730236
2298	0.00786408
2310	0.010111
2322	0.0115855
2334	0.0127791
2346	0.0165005
2358	0.0187474
2370	0.0158686
2382	0.00912795
2394	0.00603849
2406	0.00596828
2418	0.00723215
2430	0.00688107
2442	0.00631935
2454	0.00660021
2466	0.00765344
2478	0.00898752
2490	0.00800451
2502	0.00821516
2514	0.00821516
2526	0.00765344
2538	0.00779387
2550	0.00800451
2562	0.00891731
2574	0.00940881
2586	0.00933859
2598	0.00912795
2610	0.00800451
2622	0.0084258
2634	0.00898752
2646	0.0084258
2658	0.00947903
2670	0.00968967
2682	0.00912795
2694	0.00919817
2706	0.0110238
2718	0.0105322
2730	0.00968967
2742	0.00807473
2754	0.00870666
2766	0.00926838
2778	0.00933859
2790	0.00926838
2802	0.00997053
2814	0.00940881
2826	0.010462
2838	0.0110238
2850	0.0103918
2862	0.0107429
2874	0.0117259
2886	0.0129196
2898	0.0147452
2910	0.0172027
2922	0.0172027
2934	0.0180453
2946	0.0167814
2958	0.0124983
2970	0.0108131
2982	0.0141132
2994	0.0173431
3006	0.0199411
3018	0.0238029
3030	0.0359501
3042	0.0697235
3054	0.122525
3066	0.177574
3078	0.161143
3090	0.0889624
3102	0.0394608
3114	0.0194496
3126	0.0124281
3138	0.0119366
3150	0.0112344
3162	0.0117259
3174	0.0126387
3186	0.0127791
3198	0.0105322
3210	0.0103216
3222	0.00912795
3234	0.0103918
3246	0.0084258
3258	0.00975989
3270	0.0098301
3282	0.00884709
3294	0.00926838
3306	0.010462
3318	0.00856623
3330	0.00905774
3342	0.00891731
3354	0.00877687
3366	0.00933859
3378	0.00765344
3390	0.00919817
3402	0.00997053
3414	0.0103216
3426	0.0136217
3438	0.0132706
3450	0.0098301
3462	0.00919817
3474	0.00912795
3486	0.0109535
3498	0.00940881
3510	0.00940881
3522	0.00940881
3534	0.00975989
3546	0.00947903
3558	0.00947903
3570	0.00807473
3582	0.0124281
3594	0.0111642
3606	0.00954924
3618	0.00835559
3630	0.00294903
3642	0.0098301
3654	0.00870666
3666	0.011094
3678	0.00674064
3690	0.00891731
3702	0.0134813
3714	0.00997053
3726	0.0135515
3738	0.00912795
3750	0.00863645
3762	0.0134813
3774	0.0152367
3786	0.0153771
3798	0.0150962
3810	0.0143941
3822	0.0131302
3834	0.0148856
3846	0.016992
3858	0.0153069
3870	0.0167814
3882	0.0184665
3894	0.0187474
3906	0.0188878
3918	0.0227497
3930	0.0227497
3942	0.0226092
3954	0
3966	0.00196602
