Infrared Spectrum: Benzene, 1-ethyl-2-nitro-
Formula: C 8 H 9 N O 2
CAS: 612-22-6
Origin: Sadtler Research Labs Under US-EPA Contract
1/CM	ABSORBANCE
450	0.00518162
462	0.000370116
474	0.0057368
486	0.0178581
498	0.0104558
510	0.00851267
522	0.00434886
534	0.00712473
546	0.00879026
558	0.00712473
570	0.0162851
582	0.00842014
594	0.00092529
606	0.00582933
618	0.00370116
630	0.00555174
642	0.00518162
654	0.0289616
666	0.0655105
678	0.0201713
690	0.0240575
702	0.0639375
714	0.062272
726	0.0871623
738	0.160168
750	0.122786
762	0.0690266
774	0.122508
786	0.0977106
798	0.044599
810	0.0171179
822	0.00832761
834	0.00962302
846	0.0798525
858	0.15184
870	0.0233173
882	0.00767991
894	0.00730979
906	0.00388622
918	0.00370116
930	0.00425633
942	0.00851267
954	0.0139719
966	0.00888278
978	0.00851267
990	0.00499657
1002	0.00166552
1014	0.00629197
1026	0.015915
1038	0.0209116
1050	0.0280363
1062	0.0386771
1074	0.0201713
1086	0.00999313
1098	0.00906784
1110	0.00795749
1122	0.00629197
1134	0.00842014
1146	0.0153598
1158	0.0222995
1170	0.0156374
1182	0.00610691
1194	0.00971554
1206	0.0140644
1218	0.00767991
1230	0.0136018
1242	0.0173955
1254	0.0129541
1266	0.0145271
1278	0.0184133
1290	0.0352535
1302	0.0527415
1314	0.0516312
1326	0.0606065
1338	0.104373
1350	0.356514
1362	0.552861
1374	0.198937
1386	0.0715249
1398	0.0421932
1410	0.0339581
1422	0.0319225
1434	0.0394174
1446	0.0609766
1458	0.0879951
1470	0.0973405
1482	0.0976181
1494	0.0917888
1506	0.118715
1518	0.217998
1530	0.461442
1542	0.881246
1554	0.634841
1566	0.232433
1578	0.142402
1590	0.0931767
1602	0.0874399
1614	0.101412
1626	0.0408978
1638	0.0161
1650	0.0155449
1662	0.0107334
1674	0.00656956
1686	0.00360863
1698	0.00610691
1710	0.00619944
1722	0.00545921
1734	0.00629197
1746	0.00407128
1758	0.00360863
1770	0.00305346
1782	0.00175805
1794	0.00314599
1806	0.00851267
1818	0.00851267
1830	0.00444139
1842	0.00545921
1854	0.00407128
1866	0.00166552
1878	0.00101782
1890	0.00434886
1902	0.0035161
1914	0.00444139
1926	0.0119362
1938	0.00666209
1950	0.00610691
1962	0.00805002
1974	0.00157299
1986	0.00111035
1998	9.2529e-05
2010	0.000370116
2022	0.00157299
2034	0.000277587
2046	0.000462645
2058	0.000277587
2070	0.000185058
2082	0.000647703
2094	9.2529e-05
2106	0.000832761
2118	0.00101782
2130	0.000185058
2142	0.000555174
2154	0.000647703
2166	0.000647703
2178	0.00101782
2190	0.000647703
2202	0.00101782
2214	0.000832761
2226	0.000185058
2238	0.00166552
2250	0.00175805
2262	0.000647703
2274	0.000370116
2286	0.000277587
2298	0.00166552
2310	0.00129541
2322	0.00277587
2334	0.0057368
2346	0.00148046
2358	0.000370116
2370	0.00185058
2382	0.00249828
2394	0.00444139
2406	0.00212817
2418	0.00185058
2430	0.00231322
2442	0.00157299
2454	0.00212817
2466	0.00166552
2478	0.000740232
2490	0.000555174
2502	0.000555174
2514	0.00157299
2526	0.00120288
2538	0.000370116
2550	0.00138793
2562	0.00111035
2574	0.000740232
2586	0.00138793
2598	0.00157299
2610	0.0028684
2622	0.00148046
2634	0.00333104
2646	0.00518162
2658	0.00333104
2670	0.00259081
2682	0.0035161
2694	0.00453392
2706	0.00656956
2718	0.00370116
2730	0.00370116
2742	0.00601438
2754	0.00471898
2766	0.00453392
2778	0.00610691
2790	0.00666209
2802	0.00721726
2814	0.00666209
2826	0.0092529
2838	0.0121213
2850	0.0145271
2862	0.0220219
2874	0.0443214
2886	0.0961376
2898	0.0937319
2910	0.0628272
2922	0.0600513
2934	0.074856
2946	0.123526
2958	0.103355
2970	0.116124
2982	0.205414
2994	0.140829
3006	0.0507984
3018	0.0252604
3030	0.0314599
3042	0.0371967
3054	0.033588
3066	0.0528341
3078	0.0889204
3090	0.0640301
3102	0.0177656
3114	0.0108259
3126	0.00656956
3138	0.00629197
3150	0.00814255
3162	0.0057368
3174	0.00610691
3186	0.00564427
3198	0.00379369
3210	0.00342357
3222	0.0028684
3234	0.00333104
3246	0.0035161
3258	0.00111035
3270	0.00314599
3282	0.00333104
3294	0.00148046
3306	0.00268334
3318	0.00101782
3330	0.00342357
3342	0.0022207
3354	0.00101782
3366	0.00360863
3378	0.00212817
3390	0.00129541
3402	0.00268334
3414	0.00268334
3426	0.00277587
3438	0.00194311
3450	0.00166552
3462	0.0041638
3474	0.00148046
3486	0.00166552
3498	0.0041638
3510	0.0022207
3522	0.00342357
3534	0.00185058
3546	0.00240575
3558	0.00407128
3570	0.00175805
3582	0.00323851
3594	0.00444139
3606	0.00360863
3618	0.00425633
3630	0.00268334
3642	0.00490404
3654	0.00379369
3666	0.00370116
3678	0.00499657
3690	0.00425633
3702	0.0035161
3714	0.00518162
3726	0.00518162
3738	0.00592186
3750	0.0050891
3762	0.00527415
3774	0.00712473
3786	0.00490404
3798	0.00527415
3810	0.00545921
3822	0.00555174
3834	0.0057368
3846	0.00545921
3858	0.00592186
3870	0.00629197
3882	0.00434886
3894	0.00647703
3906	0.00619944
3918	0.00592186
3930	0.00610691
3942	0.00610691
3954	0.00185058
3966	0.00212817
