Infrared Spectrum: 2-Methoxybenzyl alcohol
Formula: C 8 H 10 O 2
CAS: 612-16-8
Origin: Sadtler Research Labs Under US-EPA Contract
1/CM	ABSORBANCE
450	0
462	0.0207544
474	0.0244504
486	0.0269144
498	0.0245452
510	0.0279569
522	0.0340221
534	0.0364861
546	0.0346855
558	0.0407507
570	0.0482374
582	0.0440676
594	0.047574
606	0.053734
618	0.0371494
630	0.0247347
642	0.0226498
654	0.0211335
666	0.0209439
678	0.0251138
690	0.0382867
702	0.0462473
714	0.0778053
726	0.123674
738	0.217495
750	0.464747
762	0.301934
774	0.0937265
786	0.0536393
798	0.0412245
810	0.0412245
822	0.0583777
834	0.0603679
846	0.0479531
858	0.0458682
870	0.0378128
882	0.0343064
894	0.0326005
906	0.034875
918	0.043499
930	0.0621685
942	0.0779949
954	0.103488
966	0.110406
978	0.113154
990	0.146987
1002	0.239292
1014	0.41234
1026	0.590695
1038	0.597898
1050	0.466548
1062	0.233321
1074	0.098465
1086	0.0835863
1098	0.0921155
1110	0.163856
1122	0.174659
1134	0.0967591
1146	0.0988441
1158	0.15163
1170	0.203564
1182	0.269333
1194	0.245357
1206	0.193139
1218	0.217684
1230	0.511942
1242	0.925988
1254	0.687075
1266	0.319751
1278	0.287908
1290	0.276631
1302	0.179587
1314	0.137984
1326	0.113438
1338	0.0965696
1350	0.0878509
1362	0.102161
1374	0.137131
1386	0.190012
1398	0.18679
1410	0.117987
1422	0.0951481
1434	0.166509
1446	0.233132
1458	0.291225
1470	0.365429
1482	0.396703
1494	0.556578
1506	0.338515
1518	0.0804589
1530	0.042646
1542	0.0396134
1554	0.0383814
1566	0.0515543
1578	0.122821
1590	0.248579
1602	0.293405
1614	0.183094
1626	0.0579986
1638	0.0277673
1650	0.025019
1662	0.0207544
1674	0.0257772
1686	0.0266301
1698	0.0320319
1710	0.0419827
1722	0.0318424
1734	0.0268196
1746	0.0273882
1758	0.0248295
1770	0.0241661
1782	0.0217021
1794	0.0198067
1806	0.0181956
1818	0.0165846
1830	0.016016
1842	0.0154473
1854	0.0155421
1866	0.0159212
1878	0.0177218
1890	0.0251138
1902	0.0217021
1914	0.0178166
1926	0.0226498
1938	0.0207544
1950	0.0140258
1962	0.0136467
1974	0.0152578
1986	0.0175323
1998	0.0202806
2010	0.0204701
2022	0.0204701
2034	0.0212283
2046	0.0241661
2058	0.0253033
2070	0.0247347
2082	0.0209439
2094	0.0162055
2106	0.0132677
2118	0.0118461
2130	0.011088
2142	0.0115618
2154	0.0115618
2166	0.0112775
2178	0.0108037
2190	0.0112775
2202	0.0113723
2214	0.0122252
2226	0.0126043
2238	0.01232
2250	0.0128886
2262	0.0126043
2274	0.0124147
2286	0.0127938
2298	0.012699
2310	0.0128886
2322	0.0134572
2334	0.0120357
2346	0.011467
2358	0.0109932
2370	0.0117514
2382	0.0120357
2394	0.0121304
2406	0.0128886
2418	0.0130781
2430	0.0128886
2442	0.0121304
2454	0.012699
2466	0.0146892
2478	0.0165846
2490	0.0161107
2502	0.0145944
2514	0.0155421
2526	0.0174375
2538	0.0175323
2550	0.0162055
2562	0.0153526
2574	0.014784
2586	0.0145944
2598	0.0152578
2610	0.0153526
2622	0.0150683
2634	0.0154473
2646	0.0156369
2658	0.0153526
2670	0.0148787
2682	0.0142153
2694	0.0157317
2706	0.0167741
2718	0.0175323
2730	0.0186695
2742	0.0194276
2754	0.0206596
2766	0.0227446
2778	0.025019
2790	0.0281464
2802	0.0326953
2814	0.0413193
2826	0.0620737
2838	0.13732
2850	0.187927
2862	0.142722
2874	0.150967
2886	0.181009
2898	0.174564
2910	0.177502
2922	0.203185
2934	0.221096
2946	0.290751
2958	0.309042
2970	0.22574
2982	0.140637
2994	0.126611
3006	0.184989
3018	0.150019
3030	0.121589
3042	0.133245
3054	0.118935
3066	0.134382
3078	0.15997
3090	0.128791
3102	0.0616946
3114	0.0437833
3126	0.0291889
3138	0.019712
3150	0.017627
3162	0.0171532
3174	0.0167741
3186	0.0158264
3198	0.0142153
3210	0.0136467
3222	0.0128886
3234	0.0132677
3246	0.0130781
3258	0.0130781
3270	0.0126043
3282	0.0127938
3294	0.0121304
3306	0.0121304
3318	0.0116566
3330	0.0116566
3342	0.0113723
3354	0.0117514
3366	0.0120357
3378	0.0120357
3390	0.0124147
3402	0.0128886
3414	0.0130781
3426	0.0131729
3438	0.0140258
3450	0.0130781
3462	0.013931
3474	0.0140258
3486	0.0143101
3498	0.0136467
3510	0.0144997
3522	0.0142153
3534	0.015163
3546	0.0178166
3558	0.0181956
3570	0.0211335
3582	0.0215126
3594	0.0249242
3606	0.0270092
3618	0.0390448
3630	0.075057
3642	0.0962853
3654	0.0776158
3666	0.0631162
3678	0.0515543
3690	0.0377181
3702	0.0270092
3714	0.0215126
3726	0.0199963
3738	0.016395
3750	0.0153526
3762	0.0152578
3774	0.0146892
3786	0.0145944
3798	0.0141206
3810	0.0146892
3822	0.0161107
3834	0.0157317
3846	0.0174375
3858	0.0178166
3870	0.0174375
3882	0.0180061
3894	0.0183852
3906	0.0185747
3918	0.0171532
3930	0.0163003
3942	0.014784
3954	0.0148787
3966	0.0153526
