Infrared Spectrum: Anthracene, 2-methyl-
Formula: C 15 H 12
CAS: 613-12-7
Origin: Sadtler Research Labs Under US-EPA Contract
1/CM	ABSORBANCE
450	0.067411
462	0.105693
474	0.0580669
486	0.0071511
498	0.00452903
510	0.00688889
522	0.0063168
534	0.0041238
546	0.00400462
558	0.00622146
570	0.0113464
582	0.0336102
594	0.0140162
606	0.00405229
618	0.0151127
630	0.00603076
642	0.00922492
654	0.0137539
666	0.00290811
678	0.00395694
690	0.0060546
702	0.00538716
714	0.0140877
726	0.114465
738	0.212435
750	0.0479124
762	0.00912957
774	0.00722261
786	0.0181876
798	0.013897
810	0.00286044
822	0.002193
834	0.005411
846	0.0148028
858	0.0304637
870	0.0865521
882	0.213532
894	0.124405
906	0.0268643
918	0.00941562
930	0.00893887
942	0.0211434
954	0.0230504
966	0.00977317
978	0.00781854
990	0.00705575
1002	0.0206667
1014	0.0201661
1026	0.00390927
1038	0.00448136
1050	0.00317032
1062	0.00152557
1074	0.00047674
1086	0.00023837
1098	0.00176394
1110	0.00328951
1122	0.00755633
1134	0.0113941
1146	0.00789005
1158	0.0169481
1170	0.0188551
1182	0.00369473
1194	0.00231219
1206	0.00429066
1218	0.00207382
1230	0.00159708
1242	0.00102499
1254	0.00448136
1266	0.0108697
1278	0.0082476
1290	0.0017401
1302	0.00893887
1314	0.0121569
1326	0.0149458
1338	0.0126574
1350	0.0111319
1362	0.0113464
1374	0.00660285
1386	0.00719877
1398	0.0087005
1410	0.00536332
1422	0.00612611
1434	0.0112749
1446	0.017115
1458	0.0304398
1470	0.0190696
1482	0.0165429
1494	0.00562553
1506	0.00364706
1518	0.00622146
1530	0.0214056
1542	0.0254341
1554	0.013015
1566	0.0126336
1578	0.0131342
1590	0.0102737
1602	0.0036709
1614	0.00965399
1626	0.0311073
1638	0.0673157
1650	0.0264114
1662	0.00805691
1674	0.0121807
1686	0.0166621
1698	0.00698424
1710	0.00798539
1722	0.00443368
1734	0.00648366
1746	0.0112272
1758	0.0082476
1770	0.0107266
1782	0.0119423
1794	0.0143022
1806	0.00710343
1818	0.0058639
1830	0.00610227
1842	0.00564937
1854	0.00350404
1866	0.00121569
1878	0.00178777
1890	0.00567321
1902	0.0138493
1914	0.0121569
1926	0.0093441
1938	0.0107982
1950	0.00131103
1962	0.000548251
1974	0.000190696
1986	0.00023837
1998	0.000858132
2010	0.00107266
2022	0.000786621
2034	0.000619762
2046	0.000619762
2058	0.00071511
2070	0.000643599
2082	0.000357555
2094	0.000905806
2106	0.000977317
2118	0.000381392
2130	0.000452903
2142	0.000738947
2154	0.000381392
2166	0.000643599
2178	0.00047674
2190	0.000595925
2202	0.000572088
2214	0.000834295
2226	0.000452903
2238	0.000166859
2250	0.000166859
2262	0.000643599
2274	0.00143022
2286	0.00188312
2298	0.00245521
2310	0.00362322
2322	0.00417148
2334	0.00395694
2346	0.00345636
2358	0.00345636
2370	0.00276509
2382	0.00278893
2394	0.00183545
2406	0.0019308
2418	0.00243137
2430	0.0028366
2442	0.00224068
2454	0.00188312
2466	0.00171626
2478	0.00119185
2490	0.000858132
2502	0.000905806
2514	0.00135871
2526	0.00166859
2538	0.00228835
2550	0.00195463
2562	0.00123952
2574	0.00143022
2586	0.00126336
2598	0.00126336
2610	0.000977317
2622	0.000929643
2634	0.00100115
2646	0.00157324
2658	0.0017401
2670	0.00176394
2682	0.00140638
2694	0.00145406
2706	0.00171626
2718	0.002193
2730	0.00324183
2742	0.00529181
2754	0.00402845
2766	0.00269358
2778	0.00269358
2790	0.00340869
2802	0.00317032
2814	0.00369473
2826	0.00514879
2838	0.00758017
2850	0.0131342
2862	0.0278178
2874	0.0437886
2886	0.0362799
2898	0.0338724
2910	0.0385921
2922	0.0594495
2934	0.09623
2946	0.0506298
2958	0.0427159
2970	0.0353503
2982	0.0441461
2994	0.0496048
3006	0.0673395
3018	0.0992334
3030	0.121807
3042	0.148195
3054	0.21265
3066	0.193699
3078	0.0865998
3090	0.0416194
3102	0.0255056
3114	0.0149458
3126	0.0097255
3138	0.00510112
3150	0.00255056
3162	0.0028366
3174	0.0023837
3186	0.00212149
3198	0.00164475
3210	0.00183545
3222	0.00147789
3234	0.00095348
3246	0.00104883
3258	0.0010965
3270	0.000905806
3282	0
3294	0.000500577
3306	9.5348e-05
3318	0.000429066
3330	0.000572088
3342	0.000691273
3354	0.000214533
3366	0.000214533
3378	0.000738947
3390	0.00071511
3402	0.000429066
3414	0.000810458
3426	0.00143022
3438	0.000262207
3450	0.000810458
3462	0.000691273
3474	0.00121569
3486	0.000881969
3498	0.000786621
3510	0.000786621
3522	0.00133487
3534	0.00159708
3546	0.00169243
3558	0.00123952
3570	0.0012872
3582	0.00214533
3594	0.00183545
3606	0.00288428
3618	0.0012872
3630	0.00212149
3642	0.00359939
3654	0.00300346
3666	0.00216917
3678	0.0019308
3690	0.00252672
3702	0.002193
3714	0.00119185
3726	0.000977317
3738	0.0017401
3750	0.000762784
3762	0.00100115
3774	0.0012872
3786	0.00112034
3798	0.00176394
3810	0.00107266
3822	0.000309881
3834	0.000691273
3846	0.000214533
3858	0
3870	0.000286044
3882	0.00243137
3894	0.000524414
3906	0.00171626
3918	0.00150173
3930	0.0019308
3942	0.00185929
3954	0.00252672
3966	0.00326567
