Infrared Spectrum: 4,4'-Dimethylbiphenyl
Formula: C 14 H 14
CAS: 613-33-2
Origin: Sadtler Research Labs Under US-EPA Contract
1/CM	ABSORBANCE
450	0
462	0.00944791
474	0.0103601
486	0.0250207
498	0.0866601
510	0.124582
522	0.0695236
534	0.0398115
546	0.0422875
558	0.0221537
570	0.0119891
582	0.00847054
594	0.0072977
606	0.00436559
618	0.00566875
630	0.0072977
642	0.00886149
654	0.00755833
666	0.00814475
678	0.00482169
690	0.00384432
702	0.00834022
714	0.0134877
726	0.0183094
738	0.011142
750	0.0138787
762	0.022284
774	0.044112
786	0.132662
798	0.420986
810	0.345598
822	0.106273
834	0.0682204
846	0.0323184
858	0.0126407
870	0.0109465
882	0.0192216
894	0.0137483
906	0.00612485
918	0.00579906
930	0.00814475
942	0.00918728
954	0.0100995
966	0.0120542
978	0.00814475
990	0.00983886
1002	0.0877678
1014	0.0821642
1026	0.0292559
1038	0.0270406
1050	0.0317971
1062	0.0241085
1074	0.018961
1086	0.020199
1098	0.033817
1110	0.0521264
1122	0.0529083
1134	0.036293
1146	0.0202641
1158	0.0175275
1170	0.0190261
1182	0.0630729
1194	0.0187655
1206	0.0304288
1218	0.0282786
1230	0.0286695
1242	0.0190261
1254	0.0138135
1266	0.012771
1278	0.0108814
1290	0.0114678
1302	0.016094
1314	0.0181139
1326	0.0142696
1338	0.0202641
1350	0.0197429
1362	0.0259329
1374	0.0303636
1386	0.0345989
1398	0.040398
1410	0.0424179
1422	0.0448287
1434	0.0420921
1446	0.042483
1458	0.050302
1470	0.066396
1482	0.0875072
1494	0.268972
1506	0.541333
1518	0.0555798
1530	0.0385735
1542	0.0344034
1554	0.0299075
1566	0.0289953
1578	0.0252161
1590	0.017332
1602	0.0190913
1614	0.0236524
1626	0.0274967
1638	0.0280831
1650	0.023913
1662	0.0222189
1674	0.0199383
1686	0.0173972
1698	0.0142696
1710	0.0100995
1722	0.0249555
1734	0.0144651
1746	0.0135529
1758	0.0143348
1770	0.0194822
1782	0.0312758
1794	0.0218931
1806	0.00814475
1818	0.00605969
1830	0.00684159
1842	0.00781896
1854	0.00625517
1866	0.00957823
1878	0.0173972
1890	0.0365536
1902	0.035055
1914	0.0155076
1926	0.00710222
1938	0.0052778
1950	0.00469138
1962	0.00469138
1974	0.00482169
1986	0.0044959
1998	0.00462622
2010	0.0040398
2022	0.00430043
2034	0.00443074
2046	0.00377916
2058	0.00306243
2070	0.00286695
2082	0.00299727
2094	0.0032579
2106	0.00371401
2118	0.00286695
2130	0.00299727
2142	0.00319274
2154	0.00319274
2166	0.00417011
2178	0.00364885
2190	0.00371401
2202	0.00397464
2214	0.00364885
2226	0.00371401
2238	0.00397464
2250	0.00397464
2262	0.0040398
2274	0.0040398
2286	0.0052778
2298	0.00716738
2310	0.00892665
2322	0.00892665
2334	0.00768864
2346	0.0072977
2358	0.00605969
2370	0.00592938
2382	0.00560359
2394	0.00521264
2406	0.0057339
2418	0.00579906
2430	0.0052778
2442	0.00495201
2454	0.00501717
2466	0.00521264
2478	0.00501717
2490	0.00508232
2502	0.00488685
2514	0.00488685
2526	0.00501717
2538	0.00443074
2550	0.00462622
2562	0.00488685
2574	0.00638548
2586	0.00886149
2598	0.0089918
2610	0.00645064
2622	0.00749317
2634	0.00592938
2646	0.00462622
2658	0.00495201
2670	0.00508232
2682	0.00638548
2694	0.00664612
2706	0.00840538
2718	0.0105556
2730	0.0119891
2742	0.0230659
2754	0.014009
2766	0.00860086
2778	0.00886149
2790	0.0107511
2802	0.0136832
2814	0.0176578
2826	0.0218279
2838	0.0271057
2850	0.0434604
2862	0.0823597
2874	0.163872
2886	0.169346
2898	0.130837
2910	0.133053
2922	0.202772
2934	0.355111
2946	0.195669
2958	0.103666
2970	0.0959126
2982	0.114287
2994	0.147974
3006	0.182833
3018	0.248252
3030	0.518853
3042	0.20199
3054	0.198211
3066	0.183224
3078	0.138265
3090	0.107185
3102	0.0612485
3114	0.0364885
3126	0.0311455
3138	0.0224144
3150	0.014009
3162	0.00944791
3174	0.0072977
3186	0.00586422
3198	0.00514748
3210	0.00508232
3222	0.00495201
3234	0.00443074
3246	0.00430043
3258	0.00417011
3270	0.00423527
3282	0.00443074
3294	0.00475653
3306	0.00501717
3318	0.0044959
3330	0.00501717
3342	0.00495201
3354	0.00482169
3366	0.00462622
3378	0.00482169
3390	0.00508232
3402	0.00534296
3414	0.00469138
3426	0.00495201
3438	0.00436559
3450	0.00462622
3462	0.00462622
3474	0.00436559
3486	0.00469138
3498	0.00410495
3510	0.00514748
3522	0.00501717
3534	0.00351853
3546	0.0044959
3558	0.00423527
3570	0.00508232
3582	0.0052778
3594	0.00521264
3606	0.00619001
3618	0.00488685
3630	0.00671127
3642	0.00521264
3654	0.00612485
3666	0.00807959
3678	0.00820991
3690	0.0072977
3702	0.00540811
3714	0.00632033
3726	0.0040398
3738	0.00345337
3750	0.00540811
3762	0.00436559
3774	0.00377916
3786	0.00417011
3798	0.0040398
3810	0.00547327
3822	0.00534296
3834	0.00625517
3846	0.00547327
3858	0.00801443
3870	0.0072977
3882	0.0057339
3894	0.00736285
3906	0.00645064
3918	0.00736285
3930	0.00755833
3942	0.00488685
3954	0.00586422
3966	0.00540811
