Infrared Spectrum: Benzaldehyde, 2-ethoxy-
Formula: C 9 H 10 O 2
CAS: 613-69-4
Origin: Sadtler Research Labs Under US-EPA Contract
1/CM	ABSORBANCE
450	0.00562718
462	0.00328974
474	0.00969606
486	0.0255387
498	0.0196518
510	0.0178338
522	0.0185264
534	0.0162755
546	0.00441517
558	0.00744519
570	0.0139381
582	0.022249
594	0.021037
606	0.0217296
618	0.0188727
630	0.038438
642	0.0644961
654	0.058263
666	0.0224221
678	0.0136784
690	0.019219
702	0.0236342
714	0.0363602
726	0.0528955
738	0.0952292
750	0.225087
762	0.206301
774	0.0792134
786	0.04268
798	0.0423337
810	0.050558
822	0.10328
834	0.126741
846	0.058263
858	0.0341959
870	0.0293479
882	0.0328974
894	0.0379185
906	0.0593884
918	0.0641499
930	0.0545404
942	0.0336765
954	0.0231147
966	0.017401
978	0.0188727
990	0.0238073
1002	0.0338497
1014	0.0604273
1026	0.122846
1038	0.240584
1050	0.233831
1062	0.0967875
1074	0.0520298
1086	0.0747116
1098	0.133494
1110	0.159119
1122	0.135399
1134	0.0631976
1146	0.0831957
1158	0.187428
1170	0.123365
1182	0.123105
1194	0.124404
1206	0.102848
1218	0.244133
1230	0.551377
1242	0.614228
1254	0.323866
1266	0.215997
1278	0.327935
1290	0.335553
1302	0.223442
1314	0.0851003
1326	0.0380917
1338	0.0287419
1350	0.0354945
1362	0.058869
1374	0.0987787
1386	0.244999
1398	0.215131
1410	0.070383
1422	0.0448443
1434	0.0552329
1446	0.136697
1458	0.287765
1470	0.267421
1482	0.354859
1494	0.18864
1506	0.0706428
1518	0.0309062
1530	0.0171413
1542	0.0196518
1554	0.0221624
1566	0.0425934
1578	0.110379
1590	0.271057
1602	0.388881
1614	0.170027
1626	0.0440651
1638	0.0296942
1650	0.0335899
1662	0.0448443
1674	0.0591287
1686	0.0876109
1698	0.383687
1710	0.86546
1722	0.370701
1734	0.140593
1746	0.0459697
1758	0.0335034
1770	0.0374857
1782	0.036014
1794	0.0232879
1806	0.0185264
1818	0.0159292
1830	0.0109946
1842	0.00960949
1854	0.00718548
1866	0.00623318
1878	0.0080512
1890	0.0092632
1902	0.0110812
1914	0.0139381
1926	0.0148904
1938	0.0140247
1950	0.0148904
1962	0.0109081
1974	0.00822434
1986	0.00744519
1998	0.00839748
2010	0.00883034
2022	0.00978264
2034	0.00900349
2046	0.0080512
2058	0.00753176
2070	0.00761834
2082	0.00554061
2094	0.00311659
2106	0.00233744
2118	0.00311659
2130	0.00320316
2142	0.00320316
2154	0.00242402
2166	0.00147172
2178	0.00147172
2190	0.00242402
2202	0.00138515
2214	0.00129858
2226	0.00129858
2238	0.0021643
2250	0.00320316
2262	0.0037226
2274	0.00320316
2286	0.00285688
2298	0.00181801
2310	0.00164487
2322	0.000692576
2334	0.000692576
2346	0.000692576
2358	0.00225087
2370	0.00502118
2382	0.00528089
2394	0.00406888
2406	0.00190458
2418	0.0027703
2430	0.0037226
2442	0.0037226
2454	0.0049346
2466	0.00545404
2478	0.00623318
2490	0.00580032
2502	0.00450174
2514	0.0037226
2526	0.00467489
2538	0.00363602
2550	0.00303002
2562	0.00484803
2574	0.0043286
2586	0.00441517
2598	0.00380917
2610	0.00424203
2622	0.00346288
2634	0.0037226
2646	0.00484803
2658	0.00692576
2670	0.00900349
2682	0.0110812
2694	0.014977
2706	0.0239804
2718	0.0321182
2730	0.0251059
2742	0.0314256
2754	0.0489998
2766	0.0371394
2778	0.0230282
2790	0.0197384
2802	0.0193056
2814	0.0232879
2826	0.0328108
2838	0.0497789
2850	0.122673
2862	0.181368
2874	0.113756
2886	0.0884766
2898	0.0870049
2910	0.0830225
2922	0.086572
2934	0.0967009
2946	0.106484
2958	0.0804254
2970	0.0738459
2982	0.13436
2994	0.183446
3006	0.0808582
3018	0.0425934
3030	0.0373125
3042	0.045104
3054	0.0429397
3066	0.0423337
3078	0.0882169
3090	0.0800791
3102	0.0283956
3114	0.0169681
3126	0.00753176
3138	0.00683919
3150	0.00770491
3162	0.00779148
3174	0.00562718
3186	0.0037226
3198	0.00398231
3210	0.00346288
3222	0.00259716
3234	0.00199116
3246	0.00320316
3258	0.00311659
3270	0.00467489
3282	0.00181801
3294	0.00294345
3306	0.00251059
3318	0.00311659
3330	0.0043286
3342	0.00242402
3354	0.00415546
3366	0.00623318
3378	0.0104752
3390	0.0142844
3402	0.0160158
3414	0.00909006
3426	0.00562718
3438	0.00753176
3450	0.00502118
3462	0.00303002
3474	0.00190458
3486	0.00337631
3498	0.00424203
3510	0.00285688
3522	0.0021643
3534	0.000779148
3546	0.00138515
3558	0.00259716
3570	0.00675262
3582	0.00900349
3594	0.00519432
3606	0.0043286
3618	0.00328974
3630	0.00303002
3642	0.00441517
3654	0.0037226
3666	0.0043286
3678	0.00510775
3690	0.00528089
3702	0.0043286
3714	0.00484803
3726	0.0058869
3738	0.00580032
3750	0.00562718
3762	0.00458832
3774	0.00562718
3786	0.00683919
3798	0.00761834
3810	0.00761834
3822	0.00657947
3834	0.00701233
3846	0.0080512
3858	0.00813777
3870	0.00779148
3882	0.00666604
3894	0.00753176
3906	0.00883034
3918	0.00839748
3930	0.00857063
3942	0.0086572
3954	0
3966	0.000692576
