Infrared Spectrum: Benzaldehyde, 2,4-dimethoxy-
Formula: C 9 H 10 O 3
CAS: 613-45-6
Origin: Sadtler Research Labs Under US-EPA Contract
1/CM	ABSORBANCE
450	0.0299704
462	0.0265233
474	0.00900069
486	0.00766016
498	0.0249913
510	0.0222145
522	0.00708565
534	0.000574512
546	0.00191504
558	0.0148416
570	0.0203952
582	0.0103412
594	0.00469185
606	0.00526636
618	0.0105327
630	0.0178099
642	0.0246083
654	0.0202037
666	0.0107242
678	0.00354282
690	0.00574512
702	0.00555362
714	0.00564937
726	0.00354282
738	0.00143628
750	0.00296831
762	0.00507486
774	0.0126393
786	0.0322684
798	0.0981458
810	0.139606
822	0.0882833
834	0.102167
846	0.0799529
858	0.0344707
870	0.0158948
882	0.00852193
894	0.00775591
906	0.0141713
918	0.0436629
930	0.0672179
942	0.0405031
954	0.0154161
966	0.011586
978	0.0154161
990	0.0201079
1002	0.0265233
1014	0.0543871
1026	0.148224
1038	0.267723
1050	0.178769
1062	0.0473015
1074	0.037056
1086	0.0636751
1098	0.175896
1110	0.295874
1122	0.2164
1134	0.108966
1146	0.174556
1158	0.41317
1170	0.302864
1182	0.161246
1194	0.221857
1206	0.465546
1218	0.449556
1230	0.171396
1242	0.178194
1254	0.416808
1266	0.575757
1278	0.439023
1290	0.406563
1302	0.344994
1314	0.218889
1326	0.147841
1338	0.0595577
1350	0.0352367
1362	0.0324599
1374	0.0392583
1386	0.0954647
1398	0.157416
1410	0.131372
1422	0.156172
1434	0.121414
1446	0.140564
1458	0.18461
1470	0.255754
1482	0.176279
1494	0.235646
1506	0.201558
1518	0.0548659
1530	0.0315982
1542	0.0377263
1554	0.0637708
1566	0.150714
1578	0.338292
1590	0.539467
1602	0.852672
1614	0.795603
1626	0.232773
1638	0.085698
1650	0.0514188
1662	0.050174
1674	0.0561107
1686	0.124573
1698	0.710959
1710	0.624016
1722	0.179918
1734	0.0720055
1746	0.0303534
1758	0.0246083
1770	0.0284383
1782	0.0186716
1794	0.0128308
1806	0.00871343
1818	0.00612813
1830	0.0049791
1842	0.00526636
1854	0.00574512
1866	0.00622388
1878	0.00670264
1890	0.00622388
1902	0.00641538
1914	0.00679839
1926	0.00631963
1938	0.0047876
1950	0.00488335
1962	0.00536211
1974	0.0049791
1986	0.00354282
1998	0.0045961
2010	0.0049791
2022	0.00450034
2034	0.00507486
2046	0.00526636
2058	0.00660689
2070	0.00919219
2082	0.00823467
2094	0.00440459
2106	0.00172354
2118	0.000861768
2130	0.000861768
2142	0.00201079
2154	0.00143628
2166	0.00114902
2178	0.0022023
2190	0.00373433
2202	0.0049791
2214	0.00517061
2226	0.00296831
2238	0.00105327
2250	0.000670264
2262	0.000287256
2274	0.000287256
2286	0.00181929
2298	0.00450034
2310	0.00507486
2322	0.00162778
2334	0
2346	0.000383008
2358	0
2370	0.000861768
2382	0.00507486
2394	0.00430884
2406	0.00402158
2418	0.00450034
2430	0.00421309
2442	0.00373433
2454	0.00344707
2466	0.00306406
2478	0.00363858
2490	0.00363858
2502	0.00373433
2514	0.00450034
2526	0.00450034
2538	0.00363858
2550	0.00383008
2562	0.00430884
2574	0.00603238
2586	0.00804317
2598	0.00880918
2610	0.00842618
2622	0.00679839
2634	0.00536211
2646	0.00517061
2658	0.00555362
2670	0.00775591
2682	0.0111072
2694	0.0191504
2706	0.0276723
2718	0.0249913
2730	0.0173311
2742	0.0183844
2754	0.0413649
2766	0.0489293
2778	0.0245125
2790	0.0179056
2802	0.0196292
2814	0.024704
2826	0.0390668
2838	0.096901
2850	0.226549
2862	0.19926
2874	0.0791869
2886	0.0564937
2898	0.0653029
2910	0.0739205
2922	0.0851235
2934	0.09422
2946	0.159523
2958	0.17695
2970	0.135106
2982	0.0738248
2994	0.0566852
3006	0.107817
3018	0.128595
3030	0.0412691
3042	0.0214484
3054	0.0167566
3066	0.0153203
3078	0.0188631
3090	0.0268106
3102	0.0245125
3114	0.0128308
3126	0.00833042
3138	0.00641538
3150	0.00631963
3162	0.00574512
3174	0.0047876
3186	0.00411734
3198	0.00373433
3210	0.00325557
3222	0.00191504
3234	0.00153203
3246	0.00124478
3258	0.000670264
3270	0.000861768
3282	0
3294	0.000670264
3306	0.00172354
3318	0.00114902
3330	0.000766016
3342	0.000861768
3354	0.00047876
3366	0.00306406
3378	0.0071814
3390	0.0129265
3402	0.0049791
3414	0.00287256
3426	0.00306406
3438	0.00277681
3450	0.00306406
3462	0.0023938
3474	0.00114902
3486	0.00114902
3498	0.000383008
3510	0.000574512
3522	0.00143628
3534	0.000670264
3546	0.000287256
3558	0.00124478
3570	0.00344707
3582	0.00421309
3594	0.0025853
3606	0.00134053
3618	0.00229805
3630	0.00344707
3642	0.00306406
3654	0.00277681
3666	0.00383008
3678	0.00363858
3690	0.00392583
3702	0.00411734
3714	0.00517061
3726	0.00488335
3738	0.00593662
3750	0.0073729
3762	0.00766016
3774	0.00766016
3786	0.0073729
3798	0.0073729
3810	0.00804317
3822	0.00833042
3834	0.00928794
3846	0.00852193
3858	0.00794742
3870	0.00861768
3882	0.00823467
3894	0.00842618
3906	0.00842618
3918	0.00909644
3930	0.00928794
3942	0.00995821
3954	0.00335132
3966	0.00402158
