Infrared Spectrum: Benzenamine, N,N-diethyl-4-methyl-
Formula: C 11 H 17 N
CAS: 613-48-9
Origin: Sadtler Research Labs Under US-EPA Contract
1/CM	ABSORBANCE
450	0.00781547
462	0.00850878
474	0.0107778
486	0.0122905
498	0.0175218
510	0.0176478
522	0.0143704
534	0.0162612
546	0.0186563
558	0.0219968
570	0.0109038
582	0.00699611
594	0.00485316
606	0.0063028
618	0.00504224
630	0.00598766
642	0.00768942
654	0.0115341
666	0.020295
678	0.0204211
690	0.0123535
702	0.0141813
714	0.0161982
726	0.0152528
738	0.0115972
750	0.0115972
762	0.015757
774	0.0346654
786	0.0661794
798	0.111875
810	0.130468
822	0.060759
834	0.0257785
846	0.0139292
858	0.011219
870	0.0115341
882	0.0117862
894	0.0177739
906	0.0139292
918	0.0120383
930	0.0120383
942	0.0115341
954	0.0110299
966	0.0126056
978	0.0172066
990	0.0196017
1002	0.0319552
1014	0.0487206
1026	0.0445608
1038	0.0347284
1050	0.0377538
1062	0.0488467
1074	0.0686375
1086	0.0627759
1098	0.065171
1110	0.0547713
1122	0.0456323
1134	0.0629019
1146	0.1253
1158	0.0797304
1170	0.0550234
1182	0.0973152
1194	0.125615
1206	0.0804237
1218	0.0496661
1230	0.0502963
1242	0.107715
1254	0.249969
1266	0.227342
1278	0.0996473
1290	0.0690157
1302	0.0623977
1314	0.0589312
1326	0.0689526
1338	0.09908
1350	0.149187
1362	0.169545
1374	0.176226
1386	0.195135
1398	0.103933
1410	0.0548344
1422	0.0397076
1434	0.0317661
1446	0.0431112
1458	0.0581118
1470	0.0613262
1482	0.0546453
1494	0.0658012
1506	0.197404
1518	0.63028
1530	0.254444
1542	0.0491618
1554	0.0317661
1566	0.0339721
1578	0.0396446
1590	0.0347915
1602	0.0561579
1614	0.130279
1626	0.126308
1638	0.0376907
1650	0.0168285
1662	0.0144964
1674	0.013488
1686	0.0545822
1698	0.0501073
1710	0.00926512
1722	0.00554646
1734	0.00352957
1746	0.00542041
1758	0.00605069
1770	0.00447499
1782	0.00434893
1794	0.00403379
1806	0.00466407
1818	0.00687005
1830	0.00415985
1842	0.0047271
1854	0.0100215
1866	0.00976934
1878	0.00731125
1890	0.00617674
1902	0.00623977
1914	0.0051683
1926	0.00636583
1938	0.0051683
1950	0.00289929
1962	0.00289929
1974	0.00283626
1986	0.00334048
1998	0.00283626
2010	0.00321443
2022	0.00340351
2034	0.00415985
2046	0.00390774
2058	0.00397076
2070	0.00233204
2082	0.00176478
2094	0.0015757
2106	0.00176478
2118	0.0020169
2130	0.00144964
2142	0.00138662
2154	0.00176478
2166	0.00214295
2178	0.00258415
2190	0.00302534
2202	0.00195387
2214	0.00119753
2226	0.000819364
2238	0.00126056
2250	0.00119753
2262	0.00138662
2274	0.00163873
2286	0.00214295
2298	0.00207992
2310	0.000567252
2322	0.000882392
2334	0.00126056
2346	0.00252112
2358	0.000504224
2370	0.00189084
2382	0.00283626
2394	0.00283626
2406	0.00283626
2418	0.00289929
2430	0.0027102
2442	0.00233204
2454	0.00289929
2466	0.00296232
2478	0.00296232
2490	0.00334048
2502	0.00390774
2514	0.00453802
2526	0.00548344
2538	0.00554646
2550	0.00504224
2562	0.00453802
2574	0.0051683
2586	0.00560949
2598	0.00598766
2610	0.00655491
2622	0.00617674
2634	0.00567252
2646	0.00573555
2658	0.00623977
2670	0.00724822
2682	0.00819364
2694	0.00913906
2706	0.0115341
2718	0.0126686
2730	0.0146855
2742	0.0197908
2754	0.0189714
2766	0.0184672
2778	0.0215556
2790	0.0278584
2802	0.0406531
2814	0.0658643
2826	0.0873568
2838	0.0853399
2850	0.0793523
2862	0.0931554
2874	0.155238
2886	0.182655
2898	0.141561
2910	0.137653
2922	0.175029
2934	0.270138
2946	0.248835
2958	0.159083
2970	0.24146
2982	0.375269
2994	0.204652
3006	0.106454
3018	0.107841
3030	0.129018
3042	0.0879241
3054	0.0478383
3066	0.0430481
3078	0.0431112
3090	0.0400858
3102	0.0386362
3114	0.0238246
3126	0.0138031
3138	0.0114711
3150	0.00882392
3162	0.0063028
3174	0.00535738
3186	0.00409682
3198	0.0031514
3210	0.00277323
3222	0.00334048
3234	0.00327746
3246	0.00233204
3258	0.00245809
3270	0.00289929
3282	0.00296232
3294	0.00207992
3306	0.00163873
3318	0.00151267
3330	0.00245809
3342	0.00189084
3354	0.00233204
3366	0.00289929
3378	0.00207992
3390	0.00207992
3402	0.00207992
3414	0.00207992
3426	0.00195387
3438	0.00258415
3450	0.00189084
3462	0.00176478
3474	0.00163873
3486	0.0020169
3498	0.00214295
3510	0.00170176
3522	0.00151267
3534	0.00170176
3546	0.00214295
3558	0.00189084
3570	0.00226901
3582	0.00195387
3594	0.00100845
3606	0.00245809
3618	0.00182781
3630	0.00220598
3642	0.00214295
3654	0.00252112
3666	0.00277323
3678	0.00460104
3690	0.00352957
3702	0.0020169
3714	0.00384471
3726	0.00365562
3738	0.0051683
3750	0.00252112
3762	0.00334048
3774	0.0031514
3786	0.00289929
3798	0.00182781
3810	0.00239506
3822	0.00447499
3834	0.00289929
3846	0.00384471
3858	0.00390774
3870	0.0035926
3882	0.00264718
3894	0.00409682
3906	0.00327746
3918	0.00289929
3930	0.00176478
3942	0.00151267
3954	0.00264718
3966	0.00277323
