Infrared Spectrum: 1,1-Dichloro-3,3-dimethylbutane
Formula: C 6 H 12 Cl 2
CAS: 6130-96-7
Origin: Sadtler Research Labs Under US-EPA Contract
1/CM	ABSORBANCE
450	0
462	0.0459762
474	0.036902
486	0.0464602
498	0.0318204
510	0.0339982
522	0.0373859
534	0.0458552
546	0.0398057
558	0.0417416
570	0.0436774
582	0.0450083
594	0.0414996
606	0.0413786
618	0.0464602
630	0.0465812
642	0.0566233
654	0.0811843
666	0.207014
678	0.423102
690	0.286262
702	0.132968
714	0.207861
726	0.325342
738	0.13442
750	0.084814
762	0.204473
774	0.369745
786	0.159344
798	0.0690853
810	0.0494849
822	0.0414996
834	0.0412576
846	0.0389588
858	0.0425885
870	0.0666655
882	0.160433
894	0.207377
906	0.0990908
918	0.0506948
930	0.0471861
942	0.0436774
954	0.0371439
966	0.03666
978	0.036418
990	0.0384748
1002	0.0503318
1014	0.0658186
1026	0.0620679
1038	0.0716261
1050	0.0643667
1062	0.0598901
1074	0.0496059
1086	0.0383538
1098	0.0377489
1110	0.036781
1122	0.0371439
1134	0.0385958
1146	0.0412576
1158	0.0454922
1170	0.0477911
1182	0.0535986
1194	0.0706582
1206	0.0913475
1218	0.174347
1230	0.256378
1242	0.268598
1254	0.20048
1266	0.072473
1278	0.0471861
1290	0.0439194
1302	0.0538406
1314	0.0637617
1326	0.0625518
1338	0.101753
1350	0.116997
1362	0.126072
1374	0.258677
1386	0.13938
1398	0.10139
1410	0.0863869
1422	0.0543245
1434	0.0717471
1446	0.0782805
1458	0.104293
1470	0.198908
1482	0.226009
1494	0.107923
1506	0.0498479
1518	0.0400477
1530	0.036055
1542	0.0347241
1554	0.0339982
1566	0.0339982
1578	0.0342402
1590	0.0342402
1602	0.0337562
1614	0.0336352
1626	0.0332723
1638	0.0332723
1650	0.0336352
1662	0.0335142
1674	0.0336352
1686	0.0341192
1698	0.0336352
1710	0.0335142
1722	0.0338772
1734	0.0339982
1746	0.0335142
1758	0.0333932
1770	0.0332723
1782	0.0332723
1794	0.0332723
1806	0.0327883
1818	0.0330303
1830	0.0332723
1842	0.0325463
1854	0.0327883
1866	0.0330303
1878	0.0324253
1890	0.0331513
1902	0.0327883
1914	0.0325463
1926	0.0332723
1938	0.0326673
1950	0.0330303
1962	0.0330303
1974	0.0330303
1986	0.0327883
1998	0.0332723
2010	0.0332723
2022	0.0332723
2034	0.0329093
2046	0.0330303
2058	0.0333932
2070	0.0332723
2082	0.0325463
2094	0.0333932
2106	0.0343612
2118	0.0332723
2130	0.0333932
2142	0.0332723
2154	0.0329093
2166	0.0325463
2178	0.0324253
2190	0.0324253
2202	0.0325463
2214	0.0320624
2226	0.0320624
2238	0.0326673
2250	0.0326673
2262	0.0321833
2274	0.0332723
2286	0.0338772
2298	0.0354501
2310	0.036176
2322	0.0347241
2334	0.0338772
2346	0.0354501
2358	0.0338772
2370	0.0352081
2382	0.0354501
2394	0.0341192
2406	0.035813
2418	0.0350871
2430	0.0335142
2442	0.0332723
2454	0.0330303
2466	0.0331513
2478	0.0336352
2490	0.0336352
2502	0.0335142
2514	0.0333932
2526	0.0327883
2538	0.0320624
2550	0.0325463
2562	0.0332723
2574	0.0329093
2586	0.0321833
2598	0.0326673
2610	0.0337562
2622	0.0343612
2634	0.0339982
2646	0.0342402
2658	0.0342402
2670	0.0329093
2682	0.0316994
2694	0.0331513
2706	0.0355711
2718	0.0371439
2730	0.0417416
2742	0.0428305
2754	0.0406526
2766	0.0433144
2778	0.0418625
2790	0.0400477
2802	0.0431934
2814	0.048033
2826	0.0552924
2838	0.0631568
2850	0.0776756
2862	0.108286
2874	0.221412
2886	0.283601
2898	0.248392
2910	0.283601
2922	0.319535
2934	0.334779
2946	0.490372
2958	0.833742
2970	1.20482
2982	0.486259
2994	0.184994
3006	0.102237
3018	0.0770706
3030	0.048154
3042	0.0406526
3054	0.0394427
3066	0.0384748
3078	0.0385958
3090	0.0381119
3102	0.0378699
3114	0.036902
3126	0.0377489
3138	0.0381119
3150	0.0387168
3162	0.0417416
3174	0.0429515
3186	0.0430724
3198	0.0434354
3210	0.0430724
3222	0.0424675
3234	0.0435564
3246	0.0429515
3258	0.0402897
3270	0.0370229
3282	0.036055
3294	0.0336352
3306	0.03666
3318	0.035813
3330	0.0348451
3342	0.0356921
3354	0.0353291
3366	0.0354501
3378	0.036902
3390	0.0356921
3402	0.0341192
3414	0.0372649
3426	0.036055
3438	0.0354501
3450	0.035934
3462	0.0332723
3474	0.0343612
3486	0.0347241
3498	0.0333932
3510	0.0348451
3522	0.0344822
3534	0.0344822
3546	0.0333932
3558	0.0347241
3570	0.0332723
3582	0.0331513
3594	0.0348451
3606	0.0342402
3618	0.0348451
3630	0.0335142
3642	0.0347241
3654	0.0342402
3666	0.0341192
3678	0.0352081
3690	0.0344822
3702	0.0356921
3714	0.0350871
3726	0.036297
3738	0.0350871
3750	0.036176
3762	0.036055
3774	0.0347241
3786	0.0355711
3798	0.036902
3810	0.03666
3822	0.0355711
3834	0.035813
3846	0.0371439
3858	0.0323043
3870	0.036297
3882	0.0341192
3894	0.036539
3906	0.0383538
3918	0.036055
3930	0.0338772
3942	0.0337562
3954	0.035813
3966	0.036418
