Infrared Spectrum: 4-Dodecanone
Formula: C 12 H 24 O
CAS: 6137-26-4
Origin: Sadtler Research Labs Under US-EPA Contract
1/CM	ABSORBANCE
450	0.0459389
462	0.0101448
474	0.00622089
486	0.00880495
498	0.0272762
510	0.0132074
522	0.0114847
534	0.0118675
546	0.0160786
558	0.0112933
570	0.0122504
582	0.00430677
594	0.0138774
606	0.00832642
618	0.0100491
630	0.0114847
642	0.00947489
654	0.0080393
666	0.00823072
678	0.00995342
690	0.0079436
702	0.0133988
714	0.0222995
726	0.0212467
738	0.0253621
750	0.0208639
762	0.0204811
774	0.0209596
786	0.0154087
798	0.0159829
810	0.0157915
822	0.0128246
834	0.0135903
846	0.0142602
858	0.013686
870	0.0160786
882	0.017897
894	0.0213424
906	0.0193326
918	0.0139731
930	0.011389
942	0.0135903
954	0.013686
966	0.0142602
978	0.0183756
990	0.0256492
1002	0.0373253
1014	0.04948
1026	0.04948
1038	0.0410579
1050	0.0453646
1062	0.0512027
1074	0.0457475
1086	0.0343585
1098	0.0293817
1110	0.0404836
1122	0.0672813
1134	0.0857526
1146	0.0689083
1158	0.060869
1170	0.0502456
1182	0.0484272
1194	0.0463217
1206	0.0379953
1218	0.0340713
1230	0.0339756
1242	0.0346456
1254	0.0383781
1266	0.0458432
1278	0.051107
1290	0.0544567
1302	0.0534039
1314	0.0480444
1326	0.0459389
1338	0.0585721
1350	0.0953232
1362	0.130447
1374	0.105851
1386	0.0735022
1398	0.0471831
1410	0.0530211
1422	0.0646973
1434	0.0617304
1446	0.0774262
1458	0.118197
1470	0.113986
1482	0.0506285
1494	0.0241179
1506	0.0159829
1518	0.0124418
1530	0.00918778
1542	0.00918778
1554	0.00717795
1566	0.00689083
1578	0.00660371
1590	0.0063166
1602	0.00574236
1614	0.0063166
1626	0.0079436
1638	0.0080393
1650	0.00890066
1662	0.0102405
1674	0.0163657
1686	0.027659
1698	0.0484272
1710	0.121068
1722	0.321189
1734	0.328942
1746	0.102023
1758	0.038091
1770	0.0204811
1782	0.0123461
1794	0.0102405
1806	0.00698654
1818	0.00507242
1830	0.00468959
1842	0.00373253
1854	0.0031583
1866	0.00296689
1878	0.00258406
1890	0.00229694
1902	0.00267977
1914	0.00229694
1926	0.0015313
1938	0.00220124
1950	0.00191412
1962	0.00210553
1974	0.00220124
1986	0.00172271
1998	0.00248836
2010	0.00277547
2022	0.00334971
2034	0.00468959
2046	0.00430677
2058	0.00459389
2070	0.00583807
2082	0.0031583
2094	0.00239265
2106	0.00296689
2118	0.00277547
2130	0.00334971
2142	0.00344542
2154	0.00382824
2166	0.00421106
2178	0.00421106
2190	0.00382824
2202	0.00430677
2214	0.00468959
2226	0.00430677
2238	0.00401965
2250	0.00392395
2262	0.00382824
2274	0.00488101
2286	0.00392395
2298	0.00296689
2310	0.00124418
2322	0.00095706
2334	0.0015313
2346	0.00449818
2358	0.00095706
2370	0.00909207
2382	0.00746507
2394	0.00583807
2406	0.00583807
2418	0.00574236
2430	0.0047853
2442	0.00497671
2454	0.00516812
2466	0.00488101
2478	0.0047853
2490	0.00440248
2502	0.0047853
2514	0.00602948
2526	0.0064123
2538	0.00698654
2550	0.0080393
2562	0.00861354
2574	0.00937919
2586	0.00985772
2598	0.00966631
2610	0.0106234
2622	0.0109105
2634	0.0109105
2646	0.0123461
2658	0.012059
2670	0.013686
2682	0.0166528
2694	0.0156001
2706	0.0142602
2718	0.014643
2730	0.015313
2742	0.0183756
2754	0.0190455
2766	0.0183756
2778	0.0188541
2790	0.0249793
2802	0.031583
2814	0.0408665
2826	0.0486186
2838	0.0674727
2850	0.129586
2862	0.330951
2874	0.357462
2886	0.340905
2898	0.306355
2910	0.37823
2922	0.589932
2934	0.948159
2946	0.784406
2958	0.556913
2970	0.652811
2982	0.335354
2994	0.136572
3006	0.0721623
3018	0.0461303
3030	0.0344542
3042	0.0253621
3054	0.0204811
3066	0.0167485
3078	0.0157915
3090	0.0141645
3102	0.0121547
3114	0.0095706
3126	0.0111976
3138	0.0100491
3150	0.00775219
3162	0.00736936
3174	0.00650801
3186	0.00574236
3198	0.00545524
3210	0.00516812
3222	0.00220124
3234	0.00334971
3246	0.00287118
3258	0.00306259
3270	0.00306259
3282	0.00248836
3294	0.00373253
3306	0.00382824
3318	0.00459389
3330	0.00612518
3342	0.00430677
3354	0.00411536
3366	0.00612518
3378	0.00583807
3390	0.00488101
3402	0.00698654
3414	0.0064123
3426	0.00832642
3438	0.00976201
3450	0.00602948
3462	0.00277547
3474	0.00267977
3486	0.00172271
3498	0.00382824
3510	0.00401965
3522	0.00220124
3534	0.00306259
3546	0.00287118
3558	0.00258406
3570	0.00354112
3582	0.00258406
3594	0.00095706
3606	0.00172271
3618	0.00210553
3630	0.0031583
3642	0.00363683
3654	0.00401965
3666	0.003254
3678	0.00449818
3690	0.00133988
3702	0.00306259
3714	0.00239265
3726	0.00440248
3738	0.00497671
3750	0.00191412
3762	0.00344542
3774	0.00373253
3786	0.00200983
3798	0.00430677
3810	0.00382824
3822	0.0063166
3834	0.00229694
3846	0.00612518
3858	0.00449818
3870	0.00392395
3882	0.00363683
3894	0.00095706
3906	0.00133988
3918	0.00095706
3930	0.00200983
3942	0.00287118
3954	0.0031583
3966	0.00306259
