Infrared Spectrum: Benzene, 1-ethoxy-2-methyl-
Formula: C 9 H 12 O
CAS: 614-71-1
Origin: Sadtler Research Labs Under US-EPA Contract
1/CM	ABSORBANCE
450	0.00992417
462	0.00144591
474	0.0153792
486	0.00808393
498	0.0204399
510	0.00499495
522	0.0124216
534	0.0220172
546	0.0174823
558	0.0176138
570	0.0119616
582	0.00584935
594	0.024909
606	0.0271436
618	0.0091355
630	0.0108443
642	0.01091
654	0.0118959
666	0.0153792
678	0.00985845
690	0.0182053
702	0.0292467
714	0.0760415
726	0.0642114
738	0.133418
750	0.195197
762	0.102462
774	0.0358848
786	0.0237917
798	0.0137361
810	0.0268807
822	0.0222144
834	0.0205056
846	0.0180738
858	0.0130789
870	0.0165622
882	0.0202427
894	0.0263549
906	0.040091
918	0.0458089
930	0.0442316
942	0.024909
954	0.0188625
966	0.020177
978	0.0222144
990	0.0241861
1002	0.0258291
1014	0.0299697
1026	0.0598079
1038	0.128883
1050	0.210708
1062	0.111203
1074	0.0421284
1086	0.047452
1098	0.049818
1110	0.083994
1122	0.207422
1134	0.162796
1146	0.0472548
1158	0.0460061
1170	0.0391052
1182	0.0744642
1194	0.113964
1206	0.0717038
1218	0.089449
1230	0.334267
1242	0.65723
1254	0.353655
1266	0.0796563
1278	0.0707837
1290	0.0864915
1302	0.0951669
1314	0.0703893
1326	0.029181
1338	0.0222801
1350	0.0217543
1362	0.0289838
1374	0.0431143
1386	0.0799192
1398	0.095627
1410	0.0506724
1422	0.0302983
1434	0.0533671
1446	0.0972043
1458	0.10726
1470	0.102594
1482	0.172917
1494	0.289641
1506	0.200915
1518	0.0616482
1530	0.0264206
1542	0.0235288
1554	0.0245147
1566	0.0229373
1578	0.047452
1590	0.103054
1602	0.120076
1614	0.0623711
1626	0.0191254
1638	0.0139333
1650	0.0147877
1662	0.0122902
1674	0.0144591
1686	0.0117644
1698	0.00933267
1710	0.0116987
1722	0.0099899
1734	0.0115672
1746	0.0103185
1758	0.013276
1770	0.0121588
1782	0.0113701
1794	0.00952983
1806	0.00959556
1818	0.0074267
1830	0.0103185
1842	0.0111729
1854	0.00775531
1866	0.0112386
1878	0.013276
1890	0.0149191
1902	0.00926694
1914	0.0107128
1926	0.0124874
1938	0.0109757
1950	0.0101871
1962	0.0107786
1974	0.0082811
1986	0.00992417
1998	0.00979273
2010	0.00788676
2022	0.00703236
2034	0.00611224
2046	0.00762387
2058	0.00966128
2070	0.00906977
2082	0.0065723
2094	0.0048635
2106	0.00683519
2118	0.00630941
2130	0.00578362
2142	0.0048635
2154	0.00584935
2166	0.00473206
2178	0.00690091
2190	0.00394338
2202	0.0065723
2214	0.00453489
2226	0.00644085
2238	0.00545501
2250	0.00545501
2262	0.00466633
2274	0.00591507
2286	0.00420627
2298	0.00499495
2310	0.00650658
2322	0.00519212
2334	0.00236603
2346	0.000722953
2358	0.00164307
2370	0.00065723
2382	0.000722953
2394	0.00532356
2406	0.00565218
2418	0.00814965
2430	0.0057179
2442	0.00492922
2454	0.00433772
2466	0.00670375
2478	0.00736098
2490	0.00762387
2502	0.00243175
2514	0.00532356
2526	0.00506067
2538	0.00591507
2550	0.00676947
2562	0.00368049
2574	0.00440344
2586	0.00578362
2598	0.0048635
2610	0.00289181
2622	0.00322043
2634	0.00348332
2646	0.00420627
2658	0.00190597
2670	0.00262892
2682	0.00151163
2694	0.00295753
2706	0.00545501
2718	0.00374621
2730	0.00670375
2742	0.00841254
2754	0.00985845
2766	0.00775531
2778	0.00624368
2790	0.00729525
2802	0.00900405
2814	0.00992417
2826	0.0140647
2838	0.0166279
2850	0.0226087
2862	0.0446259
2874	0.0682205
2886	0.0920122
2898	0.0912235
2910	0.106668
2922	0.116067
2934	0.132498
2946	0.135258
2958	0.104762
2970	0.101805
2982	0.16904
2994	0.168711
3006	0.0655916
3018	0.0527756
3030	0.0844541
3042	0.0833368
3054	0.0601365
3066	0.073544
3078	0.083271
3090	0.0549444
3102	0.0274065
3114	0.0210971
3126	0.0135389
3138	0.00749242
3150	0.00795248
3162	0.00374621
3174	0.00795248
3186	0.00446916
3198	0.00670375
3210	0.00249747
3222	0.00630941
3234	0.00611224
3246	0.00427199
3258	0.0031547
3270	0.00348332
3282	0.00387766
3294	0.00565218
3306	0.0040091
3318	0.00262892
3330	0.00407483
3342	0.00414055
3354	0.00637513
3366	0.00269464
3378	0.00203741
3390	0.00676947
3402	0.00387766
3414	0.00558645
3426	0.00348332
3438	0.00223458
3450	0.00348332
3462	0.00676947
3474	0.00302326
3486	0.00479778
3498	0.00308898
3510	0.00663802
3522	0.00473206
3534	0.00308898
3546	0.00532356
3558	0.00348332
3570	0.00584935
3582	0.00407483
3594	0.00545501
3606	0.00407483
3618	0.00565218
3630	0.00506067
3642	0.00630941
3654	0.00322043
3666	0.00696664
3678	0.00446916
3690	0.00525784
3702	0.00729525
3714	0.00387766
3726	0.00729525
3738	0.00538929
3750	0.00433772
3762	0.00584935
3774	0.00499495
3786	0.00782104
3798	0.00788676
3810	0.00538929
3822	0.00506067
3834	0.00841254
3846	0.00440344
3858	0.00834682
3870	0.00308898
3882	0.00952983
3894	0.00512639
3906	0.00696664
3918	0.0048635
3930	0.00479778
3942	0.0065723
3954	0
3966	0.000722953
