Infrared Spectrum: Benzenemethanol, .alpha.-propyl-
Formula: C 10 H 14 O
CAS: 614-14-2
Origin: Sadtler Research Labs Under US-EPA Contract
1/CM	ABSORBANCE
450	0
462	0.0188525
474	0.030548
486	0.0463457
498	0.0612706
510	0.0457347
522	0.0615324
534	0.101332
546	0.109711
558	0.0825669
570	0.043029
582	0.0235656
594	0.0344756
606	0.0565574
618	0.0665946
630	0.0627543
642	0.0308098
654	0.0432909
666	0.0754972
678	0.108402
690	0.350866
702	0.56025
714	0.226492
726	0.138339
738	0.200657
750	0.30836
762	0.276241
774	0.127952
786	0.060485
798	0.0446874
810	0.0402361
822	0.0592631
834	0.0522807
846	0.0460838
858	0.0628416
870	0.058914
882	0.0512334
894	0.0737516
906	0.0924295
918	0.0638017
930	0.0453856
942	0.0570811
954	0.0952225
966	0.10718
978	0.113289
990	0.148463
1002	0.245868
1014	0.398259
1026	0.442946
1038	0.267775
1050	0.196205
1062	0.216018
1074	0.179011
1086	0.13476
1098	0.164174
1110	0.174822
1122	0.123763
1134	0.0737516
1146	0.061707
1158	0.077941
1170	0.110409
1182	0.138775
1194	0.136768
1206	0.159199
1218	0.14986
1230	0.126381
1242	0.123239
1254	0.130134
1266	0.153089
1278	0.190707
1290	0.192889
1302	0.172989
1314	0.149511
1326	0.139212
1338	0.132578
1350	0.141743
1362	0.174996
1374	0.211479
1386	0.198387
1398	0.128738
1410	0.080734
1422	0.0699986
1434	0.0889383
1446	0.160159
1458	0.215582
1470	0.157104
1482	0.120272
1494	0.145059
1506	0.0717442
1518	0.028977
1530	0.0258349
1542	0.0257476
1554	0.021209
1566	0.0203362
1578	0.0234783
1590	0.039276
1602	0.0679038
1614	0.0393633
1626	0.016845
1638	0.0147503
1650	0.0141394
1662	0.0187652
1674	0.0184161
1686	0.0213836
1698	0.0401488
1710	0.0378795
1722	0.0178051
1734	0.0171942
1746	0.0200744
1758	0.0197253
1770	0.0159722
1782	0.0181542
1794	0.0313335
1806	0.0346502
1818	0.0191143
1830	0.0122192
1842	0.0119574
1854	0.0143139
1866	0.0211218
1878	0.0274932
1890	0.0263586
1902	0.017456
1914	0.0123938
1926	0.0165832
1938	0.0301116
1950	0.0344756
1962	0.0269695
1974	0.0130047
1986	0.0114337
1998	0.0100372
2010	0.00968808
2022	0.010299
2034	0.0106482
2046	0.0108227
2058	0.00994992
2070	0.00881528
2082	0.00907712
2094	0.008728
2106	0.0091644
2118	0.008728
2130	0.0082916
2142	0.00802976
2154	0.00846616
2166	0.00890256
2178	0.00925168
2190	0.00933896
2202	0.008728
2214	0.00864072
2226	0.00855344
2238	0.00942624
2250	0.0100372
2262	0.00968808
2274	0.00933896
2286	0.00907712
2298	0.00942624
2310	0.0121319
2322	0.0128302
2334	0.0128302
2346	0.0121319
2358	0.0125683
2370	0.0112591
2382	0.0109973
2394	0.0120446
2406	0.0117828
2418	0.0110846
2430	0.0113464
2442	0.011521
2454	0.0109973
2466	0.01091
2478	0.0107354
2490	0.0102118
2502	0.0104736
2514	0.0112591
2526	0.0116955
2538	0.0118701
2550	0.0130047
2562	0.0138775
2574	0.0155358
2586	0.0164086
2598	0.016845
2610	0.0166705
2622	0.0164086
2634	0.017456
2646	0.0177178
2658	0.0178051
2670	0.0191143
2682	0.0198126
2694	0.0200744
2706	0.020249
2718	0.0216454
2730	0.0233038
2742	0.0280169
2754	0.0275805
2766	0.0269695
2778	0.0301989
2790	0.0356102
2802	0.0415453
2814	0.0480913
2826	0.0583903
2838	0.0832651
2850	0.138077
2862	0.230943
2874	0.402361
2886	0.510675
2898	0.36003
2910	0.343098
2922	0.462671
2934	0.630947
2946	0.710634
2958	0.592108
2970	0.8728
2982	0.429854
2994	0.148201
3006	0.11198
3018	0.143663
3030	0.279994
3042	0.311502
3054	0.203799
3066	0.289682
3078	0.342487
3090	0.202053
3102	0.131007
3114	0.0755845
3126	0.0380541
3138	0.0238274
3150	0.0210345
3162	0.0209472
3174	0.0186779
3186	0.0160595
3198	0.0154486
3210	0.0135284
3222	0.0114337
3234	0.0104736
3246	0.0105609
3258	0.0103863
3270	0.0112591
3282	0.0111718
3294	0.0110846
3306	0.00977536
3318	0.00994992
3330	0.0109973
3342	0.0118701
3354	0.0120446
3366	0.012481
3378	0.0130047
3390	0.0131793
3402	0.0143139
3414	0.0134411
3426	0.0127429
3438	0.0126556
3450	0.0123065
3462	0.0145758
3474	0.0135284
3486	0.0136157
3498	0.0120446
3510	0.0108227
3522	0.013092
3534	0.0118701
3546	0.0129174
3558	0.0127429
3570	0.0105609
3582	0.0116082
3594	0.0133538
3606	0.0173687
3618	0.0216454
3630	0.0462584
3642	0.145496
3654	0.163301
3666	0.0703477
3678	0.0263586
3690	0.0185906
3702	0.0150994
3714	0.0116082
3726	0.0110846
3738	0.01091
3750	0.0123065
3762	0.0123938
3774	0.0116955
3786	0.0112591
3798	0.0129174
3810	0.0133538
3822	0.0131793
3834	0.0131793
3846	0.0131793
3858	0.0118701
3870	0.0119574
3882	0.0145758
3894	0.014663
3906	0.0118701
3918	0.012481
3930	0.01091
3942	0.0169323
3954	0.011521
3966	0.0119574
