Infrared Spectrum: 5-Norbornen-2-yl acetate
Formula: C 9 H 12 O 2
CAS: 6143-29-9
Origin: Sadtler Research Labs Under US-EPA Contract
1/CM	ABSORBANCE
450	0.035928
462	0.00765134
474	0.02495
486	0.0174096
498	0.011976
510	0.0284985
522	0.0294965
534	0.0324905
546	0.0151918
558	0.0185185
570	0.0253936
582	0.0280549
594	0.0257262
606	0.0265025
618	0.0255045
630	0.0291638
642	0.0324905
654	0.0268351
666	0.0125305
678	0.0166334
690	0.00754045
702	0.0240629
714	0.113661
726	0.134508
738	0.0237302
750	0.0153027
762	0.00986912
774	0.0104236
786	0.00377023
798	0.00110889
810	0.00177422
822	0.00920379
834	0.0263916
846	0.0438012
858	0.0443556
870	0.0147482
882	0.0241738
894	0.0347083
906	0.0352627
918	0.026946
930	0.0135285
942	0.0177422
954	0.0250609
966	0.032934
978	0.0450209
990	0.0508981
1002	0.0922596
1014	0.0790639
1026	0.0676423
1038	0.237302
1050	0.271345
1062	0.105566
1074	0.076957
1086	0.0551118
1098	0.041916
1110	0.0856063
1122	0.117986
1134	0.038922
1146	0.0706363
1158	0.111665
1170	0.112552
1182	0.106343
1194	0.0938121
1206	0.108117
1218	0.172654
1230	0.518628
1242	1.10889
1254	0.592923
1266	0.174539
1278	0.0887112
1290	0.0515634
1302	0.0487912
1314	0.0402527
1326	0.030938
1338	0.0435794
1350	0.0656463
1362	0.147926
1374	0.173541
1386	0.125083
1398	0.0494565
1410	0.0290529
1422	0.0211798
1434	0.0275005
1446	0.0378131
1458	0.0314925
1470	0.022954
1482	0.0118651
1494	0.0070969
1506	0.00742956
1518	0.00853845
1530	0.00898201
1542	0.00776223
1554	0.00499001
1566	0.00742956
1578	0.00720779
1590	0.00632067
1602	0.00365934
1614	0.00632067
1626	0.0106453
1638	0.00898201
1650	0.00654245
1662	0.00632067
1674	0.0090929
1686	0.0104236
1698	0.0133067
1710	0.0247282
1722	0.0395874
1734	0.106453
1746	0.30306
1758	0.478153
1770	0.402416
1782	0.199933
1794	0.116655
1806	0.099911
1818	0.0443556
1830	0.0170769
1842	0.00820579
1854	0.00543356
1866	0.00465734
1878	0.00443556
1890	0.00321578
1902	0.00255045
1914	0.001996
1926	0.00343756
1938	0.00377023
1950	0.00232867
1962	0.00221778
1974	0.001996
1986	0.000332667
1998	0.00243956
2010	0.00243956
2022	0.00288311
2034	0.00110889
2046	0.00177422
2058	0.00377023
2070	0.00354845
2082	0.00432467
2094	0.00354845
2106	0.00487912
2118	0.00421378
2130	0.00565534
2142	0.00521178
2154	0.00443556
2166	0.00343756
2178	0.003992
2190	0.003992
2202	0.00454645
2214	0.00310489
2226	0.00321578
2238	0.003992
2250	0.00499001
2262	0.00343756
2274	0.00476823
2286	0.00188511
2298	0.00166333
2310	0.00144156
2322	0.000221778
2334	0.00133067
2346	0.00166333
2358	0.00277223
2370	0.000332667
2382	0.00221778
2394	0.00321578
2406	0.00321578
2418	0.00354845
2430	0.00288311
2442	0.00343756
2454	0.00443556
2466	0.00521178
2478	0.00543356
2490	0.00288311
2502	0.00343756
2514	0.00377023
2526	0.00221778
2538	0.00266134
2550	0.00321578
2562	0.00332667
2574	0.00232867
2586	0.00210689
2598	0.00232867
2610	0.00377023
2622	0.000776223
2634	0.001996
2646	0.00221778
2658	0.00321578
2670	0.00277223
2682	0.00266134
2694	0.00332667
2706	0.00310489
2718	0.00487912
2730	0.00321578
2742	0.002994
2754	0.00365934
2766	0.002994
2778	0.00266134
2790	0.00365934
2802	0.00388112
2814	0.00465734
2826	0.00476823
2838	0.00643156
2850	0.00820579
2862	0.0207362
2874	0.0485694
2886	0.0535594
2898	0.0344865
2910	0.0332667
2922	0.0367043
2934	0.0502327
2946	0.109226
2958	0.132623
2970	0.177644
2982	0.332889
2994	0.261587
3006	0.0755154
3018	0.0362607
3030	0.0215125
3042	0.0287203
3054	0.0277223
3066	0.0528941
3078	0.0620978
3090	0.0287203
3102	0.00942557
3114	0.00876023
3126	0.00654245
3138	0.00864934
3150	0.0106453
3162	0.00687512
3174	0.00388112
3186	0.00377023
3198	0.00321578
3210	0.00365934
3222	0.00365934
3234	0.00343756
3246	0.00121978
3258	0.00243956
3270	0.00210689
3282	0.00210689
3294	0.00277223
3306	0.00321578
3318	0.000776223
3330	0.000887112
3342	0.00188511
3354	0.00321578
3366	0.00155245
3378	0.00166333
3390	0.001996
3402	0.001996
3414	0.00243956
3426	0.00210689
3438	0.00155245
3450	0.00288311
3462	0.001996
3474	0.00432467
3486	0.0060989
3498	0.00443556
3510	0.00388112
3522	0.00377023
3534	0.00454645
3546	0.00310489
3558	0.0118651
3570	0.0175205
3582	0.0214016
3594	0.0164116
3606	0.0157462
3618	0.00432467
3630	0.00321578
3642	0.00632067
3654	0.00188511
3666	0.00765134
3678	0.00532267
3690	0.00288311
3702	0.00587712
3714	0.00410289
3726	0.00620978
3738	0.00365934
3750	0.00476823
3762	0.00532267
3774	0.002994
3786	0.00998001
3798	0.00332667
3810	0.00476823
3822	0.002994
3834	0.00410289
3846	0.00465734
3858	0.00321578
3870	0.00277223
3882	0.00443556
3894	0.00654245
3906	0.0090929
3918	0.00443556
3930	0.00332667
3942	0.00742956
3954	0.00443556
3966	0.00654245
