Infrared Spectrum: Diallyl oxalate
Formula: C 8 H 10 O 4
CAS: 615-99-6
Origin: Sadtler Research Labs Under US-EPA Contract
1/CM	ABSORBANCE
450	0.0225088
462	0.0117499
474	0.00707825
486	0.00764451
498	0.00637042
510	0.00721981
522	0.0142981
534	0.0186866
546	0.0220841
558	0.00920172
570	0.00467164
582	0.0100511
594	0.0104758
606	0.0147228
618	0.0208101
630	0.0244907
642	0.0226504
654	0.0169878
666	0.0161384
678	0.0114668
690	0.00891859
702	0.0100511
714	0.0080692
726	0.00736138
738	0.00948485
750	0.0164215
762	0.0458671
774	0.0772945
786	0.0302949
798	0.0140149
810	0.00990955
822	0.00906016
834	0.00792764
846	0.0114668
858	0.0131655
870	0.0191113
882	0.026048
894	0.0394966
906	0.0734722
918	0.131089
930	0.230185
942	0.234856
954	0.192104
966	0.227637
978	0.163083
990	0.16733
1002	0.124577
1014	0.0778607
1026	0.0579001
1038	0.0471411
1050	0.038081
1062	0.0351081
1074	0.0377979
1086	0.0474243
1098	0.0692253
1110	0.123445
1122	0.284263
1134	0.731608
1146	1.33156
1158	1.35548
1170	1.07179
1182	0.553094
1194	0.234149
1206	0.132363
1218	0.0855053
1230	0.0665355
1242	0.0642705
1254	0.0726228
1266	0.115942
1278	0.208525
1290	0.262037
1302	0.320503
1314	0.246182
1326	0.106457
1338	0.0484152
1350	0.0406292
1362	0.0516712
1374	0.0549272
1386	0.0440267
1398	0.030578
1410	0.0322768
1422	0.0472827
1434	0.0492646
1446	0.044593
1458	0.0577585
1470	0.0352497
1482	0.0150059
1494	0.00906016
1506	0.00693668
1518	0.00665355
1530	0.00509634
1542	0.00693668
1554	0.00495477
1566	0.00396382
1578	0.00537947
1590	0.00353912
1602	0.00509634
1614	0.00707825
1626	0.00891859
1638	0.0167047
1650	0.0311443
1662	0.0198191
1674	0.0116083
1686	0.0127408
1698	0.0167047
1710	0.0274636
1722	0.0601651
1734	0.127267
1746	0.321211
1758	0.68022
1770	0.672717
1782	0.492788
1794	0.48755
1806	0.238679
1818	0.0788517
1830	0.0421864
1842	0.0247739
1854	0.019536
1866	0.0205269
1878	0.0191113
1890	0.0124577
1902	0.00891859
1914	0.00651199
1926	0.0052379
1938	0.00651199
1950	0.00467164
1962	0.00481321
1974	0.00339756
1986	0.00311443
1998	0.00254817
2010	0.0028313
2022	0.00268973
2034	0.000990955
2046	0.000707825
2058	0.00056626
2070	0.00084939
2082	0.00198191
2094	0.00184034
2106	0.00155721
2118	0.00184034
2130	0.00212347
2142	0.00240661
2154	0.00226504
2166	0.00141565
2178	0.00141565
2190	0.00141565
2202	0.000990955
2214	0.00127408
2226	0.00028313
2238	0.000424695
2250	0.000707825
2262	0.00169878
2274	0.00226504
2286	0.00268973
2298	0.00693668
2310	0.00976798
2322	0.0116083
2334	0.00651199
2346	0.0104758
2358	0.00155721
2370	0.00339756
2382	0.00594573
2394	0.00254817
2406	0.00226504
2418	0.00268973
2430	0.0028313
2442	0.00424695
2454	0.0052379
2466	0.00481321
2478	0.00325599
2490	0.00184034
2502	0.00169878
2514	0.00113252
2526	0.0028313
2538	0.00169878
2550	0.00212347
2562	0.000707825
2574	0.00141565
2586	0.00212347
2598	0.00240661
2610	0.00226504
2622	0.00212347
2634	0.00297286
2646	0.00325599
2658	0.00268973
2670	0.00382225
2682	0.00198191
2694	0.00226504
2706	0.00353912
2718	0.00297286
2730	0.00410538
2742	0.00268973
2754	0.00410538
2766	0.00438851
2778	0.00410538
2790	0.00382225
2802	0.00311443
2814	0.0080692
2826	0.00736138
2838	0.00821077
2850	0.00764451
2862	0.0114668
2874	0.0147228
2886	0.0254817
2898	0.0317106
2910	0.0301533
2922	0.0297286
2934	0.0377979
2946	0.0591742
2958	0.0884781
2970	0.0764451
2982	0.0512465
2994	0.05337
3006	0.0486984
3018	0.0369485
3030	0.0414785
3042	0.0257648
3054	0.0176956
3066	0.0164215
3078	0.0253401
3090	0.0431773
3102	0.0620055
3114	0.0334093
3126	0.0141565
3138	0.00863547
3150	0.00580417
3162	0.00637042
3174	0.00481321
3186	0.00438851
3198	0.00325599
3210	0.00438851
3222	0.00424695
3234	0.00481321
3246	0.00537947
3258	0.0052379
3270	0.00127408
3282	0.00368069
3294	0.00410538
3306	0.00396382
3318	0.0056626
3330	0.00637042
3342	0.00467164
3354	0.00481321
3366	0.00594573
3378	0.00240661
3390	0.00353912
3402	0.00169878
3414	0.0052379
3426	0.00240661
3438	0.00368069
3450	0.00325599
3462	0.00396382
3474	0.0056626
3486	0.00410538
3498	0.012033
3510	0.0125993
3522	0.0113252
3534	0.00764451
3546	0.00608729
3558	0.0052379
3570	0.00608729
3582	0.00608729
3594	0.00311443
3606	0.00240661
3618	0.00325599
3630	0.00184034
3642	0
3654	0.00608729
3666	0.00438851
3678	0.00622886
3690	0.00537947
3702	0.00155721
3714	0.00453008
3726	0.00622886
3738	0.00353912
3750	0.00580417
3762	0.00184034
3774	0.00438851
3786	0.00679512
3798	0.00608729
3810	0.00467164
3822	0.00792764
3834	0.00637042
3846	0.00622886
3858	0.00948485
3870	0.0114668
3882	0.0131655
3894	0.00736138
3906	0.00891859
3918	0.00934329
3930	0.00891859
3942	0.0159968
3954	0.00821077
3966	0.0165631
