Infrared Spectrum: Benzothiazole, 2-(methylthio)-
Formula: C 8 H 7 N S 2
CAS: 615-22-5
Origin: Sadtler Research Labs Under US-EPA Contract
1/CM	ABSORBANCE
450	0.0209636
462	0.0428249
474	0.0349041
486	0.027089
498	0.0174785
510	0.0323167
522	0.0415575
534	0.0234454
546	0.0304685
558	0.0317358
570	0.0290427
582	0.0222837
594	0.035749
606	0.035749
618	0.0334784
630	0.0281979
642	0.0345873
654	0.0415047
666	0.0734518
678	0.0673264
690	0.0318414
702	0.0569238
714	0.0902966
726	0.20784
738	0.143471
750	0.293332
762	0.183603
774	0.0481054
786	0.0284619
798	0.0285147
810	0.0289899
822	0.0228646
834	0.0242903
846	0.0317358
858	0.0370691
870	0.031947
882	0.032211
894	0.0293068
906	0.0312078
918	0.0364883
930	0.0457291
942	0.054706
954	0.0919863
966	0.132435
978	0.134864
990	0.238943
1002	0.514743
1014	0.396143
1026	0.172144
1038	0.0662703
1050	0.0534387
1062	0.0496895
1074	0.0853329
1086	0.0884484
1098	0.042244
1110	0.0367523
1122	0.0520129
1134	0.0431945
1146	0.0260857
1158	0.0285147
1170	0.0306269
1182	0.0292012
1194	0.0241319
1206	0.0287259
1218	0.0377028
1230	0.0918807
1242	0.165227
1254	0.0335312
1266	0.0395509
1278	0.0703891
1290	0.0485278
1302	0.0799996
1314	0.100224
1326	0.0859665
1338	0.0336896
1350	0.0298348
1362	0.0294652
1374	0.0340064
1386	0.0280923
1398	0.0380196
1410	0.0792075
1422	0.284461
1434	0.492248
1446	0.264183
1458	0.244276
1470	0.527152
1482	0.158732
1494	0.0399734
1506	0.0321582
1518	0.0270362
1530	0.024924
1542	0.0226533
1554	0.0297292
1566	0.0358018
1578	0.0301517
1590	0.0286203
1602	0.0282507
1614	0.0222309
1626	0.0165808
1638	0.0159999
1650	0.0177953
1662	0.0210164
1674	0.0179537
1686	0.0255048
1698	0.0190626
1710	0.0152078
1722	0.0161055
1734	0.0148382
1746	0.0148382
1758	0.0157887
1770	0.0224949
1782	0.0240263
1794	0.0162111
1806	0.0188514
1818	0.0216501
1830	0.0154191
1842	0.015155
1854	0.0168448
1866	0.0207524
1878	0.0149966
1890	0.0203299
1902	0.0220725
1914	0.0152078
1926	0.0209636
1938	0.0248183
1950	0.0137821
1962	0.0116699
1974	0.0120923
1986	0.011089
1998	0.0120923
2010	0.0124092
2022	0.0123036
2034	0.0113003
2046	0.0117227
2058	0.011089
2070	0.0117755
2082	0.010825
2094	0.0104026
2106	0.00987454
2118	0.00987454
2130	0.00987454
2142	0.00987454
2154	0.00939929
2166	0.00939929
2178	0.00902965
2190	0.00887124
2202	0.00908246
2214	0.00823758
2226	0.00765672
2238	0.00807916
2250	0.00855441
2262	0.00939929
2274	0.0109306
2286	0.0139405
2298	0.0159471
2310	0.018693
2322	0.0164752
2334	0.010561
2346	0.0110362
2358	0.0136237
2370	0.0119867
2382	0.0127788
2394	0.00691746
2406	0.00612538
2418	0.00670623
2430	0.00644221
2442	0.00649501
2454	0.00665343
2466	0.00686465
2478	0.00607258
2490	0.0053333
2502	0.00559733
2514	0.00496367
2526	0.00433001
2538	0.00469964
2550	0.0053333
2562	0.00443562
2574	0.00559733
2586	0.00543891
2598	0.00491087
2610	0.00543891
2622	0.00448842
2634	0.00327391
2646	0.00221781
2658	0.00364355
2670	0.00353793
2682	0.00205939
2694	0.00343232
2706	0.00248183
2718	0.00279867
2730	0.00337952
2742	0.00353793
2754	0.00327391
2766	0.000580855
2778	0.00126732
2790	0.00300988
2802	0.00242903
2814	0.00385477
2826	0.00554452
2838	0.010561
2850	0.0121452
2862	0.0114587
2874	0.0129372
2886	0.0125148
2898	0.0114587
2910	0.0121452
2922	0.0193266
2934	0.075828
2946	0.104237
2958	0.016792
2970	0.010825
2982	0.0111419
2994	0.0164224
3006	0.0233926
3018	0.0243959
3030	0.0243959
3042	0.027881
3054	0.0270362
3066	0.0866002
3078	0.147273
3090	0.0574518
3102	0.0205411
3114	0.0146798
3126	0.0119339
3138	0.00554452
3150	0.0042244
3162	0.00279867
3174	0.00374916
3186	0.00311549
3198	0.00248183
3210	0.00258744
3222	0.00132012
3234	0.00190098
3246	0.00248183
3258	0.00300988
3270	0.00158415
3282	0.00132012
3294	0.00242903
3306	0.00147854
3318	0.00052805
3330	0.00116171
3342	0.00142574
3354	0.00237623
3366	0.00163696
3378	0.00063366
3390	0.00195378
3402	0.00311549
3414	0.00158415
3426	0.0021122
3438	0.00227062
3450	0.00190098
3462	0.00258744
3474	0.00332672
3486	0.00322111
3498	0.00274586
3510	0.0021122
3522	0.00332672
3534	0.00227062
3546	0.00300988
3558	0.0041716
3570	0.00353793
3582	0.00258744
3594	0.00295708
3606	0.00337952
3618	0.00390757
3630	0.00306269
3642	0.00554452
3654	0.00612538
3666	0.00506928
3678	0.00649501
3690	0.00601977
3702	0.00660062
3714	0.0041716
3726	0.00712868
3738	0.00718148
3750	0.00274586
3762	0.00538611
3774	0.00596697
3786	0.00586136
3798	0.00654782
3810	0.00190098
3822	0.00042244
3834	0.000369635
3846	0.00121451
3858	0.00295708
3870	0.00242903
3882	0.00110891
3894	0.0010561
3906	0.00607258
3918	0.000369635
3930	0.00712868
3942	0
3954	0.00506928
3966	0.00042244
