Infrared Spectrum: Phenol, 2,4-dibromo-
Formula: C 6 H 4 Br 2 O
CAS: 615-58-7
Origin: Sadtler Research Labs Under US-EPA Contract
1/CM	ABSORBANCE
450	0.000922216
462	0.00179018
474	0.0239234
486	0.0457853
498	0.00873393
510	0.00770322
522	0.00835419
534	0.020777
546	0.0186071
558	0.0155692
570	0.00515356
582	0.00591303
594	0.00314638
606	0.0120431
618	0.0770322
630	0.0392213
642	0.0115006
654	0.00710649
666	0.00151894
678	0.120593
690	0.08837
702	0.0175221
714	0.00922216
726	0.00363462
738	0.0093849
750	0.0138332
762	0.0116091
774	0.0104699
786	0.0066725
798	0.0219704
810	0.0788766
822	0.0634702
834	0.0281547
846	0.0115548
858	0.0285887
870	0.0359664
882	0.00699799
894	0.00423134
906	0.00645551
918	0.00477382
930	0.00580454
942	0.00781171
954	0.00558754
966	0.00412285
978	0.00336338
990	0.00477382
1002	0.00781171
1014	0.0121516
1026	0.0182816
1038	0.0509931
1050	0.0288599
1062	0.0178476
1074	0.0342847
1086	0.0289142
1098	0.0218077
1110	0.0104699
1122	0.0179018
1134	0.0174679
1146	0.0142672
1158	0.0257136
1170	0.0770864
1182	0.275146
1194	0.294024
1206	0.0848981
1218	0.0259848
1230	0.025822
1242	0.0739943
1254	0.0639584
1266	0.133559
1278	0.272488
1290	0.0369429
1302	0.0241404
1314	0.0365632
1326	0.0667793
1338	0.0270155
1350	0.0174679
1362	0.019475
1374	0.013996
1386	0.0195835
1398	0.0325488
1410	0.0304874
1422	0.00971039
1434	0.01226
1446	0.0503964
1458	0.124174
1470	0.414075
1482	0.406914
1494	0.0765439
1506	0.0201803
1518	0.0134535
1530	0.00846269
1542	0.00943915
1554	0.0139417
1566	0.0189326
1578	0.0519153
1590	0.0372684
1602	0.0106326
1614	0.00547905
1626	0.00737773
1638	0.00705224
1650	0.00526206
1662	0.00743198
1674	0.00705224
1686	0.00851694
1698	0.0082457
1710	0.00564179
1722	0.0104156
1734	0.0127483
1746	0.0150267
1758	0.0161117
1770	0.0082457
1782	0.00379736
1794	0.00433984
1806	0.00428559
1818	0.00477382
1830	0.00368886
1842	0.00227842
1854	0.0026039
1866	0.00526206
1878	0.00873393
1890	0.00580454
1902	0.0026039
1914	0.00168169
1926	0.00200718
1938	0.00173594
1950	0.00249541
1962	0.00347187
1974	0.0026039
1986	0.00168169
1998	0.00119346
2010	0.00168169
2022	0.00206142
2034	0.00189868
2046	0.00216992
2058	0.00157319
2070	0.00162744
2082	0.00254966
2094	0.00249541
2106	0.00303789
2118	0.00265815
2130	0.00249541
2142	0.00200718
2154	0.00200718
2166	0.00130195
2178	0.0014647
2190	0.00195293
2202	0.00195293
2214	0.00168169
2226	0.00249541
2238	0.00244116
2250	0.00244116
2262	0.00238691
2274	0.00287514
2286	0.00330913
2298	0.00390586
2310	0.00629277
2322	0.00710649
2334	0.00607578
2346	0.00683525
2358	0.0096019
2370	0.00705224
2382	0.00482807
2394	0.00211567
2406	0.00189868
2418	0.0027124
2430	0.00227842
2442	0.0026039
2454	0.00368886
2466	0.00433984
2478	0.00206142
2490	0.00222417
2502	0.00254966
2514	0.00374311
2526	0.00358037
2538	0.00195293
2550	0.00216992
2562	0.00276665
2574	0.00222417
2586	0.00249541
2598	0.00211567
2610	0.00108496
2622	0.00168169
2634	0.00216992
2646	0.0026039
2658	0.00249541
2670	0.00162744
2682	0.00216992
2694	0.0014647
2706	0.00119346
2718	0.00189868
2730	0.00168169
2742	0.00195293
2754	0.00276665
2766	0.00325488
2778	0.00206142
2790	0.00200718
2802	0.00130195
2814	0.00168169
2826	0.0028209
2838	0.00303789
2850	0.00298364
2862	0.00358037
2874	0.00341762
2886	0.00309214
2898	0.00352612
2910	0.00401435
2922	0.0039601
2934	0.00547905
2946	0.00710649
2958	0.00488232
2970	0.00482807
2982	0.00374311
2994	0.0039601
3006	0.00450258
3018	0.00352612
3030	0.00287514
3042	0.00287514
3054	0.00401435
3066	0.00613002
3078	0.00981889
3090	0.00547905
3102	0.00254966
3114	0.00195293
3126	0.00216992
3138	0.00168169
3150	0.00238691
3162	0.00162744
3174	0.00244116
3186	0.00206142
3198	0.00292939
3210	0.00206142
3222	0.00151894
3234	0.00211567
3246	0.00081372
3258	0.00233266
3270	0.00303789
3282	0.00211567
3294	0.00233266
3306	0.00162744
3318	0.00439409
3330	0.0055333
3342	0.00325488
3354	0.0012477
3366	0.00179018
3378	0.00254966
3390	0.00444834
3402	0.00320063
3414	0.00222417
3426	0.00249541
3438	0.00461108
3450	0.0041771
3462	0.00309214
3474	0.00206142
3486	0.00303789
3498	0.00537055
3510	0.00433984
3522	0.00439409
3534	0.0101444
3546	0.0399265
3558	0.231747
3570	0.136542
3582	0.0205057
3594	0.0080287
3606	0.00450258
3618	0.00423134
3630	0.00759472
3642	0.0096019
3654	0.01443
3666	0.00390586
3678	0.00466533
3690	0.00428559
3702	0.00352612
3714	0.0039601
3726	0.00298364
3738	0.00358037
3750	0.00320063
3762	0.00254966
3774	0.00103071
3786	0.000488232
3798	0.0014647
3810	0.000596728
3822	0.00200718
3834	0.000922216
3846	0.000596728
3858	0.00054248
3870	0.000596728
3882	0.000976464
3894	0.000922216
3906	0.00162744
3918	0.00103071
3930	0.00162744
3942	0.00151894
3954	0.000488232
3966	0.000596728
