Infrared Spectrum: Benzene, 1,2,4-tribromo-
Formula: C 6 H 3 Br 3
CAS: 615-54-3
Origin: Sadtler Research Labs Under US-EPA Contract
1/CM	ABSORBANCE
450	0.05476
462	0.066095
474	0.0125772
486	0.00548635
498	0.00652151
510	0.0175977
522	0.0377833
534	0.026086
546	0.00895413
558	0.0105586
570	0.00905765
582	0.0100411
594	0.00688381
606	0.0163038
618	0.0119561
630	0.00895413
642	0.0122149
654	0.0347296
666	0.0123702
678	0.012836
690	0.0190469
702	0.0057969
714	0.00802249
726	0.0122149
738	0.0336427
750	0.129809
762	0.0527414
774	0.0317794
786	0.0185811
798	0.0832786
810	0.143163
822	0.0249991
834	0.0142334
846	0.0093682
858	0.0219454
870	0.0820882
882	0.0327628
894	0.0102998
906	0.0105586
918	0.00843655
930	0.0109209
942	0.0097305
954	0.0124737
966	0.0146993
978	0.0129913
990	0.0127842
1002	0.0725647
1014	0.447034
1026	0.0997894
1038	0.0151133
1050	0.0346779
1062	0.0562092
1074	0.0494289
1086	0.180946
1098	0.0968392
1110	0.14249
1122	0.033798
1134	0.0265001
1146	0.0225665
1158	0.00967875
1170	0.00854007
1182	0.00652151
1194	0.0124219
1206	0.0138711
1218	0.0100928
1230	0.0114903
1242	0.0240675
1254	0.0314689
1266	0.00657327
1278	0.0101446
1290	0.0176495
1302	0.0188399
1314	0.00921292
1326	0.011542
1338	0.025879
1350	0.0678547
1362	0.0998929
1374	0.0431144
1386	0.0197716
1398	0.0629895
1410	0.0396984
1422	0.064801
1434	0.0849349
1446	0.493978
1458	0.0931126
1470	0.0335909
1482	0.0318312
1494	0.0139229
1506	0.0067803
1518	0.00590041
1530	0.0140264
1542	0.0472033
1554	0.128515
1566	0.0690452
1578	0.0144405
1590	0.00745315
1602	0.00548635
1614	0.0106104
1626	0.00962699
1638	0.00703909
1650	0.00553811
1662	0.0045547
1674	0.00574514
1686	0.00512404
1698	0.00331251
1710	0.00398537
1722	0.00993754
1734	0.0236016
1746	0.0214278
1758	0.0108174
1770	0.00854007
1782	0.00574514
1794	0.00450295
1806	0.00429591
1818	0.00460646
1830	0.00346779
1842	0.00243263
1854	0.00227735
1866	0.00326075
1878	0.00802249
1890	0.0118008
1902	0.00372658
1914	0.00175977
1926	0.0025879
1938	0.00144922
1950	0.00155274
1962	0.00165626
1974	0.00165626
1986	0.000621096
1998	0.00139747
2010	0.00165626
2022	0.00212208
2034	0.00108692
2046	0.0016045
2058	0.00103516
2070	0.00113868
2082	0.0016045
2094	0.00165626
2106	0.00144922
2118	0.00129395
2130	0.000621096
2142	0.000828128
2154	0.00170801
2166	0.00155274
2178	0.000828128
2190	0.00207032
2202	0.00144922
2214	0.00155274
2226	0.00139747
2238	0.00155274
2250	0.00103516
2262	0.00134571
2274	0.00263966
2286	0.00212208
2298	0.00315724
2310	0.00491701
2322	0.00646975
2334	0.00822952
2346	0.00631448
2358	0.00693557
2370	0.00476174
2382	0.000672854
2394	0.000621096
2406	0.000155274
2418	0.00051758
2430	0.000931644
2442	0.000569338
2454	0.000828128
2466	0.000569338
2478	0.00051758
2490	0.00165626
2502	0.000931644
2514	0.00134571
2526	0.000931644
2538	0.00170801
2550	0.00129395
2562	0.00248438
2574	0.00248438
2586	0.00134571
2598	0.00139747
2610	0.00165626
2622	0.00150098
2634	0.0019668
2646	0.00150098
2658	0.000103516
2670	0.00113868
2682	0.00165626
2694	0.00175977
2706	0.000672854
2718	0.00119043
2730	0.00119043
2742	0.00150098
2754	0.0019668
2766	0.00212208
2778	0.00279493
2790	0.00372658
2802	0.00315724
2814	0.00207032
2826	0.0019668
2838	0.00232911
2850	0.00362306
2862	0.00346779
2874	0.00346779
2886	0.00289845
2898	0.00341603
2910	0.00439943
2922	0.0057969
2934	0.00574514
2946	0.00351954
2958	0.00315724
2970	0.00253614
2982	0.00201856
2994	0.00248438
3006	0.00144922
3018	0.00103516
3030	0.000621096
3042	0.00155274
3054	0.00165626
3066	0.00667678
3078	0.00553811
3090	0.00398537
3102	0.00274317
3114	0.00212208
3126	0.00175977
3138	0.00243263
3150	0.00175977
3162	0.00134571
3174	0.00212208
3186	0.00263966
3198	0.00326075
3210	0.00201856
3222	0.00222559
3234	0.00289845
3246	0.00341603
3258	0.00243263
3270	0.00191505
3282	0.00139747
3294	0.00310548
3306	0.00191505
3318	0.00232911
3330	0.00248438
3342	0.000879886
3354	0.00289845
3366	0.00315724
3378	0.00253614
3390	0.00207032
3402	0.00362306
3414	0.00201856
3426	0.00222559
3438	0.00414064
3450	0.00362306
3462	0.00284669
3474	0.00351954
3486	0.00424416
3498	0.00502053
3510	0.00507228
3522	0.00388185
3534	0.00388185
3546	0.00470998
3558	0.00439943
3570	0.00512404
3582	0.00398537
3594	0.00538283
3606	0.00600393
3618	0.00491701
3630	0.00507228
3642	0.00351954
3654	0.00403712
3666	0.00429591
3678	0.00336427
3690	0.00222559
3702	0.003209
3714	0.00201856
3726	0.003209
3738	0.00393361
3750	0.00289845
3762	0.00310548
3774	0.00175977
3786	0.00232911
3798	0.00383009
3810	0.0025879
3822	0.00403712
3834	0.00341603
3846	0.00243263
3858	0.00336427
3870	0.000672854
3882	0.000672854
3894	0.0019668
3906	0.00232911
3918	0.00139747
3930	0.00279493
3942	0.000621096
3954	0
3966	0.000155274
