Infrared Spectrum: Ethyl 2-bromovalerate
Formula: C 7 H 13 Br O 2
CAS: 615-83-8
Origin: Sadtler Research Labs Under US-EPA Contract
1/CM	ABSORBANCE
450	0
462	0.0476781
474	0.0406037
486	0.0445831
498	0.0497414
510	0.0512152
522	0.0445831
534	0.0433303
546	0.0456884
558	0.0395721
570	0.0410459
582	0.0453937
594	0.0537944
606	0.0520258
618	0.0459832
630	0.0473096
642	0.0504783
654	0.0573316
666	0.0559315
678	0.0769334
690	0.0607951
702	0.0560789
714	0.0504783
726	0.050552
738	0.0470885
750	0.0810601
762	0.0599845
774	0.0532049
786	0.0554156
798	0.0551946
810	0.0508468
822	0.0476781
834	0.0488571
846	0.0566684
858	0.073691
870	0.0632269
882	0.0581422
894	0.0518785
906	0.0542366
918	0.0515837
930	0.0686063
942	0.0633743
954	0.0530575
966	0.0470149
978	0.0498888
990	0.0573316
1002	0.0726593
1014	0.0938823
1026	0.160646
1038	0.234485
1050	0.163004
1062	0.121222
1074	0.0880607
1086	0.119158
1098	0.193955
1110	0.208767
1122	0.1745
1134	0.220041
1146	0.468454
1158	0.525638
1170	0.263961
1182	0.238243
1194	0.306923
1206	0.275604
1218	0.204935
1230	0.224463
1242	0.317682
1254	0.367939
1266	0.417386
1278	0.368602
1290	0.204198
1302	0.189607
1314	0.163668
1326	0.13596
1338	0.153056
1350	0.129696
1362	0.0988196
1374	0.164847
1386	0.12837
1398	0.0934402
1410	0.0731752
1422	0.0655113
1434	0.0804706
1446	0.102652
1458	0.11061
1470	0.135076
1482	0.0935876
1494	0.0569631
1506	0.0471622
1518	0.0470885
1530	0.0453937
1542	0.0442146
1554	0.0411933
1566	0.0428882
1578	0.0428145
1590	0.0415617
1602	0.0460569
1614	0.0436251
1626	0.0440672
1638	0.0435514
1650	0.0456147
1662	0.0420039
1674	0.0464253
1686	0.0492993
1698	0.054384
1710	0.070596
1722	0.0945456
1734	0.155709
1746	0.439935
1758	0.73691
1770	0.337873
1782	0.136697
1794	0.0833445
1806	0.0592476
1818	0.0491519
1830	0.0452463
1842	0.0416354
1854	0.0422249
1866	0.042446
1878	0.0411933
1890	0.0422986
1902	0.0411196
1914	0.0399405
1926	0.038393
1938	0.0389825
1950	0.04053
1962	0.0388352
1974	0.040309
1986	0.0396458
1998	0.0401616
2010	0.0413407
2022	0.0387615
2034	0.0394247
2046	0.0396458
2058	0.0400879
2070	0.0390562
2082	0.0399405
2094	0.0388352
2106	0.0392773
2118	0.0392036
2130	0.0375824
2142	0.0378772
2154	0.0384667
2166	0.0384667
2178	0.0380246
2190	0.0378772
2202	0.0383193
2214	0.0378035
2226	0.0380982
2238	0.0378035
2250	0.0375824
2262	0.0380246
2274	0.0375087
2286	0.0368455
2298	0.0353717
2310	0.0328662
2322	0.0308028
2334	0.0304344
2346	0.0310976
2358	0.0310239
2370	0.0310976
2382	0.0357401
2394	0.0382456
2406	0.0387615
2418	0.0387615
2430	0.0386141
2442	0.0380982
2454	0.0371403
2466	0.0370666
2478	0.0375087
2490	0.0375824
2502	0.0375824
2514	0.037214
2526	0.0372876
2538	0.0373613
2550	0.0378772
2562	0.0378772
2574	0.037214
2586	0.0371403
2598	0.0375087
2610	0.0375087
2622	0.0382456
2634	0.0375087
2646	0.0377298
2658	0.0372876
2670	0.0375087
2682	0.0375087
2694	0.0380982
2706	0.0380246
2718	0.0382456
2730	0.0390562
2742	0.0408985
2754	0.0419302
2766	0.0407511
2778	0.0417091
2790	0.0427408
2802	0.0432566
2814	0.0458358
2826	0.0480465
2838	0.0517311
2850	0.061532
2862	0.0697854
2874	0.105526
2886	0.170521
2898	0.136181
2910	0.126601
2922	0.134191
2934	0.166468
2946	0.263519
2958	0.225937
2970	0.387909
2982	0.359538
2994	0.240233
3006	0.143182
3018	0.0914505
3030	0.0633743
3042	0.0537944
3054	0.048415
3066	0.0449515
3078	0.0428145
3090	0.041488
3102	0.0398668
3114	0.0394247
3126	0.0386141
3138	0.0379509
3150	0.0383193
3162	0.0380982
3174	0.0375824
3186	0.0375087
3198	0.0378772
3210	0.036477
3222	0.0357401
3234	0.035298
3246	0.0350769
3258	0.0345611
3270	0.0346348
3282	0.0344137
3294	0.0341926
3306	0.0336768
3318	0.0340452
3330	0.0341189
3342	0.0347822
3354	0.0349295
3366	0.0336768
3378	0.0352243
3390	0.0356664
3402	0.0353717
3414	0.035298
3426	0.0357401
3438	0.0353717
3450	0.0363297
3462	0.0368455
3474	0.0361823
3486	0.0394247
3498	0.0399405
3510	0.0366981
3522	0.0356664
3534	0.0356664
3546	0.0349295
3558	0.0358138
3570	0.0365507
3582	0.036477
3594	0.0386141
3606	0.0350769
3618	0.0356664
3630	0.036477
3642	0.035298
3654	0.0391299
3666	0.0318345
3678	0.0385404
3690	0.0406774
3702	0.0340452
3714	0.0355928
3726	0.0347085
3738	0.0372876
3750	0.04053
3762	0.0347085
3774	0.0368455
3786	0.038393
3798	0.0400142
3810	0.0314661
3822	0.0421513
3834	0.0375087
3846	0.0335294
3858	0.04532
3870	0.0392036
3882	0.0356664
3894	0.0388352
3906	0.0380246
3918	0.0358875
3930	0.037214
3942	0.0378035
3954	0.0350032
3966	0.0365507
