Infrared Spectrum: Phenol, 2-chloro-5-methyl-
Formula: C 7 H 7 Cl O
CAS: 615-74-7
Origin: Sadtler Research Labs Under US-EPA Contract
1/CM	ABSORBANCE
450	0
462	0.0482576
474	0.0313059
486	0.0714522
498	0.0620194
510	0.0265212
522	0.0238782
534	0.032992
546	0.0457057
558	0.0418779
570	0.0359084
582	0.0671687
594	0.0584195
606	0.0470728
618	0.0692649
630	0.112419
642	0.0898621
654	0.0573258
666	0.0540448
678	0.0560043
690	0.0569157
702	0.0622473
714	0.0704497
726	0.123082
738	0.115609
750	0.0697661
762	0.0558676
774	0.0775129
786	0.145775
798	0.187516
810	0.0893152
822	0.0374577
834	0.0424247
846	0.042926
858	0.0775584
870	0.0674421
882	0.039964
894	0.0337666
906	0.03764
918	0.0451133
930	0.0781508
942	0.105447
954	0.0783331
966	0.0519942
978	0.0614726
990	0.0759635
1002	0.0731382
1014	0.0438829
1026	0.0351793
1038	0.0916848
1050	0.194443
1062	0.121897
1074	0.0440652
1086	0.0321261
1098	0.0347691
1110	0.0457513
1122	0.0582828
1134	0.0885861
1146	0.126545
1158	0.256234
1170	0.242609
1182	0.129051
1194	0.215587
1206	0.295606
1218	0.226205
1230	0.118798
1242	0.118479
1254	0.167147
1266	0.156302
1278	0.14614
1290	0.231035
1302	0.294376
1314	0.299981
1326	0.224199
1338	0.0904089
1350	0.0688092
1362	0.0714066
1374	0.0750521
1386	0.0714522
1398	0.0761914
1410	0.0819331
1422	0.0949658
1434	0.137391
1446	0.169471
1458	0.144636
1470	0.15858
1482	0.364461
1494	0.44808
1506	0.237369
1518	0.163684
1530	0.11734
1542	0.0959683
1554	0.0959227
1566	0.136115
1578	0.228346
1590	0.243019
1602	0.146595
1614	0.126636
1626	0.0778319
1638	0.0364552
1650	0.0380501
1662	0.0431994
1674	0.0439741
1686	0.0411488
1698	0.040921
1710	0.0427893
1722	0.0473006
1734	0.0418323
1746	0.0309869
1758	0.0259288
1770	0.0267946
1782	0.0261566
1794	0.0276604
1806	0.0256553
1818	0.0233313
1830	0.024425
1842	0.0275237
1854	0.0297566
1866	0.032673
1878	0.0299388
1890	0.0275692
1902	0.0252452
1914	0.0229668
1926	0.0222832
1938	0.0221465
1950	0.0210984
1962	0.0205972
1974	0.0196402
1986	0.0205516
1998	0.0204149
2010	0.0213263
2022	0.0231946
2034	0.0233769
2046	0.0218731
2058	0.0210984
2070	0.021782
2082	0.0207795
2094	0.0224199
2106	0.0215086
2118	0.0206428
2130	0.0202326
2142	0.0202326
2154	0.0198681
2166	0.021144
2178	0.0204149
2190	0.0212352
2202	0.0207339
2214	0.0207795
2226	0.0219643
2238	0.0219643
2250	0.0215086
2262	0.0210529
2274	0.0212807
2286	0.0212352
2298	0.0237414
2310	0.0251085
2322	0.0228301
2334	0.0229212
2346	0.0230579
2358	0.0223288
2370	0.0187744
2382	0.021782
2394	0.0201415
2406	0.0230123
2418	0.0232858
2430	0.0226022
2442	0.0224199
2454	0.0231035
2466	0.0228301
2478	0.0222832
2490	0.020825
2502	0.0207795
2514	0.0217364
2526	0.020825
2538	0.0209162
2550	0.0209162
2562	0.0215541
2574	0.0208706
2586	0.0207339
2598	0.0202782
2610	0.0203693
2622	0.0205972
2634	0.019139
2646	0.019139
2658	0.0183643
2670	0.0180453
2682	0.0198681
2694	0.0202326
2706	0.020506
2718	0.0219643
2730	0.0242883
2742	0.026111
2754	0.0235136
2766	0.0201415
2778	0.0197314
2790	0.0207795
2802	0.0224199
2814	0.0222832
2826	0.0245161
2838	0.0248351
2850	0.0283895
2862	0.0378678
2874	0.0570524
2886	0.0596043
2898	0.0495335
2910	0.0476196
2922	0.0717256
2934	0.116611
2946	0.0933709
2958	0.0492601
2970	0.0349059
2982	0.0380045
2994	0.0449766
3006	0.0550929
3018	0.055822
3030	0.0622928
3042	0.077604
3054	0.0762369
3066	0.0605156
3078	0.0545917
3090	0.0464348
3102	0.0345413
3114	0.0306224
3126	0.0237414
3138	0.0223744
3150	0.0222832
3162	0.0221465
3174	0.0246073
3186	0.0243338
3198	0.0228301
3210	0.0231946
3222	0.0232858
3234	0.0246528
3246	0.0258376
3258	0.0256553
3270	0.027706
3282	0.0278882
3294	0.0286629
3306	0.0283895
3318	0.027706
3330	0.0305768
3342	0.030349
3354	0.0321261
3366	0.0305312
3378	0.0305768
3390	0.0370932
3402	0.0238782
3414	0.0210984
3426	0.0288452
3438	0.0296654
3450	0.0314426
3462	0.0303945
3474	0.0291186
3486	0.0291186
3498	0.0278427
3510	0.0281161
3522	0.028754
3534	0.0288452
3546	0.0315793
3558	0.0437918
3570	0.258376
3582	0.448536
3594	0.119892
3606	0.0369109
3618	0.0311236
3630	0.0279338
3642	0.0334021
3654	0.0352248
3666	0.0298477
3678	0.0277515
3690	0.0293009
3702	0.0304401
3714	0.0302578
3726	0.0340856
3738	0.0393716
3750	0.0749154
3762	0.0633865
3774	0.0267034
3786	0.0324907
3798	0.031716
3810	0.0344046
3822	0.0376856
3834	0.0333109
3846	0.0296654
3858	0.0325818
3870	0.0324907
3882	0.0361362
3894	0.0333109
3906	0.037002
3918	0.0357717
3930	0.0339033
3942	0.0245161
3954	0.0334021
3966	0.0392805
