Infrared Spectrum: Benzenamine, 2,4-dibromo-
Formula: C 6 H 5 Br 2 N
CAS: 615-57-6
Origin: Sadtler Research Labs Under US-EPA Contract
1/CM	ABSORBANCE
450	0.0408327
462	0.0404694
474	0.0468631
486	0.03146
498	0.0255749
510	0.0260108
522	0.0403241
534	0.0495514
546	0.0337124
558	0.0308788
570	0.0305882
582	0.0232499
594	0.0227413
606	0.0741818
618	0.0831911
630	0.0923458
642	0.0248484
654	0.0679334
666	0.0720748
678	0.165365
690	0.185781
702	0.0707669
714	0.0525303
726	0.0438842
738	0.0476623
750	0.0283358
762	0.0193265
774	0.0127875
786	0.0414139
798	0.113489
810	0.124096
822	0.0475897
834	0.0983036
846	0.040978
858	0.0403241
870	0.0831911
882	0.027464
894	0.00821013
906	0.00821013
918	0.0119156
930	0.00871872
942	0.00682966
954	0.0101718
966	0.0115523
978	0.00632107
990	0.00464998
1002	0.0140226
1014	0.0227413
1026	0.036328
1038	0.0721474
1050	0.0391616
1062	0.0661896
1074	0.0625568
1086	0.0472991
1098	0.0613217
1110	0.0377085
1122	0.0143859
1134	0.0146765
1146	0.0446834
1158	0.0536928
1170	0.020271
1182	0.0175101
1194	0.0119882
1206	0.00392342
1218	0.00755622
1230	0.015621
1242	0.0349475
1254	0.036328
1266	0.0239038
1278	0.0754896
1290	0.152941
1302	0.159843
1314	0.0308061
1326	0.00566717
1338	0.00435936
1350	0.00915466
1362	0.0110437
1374	0.016057
1386	0.0530389
1398	0.067788
1410	0.040978
1422	0.00944528
1434	0.0154757
1446	0.0240491
1458	0.0812294
1470	0.292368
1482	0.72656
1494	0.206561
1506	0.0377085
1518	0.0168562
1530	0.0200531
1542	0.0103172
1554	0.0257929
1566	0.0502053
1578	0.0353108
1590	0.0465725
1602	0.0788318
1614	0.26098
1626	0.328914
1638	0.103317
1650	0.0249937
1662	0.0116976
1674	0.00864606
1686	0.00225234
1698	0.00356014
1710	0.00915466
1722	0.0172921
1734	0.0170015
1746	0.00988122
1758	0.0072656
1770	0.00690232
1782	0.00523123
1794	0.0024703
1806	0.00603045
1818	0.00283358
1830	0.000944528
1842	0.0036328
1854	0.0119156
1866	0.0111164
1878	0.00457733
1890	0.0042867
1902	0.00523123
1914	0.00457733
1926	0.00414139
1938	0.00646638
1950	0.0047953
1962	0.00501326
1974	0.0054492
1986	0.00690232
1998	0.00435936
2010	0.00348749
2022	0.00515858
2034	0.00457733
2046	0.00377811
2058	0.0029789
2070	0.0054492
2082	0.00341483
2094	0.0036328
2106	0.0047953
2118	0.00523123
2130	0.00450467
2142	0.00385077
2154	0.00457733
2166	0.00443202
2178	0.00370546
2190	0.00370546
2202	0.00406874
2214	0.00261562
2226	0.0024703
2238	0.0029789
2250	0.00392342
2262	0.0042867
2274	0.00385077
2286	0.00559451
2298	0.00813747
2310	0.011407
2322	0.00959059
2334	0.0186726
2346	0.0159843
2358	0.0130781
2370	0.0157664
2382	0.00755622
2394	0.00225234
2406	0.00152578
2418	0.00319686
2430	0.00268827
2442	0.00283358
2454	0.00268827
2466	0.00377811
2478	0.00319686
2490	0.00254296
2502	0.00283358
2514	0.00385077
2526	0.00435936
2538	0.00392342
2550	0.00443202
2562	0.00305155
2574	0.0042867
2586	0.00443202
2598	0.0054492
2610	0.00341483
2622	0.00283358
2634	0.00472264
2646	0.00552186
2658	0.00435936
2670	0.00239765
2682	0.00566717
2694	0.00566717
2706	0.00435936
2718	0.00290624
2730	0.00508592
2742	0.00443202
2754	0.00312421
2766	0.00414139
2778	0.00537654
2790	0.00559451
2802	0.00290624
2814	0.00624842
2826	0.00675701
2838	0.00762888
2850	0.0072656
2862	0.0100265
2874	0.00821013
2886	0.00668435
2898	0.00697498
2910	0.00755622
2922	0.00806482
2934	0.00494061
2946	0.00886403
2958	0.00755622
2970	0.00690232
2982	0.00632107
2994	0.00784685
3006	0.00893669
3018	0.0146039
3030	0.0244124
3042	0.0199804
3054	0.0255023
3066	0.0245577
3078	0.0169288
3090	0.0125695
3102	0.00719294
3114	0.00443202
3126	0.00668435
3138	0.00712029
3150	0.00377811
3162	0.00617576
3174	0.00821013
3186	0.0103898
3198	0.00733826
3210	0.00980856
3222	0.00864606
3234	0.0072656
3246	0.00552186
3258	0.00603045
3270	0.00682966
3282	0.00370546
3294	0.00523123
3306	0.00508592
3318	0.00719294
3330	0.00341483
3342	0.00697498
3354	0.00871872
3366	0.009082
3378	0.0113343
3390	0.0233952
3402	0.0767247
3414	0.0832638
3426	0.0581975
3438	0.0182367
3450	0.0142406
3462	0.0103898
3474	0.0204163
3486	0.0397428
3498	0.0650998
3510	0.0568896
3522	0.0509319
3534	0.0308061
3546	0.00959059
3558	0.0106078
3570	0.0117703
3582	0.0113343
3594	0.00828278
3606	0.00959059
3618	0.0106078
3630	0.00748357
3642	0.00748357
3654	0.00879138
3666	0.00828278
3678	0.00225234
3690	0.00370546
3702	0.00450467
3714	0.00501326
3726	0.00225234
3738	0.00159843
3750	0.0011625
3762	0.0024703
3774	0.00414139
3786	0.00443202
3798	0.00341483
3810	0.000508592
3822	0.000653904
3834	0.0024703
3846	0.00494061
3858	0.00138046
3870	0.00305155
3882	0.00239765
3894	0.000581248
3906	0.0018164
3918	0.00399608
3930	0.00617576
3942	0.0042867
3954	0
3966	0.000508592
