Infrared Spectrum: Benzene, 4-chloro-1,2-dimethyl-
Formula: C 8 H 9 Cl
CAS: 615-60-1
Origin: Sadtler Research Labs Under US-EPA Contract
1/CM	ABSORBANCE
450	0.0128508
462	0.00859088
474	0.00532493
486	0.00511193
498	0.00986886
510	0.00617691
522	0.0169688
534	0.0549532
546	0.0461493
558	0.0193827
570	0.00795189
582	0.00922987
594	0.0119988
606	0.0189567
618	0.074407
630	0.0491313
642	0.0556632
654	0.114663
666	0.0149098
678	0.00475693
690	0.0554502
702	0.122828
714	0.0506223
726	0.0156908
738	0.0229327
750	0.0613431
762	0.215766
774	0.323613
786	0.151086
798	0.262909
810	0.414705
822	0.139442
834	0.124816
846	0.117432
858	0.0827848
870	0.257939
882	0.438561
894	0.181402
906	0.0281866
918	0.0186727
930	0.0152648
942	0.0199507
954	0.0285416
966	0.0496283
978	0.101174
990	0.233019
1002	0.265252
1014	0.214488
1026	0.175368
1038	0.112817
1050	0.0811519
1062	0.0651061
1074	0.0820748
1086	0.115373
1098	0.164221
1110	0.143702
1122	0.119988
1134	0.15776
1146	0.147607
1158	0.0750459
1170	0.143631
1182	0.259075
1194	0.070857
1206	0.0410374
1218	0.0379135
1230	0.0297486
1242	0.0261986
1254	0.0263406
1266	0.0310976
1278	0.0413924
1290	0.0268376
1302	0.0149808
1314	0.0161878
1326	0.0196667
1338	0.0262696
1350	0.0272636
1362	0.0303876
1374	0.0533912
1386	0.0969846
1398	0.124248
1410	0.115089
1422	0.107279
1434	0.199436
1446	0.356344
1458	0.48542
1470	0.465966
1482	0.543142
1494	0.66803
1506	0.219387
1518	0.0897427
1530	0.0775309
1542	0.0914467
1554	0.108486
1566	0.18339
1578	0.211861
1590	0.195176
1602	0.264613
1614	0.115728
1626	0.0389075
1638	0.0294646
1650	0.0268376
1662	0.0218677
1674	0.0146258
1686	0.0141998
1698	0.0168268
1710	0.0342215
1722	0.0612721
1734	0.0471433
1746	0.0358545
1758	0.0196667
1770	0.0208737
1782	0.0169688
1794	0.0107208
1806	0.00788089
1818	0.00653191
1830	0.00979786
1842	0.0185307
1854	0.0187437
1866	0.0218677
1878	0.0244947
1890	0.0142708
1902	0.0119278
1914	0.0194537
1926	0.0164718
1938	0.00482793
1950	0.00205897
1962	0.00184597
1974	0.00227197
1986	0.00241397
1998	0.00212997
2010	0.00177498
2022	0.00163298
2034	0.000922987
2046	0.00120698
2058	0.00106499
2070	0.000354995
2082	0.000425994
2094	0.00134898
2106	0.000993986
2118	0.00156198
2130	0.00198797
2142	0.00120698
2154	0.000922987
2166	0.000638991
2178	0.000638991
2190	0.000567992
2202	0.00134898
2214	0.00198797
2226	0.00198797
2238	0.00156198
2250	0.00234297
2262	0.00305296
2274	0.00347895
2286	0.00326595
2298	0.00170398
2310	0.00170398
2322	0.00326595
2334	0.000780989
2346	0.000354995
2358	0.00447294
2370	0.000354995
2382	0.00248497
2394	0.00425994
2406	0.00383395
2418	0.00326595
2430	0.00305296
2442	0.00347895
2454	0.00397594
2466	0.00383395
2478	0.00390494
2490	0.00397594
2502	0.00227197
2514	0.00212997
2526	0.00298196
2538	0.00362095
2550	0.00433094
2562	0.00461494
2574	0.00269796
2586	0.000993986
2598	0.000851988
2610	0.00170398
2622	0.00149098
2634	0.00184597
2646	0.00262696
2658	0.00198797
2670	0.00184597
2682	0.00241397
2694	0.00262696
2706	0.00447294
2718	0.0104369
2730	0.0186727
2742	0.0287546
2754	0.0259856
2766	0.0168978
2778	0.0160458
2790	0.0137028
2802	0.0136318
2814	0.0193117
2826	0.0283996
2838	0.0430254
2850	0.071567
2862	0.131703
2874	0.23735
2886	0.265607
2898	0.226558
2910	0.234439
2922	0.320844
2934	0.546053
2946	0.544207
2958	0.420598
2970	0.340369
2982	0.346049
2994	0.252898
3006	0.153997
3018	0.197235
3030	0.265181
3042	0.198939
3054	0.169475
3066	0.220523
3078	0.228333
3090	0.143631
3102	0.0780279
3114	0.0444454
3126	0.0264826
3138	0.0182467
3150	0.0125668
3162	0.00979786
3174	0.00546692
3186	0.00624791
3198	0.00468593
3210	0.00347895
3222	0.00120698
3234	0.00241397
3246	0.00191697
3258	0.00283996
3270	0.00227197
3282	0.00326595
3294	0.00248497
3306	0.00163298
3318	0.00255596
3330	0.00184597
3342	0.00305296
3354	0.00170398
3366	0.00333695
3378	0.00212997
3390	0.00276896
3402	0.00177498
3414	0.00241397
3426	0.00177498
3438	0.00255596
3450	0.00127798
3462	0.00163298
3474	0.00276896
3486	0.00383395
3498	0.00298196
3510	0.00156198
3522	0.00177498
3534	0.00191697
3546	0.000567992
3558	0.000922987
3570	0.00120698
3582	0.00425994
3594	0.00170398
3606	0.000567992
3618	0.00305296
3630	0.00205897
3642	0.00198797
3654	0.00262696
3666	0.00184597
3678	0.00333695
3690	0.00340795
3702	0.00184597
3714	0.00149098
3726	0.00156198
3738	0.000567992
3750	0.000851988
3762	0.00106499
3774	0.00070999
3786	0.000283996
3798	0.000993986
3810	0.00454394
3822	0.00156198
3834	0.00461494
3846	0.00596392
3858	0.00134898
3870	0.00134898
3882	0.00305296
3894	0.00433094
3906	0.00901687
3918	0.00880388
3930	0.0072419
3942	0.00560892
3954	0.0115728
3966	0.00582192
