Infrared Spectrum: Benzene, 1,4-dibromo-2-methyl-
Formula: C 7 H 6 Br 2
CAS: 615-59-8
Origin: Sadtler Research Labs Under US-EPA Contract
1/CM	ABSORBANCE
450	0.032361
462	0.0270757
474	0.00751073
486	0.00426535
498	0.00565622
510	0.00973612
522	0.0239231
534	0.03709
546	0.0204922
558	0.0102925
570	0.0063053
582	0.00649075
594	0.0066762
606	0.0102925
618	0.0145578
630	0.00751073
642	0.00899433
654	0.00658348
666	0.0051926
678	0.0117761
690	0.0135379
702	0.0114979
714	0.0114979
726	0.00992158
738	0.0085307
750	0.00945795
762	0.0165051
774	0.011127
786	0.0191941
798	0.109972
810	0.164865
822	0.0452498
834	0.0313411
846	0.0856779
858	0.0936523
870	0.0928177
882	0.0313411
894	0.0146506
906	0.0123324
918	0.0123324
930	0.0146506
942	0.0120543
954	0.0127033
966	0.0144651
978	0.0167832
990	0.0216049
1002	0.0351428
1014	0.0690801
1026	0.560059
1038	0.259723
1050	0.0652784
1062	0.170243
1074	0.0567477
1086	0.13204
1098	0.135657
1110	0.0318047
1122	0.0266121
1134	0.024943
1146	0.0267048
1158	0.0114052
1170	0.0113124
1182	0.0126106
1194	0.0527605
1206	0.0365337
1218	0.0156705
1230	0.013167
1242	0.0117761
1254	0.017525
1266	0.0330101
1278	0.0125179
1290	0.00862343
1302	0.00945795
1314	0.00992158
1326	0.0100143
1338	0.011127
1350	0.0132597
1362	0.0293938
1374	0.0563768
1386	0.0675038
1398	0.0665765
1410	0.0392227
1422	0.0363482
1434	0.0520187
1446	0.0878106
1458	0.307198
1470	0.237376
1482	0.169501
1494	0.0533169
1506	0.0309702
1518	0.0228104
1530	0.0216049
1542	0.0299502
1554	0.0304138
1566	0.0379245
1578	0.0605494
1590	0.0430244
1602	0.0191013
1614	0.0186377
1626	0.0139088
1638	0.0122397
1650	0.0102925
1662	0.00862343
1674	0.00899433
1686	0.0124252
1698	0.0106634
1710	0.00723255
1722	0.0114052
1734	0.0220685
1746	0.0165978
1758	0.00760345
1770	0.00834525
1782	0.0066762
1794	0.00769618
1806	0.0059344
1818	0.00602713
1830	0.00658348
1842	0.00547078
1854	0.00584168
1866	0.00982885
1878	0.0157632
1890	0.0130742
1902	0.00723255
1914	0.00584168
1926	0.0051926
1938	0.00472897
1950	0.00472897
1962	0.00454353
1974	0.00463625
1986	0.00454353
1998	0.00454353
2010	0.0044508
2022	0.0044508
2034	0.00435808
2046	0.00435808
2058	0.00435808
2070	0.00426535
2082	0.00417263
2094	0.00417263
2106	0.00389445
2118	0.00398717
2130	0.0040799
2142	0.00398717
2154	0.00398717
2166	0.0040799
2178	0.00398717
2190	0.00398717
2202	0.00380173
2214	0.00380173
2226	0.00380173
2238	0.003709
2250	0.003709
2262	0.00426535
2274	0.00417263
2286	0.003709
2298	0.00352355
2310	0.00361627
2322	0.00343083
2334	0.00352355
2346	0.00343083
2358	0.0029672
2370	0.0033381
2382	0.00324537
2394	0.00324537
2406	0.0033381
2418	0.00361627
2430	0.00324537
2442	0.00305993
2454	0.00305993
2466	0.00352355
2478	0.0029672
2490	0.00305993
2502	0.00241085
2514	0.00241085
2526	0.00287448
2538	0.00231813
2550	0.00176178
2562	0.00268903
2574	0.00278175
2586	0.0040799
2598	0.00343083
2610	0.0025963
2622	0.0025963
2634	0.00250358
2646	0.0025963
2658	0.00250358
2670	0.00194723
2682	0.0018545
2694	0.00194723
2706	0.0018545
2718	0.00194723
2730	0.00250358
2742	0.00352355
2754	0.00435808
2766	0.00324537
2778	0.00268903
2790	0.0025963
2802	0.0033381
2814	0.00500715
2826	0.0051926
2838	0.00621258
2850	0.00871615
2862	0.0140942
2874	0.0184523
2886	0.0146506
2898	0.0137233
2910	0.0174323
2922	0.0267975
2934	0.0522969
2946	0.0478461
2958	0.0321756
2970	0.0380173
2982	0.0373682
2994	0.0461771
3006	0.0225322
3018	0.0150215
3030	0.0124252
3042	0.00982885
3054	0.0102925
3066	0.0102925
3078	0.0139088
3090	0.016876
3102	0.0096434
3114	0.0051926
3126	0.00380173
3138	0.00278175
3150	0.00268903
3162	0.00250358
3174	0.00241085
3186	0.0025963
3198	0.00194723
3210	0.00166905
3222	0.00268903
3234	0.0018545
3246	0.0014836
3258	0.0022254
3270	0.00176178
3282	0.000463625
3294	0.00176178
3306	0.00120542
3318	0.00139087
3330	0.00101998
3342	0.00139087
3354	0.00139087
3366	0.00166905
3378	0.00213268
3390	0.00157633
3402	0.0022254
3414	0.0014836
3426	0.00129815
3438	0.0018545
3450	0.00176178
3462	0.0018545
3474	0.00213268
3486	0.00166905
3498	0.00203995
3510	0.00166905
3522	0.0014836
3534	0.00120542
3546	0.00231813
3558	0.0018545
3570	0.00268903
3582	0.00194723
3594	0.00241085
3606	0.00241085
3618	0.00380173
3630	0.0055635
3642	0.00287448
3654	0.0040799
3666	0.00315265
3678	0.00584168
3690	0.00565622
3702	0.003709
3714	0.0051926
3726	0.00509988
3738	0.00658348
3750	0.00751073
3762	0.00584168
3774	0.00584168
3786	0.0059344
3798	0.00649075
3810	0.00602713
3822	0.00695438
3834	0.0070471
3846	0.0063053
3858	0.0063053
3870	0.00723255
3882	0.00611985
3894	0.00621258
3906	0.00621258
3918	0.0063053
3930	0.0063053
3942	0.00565622
3954	0
3966	0.000463625
