Infrared Spectrum: 2,5-Cyclohexadiene-1,4-dione, 2,5-dihydroxy-
Formula: C 6 H 4 O 4
CAS: 615-94-1
Origin: Sadtler Research Labs Under US-EPA Contract
1/CM	ABSORBANCE
450	0.0974472
462	0.00865361
474	0.0394116
486	0.0297233
498	0.0360254
510	0.0234212
522	0.0135448
534	0.0300995
546	0.0294411
558	0.0298173
570	0.0281242
582	0.0303817
594	0.0296292
606	0.0387531
618	0.0546494
630	0.08014
642	0.161126
654	0.225746
666	0.155953
678	0.0534266
690	0.0230449
702	0.0128864
714	0
726	0.0166488
738	0.0198469
750	0.0314164
762	0.0239856
774	0.020035
786	0.0172132
798	0.0518276
810	0.0810806
822	0.0467483
834	0.0239856
846	0.0671596
858	0.155201
870	0.0849371
882	0.0267133
894	0.0143913
906	0.00968828
918	0.012322
930	0.0133567
942	0.0126982
954	0.0175894
966	0.0173072
978	0.0140151
990	0.0122279
1002	0.0129804
1014	0.0140151
1026	0.0127923
1038	0.0131685
1050	0.0157082
1062	0.0241737
1074	0.0287827
1086	0.0288767
1098	0.0319807
1110	0.0389413
1122	0.0347085
1134	0.0330154
1146	0.026243
1158	0.032357
1170	0.0460899
1182	0.0482533
1194	0.0658427
1206	0.31708
1218	0.765468
1230	0.343793
1242	0.0418571
1254	0.035461
1266	0.0460899
1278	0.0587881
1290	0.0533326
1302	0.0536148
1314	0.0797637
1326	0.146923
1338	0.186241
1350	0.146829
1362	0.0877589
1374	0.137893
1386	0.671784
1398	0.902327
1410	0.32404
1422	0.173731
1434	0.0844668
1446	0.0281242
1458	0.0179657
1470	0.0229509
1482	0.030852
1494	0.0322629
1506	0.0249262
1518	0.0208815
1530	0.0164607
1542	0.0149557
1554	0.0208815
1566	0.0255846
1578	0.0285945
1590	0.0319807
1602	0.0313223
1614	0.0411047
1626	0.0589762
1638	0.161597
1650	0.497395
1662	0.691819
1674	0.652125
1686	0.300337
1698	0.0520157
1710	0.0681942
1722	0.0652783
1734	0.0348966
1746	0.0162726
1758	0.0264311
1770	0.0245499
1782	0.0142973
1794	0.00790112
1806	0.00808925
1818	0.00639615
1830	0.00507929
1842	0.00432681
1854	0.00649021
1866	0.00498523
1878	0.00348026
1890	0.00357432
1902	0.00272777
1914	0.00197528
1926	0.00272777
1938	0.00263371
1950	0.00235153
1962	0.00507929
1974	0.00696051
1986	0.00799519
1998	0.00536148
2010	0.00300995
2022	0.00282183
2034	0.00225746
2046	0.0038565
2058	0.00489117
2070	0.00272777
2082	0.00253965
2094	0.00244559
2106	0.0021634
2118	0.00159904
2130	0.0021634
2142	0.00376244
2154	0.00357432
2166	0.00470305
2178	0.0033862
2190	0.00329214
2202	0.0016931
2214	0.000658427
2226	0.00150498
2238	0.00122279
2250	0.00122279
2262	0.000752488
2274	0.00225746
2286	0.00526742
2298	0.0114754
2310	0.0180597
2322	0.0161785
2334	0.00931204
2346	0.0148616
2358	0.0127923
2370	0.00827737
2382	0.0118517
2394	0.00197528
2406	0.00206934
2418	0.00319807
2430	0.00310401
2442	0.0033862
2454	0.00451493
2466	0.0038565
2478	0.00244559
2490	0.00291589
2502	0.0021634
2514	0.00188122
2526	0.0033862
2538	0.00206934
2550	0.0033862
2562	0.00639615
2574	0.00658427
2586	0.00733676
2598	0.00658427
2610	0.00611397
2622	0.00714864
2634	0.00780706
2646	0.00752488
2658	0.00526742
2670	0.00498523
2682	0.00442087
2694	0.00479711
2706	0.00479711
2718	0.00460899
2730	0.00432681
2742	0.00470305
2754	0.00536148
2766	0.00526742
2778	0.00573772
2790	0.00564366
2802	0.00573772
2814	0.00658427
2826	0.00686645
2838	0.00752488
2850	0.00921798
2862	0.00893579
2874	0.00921798
2886	0.00959422
2898	0.00827737
2910	0.00743082
2922	0.00865361
2934	0.00884173
2946	0.00950016
2958	0.00931204
2970	0.00893579
2982	0.00978234
2994	0.0111933
3006	0.0124161
3018	0.0142032
3030	0.0164607
3042	0.0190944
3054	0.0205994
3066	0.0189063
3078	0.013827
3090	0.0106289
3102	0.00931204
3114	0.00884173
3126	0.00893579
3138	0.00818331
3150	0.00884173
3162	0.00902986
3174	0.00921798
3186	0.00931204
3198	0.00902986
3210	0.00921798
3222	0.0102526
3234	0.0104408
3246	0.0116636
3258	0.0126042
3270	0.0149557
3282	0.0156141
3294	0.0183419
3306	0.0245499
3318	0.0298173
3330	0.0348026
3342	0.0525801
3354	0.116071
3366	0.232425
3378	0.240608
3390	0.137329
3402	0.0751547
3414	0.0605753
3426	0.044679
3438	0.0252083
3450	0.015426
3462	0.0110992
3474	0.00912392
3486	0.00677239
3498	0.00658427
3510	0.00451493
3522	0.00366838
3534	0.00526742
3546	0.00451493
3558	0.00319807
3570	0.00931204
3582	0.0104408
3594	0.00714864
3606	0.00141091
3618	0.000188122
3630	0.0038565
3642	0.00357432
3654	0.00649021
3666	0.00997047
3678	0.0114754
3690	0.0126982
3702	0.0106289
3714	0.00790112
3726	0.007713
3738	0.00545554
3750	0.00837143
3762	0.00413868
3774	0.0055496
3786	0.0038565
3798	0.00573772
3810	0.0060199
3822	0.00902986
3834	0.00761894
3846	0.00865361
3858	0.0103467
3870	0.0105348
3882	0.00714864
3894	0.00827737
3906	0.00865361
3918	0.0110992
3930	0.00902986
3942	0.0127923
3954	0.0111933
3966	0.0115695
