Infrared Spectrum: Benzenamine, 2-chloro-4-methyl-
Formula: C 7 H 8 Cl N
CAS: 615-65-6
Origin: Sadtler Research Labs Under US-EPA Contract
1/CM	ABSORBANCE
450	0.0595961
462	0.0400813
474	0.0285126
486	0.0142563
498	0.0196316
510	0.00958211
522	0.00981582
534	0.0232541
546	0.0699961
558	0.0891604
570	0.0366925
582	0.00736187
594	0.00502477
606	0.00782929
618	0.0239553
630	0.0673085
642	0.145484
654	0.150159
666	0.18206
678	0.200289
690	0.178438
702	0.160676
714	0.164532
726	0.102014
738	0.0687107
750	0.0579601
762	0.067659
774	0.0885761
786	0.0810974
798	0.200523
810	0.26082
822	0.110779
834	0.0432363
846	0.0275778
858	0.0662568
870	0.128774
882	0.114985
894	0.100846
906	0.0129709
918	0.000116855
930	0.00537533
942	0.00455734
954	0.00666074
966	0.0156586
978	0.0321351
990	0.0586612
1002	0.0407824
1014	0.00712816
1026	0.00572589
1038	0.0555061
1050	0.14899
1062	0.100262
1074	0.0834345
1086	0.0974571
1098	0.0654388
1110	0.044288
1122	0.0286295
1134	0.0301486
1146	0.0871738
1158	0.108208
1170	0.0333037
1182	0.0135552
1194	0.0285126
1206	0.0891604
1218	0.106455
1230	0.0203328
1242	0.0296812
1254	0.0767737
1266	0.087057
1278	0.0983919
1290	0.348111
1302	0.399995
1314	0.186617
1326	0.0350565
1338	0.00911469
1350	0.0129709
1362	0.0157754
1374	0.0167103
1386	0.0190474
1398	0.0288632
1410	0.0625174
1422	0.0814479
1434	0.0524679
1446	0.0375105
1458	0.0352902
1470	0.0592455
1482	0.0986256
1494	0.283373
1506	1.09563
1518	0.862273
1530	0.13859
1542	0.0944188
1554	0.077358
1566	0.0857716
1578	0.094302
1590	0.135786
1602	0.240838
1614	0.269935
1626	0.547466
1638	0.510773
1650	0.132397
1662	0.0480274
1674	0.0213845
1686	0.0147237
1698	0.0114518
1710	0.0137889
1722	0.0237216
1734	0.0281621
1746	0.0176451
1758	0.0121529
1770	0.00911469
1782	0.00666074
1794	0.0107507
1806	0.0118024
1818	0.00420678
1830	0.00140226
1842	0.00385622
1854	0.0151912
1866	0.0223193
1878	0.0102832
1890	0.00292137
1902	0.00408993
1914	0.00455734
1926	0.00572589
1938	0.00689444
1950	0.00619332
1962	0.00607646
1974	0.0070113
1986	0.00584275
1998	0.00408993
2010	0.00350565
2022	0.00257081
2034	0.0023371
2046	0.00303823
2058	0.00537533
2070	0.00607646
2082	0.00444049
2094	0.00245396
2106	0.00093484
2118	0.0010517
2130	0.00128541
2142	0.00140226
2154	0.00175283
2166	0.00222025
2178	0.00210339
2190	0.00268767
2202	0.00245396
2214	0.000584275
2226	0.000350565
2238	0.000350565
2250	0.000116855
2262	0.0010517
2274	0.00163597
2286	0.00163597
2298	0.00257081
2310	0.00385622
2322	0.00280452
2334	0.0033888
2346	0.00502477
2358	0.00479105
2370	0.00455734
2382	0.00490791
2394	0.00490791
2406	0.00373936
2418	0.00070113
2430	0
2442	0.00023371
2454	0.000817985
2466	0.00070113
2478	0.000584275
2490	0.000350565
2502	0.0010517
2514	0.00163597
2526	0.000817985
2538	0.00222025
2550	0.00514162
2562	0.00595961
2574	0.00257081
2586	0.00350565
2598	0.00806299
2610	0.00771243
2622	0.00292137
2634	0.00175283
2646	0.00210339
2658	0.00175283
2670	0.00151912
2682	0.00151912
2694	0.00186968
2706	0.00245396
2718	0.00222025
2730	0.00362251
2742	0.010517
2754	0.0109844
2766	0.00385622
2778	0.00280452
2790	0.00385622
2802	0.00525848
2814	0.00654388
2826	0.00747872
2838	0.0121529
2850	0.0236047
2862	0.0567915
2874	0.118958
2886	0.111713
2898	0.0906795
2910	0.0958211
2922	0.148172
2934	0.231139
2946	0.162545
2958	0.0763063
2970	0.0488454
2982	0.0522342
2994	0.0768906
3006	0.102716
3018	0.11966
3030	0.187903
3042	0.169673
3054	0.126905
3066	0.103066
3078	0.056441
3090	0.0343554
3102	0.0219687
3114	0.015308
3126	0.00946526
3138	0.00444049
3150	0.00268767
3162	0.00303823
3174	0.00408993
3186	0.00619332
3198	0.00806299
3210	0.00864727
3222	0.00666074
3234	0.00444049
3246	0.00245396
3258	0.000817985
3270	0.000584275
3282	0.0010517
3294	0.00140226
3306	0.000817985
3318	0.000817985
3330	0.00046742
3342	0.00128541
3354	0.00151912
3366	0.00362251
3378	0.00794614
3390	0.0240721
3402	0.104352
3414	0.150392
3426	0.0936009
3438	0.016944
3450	0.0082967
3462	0.0113349
3474	0.0257081
3486	0.07654
3498	0.116621
3510	0.116037
3522	0.0817985
3534	0.0205665
3546	0.00525848
3558	0.00222025
3570	0.0010517
3582	0.000350565
3594	0.00023371
3606	0.000350565
3618	0.00070113
3630	0.000350565
3642	0.00070113
3654	0.00070113
3666	0
3678	0.00093484
3690	0.00070113
3702	0.00140226
3714	0.0023371
3726	0.00397307
3738	0.00093484
3750	0.00140226
3762	0.00163597
3774	0.00151912
3786	0.00140226
3798	0.00140226
3810	0.00116855
3822	0.00268767
3834	0.00350565
3846	0.00771243
3858	0.0115686
3870	0.00514162
3882	0.00163597
3894	0.00385622
3906	0.00397307
3918	0.00257081
3930	0.00362251
3942	0.00595961
3954	0.00677759
3966	0.00408993
