Infrared Spectrum: Benzothiazole, 2-chloro-
Formula: C 7 H 4 Cl N S
CAS: 615-20-3
Origin: Sadtler Research Labs Under US-EPA Contract
1/CM	ABSORBANCE
450	0
462	0.0265452
474	0.0206831
486	0.0217892
498	0.0205725
510	0.0207937
522	0.0207937
534	0.0199089
546	0.0149317
558	0.0175862
570	0.0139362
582	0.0265452
594	0.0538646
606	0.0336239
618	0.0182498
630	0.0172544
642	0.0151529
654	0.0211256
666	0.0335133
678	0.0538646
690	0.0259922
702	0.0533116
714	0.0944567
726	0.204177
738	0.154294
750	0.273194
762	0.249414
774	0.0671372
786	0.0188028
798	0.0180286
810	0.0209043
822	0.0162589
834	0.0196877
846	0.0320754
858	0.0258816
870	0.0241119
882	0.0311906
894	0.0183604
906	0.0202407
918	0.0238907
930	0.0237801
942	0.0264346
954	0.0288679
966	0.0557449
978	0.0582888
990	0.0820689
1002	0.557892
1014	1.10605
1026	0.590078
1038	0.136929
1050	0.0528692
1062	0.0424723
1074	0.148985
1086	0.193559
1098	0.0752114
1110	0.0278725
1122	0.0370527
1134	0.0382693
1146	0.0205725
1158	0.0243331
1170	0.03108
1182	0.0201301
1194	0.0186922
1206	0.0227846
1218	0.0424723
1230	0.0898113
1242	0.124099
1254	0.0264346
1266	0.0267664
1278	0.0433572
1290	0.0446844
1302	0.0880416
1314	0.0748796
1326	0.023227
1338	0.025771
1350	0.0270982
1362	0.022674
1374	0.0235589
1386	0.0246649
1398	0.0251073
1410	0.0374951
1422	0.247866
1434	0.486773
1446	0.188582
1458	0.0943461
1470	0.102531
1482	0.299408
1494	0.80797
1506	0.138256
1518	0.0425829
1530	0.0201301
1542	0.0172544
1554	0.0265452
1566	0.0408132
1578	0.0315224
1590	0.0353936
1602	0.0441314
1614	0.026324
1626	0.0162589
1638	0.0153741
1650	0.0148211
1662	0.0202407
1674	0.017365
1686	0.0272088
1698	0.0291997
1710	0.0183604
1722	0.0164801
1734	0.0159271
1746	0.0167014
1758	0.0163695
1770	0.0186922
1782	0.0298634
1794	0.0256604
1806	0.0188028
1818	0.026324
1830	0.0196877
1842	0.0151529
1854	0.0165908
1866	0.0235589
1878	0.0220104
1890	0.0180286
1902	0.0275406
1914	0.0256604
1926	0.0174756
1938	0.0294209
1950	0.026877
1962	0.0155953
1974	0.0149317
1986	0.0152635
1998	0.0149317
2010	0.0157059
2022	0.0162589
2034	0.0155953
2046	0.0153741
2058	0.0151529
2070	0.0151529
2082	0.0163695
2094	0.0170332
2106	0.0160377
2118	0.0154847
2130	0.0158165
2142	0.0157059
2154	0.0155953
2166	0.0167014
2178	0.0153741
2190	0.0150423
2202	0.0150423
2214	0.0151529
2226	0.0148211
2238	0.0152635
2250	0.0164801
2262	0.0164801
2274	0.0162589
2286	0.0158165
2298	0.0139362
2310	0.013162
2322	0.0159271
2334	0.0138256
2346	0.0129408
2358	0.014268
2370	0.0128302
2382	0.0132726
2394	0.0151529
2406	0.0149317
2418	0.0141574
2430	0.0152635
2442	0.0159271
2454	0.0159271
2466	0.0155953
2478	0.0154847
2490	0.0150423
2502	0.0161483
2514	0.0160377
2526	0.0153741
2538	0.0152635
2550	0.0160377
2562	0.0162589
2574	0.0170332
2586	0.0178074
2598	0.0160377
2610	0.0180286
2622	0.0165908
2634	0.0149317
2646	0.0151529
2658	0.0157059
2670	0.0162589
2682	0.0163695
2694	0.0149317
2706	0.0154847
2718	0.0157059
2730	0.0171438
2742	0.0160377
2754	0.0150423
2766	0.0152635
2778	0.0151529
2790	0.0160377
2802	0.0160377
2814	0.0147105
2826	0.014268
2838	0.0144893
2850	0.0150423
2862	0.0162589
2874	0.0165908
2886	0.0165908
2898	0.0180286
2910	0.0217892
2922	0.0246649
2934	0.0183604
2946	0.0175862
2958	0.021568
2970	0.0303058
2982	0.0214574
2994	0.0191347
3006	0.0231164
3018	0.0227846
3030	0.0245543
3042	0.0398178
3054	0.0366103
3066	0.0729993
3078	0.172876
3090	0.0887052
3102	0.0403708
3114	0.0249967
3126	0.0254392
3138	0.0192453
3150	0.0157059
3162	0.0149317
3174	0.0145999
3186	0.0147105
3198	0.0147105
3210	0.0147105
3222	0.0144893
3234	0.0143786
3246	0.0144893
3258	0.0147105
3270	0.0144893
3282	0.014268
3294	0.0143786
3306	0.014268
3318	0.0149317
3330	0.014268
3342	0.0143786
3354	0.0141574
3366	0.0145999
3378	0.0141574
3390	0.0141574
3402	0.0140468
3414	0.0144893
3426	0.0140468
3438	0.0143786
3450	0.0147105
3462	0.0150423
3474	0.0140468
3486	0.0141574
3498	0.014268
3510	0.0139362
3522	0.013715
3534	0.0140468
3546	0.013162
3558	0.013715
3570	0.0139362
3582	0.0144893
3594	0.0133832
3606	0.0147105
3618	0.0140468
3630	0.0148211
3642	0.0129408
3654	0.014268
3666	0.0160377
3678	0.0149317
3690	0.0147105
3702	0.0144893
3714	0.0138256
3726	0.0144893
3738	0.0130514
3750	0.0152635
3762	0.0147105
3774	0.0148211
3786	0.0143786
3798	0.0133832
3810	0.0150423
3822	0.0139362
3834	0.0132726
3846	0.0136044
3858	0.0145999
3870	0.0148211
3882	0.0140468
3894	0.0141574
3906	0.0153741
3918	0.0160377
3930	0.0159271
3942	0.0138256
3954	0.0133832
3966	0.0134938
