Infrared Spectrum: 2-Furancarboxylic acid, 3-methylbutyl ester
Formula: C 10 H 14 O 3
CAS: 615-12-3
Origin: Sadtler Research Labs Under US-EPA Contract
1/CM	ABSORBANCE
450	0
462	0.0273318
474	0.0262856
486	0.0391014
498	0.0278549
510	0.0226239
522	0.0241932
534	0.0205315
546	0.0239316
558	0.0258933
570	0.0238009
582	0.0257625
594	0.0455094
606	0.0427631
618	0.0436785
630	0.032432
642	0.0226239
654	0.0187007
666	0.0207931
678	0.0217085
690	0.0209238
702	0.0207931
714	0.0227547
726	0.0328243
738	0.077549
750	0.247424
762	0.235262
774	0.107889
786	0.053225
798	0.0469479
810	0.0521788
822	0.0445939
834	0.0425015
846	0.0298165
858	0.0244547
870	0.0285087
882	0.061333
894	0.0668255
906	0.0411938
918	0.0523096
930	0.0571482
942	0.0618561
954	0.0986036
966	0.110766
978	0.0864416
990	0.0538789
1002	0.081603
1014	0.160329
1026	0.0610715
1038	0.0485172
1050	0.0476017
1062	0.0477325
1074	0.118612
1086	0.127374
1098	0.0940265
1110	0.357536
1122	0.971651
1134	0.314511
1146	0.0907572
1158	0.105012
1170	0.570829
1182	0.527804
1194	0.116912
1206	0.0567559
1218	0.0660409
1230	0.242717
1242	0.120704
1254	0.0907572
1266	0.124758
1278	0.324581
1290	1.10713
1302	0.773005
1314	0.178507
1326	0.0802952
1338	0.0765028
1350	0.0755874
1362	0.0676102
1374	0.0877494
1386	0.124105
1398	0.179683
1410	0.0783336
1422	0.0452478
1434	0.0496941
1446	0.0534866
1458	0.0863108
1470	0.158237
1482	0.271356
1494	0.130905
1506	0.0651255
1518	0.0362244
1530	0.031255
1542	0.031255
1554	0.0328243
1566	0.0683948
1578	0.185045
1590	0.175629
1602	0.0469479
1614	0.0380552
1626	0.037009
1638	0.0323012
1650	0.0319089
1662	0.0372706
1674	0.0402784
1686	0.0430246
1698	0.0536173
1710	0.0744104
1722	0.156275
1734	0.475233
1746	0.58966
1758	0.538397
1770	0.262594
1782	0.0830415
1794	0.0498249
1806	0.0380552
1818	0.0332166
1830	0.0340012
1842	0.0266779
1854	0.0247163
1866	0.0269394
1878	0.0252394
1890	0.0240624
1902	0.0235393
1914	0.0235393
1926	0.0239316
1938	0.0240624
1950	0.0236701
1962	0.0232778
1974	0.0226239
1986	0.0226239
1998	0.0224931
2010	0.0222316
2022	0.0222316
2034	0.0222316
2046	0.02197
2058	0.0207931
2070	0.0196161
2082	0.0222316
2094	0.027201
2106	0.0252394
2118	0.0232778
2130	0.0226239
2142	0.0221008
2154	0.0215777
2166	0.0221008
2178	0.0223624
2190	0.0222316
2202	0.023147
2214	0.0236701
2226	0.0230162
2238	0.0235393
2250	0.023147
2262	0.0222316
2274	0.02197
2286	0.0224931
2298	0.0223624
2310	0.0214469
2322	0.0207931
2334	0.0226239
2346	0.0236701
2358	0.0224931
2370	0.023147
2382	0.02197
2394	0.0235393
2406	0.0245855
2418	0.0238009
2430	0.0218393
2442	0.0210546
2454	0.0223624
2466	0.0232778
2478	0.0224931
2490	0.0211854
2502	0.0222316
2514	0.0210546
2526	0.02027
2538	0.0200084
2550	0.0206623
2562	0.0221008
2574	0.0207931
2586	0.0211854
2598	0.0226239
2610	0.0235393
2622	0.0245855
2634	0.0238009
2646	0.0253702
2658	0.027201
2670	0.0217085
2682	0.0187007
2694	0.02027
2706	0.0217085
2718	0.0232778
2730	0.0256317
2742	0.026024
2754	0.0258933
2766	0.0269394
2778	0.0282472
2790	0.0258933
2802	0.027201
2814	0.028378
2826	0.0315165
2838	0.0364859
2850	0.0520481
2862	0.0606791
2874	0.105535
2886	0.152613
2898	0.125151
2910	0.156929
2922	0.185568
2934	0.208323
2946	0.221531
2958	0.29568
2970	0.504003
2982	0.205184
2994	0.098342
3006	0.054402
3018	0.0325627
3030	0.0261548
3042	0.0249778
3054	0.024324
3066	0.0230162
3078	0.0224931
3090	0.0222316
3102	0.0221008
3114	0.0226239
3126	0.0258933
3138	0.0269394
3150	0.0245855
3162	0.0248471
3174	0.0235393
3186	0.0238009
3198	0.0232778
3210	0.0238009
3222	0.024324
3234	0.0235393
3246	0.0235393
3258	0.0228855
3270	0.0222316
3282	0.0197469
3294	0.0198776
3306	0.019093
3318	0.0214469
3330	0.0223624
3342	0.0209238
3354	0.0217085
3366	0.0210546
3378	0.02197
3390	0.0206623
3402	0.0206623
3414	0.0210546
3426	0.0217085
3438	0.0214469
3450	0.0228855
3462	0.0241932
3474	0.02197
3486	0.0221008
3498	0.0241932
3510	0.0232778
3522	0.0228855
3534	0.0223624
3546	0.0209238
3558	0.0215777
3570	0.0213162
3582	0.0224931
3594	0.0213162
3606	0.0214469
3618	0.0198776
3630	0.0234085
3642	0.0226239
3654	0.0222316
3666	0.0226239
3678	0.0234085
3690	0.0221008
3702	0.0205315
3714	0.0197469
3726	0.0206623
3738	0.0193546
3750	0.0239316
3762	0.0187007
3774	0.0230162
3786	0.0210546
3798	0.0193546
3810	0.0207931
3822	0.0198776
3834	0.0201392
3846	0.0189622
3858	0.0187007
3870	0.0198776
3882	0.02027
3894	0.0215777
3906	0.0238009
3918	0.0230162
3930	0.0241932
3942	0.0217085
3954	0.0210546
3966	0.02197
