Infrared Spectrum: Nonanoic acid, pentyl ester
Formula: C 14 H 28 O 2
CAS: 61531-45-1
Origin: Sadtler Research Labs Under US-EPA Contract
1/CM	ABSORBANCE
450	0
462	0.033959
474	0.0468323
486	0.0380651
498	0.048275
510	0.0411725
522	0.0270784
534	0.0372883
546	0.0296309
558	0.0280772
570	0.0365114
582	0.0464994
594	0.0402847
606	0.038398
618	0.0418383
630	0.0439469
642	0.043503
654	0.0407286
666	0.0375102
678	0.0391749
690	0.0441688
702	0.0473872
714	0.0568202
726	0.0591507
738	0.0499397
750	0.043392
762	0.0514933
774	0.0541568
786	0.0516043
798	0.043281
810	0.0412834
822	0.0457225
834	0.0450567
846	0.0477201
858	0.0509384
870	0.0533799
882	0.0551556
894	0.0562653
906	0.0555995
918	0.0554885
930	0.0520482
942	0.0543787
954	0.0588178
966	0.0712472
978	0.0997683
990	0.119633
1002	0.110311
1014	0.0997683
1026	0.105872
1038	0.119078
1050	0.129066
1062	0.124072
1074	0.120743
1086	0.122852
1098	0.163469
1110	0.230721
1122	0.199315
1134	0.18744
1146	0.288651
1158	0.494624
1170	0.487189
1182	0.380096
1194	0.329047
1206	0.299194
1218	0.293201
1230	0.305853
1242	0.327937
1254	0.301857
1266	0.22262
1278	0.183778
1290	0.174456
1302	0.159807
1314	0.14882
1326	0.136502
1338	0.145047
1350	0.169129
1362	0.152038
1374	0.122186
1386	0.133172
1398	0.096328
1410	0.0681399
1422	0.0740217
1434	0.0986586
1446	0.12041
1458	0.170128
1470	0.17612
1482	0.096439
1494	0.0553775
1506	0.0429481
1518	0.0365114
1530	0.033737
1542	0.0309626
1554	0.0318504
1566	0.0324053
1578	0.0310736
1590	0.0316284
1602	0.0296309
1614	0.0300748
1626	0.0295199
1638	0.028965
1650	0.028743
1662	0.0310736
1674	0.0326272
1686	0.0370663
1698	0.0467213
1710	0.0694716
1722	0.104096
1734	0.194765
1746	0.555551
1758	0.728342
1770	0.234383
1782	0.110089
1794	0.0653655
1806	0.0471652
1818	0.0375102
1830	0.0309626
1842	0.0279662
1854	0.0269674
1866	0.0253028
1878	0.0255247
1890	0.0244149
1902	0.0244149
1914	0.024082
1926	0.024193
1938	0.024304
1950	0.0244149
1962	0.0247479
1974	0.0244149
1986	0.0245259
1998	0.024304
2010	0.024082
2022	0.0245259
2034	0.0253028
2046	0.0253028
2058	0.0244149
2070	0.024304
2082	0.023971
2094	0.0234161
2106	0.0228613
2118	0.0224174
2130	0.0225283
2142	0.0217515
2154	0.0219734
2166	0.0216405
2178	0.0215295
2190	0.0215295
2202	0.0208637
2214	0.0206417
2226	0.0206417
2238	0.0206417
2250	0.0206417
2262	0.0209747
2274	0.0213076
2286	0.0217515
2298	0.0224174
2310	0.0235271
2322	0.023971
2334	0.0237491
2346	0.0251918
2358	0.0238601
2370	0.023971
2382	0.0228613
2394	0.0230832
2406	0.0225283
2418	0.0224174
2430	0.0223064
2442	0.0223064
2454	0.0221954
2466	0.0223064
2478	0.0224174
2490	0.0220844
2502	0.0223064
2514	0.0225283
2526	0.0227503
2538	0.0230832
2550	0.0234161
2562	0.0238601
2574	0.0250808
2586	0.0253028
2598	0.0256357
2610	0.0263015
2622	0.0269674
2634	0.0282991
2646	0.029076
2658	0.0299638
2670	0.0318504
2682	0.0332931
2694	0.033626
2706	0.0329602
2718	0.0328492
2730	0.0342919
2742	0.0376212
2754	0.0380651
2766	0.0381761
2778	0.0392859
2790	0.0431701
2802	0.0490518
2814	0.0571532
2826	0.0709143
2838	0.0961061
2850	0.168685
2862	0.38398
2874	0.437915
2886	0.382649
2898	0.319503
2910	0.423155
2922	0.692275
2934	1.08713
2946	0.961394
2958	0.715136
2970	0.833437
2982	0.418827
2994	0.186996
3006	0.105872
3018	0.0751314
3030	0.0605934
3042	0.0511604
3054	0.043614
3066	0.0405066
3078	0.0378432
3090	0.0358456
3102	0.0340699
3114	0.0325163
3126	0.0314065
3138	0.0312955
3150	0.0304077
3162	0.0307406
3174	0.0302967
3186	0.0296309
3198	0.028854
3210	0.0273003
3222	0.0259686
3234	0.0256357
3246	0.0253028
3258	0.023971
3270	0.0245259
3282	0.0238601
3294	0.0233052
3306	0.0235271
3318	0.0231942
3330	0.0230832
3342	0.0231942
3354	0.0223064
3366	0.0228613
3378	0.0228613
3390	0.0219734
3402	0.0220844
3414	0.0217515
3426	0.0219734
3438	0.0221954
3450	0.0218625
3462	0.0220844
3474	0.0238601
3486	0.0282991
3498	0.0257467
3510	0.0223064
3522	0.0214186
3534	0.0223064
3546	0.0224174
3558	0.0220844
3570	0.0224174
3582	0.0230832
3594	0.0204198
3606	0.0223064
3618	0.0219734
3630	0.0219734
3642	0.0228613
3654	0.0221954
3666	0.0228613
3678	0.0220844
3690	0.0217515
3702	0.0224174
3714	0.0216405
3726	0.0213076
3738	0.0236381
3750	0.0210856
3762	0.0218625
3774	0.0218625
3786	0.0220844
3798	0.0215295
3810	0.0216405
3822	0.0220844
3834	0.024304
3846	0.0236381
3858	0.0231942
3870	0.0256357
3882	0.0254137
3894	0.024304
3906	0.0275223
3918	0.0235271
3930	0.0265235
3942	0.0254137
3954	0.0248588
3966	0.0263015
