Infrared Spectrum: Hexanoic acid, 2-bromo-
Formula: C 6 H 11 Br O 2
CAS: 616-05-7
Origin: Sadtler Research Labs Under US-EPA Contract
1/CM	ABSORBANCE
450	0
462	0.024958
474	0.0437555
486	0.0578141
498	0.049758
510	0.0821402
522	0.103465
534	0.144851
546	0.205667
558	0.254319
570	0.218146
582	0.229835
594	0.268377
606	0.271853
618	0.292862
630	0.311817
642	0.294441
654	0.195557
666	0.166492
678	0.108204
690	0.062237
702	0.0521275
714	0.0571822
726	0.0919339
738	0.110889
750	0.0766116
762	0.0644485
774	0.0578141
786	0.0484943
798	0.0429657
810	0.0363313
822	0.0339618
834	0.0334879
846	0.0338039
858	0.0317504
870	0.0301707
882	0.0320663
894	0.0364892
906	0.037437
918	0.0393325
930	0.0592357
942	0.0695033
954	0.0612893
966	0.0533912
978	0.0461249
990	0.0423338
1002	0.0465988
1014	0.0489682
1026	0.0669759
1038	0.0843517
1050	0.0894065
1062	0.111521
1074	0.161595
1086	0.346569
1098	0.734523
1110	0.628531
1122	0.56503
1134	0.593463
1146	0.444031
1158	0.451139
1170	0.338197
1182	0.240102
1194	0.163649
1206	0.142956
1218	0.161911
1230	0.163491
1242	0.143429
1254	0.123842
1266	0.110573
1278	0.121789
1290	0.142956
1302	0.157646
1314	0.168861
1326	0.19145
1338	0.211195
1350	0.18371
1362	0.178339
1374	0.184026
1386	0.211985
1398	0.148958
1410	0.0786651
1422	0.0612893
1434	0.0753479
1446	0.0995161
1458	0.12637
1470	0.131266
1482	0.066502
1494	0.0339618
1506	0.029065
1518	0.0259058
1530	0.0244841
1542	0.0236943
1554	0.0221147
1566	0.0210089
1578	0.0229045
1590	0.020693
1602	0.0202191
1614	0.0211669
1626	0.020693
1638	0.0224306
1650	0.0214828
1662	0.0230625
1674	0.0260637
1686	0.0323822
1698	0.0398064
1710	0.0546549
1722	0.0976205
1734	0.184184
1746	0.239312
1758	0.391588
1770	1.06008
1782	1.57962
1794	0.705142
1806	0.301076
1818	0.18213
1830	0.10157
1842	0.0530752
1854	0.0358574
1866	0.0296969
1878	0.0257478
1890	0.0241682
1902	0.0227465
1914	0.0216408
1926	0.0216408
1938	0.0217988
1950	0.0214828
1962	0.0211669
1974	0.0213249
1986	0.020693
1998	0.0211669
2010	0.0217988
2022	0.0213249
2034	0.0221147
2046	0.0222726
2058	0.0211669
2070	0.0200612
2082	0.0199032
2094	0.0195873
2106	0.0194293
2118	0.0195873
2130	0.0195873
2142	0.0195873
2154	0.0202191
2166	0.0211669
2178	0.0222726
2190	0.0233784
2202	0.0235363
2214	0.0233784
2226	0.0233784
2238	0.0213249
2250	0.0210089
2262	0.020693
2274	0.0203771
2286	0.0203771
2298	0.0202191
2310	0.0200612
2322	0.0191134
2334	0.0203771
2346	0.0205351
2358	0.0199032
2370	0.0216408
2382	0.0230625
2394	0.0227465
2406	0.0229045
2418	0.0230625
2430	0.0229045
2442	0.0232204
2454	0.0230625
2466	0.0230625
2478	0.0238523
2490	0.0235363
2502	0.0230625
2514	0.0235363
2526	0.0238523
2538	0.0241682
2550	0.0240102
2562	0.025116
2574	0.0243261
2586	0.0243261
2598	0.0244841
2610	0.025116
2622	0.0255898
2634	0.0257478
2646	0.0265376
2658	0.0268535
2670	0.0268535
2682	0.0282752
2694	0.0281172
2706	0.0281172
2718	0.0281172
2730	0.0295389
2742	0.0315924
2754	0.0334879
2766	0.0315924
2778	0.0323822
2790	0.0349096
2802	0.0387007
2814	0.0432816
2826	0.0483364
2838	0.0597096
2850	0.0846676
2862	0.156224
2874	0.282278
2886	0.300286
2898	0.203139
2910	0.202823
2922	0.285595
2934	0.4573
2946	0.556816
2958	0.464882
2970	0.719201
2982	0.41623
2994	0.136953
3006	0.0911441
3018	0.0682396
3030	0.0593937
3042	0.0521275
3054	0.0443873
3066	0.0420179
3078	0.0405962
3090	0.0385427
3102	0.037437
3114	0.0371211
3126	0.0358574
3138	0.0347516
3150	0.0345937
3162	0.0330141
3174	0.0330141
3186	0.0336459
3198	0.0330141
3210	0.0308026
3222	0.0296969
3234	0.0282752
3246	0.0279593
3258	0.0263797
3270	0.0265376
3282	0.0259058
3294	0.0262217
3306	0.0246421
3318	0.0244841
3330	0.0243261
3342	0.0235363
3354	0.0235363
3366	0.0221147
3378	0.0230625
3390	0.0225886
3402	0.0219567
3414	0.0216408
3426	0.0216408
3438	0.0217988
3450	0.0211669
3462	0.0211669
3474	0.0225886
3486	0.0282752
3498	0.0407542
3510	0.0469147
3522	0.0461249
3534	0.0480204
3546	0.0519695
3558	0.062553
3570	0.41386
3582	0.729311
3594	0.13948
3606	0.0371211
3618	0.03333
3630	0.0314344
3642	0.0205351
3654	0.0254319
3666	0.0211669
3678	0.0255898
3690	0.0296969
3702	0.0225886
3714	0.0265376
3726	0.0273274
3738	0.0276433
3750	0.0322242
3762	0.020693
3774	0.0183236
3786	0.0186395
3798	0.0205351
3810	0.0187975
3822	0.0227465
3834	0.020851
3846	0.0191134
3858	0.0181656
3870	0.0195873
3882	0.0183236
3894	0.0197452
3906	0.0230625
3918	0.0183236
3930	0.0183236
3942	0.0183236
3954	0.0184816
3966	0.0184816
