Infrared Spectrum: Ethanol, 2-(2,4,6-trichlorophenoxy)-,
Formula: C 8 H 7 Cl 3 O 2
CAS: 6161-87-1
Origin: Sadtler Research Labs Under US-EPA Contract
1/CM	ABSORBANCE
450	0.00814185
462	0.00928574
474	6.7288e-05
486	0.00686338
498	0.00740168
510	0.0107661
522	0.00545033
534	0.00343169
546	0.00383542
558	0.0095549
570	0.049995
582	0.0608956
594	0.011439
606	0.0011439
618	0.00228779
630	0.000807456
642	0.00289338
654	0.00363355
666	0.00343169
678	0.0140632
690	0.0542341
702	0.06426
714	0.025233
726	0.0213303
738	0.0382196
750	0.119503
762	0.128857
774	0.0557145
786	0.0950779
798	0.22057
810	0.254752
822	0.25159
834	0.302998
846	0.154022
858	0.274737
870	0.13424
882	0.0825624
894	0.0728056
906	0.0744205
918	0.0386233
930	0.0220705
942	0.0238872
954	0.0302123
966	0.0356626
978	0.0487165
990	0.104095
1002	0.257848
1014	0.409044
1026	0.288396
1038	0.182956
1050	0.142583
1062	0.138479
1074	0.190156
1086	0.216667
1098	0.130471
1110	0.0606265
1122	0.0528211
1134	0.130471
1146	0.123675
1158	0.0452175
1170	0.0339132
1182	0.0482455
1194	0.0672207
1206	0.0733439
1218	0.0833698
1230	0.129799
1242	0.245803
1254	0.453454
1266	0.337315
1278	0.187868
1290	0.117754
1302	0.0815531
1314	0.0656058
1326	0.0564546
1338	0.0635872
1350	0.0921846
1362	0.282879
1374	0.276285
1386	0.239882
1398	0.149514
1410	0.107997
1422	0.295327
1434	0.595028
1446	0.646638
1458	0.566363
1470	0.638227
1482	0.118696
1494	0.0442082
1506	0.036672
1518	0.0305488
1530	0.0355954
1542	0.13027
1554	0.251523
1566	0.110823
1578	0.102749
1590	0.0419204
1602	0.0150725
1614	0.0115735
1626	0.0119773
1638	0.00948761
1650	0.00888202
1662	0.0033644
1674	0.00645965
1686	0.00693066
1698	0.00868015
1710	0.0136595
1722	0.0359991
1734	0.0259732
1746	0.00746897
1758	0.00430643
1770	0.00545033
1782	0.00289338
1794	0.00349898
1806	0.000134576
1818	6.7288e-05
1830	0.00343169
1842	0.00410457
1854	0.00242237
1866	0.00201864
1878	0.000471016
1890	0.00148034
1902	0.00141305
1914	0.00269152
1926	0.0039027
1938	0.00477745
1950	0.00545033
1962	0.00632507
1974	0.00524846
1986	0.00417186
1998	0.00430643
2010	0.0045083
2022	0.0050466
2034	0.00316254
2046	0.00235508
2058	0.00127847
2070	0.0011439
2082	0.00148034
2094	0.00161491
2106	0.00107661
2118	0.00121118
2130	0.00100932
2142	0.0011439
2154	0.00201864
2166	0.0016822
2178	0.0011439
2190	0.000807456
2202	0.000942032
2214	0.0016822
2226	0.0022205
2238	0.000471016
2250	0.000269152
2262	0.00127847
2274	0.00201864
2286	0.00208593
2298	0.00269152
2310	0.0039027
2322	0.00457558
2334	0.00471016
2346	0.00793998
2358	0.00376813
2370	0.00423914
2382	0.00255694
2394	0.000874744
2406	0.000538304
2418	0.000538304
2430	0.000874744
2442	0.00161491
2454	0.00201864
2466	0.0022205
2478	0.00302796
2490	0.00396999
2502	0.00471016
2514	0.0055849
2526	0.00417186
2538	0.00309525
2550	0.00228779
2562	0.00148034
2574	0.00148034
2586	0.00141305
2598	0.00154762
2610	0.00208593
2622	0.00195135
2634	0.00148034
2646	0.0011439
2658	0.00148034
2670	0.0028261
2682	0.0045083
2694	0.00524846
2706	0.00645965
2718	0.00773812
2730	0.00767083
2742	0.00706524
2754	0.00686338
2766	0.00881473
2778	0.0107661
2790	0.0123137
2802	0.0111025
2814	0.0136595
2826	0.0160818
2838	0.0176967
2850	0.0221378
2862	0.0362009
2874	0.0692394
2886	0.0948761
2898	0.0735458
2910	0.0655385
2922	0.0832353
2934	0.10618
2946	0.149447
2958	0.196817
2970	0.129462
2982	0.0736131
2994	0.0446792
3006	0.0199845
3018	0.0113717
3030	0.00740168
3042	0.00423914
3054	0.00349898
3066	0.0033644
3078	0.00497931
3090	0.00773812
3102	0.00289338
3114	0.00242237
3126	0.0028261
3138	0.00188406
3150	0.000403728
3162	0.000740168
3174	0.00033644
3186	0.000538304
3198	0.00033644
3210	0.000605592
3222	0.000740168
3234	0.000807456
3246	0.00067288
3258	0.000269152
3270	6.7288e-05
3282	0.000807456
3294	0.000874744
3306	0.000942032
3318	0.00127847
3330	0.000874744
3342	0.000874744
3354	0.0011439
3366	0.00121118
3378	0.00067288
3390	0.000201864
3402	0.000740168
3414	0.000201864
3426	0.0011439
3438	0.00067288
3450	0.000269152
3462	0.0011439
3474	0.000740168
3486	0.00134576
3498	0.00161491
3510	0.0028261
3522	0.00349898
3534	0.00201864
3546	0.00309525
3558	0.00302796
3570	0.00827642
3582	0.00652694
3594	0.00686338
3606	0.0127847
3618	0.0295394
3630	0.0816203
3642	0.0958854
3654	0.0410457
3666	0.0355954
3678	0.0308179
3690	0.0167547
3702	0.00760354
3714	0.00605592
3726	0.00551762
3738	0.00316254
3750	0.00376813
3762	0.00417186
3774	0.0011439
3786	0.000942032
3798	0.000201864
3810	0.000134576
3822	0.00181678
3834	0.00148034
3846	0.00107661
3858	0.00127847
3870	0.00100932
3882	0.00181678
3894	0.00134576
3906	0.00208593
3918	0.0011439
3930	0.000942032
3942	0.00141305
3954	0.00033644
3966	0.00255694
