Infrared Spectrum: Butanedioic acid, methylene-, dimethyl ester
Formula: C 7 H 10 O 4
CAS: 617-52-7
Origin: Sadtler Research Labs Under US-EPA Contract
1/CM	ABSORBANCE
450	0.00949534
462	0.00120703
474	0.0044258
486	0.0141625
498	0.0224509
510	0.0199563
522	0.0264743
534	0.0234969
546	0.0218071
558	0.0251063
570	0.027279
582	0.0347626
594	0.0252673
606	0.0270376
618	0.0322681
630	0.0439361
642	0.0461087
654	0.0391884
666	0.031061
678	0.0292907
690	0.0318657
702	0.0338774
714	0.0305782
726	0.0292102
738	0.0365329
750	0.0458673
762	0.0362915
774	0.0345212
786	0.0393493
798	0.0407173
810	0.072583
822	0.0856995
834	0.0888378
846	0.0703299
858	0.0493275
870	0.0340384
882	0.0390275
894	0.0414415
906	0.040315
918	0.0405564
930	0.0658236
942	0.112818
954	0.103564
966	0.0537533
978	0.0399931
990	0.0490861
1002	0.0947925
1014	0.140982
1026	0.180572
1038	0.102598
1050	0.0490861
1062	0.0371767
1074	0.0362915
1086	0.0411197
1098	0.0578572
1110	0.097287
1122	0.18017
1134	0.406771
1146	0.71038
1158	0.545258
1170	0.45288
1182	0.476216
1194	0.537935
1206	0.526911
1218	0.372411
1230	0.263697
1242	0.273273
1254	0.343039
1266	0.331049
1278	0.264984
1290	0.315438
1302	0.313668
1314	0.343683
1326	0.290815
1338	0.209058
1350	0.169709
1362	0.110967
1374	0.079101
1386	0.0676744
1398	0.0708127
1410	0.0894011
1422	0.0996206
1434	0.184194
1446	0.24704
1458	0.0994597
1470	0.0721807
1482	0.0502931
1494	0.0378204
1506	0.0277618
1518	0.0267157
1530	0.0276813
1542	0.0180251
1554	0.025911
1566	0.0287274
1578	0.0246235
1590	0.0263134
1602	0.0259915
1614	0.0318657
1626	0.0465916
1638	0.0731463
1650	0.065019
1662	0.0341993
1674	0.0261524
1686	0.0301759
1698	0.049247
1710	0.0784573
1722	0.135107
1734	0.382952
1746	0.756811
1758	0.80469
1770	0.610921
1782	0.248327
1794	0.112657
1806	0.0567306
1818	0.0325095
1830	0.0222094
1842	0.0191516
1854	0.018186
1866	0.0162547
1878	0.0190712
1890	0.0210024
1902	0.0218876
1914	0.0196344
1926	0.0163352
1938	0.0157719
1950	0.0164961
1962	0.016818
1974	0.0170594
1986	0.016818
1998	0.0173008
2010	0.0182665
2022	0.0188297
2034	0.0202782
2046	0.0197954
2058	0.0164157
2070	0.0144844
2082	0.014404
2094	0.01545
2106	0.0149672
2118	0.0134383
2130	0.0126336
2142	0.0119094
2154	0.0119899
2166	0.0107828
2178	0.00989769
2190	0.00844925
2202	0.00812737
2214	0.0080469
2226	0.00869065
2238	0.00877112
2250	0.00788596
2262	0.00764456
2274	0.00748362
2286	0.00740315
2298	0.00619611
2310	0.00273595
2322	0.00160938
2334	0.00193126
2346	0.00321876
2358	0.00354064
2370	0.0164961
2382	0.00957581
2394	0.00627658
2406	0.0070008
2418	0.00732268
2430	0.0080469
2442	0.00812737
2454	0.00716174
2466	0.00683987
2478	0.00659846
2490	0.00748362
2502	0.00788596
2514	0.00667893
2526	0.00539142
2538	0.00547189
2550	0.00651799
2562	0.00748362
2574	0.00796643
2586	0.00756409
2598	0.00780549
2610	0.00836878
2622	0.00861018
2634	0.00788596
2646	0.00796643
2658	0.00667893
2670	0.0067594
2682	0.00635705
2694	0.00788596
2706	0.00869065
2718	0.0067594
2730	0.00547189
2742	0.00692033
2754	0.00692033
2766	0.0080469
2778	0.00716174
2790	0.00708127
2802	0.00828831
2814	0.00941487
2826	0.0123922
2838	0.0202782
2850	0.0413611
2862	0.033636
2874	0.0180251
2886	0.0202782
2898	0.0317048
2910	0.0402345
2922	0.0460283
2934	0.0523853
2946	0.0763651
2958	0.208737
2970	0.184757
2982	0.0598689
2994	0.0666283
3006	0.0856995
3018	0.0692033
3030	0.0652604
3042	0.0459478
3054	0.0300954
3066	0.022129
3078	0.0198758
3090	0.0198758
3102	0.0190712
3114	0.0210024
3126	0.0141625
3138	0.00989769
3150	0.00941487
3162	0.0103
3174	0.00852971
3186	0.0070008
3198	0.00659846
3210	0.00764456
3222	0.00627658
3234	0.00651799
3246	0.00506955
3258	0.00531095
3270	0.00587424
3282	0.0070008
3294	0.00828831
3306	0.00796643
3318	0.00523048
3330	0.0057133
3342	0.00627658
3354	0.00796643
3366	0.00844925
3378	0.0070008
3390	0.00539142
3402	0.0067594
3414	0.00515002
3426	0.00748362
3438	0.00692033
3450	0.00587424
3462	0.00820784
3474	0.00973675
3486	0.0135993
3498	0.0134383
3510	0.0129555
3522	0.0102196
3534	0.00603518
3546	0.00683987
3558	0.00692033
3570	0.00523048
3582	0.00627658
3594	0.00515002
3606	0.00426486
3618	0.00394298
3630	0.00289688
3642	0.00474767
3654	0.00313829
3666	0.00394298
3678	0.00241407
3690	0.00394298
3702	0.00450626
3714	0.00177032
3726	0.000402345
3738	0.000643752
3750	0.000563283
3762	0.00450626
3774	0.00458673
3786	0.00346017
3798	0.0010461
3810	0.00201173
3822	0.00185079
3834	0.00523048
3846	0.00265548
3858	0.00297735
3870	0.00482814
3882	0.0057133
3894	0.00667893
3906	0.00820784
3918	0.00611564
3930	0.00740315
3942	0.00869065
3954	0
3966	0.000563283
