Infrared Spectrum: Benzenemethanol, .alpha.,.alpha.-dimethyl-
Formula: C 9 H 12 O
CAS: 617-94-7
Origin: Sadtler Research Labs Under US-EPA Contract
1/CM	ABSORBANCE
450	0.0205489
462	0.0218794
474	0.0297886
486	0.0176662
498	0.0132311
510	0.0110136
522	0.0115311
534	0.040063
546	0.136377
558	0.196471
570	0.115089
582	0.0461242
594	0.0225447
606	0.0132311
618	0.00465677
630	0
642	0.00716995
654	0.011605
666	0.032967
678	0.0904005
690	0.278002
702	0.414527
714	0.196545
726	0.064973
738	0.0491548
750	0.134012
762	0.283989
774	0.141625
786	0.0351106
798	0.00790912
810	0.00214359
822	0.00510027
834	0.0121963
846	0.041837
858	0.0918049
870	0.0695559
882	0.0372542
894	0.0351106
906	0.0425023
918	0.0491548
930	0.0814565
942	0.184053
954	0.238382
966	0.114941
978	0.0330409
990	0.0147095
1002	0.0219533
1014	0.0335583
1026	0.114571
1038	0.0982357
1050	0.0357758
1062	0.0762823
1074	0.120041
1086	0.158626
1098	0.240526
1110	0.27098
1122	0.181023
1134	0.134677
1146	0.167644
1158	0.261592
1170	0.36478
1182	0.280219
1194	0.132459
1206	0.0735474
1218	0.0749518
1230	0.101858
1242	0.143547
1254	0.220568
1266	0.216059
1278	0.154413
1290	0.154117
1302	0.186567
1314	0.247326
1326	0.226556
1338	0.153747
1350	0.133938
1362	0.190854
1374	0.236017
1386	0.191741
1398	0.0904744
1410	0.0455329
1422	0.0529246
1434	0.0905483
1446	0.145912
1458	0.134751
1470	0.0827131
1482	0.0720691
1494	0.134603
1506	0.0870742
1518	0.0178879
1530	0.0174444
1542	0.0138225
1554	0.00894396
1566	0.00776129
1578	0.0110875
1590	0.0278667
1602	0.0546247
1614	0.0323017
1626	0.00813087
1638	0.00510027
1650	0.00554377
1662	0.00835262
1674	0.0133051
1686	0.0123441
1698	0.0223229
1710	0.0243187
1722	0.0150052
1734	0.0138964
1746	0.0147095
1758	0.0116789
1770	0.00850046
1782	0.0102005
1794	0.0250579
1806	0.025871
1818	0.011605
1830	0.00635686
1842	0.00354802
1854	0.00606119
1866	0.0138225
1878	0.0189967
1890	0.0187749
1902	0.0099788
1914	0.00569161
1926	0.00864829
1938	0.0183314
1950	0.0235795
1962	0.0162617
1974	0.00517419
1986	0.00273493
1998	0.00155226
2010	0.00162617
2022	0.00147834
2034	0.00192184
2046	0.00162617
2058	0.00140442
2070	0.00133051
2082	0.00103484
2094	0.00170009
2106	0.00199576
2118	0.00133051
2130	0.00125659
2142	0.000665253
2154	0.000665253
2166	0.00118267
2178	0.00170009
2190	0.00140442
2202	0.000813087
2214	0.00140442
2226	0.00214359
2238	0.00177401
2250	0.00155226
2262	0.00155226
2274	0.00206968
2286	0.00206968
2298	0.00229143
2310	0.00354802
2322	0.00495244
2334	0.0030306
2346	0.0039176
2358	0.00325235
2370	0.00177401
2382	0.00133051
2394	0.000887004
2406	0.00155226
2418	0.00192184
2430	0.00162617
2442	0.000887004
2454	0.000591336
2466	0.000813087
2478	0.00110876
2490	0.000813087
2502	0.000960921
2514	0.000960921
2526	0.00073917
2538	0.000887004
2550	0.00118267
2562	0.00155226
2574	0.00140442
2586	0.00177401
2598	0.00229143
2610	0.00170009
2622	0.0025871
2634	0.00310451
2646	0.00266101
2658	0.00162617
2670	0.00177401
2682	0.00140442
2694	0.00170009
2706	0.00221751
2718	0.00280885
2730	0.00406544
2742	0.0039176
2754	0.00450894
2766	0.00524811
2778	0.00510027
2790	0.00473069
2802	0.00776129
2814	0.0100527
2826	0.0123441
2838	0.0172227
2850	0.0279406
2862	0.0508549
2874	0.0855959
2886	0.0980139
2898	0.101562
2910	0.119302
2922	0.149682
2934	0.211994
2946	0.212585
2958	0.175627
2970	0.374981
2982	0.73917
2994	0.482456
3006	0.129355
3018	0.0893657
3030	0.151899
3042	0.19625
3054	0.169566
3066	0.254348
3078	0.264179
3090	0.165722
3102	0.122259
3114	0.0606859
3126	0.0243187
3138	0.0104223
3150	0.00835262
3162	0.00820479
3174	0.0078352
3186	0.00776129
3198	0.00813087
3210	0.00687428
3222	0.00657861
3234	0.00546986
3246	0.00487852
3258	0.00399152
3270	0.00354802
3282	0.00236534
3294	0.00317843
3306	0.00317843
3318	0.00280885
3330	0.00266101
3342	0.00229143
3354	0.0030306
3366	0.00280885
3378	0.00280885
3390	0.00310451
3402	0.00340018
3414	0.00310451
3426	0.00406544
3438	0.0039176
3450	0.00221751
3462	0.00273493
3474	0.00140442
3486	0.00118267
3498	0.000813087
3510	0.000960921
3522	0.00221751
3534	0.00133051
3546	0.00155226
3558	0.00229143
3570	0.00147834
3582	0.000665253
3594	0.00214359
3606	0.00916571
3618	0.0264623
3630	0.0716995
3642	0.099714
3654	0.0636425
3666	0.0210663
3678	0.0082787
3690	0.00399152
3702	0.00310451
3714	0.0043611
3726	0.00384368
3738	0.00369585
3750	0.00340018
3762	0.00133051
3774	0.00162617
3786	0.00421327
3798	0.00450894
3810	0.00413935
3822	0.000517419
3834	0.0034741
3846	0.00295668
3858	0.00687428
3870	0.00362193
3882	0.00325235
3894	0.0043611
3906	0.0034741
3918	0.0025871
3930	0.0039176
3942	0.00118267
3954	0.00413935
3966	0.00384368
