Infrared Spectrum: Pentane, 3-ethyl-
Formula: C 7 H 16
CAS: 617-78-7
Origin: Sadtler Research Labs Under US-EPA Contract
1/CM	ABSORBANCE
450	0.0164891
462	0.0136298
474	0.0029547
486	0.00209689
498	0.00829223
510	0.0119141
522	0.00676722
534	0.00819692
546	0.0126766
558	0.00724379
570	0.00457502
582	0.00943599
594	0.0130579
606	0.00619534
618	0.00800629
630	0.0118188
642	0.0105797
654	0.00686254
666	0.00905473
678	0.0127719
690	0.00915005
702	0.0107704
714	0.0128673
726	0.0162985
738	0.0142016
750	0.0203017
762	0.0244001
774	0.0233517
786	0.0178235
798	0.0142016
810	0.0133438
822	0.0132485
834	0.0150595
846	0.0174423
858	0.0137251
870	0.0104844
882	0.0178235
894	0.0347892
906	0.0425096
918	0.0256392
930	0.0156313
942	0.0120094
954	0.0101985
966	0.0132485
978	0.0133438
990	0.0127719
1002	0.0183954
1014	0.0223032
1026	0.0198251
1038	0.0189673
1050	0.018872
1062	0.0152501
1074	0.00981724
1086	0.00962661
1098	0.0117235
1110	0.0123907
1122	0.0139157
1134	0.0149641
1146	0.0163938
1158	0.0153454
1170	0.0118188
1182	0.0120094
1194	0.0101032
1206	0.00829223
1218	0.00924536
1230	0.0119141
1242	0.0137251
1254	0.0154407
1266	0.0187767
1278	0.0205876
1290	0.020397
1302	0.0232564
1314	0.0254486
1326	0.0213501
1338	0.0202064
1350	0.0200157
1362	0.0285939
1374	0.0608097
1386	0.0981724
1398	0.0641456
1410	0.0224939
1422	0.020111
1434	0.0277361
1446	0.0631925
1458	0.140301
1470	0.154598
1482	0.0940739
1494	0.0379346
1506	0.0240189
1518	0.0174423
1530	0.0154407
1542	0.0210642
1554	0.0146782
1566	0.0131532
1578	0.0152501
1590	0.00962661
1602	0.00972193
1614	0.0102938
1626	0.0113422
1638	0.0131532
1650	0.0118188
1662	0.0111516
1674	0.0102938
1686	0.0137251
1698	0.0129626
1710	0.00781567
1722	0.00752973
1734	0.0125813
1746	0.00924536
1758	0.00829223
1770	0.0081016
1782	0.00724379
1794	0.00886411
1806	0.0051469
1818	0.00505159
1830	0.00686254
1842	0.00543284
1854	0.0043844
1866	0.00486096
1878	0.00467034
1890	0.00486096
1902	0.00447971
1914	0.00457502
1926	0.0043844
1938	0.00390783
1950	0.00419377
1962	0.00428908
1974	0.00371721
1986	0.00371721
1998	0.00409846
2010	0.00400315
2022	0.00352658
2034	0.00390783
2046	0.00419377
2058	0.00381252
2070	0.00362189
2082	0.00362189
2094	0.00362189
2106	0.00324064
2118	0.0029547
2130	0.00333595
2142	0.00324064
2154	0.00333595
2166	0.00314533
2178	0.00352658
2190	0.00314533
2202	0.0029547
2214	0.00343127
2226	0.00285939
2238	0.00285939
2250	0.00285939
2262	0.00362189
2274	0.00343127
2286	0.00314533
2298	0.00400315
2310	0.00447971
2322	0.00409846
2334	0.00533753
2346	0.00724379
2358	0.00562347
2370	0.00600472
2382	0.00467034
2394	0.00390783
2406	0.00333595
2418	0.00285939
2430	0.00314533
2442	0.00238282
2454	0.00162032
2466	0.00209689
2478	0.00266876
2490	0.00190626
2502	0.00181095
2514	0.00228751
2526	0.00228751
2538	0.00162032
2550	0.00209689
2562	0.00371721
2574	0.00476565
2586	0.00638597
2598	0.00924536
2610	0.00943599
2622	0.00791098
2634	0.00705316
2646	0.00762504
2658	0.00867348
2670	0.0087688
2682	0.0102938
2694	0.0112469
2706	0.0116282
2718	0.0123907
2730	0.0164891
2742	0.020111
2754	0.0193485
2766	0.0174423
2778	0.0196345
2790	0.0222079
2802	0.0264017
2814	0.0327877
2826	0.0403174
2838	0.0539472
2850	0.10818
2862	0.268592
2874	0.473801
2886	0.484285
2898	0.386113
2910	0.396502
2922	0.598756
2934	0.720852
2946	0.661186
2958	0.746777
2970	0.95313
2982	0.722282
2994	0.19806
3006	0.0769176
3018	0.0512784
3030	0.0421283
3042	0.0368861
3054	0.0320252
3066	0.0274501
3078	0.0258298
3090	0.0223986
3102	0.0183001
3114	0.0174423
3126	0.0159173
3138	0.0142969
3150	0.0142016
3162	0.0161079
3174	0.0136298
3186	0.00991255
3198	0.00762504
3210	0.00705316
3222	0.00562347
3234	0.00476565
3246	0.00467034
3258	0.00476565
3270	0.00276408
3282	0.00200157
3294	0.00428908
3306	0.00314533
3318	0.0021922
3330	0.00324064
3342	0.00324064
3354	0.0021922
3366	0.00238282
3378	0.00381252
3390	0.00285939
3402	0.00181095
3414	0.00247814
3426	0.00362189
3438	0.0021922
3450	0.00162032
3462	0.00257345
3474	0.00305002
3486	0.00142969
3498	0.00162032
3510	0.00276408
3522	0.00162032
3534	0.00114376
3546	0.00228751
3558	0.0029547
3570	0.0029547
3582	0.00209689
3594	0.0043844
3606	0.00400315
3618	0.00409846
3630	0.00743441
3642	0.00552815
3654	0.00667191
3666	0.00552815
3678	0.00924536
3690	0.0095313
3702	0.00648128
3714	0.00838754
3726	0.00915005
3738	0.010961
3750	0.0104844
3762	0.00867348
3774	0.00915005
3786	0.0081016
3798	0.00962661
3810	0.010961
3822	0.0125813
3834	0.0106751
3846	0.0107704
3858	0.0135344
3870	0.0126766
3882	0.0113422
3894	0.0134391
3906	0.0134391
3918	0.0101032
3930	0.0106751
3942	0.0136298
3954	0
3966	0.00104844
