Infrared Spectrum: Benzoic acid, 4-hydroxy-3-methoxy-, ethyl ester
Formula: C 10 H 12 O 4
CAS: 617-05-0
Origin: Sadtler Research Labs Under US-EPA Contract
1/CM	ABSORBANCE
450	0.0426467
462	0.0419018
474	0.0367804
486	0.0306348
498	0.0138741
510	0.00791478
522	0.00595936
534	0.00772855
546	0.00838035
558	0.0148053
570	0.00800789
582	0.000465575
594	0.01136
606	0.00921839
618	0.00987019
630	0.0230925
642	0.0195542
654	0.00242099
666	0.00167607
678	0.00651805
690	0.00977708
702	0.0108945
714	0.00754232
726	0.0178781
738	0.015364
750	0.0341732
762	0.103637
774	0.0970258
786	0.0557759
798	0.0303555
810	0.0214165
822	0.0211371
834	0.029983
846	0.0151777
858	0.0135948
870	0.0260722
882	0.0311004
894	0.0266309
906	0.0202991
918	0.0419949
930	0.0311935
942	0.0171332
954	0.0130361
966	0.0128499
978	0.0149915
990	0.0168538
1002	0.0288657
1014	0.065553
1026	0.11956
1038	0.116021
1050	0.0545654
1062	0.0271896
1074	0.0426467
1086	0.134458
1098	0.267706
1110	0.209323
1122	0.116487
1134	0.0531687
1146	0.0382703
1158	0.0572657
1170	0.0964671
1182	0.142652
1194	0.219193
1206	0.427025
1218	0.598636
1230	0.240982
1242	0.0935806
1254	0.116487
1266	0.234184
1278	0.755628
1290	0.664096
1302	0.178967
1314	0.0694638
1326	0.0411568
1338	0.0325903
1350	0.0334283
1362	0.0713261
1374	0.127102
1386	0.0695569
1398	0.0432985
1410	0.0397601
1422	0.0747713
1434	0.139114
1446	0.0592211
1458	0.0704881
1470	0.0945117
1482	0.0585693
1494	0.0588487
1506	0.187627
1518	0.195355
1530	0.0410637
1542	0.0156433
1554	0.015364
1566	0.0192748
1578	0.0303555
1590	0.0643425
1602	0.123936
1614	0.097957
1626	0.0382703
1638	0.0141535
1650	0.0135948
1662	0.0138741
1674	0.012943
1686	0.0162951
1698	0.0226269
1710	0.0376185
1722	0.133154
1734	0.388103
1746	0.218634
1758	0.0343594
1770	0.0231856
1782	0.0180643
1794	0.0119187
1806	0.00847347
1818	0.0067974
1830	0.00419017
1842	0.0049351
1854	0.00465575
1866	0.00465575
1878	0.00586624
1890	0.00623871
1902	0.00540067
1914	0.00335214
1926	0.00391083
1938	0.00353837
1950	0.00456264
1962	0.00456264
1974	0.00391083
1986	0.00353837
1998	0.00279345
2010	0.00353837
2022	0.00288657
2034	0.00428329
2046	0.00549379
2058	0.00605248
2070	0.00633182
2082	0.00577313
2094	0.00363149
2106	0.0018623
2118	0.00260722
2130	0.00260722
2142	0.0037246
2154	0.0030728
2166	0.00223476
2178	0.00176919
2190	0.00139673
2202	0.00232788
2214	0.00148984
2226	0.00130361
2238	0.00018623
2250	0.00102427
2262	0.00102427
2274	0.00260722
2286	0.00325903
2298	0.00381772
2310	0.00260722
2322	0
2334	0.00018623
2346	0.00018623
2358	0.00018623
2370	0.0012105
2382	0.00223476
2394	0.00195542
2406	0.00242099
2418	0.00288657
2430	0.00242099
2442	0.00204853
2454	0.00130361
2466	0.00242099
2478	0.00316591
2490	0.0043764
2502	0.00474887
2514	0.0030728
2526	0.00353837
2538	0.00316591
2550	0.00353837
2562	0.00242099
2574	0.00335214
2586	0.00204853
2598	0.00214165
2610	0.00176919
2622	0.00223476
2634	0.00325903
2646	0.00363149
2658	0.00446952
2670	0.00260722
2682	0.00260722
2694	0.00260722
2706	0.0025141
2718	0.00344526
2730	0.00242099
2742	0.00288657
2754	0.00297968
2766	0.0043764
2778	0.00465575
2790	0.00465575
2802	0.00540067
2814	0.00633182
2826	0.0101495
2838	0.0128499
2850	0.0216958
2862	0.0223476
2874	0.01704
2886	0.0216958
2898	0.0235581
2910	0.0287725
2922	0.0333352
2934	0.0393876
2946	0.0647149
2958	0.0649012
2970	0.0665772
2982	0.0803582
2994	0.0700225
3006	0.054286
3018	0.0471162
3030	0.0172263
3042	0.012105
3054	0.0101495
3066	0.0115463
3078	0.0138741
3090	0.0125705
3102	0.0067974
3114	0.0055869
3126	0.00605248
3138	0.00428329
3150	0.0030728
3162	0.00111738
3174	0.00204853
3186	0.00260722
3198	0.00353837
3210	0.0037246
3222	0.00279345
3234	0.00270034
3246	0.00279345
3258	0.00381772
3270	0.00223476
3282	0.0018623
3294	0.00074492
3306	0.000838035
3318	0.0030728
3330	0.00297968
3342	0.0049351
3354	0.00270034
3366	0.00288657
3378	0.00130361
3390	0.0018623
3402	0.00270034
3414	0.00260722
3426	0.00353837
3438	0.00297968
3450	0.00595936
3462	0.00419017
3474	0.00409706
3486	0.00148984
3498	0.00167607
3510	0.00195542
3522	0.00270034
3534	0.00586624
3546	0.00912527
3558	0.0220683
3570	0.0972121
3582	0.16621
3594	0.0525169
3606	0.00949773
3618	0.00446952
3630	0.0025141
3642	0.0055869
3654	0.00530756
3666	0.00279345
3678	0.00260722
3690	0.00270034
3702	0.00130361
3714	0.00111738
3726	0.000465575
3738	0.00130361
3750	0.00130361
3762	0.00148984
3774	0.00297968
3786	0.00214165
3798	0.00167607
3810	0.00037246
3822	0.00093115
3834	0.000838035
3846	0.00139673
3858	0.0030728
3870	0.00270034
3882	0.0037246
3894	0.00158296
3906	0.00195542
3918	0.00158296
3930	0.00242099
3942	0.00167607
3954	9.3115e-05
3966	0.00018623
