Infrared Spectrum: Formamide, N,N-diethyl-
Formula: C 5 H 11 N O
CAS: 617-84-5
Origin: Sadtler Research Labs Under US-EPA Contract
1/CM	ABSORBANCE
450	0.00088478
462	0.0141565
474	0.016103
486	0.032029
498	0.0173417
510	0.019996
522	0.0116791
534	0.0132717
546	0.000530868
558	0.00937867
570	0.00796302
582	0.0072552
594	0.00672433
606	0.00867084
618	0.0132717
630	0.020173
642	0.0256586
654	0.0207039
666	0.0125639
678	0.0116791
690	0.00937867
702	0.00867084
714	0.00796302
726	0.00955562
738	0.00672433
750	0.00743215
762	0.0100865
774	0.0145104
786	0.019996
798	0.0215886
810	0.0461855
822	0.0679511
834	0.0536177
846	0.020173
858	0.0123869
870	0.0116791
882	0.0109713
894	0.0104404
906	0.0111482
918	0.0109713
930	0.0169878
942	0.0192882
954	0.0169878
966	0.0134487
978	0.0141565
990	0.01628
1002	0.0192882
1014	0.0192882
1026	0.0192882
1038	0.0231812
1050	0.0304364
1062	0.0509633
1074	0.0752063
1086	0.127939
1098	0.246323
1110	0.271627
1122	0.142273
1134	0.048132
1146	0.032206
1158	0.0293747
1170	0.0291977
1182	0.0302595
1194	0.0373377
1206	0.0702515
1218	0.129886
1230	0.143157
1242	0.140857
1254	0.21394
1266	0.197837
1278	0.0983875
1290	0.0663585
1302	0.0907784
1314	0.0907784
1326	0.0667124
1338	0.0520251
1350	0.0851158
1362	0.119976
1374	0.178903
1386	0.2918
1398	0.275167
1410	0.204915
1422	0.20173
1434	0.179079
1446	0.131478
1458	0.0985645
1470	0.0959102
1482	0.0576877
1494	0.0297286
1506	0.0106174
1518	0.00849389
1530	0.0116791
1542	0.00141565
1554	0.0143334
1566	0.0175186
1578	0.0191112
1590	0.0228273
1602	0.0247738
1614	0.0233582
1626	0.0157491
1638	0.0212347
1650	0.0194652
1662	0.0472473
1674	0.0615807
1686	0.189874
1698	1.15163
1710	1.76956
1722	0.896105
1734	0.0875932
1746	0.0378686
1758	0.0299056
1770	0.0217656
1782	0.0207039
1794	0.0148643
1806	0.0189343
1818	0.0175186
1830	0.00973258
1842	0.0109713
1854	0.0157491
1866	0.0123869
1878	0.0153952
1890	0.0116791
1902	0.0145104
1914	0.0130947
1926	0.0138026
1938	0.0146873
1950	0.01221
1962	0.012033
1974	0.0125639
1986	0.0132717
1998	0.0138026
2010	0.0138026
2022	0.0109713
2034	0.012033
2046	0.0111482
2058	0.0109713
2070	0.00973258
2082	0.0106174
2094	0.0111482
2106	0.0106174
2118	0.00973258
2130	0.00831693
2142	0.00849389
2154	0.00867084
2166	0.00867084
2178	0.00849389
2190	0.00902476
2202	0.00937867
2214	0.00955562
2226	0.00849389
2238	0.00813998
2250	0.00778606
2262	0.00743215
2274	0.0072552
2286	0.00637042
2298	0.00619346
2310	0.0060165
2322	0.00690128
2334	0.0060165
2346	0.00707824
2358	0.00707824
2370	0.00760911
2382	0.00637042
2394	0.00513172
2406	0.00548564
2418	0.00566259
2430	0.00495477
2442	0.00548564
2454	0.00460086
2466	0.00353912
2478	0.00300825
2490	0.00371608
2502	0.00353912
2514	0.0044239
2526	0.00495477
2538	0.00406999
2550	0.0028313
2562	0.00194652
2574	0.00123869
2586	0.000176956
2598	0.000707824
2610	0.00141565
2622	0.00212347
2634	0.0028313
2646	0.00371608
2658	0.00424694
2670	0.0044239
2682	0.00672433
2694	0.0104404
2706	0.0145104
2718	0.0136256
2730	0.0139795
2742	0.0222965
2754	0.0472473
2766	0.0706054
2778	0.0624655
2790	0.0472473
2802	0.0479551
2814	0.0568029
2826	0.0824615
2838	0.127231
2850	0.150059
2862	0.131124
2874	0.119799
2886	0.131478
2898	0.131832
2910	0.117145
2922	0.116968
2934	0.165454
2946	0.216417
2958	0.196067
2970	0.235882
2982	0.364352
2994	0.262603
3006	0.0967949
3018	0.0368068
3030	0.0222965
3042	0.0178726
3054	0.0146873
3066	0.0106174
3078	0.0111482
3090	0.0104404
3102	0.0113252
3114	0.0109713
3126	0.0100865
3138	0.00937867
3150	0.00707824
3162	0.00743215
3174	0.00743215
3186	0.00637042
3198	0.00619346
3210	0.00513172
3222	0.00371608
3234	0.00371608
3246	0.00424694
3258	0.00353912
3270	0.00424694
3282	0.00530868
3294	0.0028313
3306	0.00336216
3318	0.00265434
3330	0.00212347
3342	0.00406999
3354	0.00389303
3366	0.00300825
3378	0.00707824
3390	0.0129178
3402	0.0182265
3414	0.0116791
3426	0.00265434
3438	0.00212347
3450	0.00123869
3462	0.00406999
3474	0.00265434
3486	0.00318521
3498	0.00230043
3510	0.00212347
3522	0.0028313
3534	0.00123869
3546	0
3558	0.00247738
3570	0.00230043
3582	0.00176956
3594	0.00371608
3606	0.00300825
3618	0.0044239
3630	0.00353912
3642	0.00336216
3654	0.00460086
3666	0.00371608
3678	0.00371608
3690	0.00389303
3702	0.00371608
3714	0.00318521
3726	0.00353912
3738	0.00371608
3750	0.00566259
3762	0.00353912
3774	0.00513172
3786	0.00460086
3798	0.00477781
3810	0.00353912
3822	0.00265434
3834	0.00176956
3846	0.00353912
3858	0.00336216
3870	0.00460086
3882	0.00406999
3894	0.0060165
3906	0.00406999
3918	0.00389303
3930	0.00318521
3942	0.00513172
3954	0.00813998
3966	0.0072552
