Infrared Spectrum: Ethyl dibromoacetate
Formula: C 4 H 6 Br 2 O 2
CAS: 617-33-4
Origin: Sadtler Research Labs Under US-EPA Contract
1/CM	ABSORBANCE
450	0.00929696
462	0.00971955
474	0.00281726
486	0.00140863
498	0.000422589
510	0.00704315
522	0.00478934
534	0.00394416
546	0.0169036
558	0.0316942
570	0.057613
582	0.0857856
594	0.107338
606	0.12565
618	0.135651
630	0.0787424
642	0.0542323
654	0.0478934
666	0.0549366
678	0.0640927
690	0.0981815
702	0.165796
714	0.123819
726	0.0521193
738	0.0350749
750	0.0269048
762	0.0300038
774	0.0487386
786	0.0849404
798	0.057613
810	0.0263414
822	0.0177487
834	0.0156358
846	0.0266231
858	0.0612754
870	0.071981
882	0.020566
894	0.00817005
906	0.00957868
918	0.0156358
930	0.0384556
942	0.0400051
954	0.0264822
966	0.014368
978	0.0122551
990	0.0202843
1002	0.0431041
1014	0.122973
1026	0.321731
1038	0.397938
1050	0.157203
1062	0.0835318
1074	0.0631066
1086	0.0795876
1098	0.147484
1110	0.181572
1122	0.283839
1134	0.664451
1146	0.877295
1158	0.416673
1170	0.187207
1182	0.129312
1194	0.13706
1206	0.182558
1218	0.134383
1230	0.134665
1242	0.252145
1254	0.751363
1266	1.40863
1278	1.01266
1290	0.46189
1302	0.355679
1314	0.201012
1326	0.0836726
1338	0.0529645
1350	0.0364835
1362	0.0563452
1374	0.146498
1386	0.0681777
1398	0.0674734
1410	0.048316
1422	0.0346523
1434	0.0360609
1446	0.0469074
1458	0.0638109
1470	0.0721219
1482	0.0574721
1494	0.0242284
1506	0.01958
1518	0.014368
1530	0.0107056
1542	0.0149315
1554	0.00971955
1566	0.00901523
1578	0.00845178
1590	0.00577538
1602	0.00422589
1614	0.00507107
1626	0.00873351
1638	0.00859264
1650	0.011269
1662	0.00676142
1674	0.0132411
1686	0.0170444
1698	0.024651
1710	0.0387373
1722	0.0573312
1734	0.100717
1746	0.507389
1758	1.06802
1770	0.473581
1782	0.583877
1794	0.15833
1806	0.060712
1818	0.0332437
1830	0.0202843
1842	0.0145089
1854	0.0114099
1866	0.0118325
1878	0.0111282
1890	0.0135228
1902	0.00915609
1914	0.00577538
1926	0.00366244
1938	0.00183122
1950	0.00183122
1962	0.00169036
1974	0.00140863
1986	0.00211294
1998	0.00408503
2010	0.00352157
2022	0.00197208
2034	0.000281726
2046	0.000986041
2058	0.00126777
2070	0.00126777
2082	0.0011269
2094	0.00197208
2106	0.0038033
2118	0.00464848
2130	0.00464848
2142	0.00338071
2154	0.00239467
2166	0.0011269
2178	0.000986041
2190	0.00126777
2202	0.00140863
2214	0.00154949
2226	0.00154949
2238	0.00183122
2250	0.00154949
2262	0.00211294
2274	0.0026764
2286	0.0038033
2298	0.00464848
2310	0.00394416
2322	0.00507107
2334	0.0038033
2346	0.00253553
2358	0.00253553
2370	0.00154949
2382	0.00169036
2394	0.00197208
2406	0.00338071
2418	0.00309899
2430	0.00295812
2442	0.00197208
2454	0.00126777
2466	0.00197208
2478	0.00169036
2490	0.00126777
2502	0.00154949
2514	0.00183122
2526	0.00239467
2538	0.00154949
2550	0.0011269
2562	0.000845178
2574	0.000281726
2586	0
2598	0.000140863
2610	0.000704315
2622	0.000563452
2634	0.000422589
2646	0.000422589
2658	0.000281726
2670	0.000422589
2682	0.000563452
2694	0.000845178
2706	0.000986041
2718	0.00126777
2730	0.00225381
2742	0.00225381
2754	0.00239467
2766	0.00239467
2778	0.00422589
2790	0.00436675
2802	0.00323985
2814	0.00436675
2826	0.00732488
2838	0.0076066
2850	0.00929696
2862	0.0126777
2874	0.0188756
2886	0.0352157
2898	0.0378921
2910	0.0497246
2922	0.0559226
2934	0.0578947
2946	0.100999
2958	0.0819823
2970	0.089448
2982	0.166641
2994	0.256089
3006	0.141004
3018	0.0838135
3030	0.0446536
3042	0.0332437
3054	0.020566
3066	0.00887437
3078	0.00746574
3090	0.00563452
3102	0.00464848
3114	0.00450762
3126	0.00507107
3138	0.00464848
3150	0.00450762
3162	0.00394416
3174	0.0038033
3186	0.00309899
3198	0.00225381
3210	0.00253553
3222	0.00253553
3234	0.00140863
3246	0.00140863
3258	0.0011269
3270	0.000845178
3282	0.000704315
3294	0.000563452
3306	0.0011269
3318	0.000140863
3330	0.000986041
3342	0.00183122
3354	0.000845178
3366	0.00169036
3378	0.00154949
3390	0.00169036
3402	0.00211294
3414	0.00211294
3426	0.00211294
3438	0.00225381
3450	0.00169036
3462	0.00309899
3474	0.00323985
3486	0.00915609
3498	0.00901523
3510	0.00281726
3522	0.00253553
3534	0.00676142
3546	0.00352157
3558	0.00140863
3570	0.00633884
3582	0.0119734
3594	0.00507107
3606	0.000563452
3618	0
3630	0.0011269
3642	0.000845178
3654	0.00140863
3666	0.00154949
3678	0.00225381
3690	0.00154949
3702	0.00140863
3714	0.000986041
3726	0.00126777
3738	0
3750	0.00140863
3762	0.000704315
3774	0.00225381
3786	0.0011269
3798	0.00352157
3810	0.0026764
3822	0.00253553
3834	0.00253553
3846	0.00239467
3858	0.00295812
3870	0.00225381
3882	0.00126777
3894	0.00169036
3906	0.00211294
3918	0.00211294
3930	0.000986041
3942	0.00154949
3954	0.00126777
3966	0.00140863
