Infrared Spectrum: 2-Furancarbonitrile
Formula: C 5 H 3 N O
CAS: 617-90-3
Origin: Sadtler Research Labs Under US-EPA Contract
1/CM	ABSORBANCE
450	0.2572
462	0.0808547
474	0.0763693
486	0.0135741
498	0.00401322
510	0.0133381
522	0.0421389
534	0.0265581
546	0.0331681
558	0.0191218
570	0.0630312
582	0.088645
594	0.175047
606	0.103518
618	0.0511096
630	0.0148725
642	0.00684609
654	0.00495751
666	0
678	0.00696412
690	0.0115675
702	0.0245515
714	0.0717659
726	0.259443
738	0.540841
750	1.18036
762	0.679651
774	0.375236
786	0.100449
798	0.0584278
810	0.0822711
822	0.121931
834	0.085222
846	0.0546507
858	0.0194759
870	0.026322
882	0.095019
894	0.130076
906	0.113433
918	0.156634
930	0.274788
942	0.266997
954	0.126889
966	0.0473324
978	0.0398962
990	0.0855761
1002	0.304651
1014	0.275496
1026	0.3017
1038	0.0899434
1050	0.0546507
1062	0.0864024
1074	0.127597
1086	0.120633
1098	0.0529982
1110	0.0275024
1122	0.0225449
1134	0.0429651
1146	0.203848
1158	0.16466
1170	0.0970256
1182	0.0269122
1194	0.0420208
1206	0.105288
1218	0.315392
1230	0.342304
1242	0.289188
1254	0.0762513
1266	0.0223088
1278	0.0135741
1290	0.0208924
1302	0.01983
1314	0.00625591
1326	0.00826252
1338	0.00436733
1350	0.00696412
1362	0.0075543
1374	0.0114495
1386	0.0182956
1398	0.0147545
1410	0.0119216
1422	0.00661002
1434	0.00920681
1446	0.0355288
1458	0.107767
1470	0.254013
1482	0.230524
1494	0.327314
1506	0.15144
1518	0.0372994
1530	0.0134561
1542	0.0101511
1554	0.0363551
1566	0.095137
1578	0.0905336
1590	0.0642116
1602	0.0352928
1614	0.0407224
1626	0.0345845
1638	0.049339
1650	0.0330501
1662	0.0225449
1674	0.0184136
1686	0.0407224
1698	0.0396601
1710	0.0626771
1722	0.0495751
1734	0.039188
1746	0.0406044
1758	0.0406044
1770	0.0115675
1782	0.00696412
1794	0.00306894
1806	0.00566573
1818	0.00649198
1830	0.00401322
1842	0.00200661
1854	0.0029509
1866	0.0016525
1878	0.00271483
1890	0.00177054
1902	0.00200661
1914	0.00247876
1926	0.00259679
1938	0.00354108
1950	0.00413126
1962	0.00389519
1974	0.00271483
1986	0.00200661
1998	0.00188858
2010	0.00413126
2022	0.0059018
2034	0.00672805
2046	0.00472144
2058	0.0046034
2070	0.00779038
2082	0.0173513
2094	0.016407
2106	0.0103872
2118	0.00519358
2130	0.00566573
2142	0.00625591
2154	0.0059018
2166	0.00542966
2178	0.0042493
2190	0.00401322
2202	0.00649198
2214	0.0236072
2226	0.0869925
2238	0.202196
2250	0.190392
2262	0.0475685
2274	0.0046034
2286	0.00212465
2298	0.0029509
2310	0.00330501
2322	0.00224268
2334	0.00153447
2346	0.00330501
2358	0.00708216
2370	0.0114495
2382	0.0144004
2394	0.0155808
2406	0.0123938
2418	0.00601984
2430	0.00448537
2442	0.00802645
2454	0.0107413
2466	0.00731823
2478	0.00141643
2490	0.00059018
2502	0.000354108
2514	0.000236072
2526	0.00141643
2538	0.00365912
2550	0.00743627
2562	0.00661002
2574	0.0046034
2586	0.00306894
2598	0.00483948
2610	0.00519358
2622	0.00767234
2634	0.00861663
2646	0.00826252
2658	0.00413126
2670	0.00247876
2682	0.00401322
2694	0.0100331
2706	0.0149906
2718	0.0119216
2730	0.00271483
2742	0.00212465
2754	0.00330501
2766	0.00519358
2778	0.00637394
2790	0.013102
2802	0.0180595
2814	0.0156988
2826	0.00696412
2838	0.00542966
2850	0.00814448
2862	0.00790841
2874	0.00531162
2886	0.0029509
2898	0.00188858
2910	0.00271483
2922	0.00436733
2934	0.00731823
2946	0.00838056
2958	0.00649198
2970	0.00554769
2982	0.00212465
2994	0.00118036
3006	0.00059018
3018	0.00106232
3030	0.00106232
3042	0.000944288
3054	0.000826252
3066	0.000118036
3078	0.00059018
3090	0.000708216
3102	0.00153447
3114	0.00601984
3126	0.0158168
3138	0.0226629
3150	0.019594
3162	0.0126299
3174	0.0075543
3186	0.00413126
3198	0.000826252
3210	0.000826252
3222	0.000826252
3234	0.000472144
3246	0.0016525
3258	0.00141643
3270	0.00106232
3282	0.00106232
3294	0.0016525
3306	0.00271483
3318	0.00389519
3330	0.00306894
3342	0.00141643
3354	0.000944288
3366	0.00118036
3378	0.000826252
3390	0.00141643
3402	0.00141643
3414	0.00153447
3426	0.00153447
3438	0.00118036
3450	0.00271483
3462	0.0042493
3474	0.00507555
3486	0.00271483
3498	0.000118036
3510	0.000236072
3522	0.00224268
3534	0.00224268
3546	0.00118036
3558	0.00153447
3570	0.00224268
3582	0.00236072
3594	0.00283286
3606	0.00330501
3618	0.00377715
3630	0.0046034
3642	0.00365912
3654	0.00247876
3666	0.0029509
3678	0.00365912
3690	0.00507555
3702	0.00790841
3714	0.0121577
3726	0.0122757
3738	0.00956092
3750	0.00389519
3762	0.00318697
3774	0.00212465
3786	0.0029509
3798	0.0046034
3810	0.00519358
3822	0.00613787
3834	0.00436733
3846	0.00365912
3858	0.00283286
3870	0.00236072
3882	0.00330501
3894	0.0029509
3906	0.00318697
3918	0.00153447
3930	0.00212465
3942	0.00283286
3954	0.00354108
3966	0.00212465
