Infrared Spectrum: Pentanedioic acid, 2-methyl-
Formula: C 6 H 10 O 4
CAS: 617-62-9
Origin: Sadtler Research Labs Under US-EPA Contract
1/CM	ABSORBANCE
450	0
462	0.010713
474	0.0292823
486	0.0300986
498	0.0515246
510	0.0619316
522	0.0813171
534	0.101009
546	0.121415
558	0.166715
570	0.192631
582	0.190488
594	0.170082
606	0.142739
618	0.119782
630	0.091316
642	0.0695838
654	0.0506064
666	0.0389751
678	0.0476475
690	0.0340777
702	0.0258133
714	0.0260174
726	0.0362203
738	0.0406075
750	0.0622377
762	0.063258
774	0.0680533
786	0.0558099
798	0.0420359
810	0.0300986
822	0.0257113
834	0.0197936
846	0.0187733
858	0.0249971
870	0.0222423
882	0.0278539
894	0.0213241
906	0.0239768
918	0.0330574
930	0.0296904
942	0.0225484
954	0.0229565
966	0.0261194
978	0.0344858
990	0.0465252
1002	0.0908058
1014	0.136617
1026	0.147738
1038	0.174266
1050	0.190896
1062	0.23232
1074	0.303536
1086	0.365672
1098	0.433215
1110	0.51341
1122	0.534632
1134	0.510043
1146	0.503513
1158	0.448622
1170	0.349245
1182	0.179571
1194	0.0757055
1206	0.0850922
1218	0.108151
1230	0.129679
1242	0.139678
1254	0.13223
1266	0.106824
1278	0.0938667
1290	0.0818273
1302	0.0849902
1314	0.0787664
1326	0.0904997
1338	0.103763
1350	0.108967
1362	0.109273
1374	0.131413
1386	0.161104
1398	0.129679
1410	0.0725426
1422	0.049382
1434	0.052851
1446	0.0692777
1458	0.0931525
1470	0.0832557
1482	0.0398933
1494	0.0222423
1506	0.0200997
1518	0.0169368
1530	0.0179571
1542	0.0188754
1554	0.0186713
1566	0.0209159
1578	0.021018
1590	0.0206099
1602	0.0326493
1614	0.0291803
1626	0.0338736
1638	0.0392812
1650	0.0478516
1662	0.0576464
1674	0.0758075
1686	0.0920302
1698	0.120904
1710	0.122639
1722	0.135903
1734	0.205792
1746	0.340063
1758	0.517593
1770	0.884591
1782	0.975295
1794	0.5984
1806	0.294252
1818	0.143147
1830	0.0883571
1842	0.0448928
1854	0.0188754
1866	0.0132638
1878	0.0122435
1890	0.0101009
1902	0.0103049
1914	0.00826435
1926	0.0102029
1938	0.00673391
1950	0.00816232
1962	0.00550957
1974	0.00652986
1986	0.00765217
1998	0.00765217
2010	0.00765217
2022	0.00928464
2034	0.00806029
2046	0.00887652
2058	0.00867246
2070	0.00683594
2082	0.00877449
2094	0.00857044
2106	0.00846841
2118	0.00969275
2130	0.0103049
2142	0.00755015
2154	0.00785623
2166	0.0094887
2178	0.010509
2190	0.0102029
2202	0.00979478
2214	0.00887652
2226	0.00877449
2238	0.00928464
2250	0.00673391
2262	0.00755015
2274	0.00724406
2286	0.00928464
2298	0.0123455
2310	0.013978
2322	0.0144881
2334	0.0123455
2346	0.017447
2358	0.0129577
2370	0.0115293
2382	0.0136719
2394	0.00714203
2406	0.00744812
2418	0.00693797
2430	0.00683594
2442	0.00826435
2454	0.00734609
2466	0.00867246
2478	0.00816232
2490	0.00826435
2502	0.00887652
2514	0.00857044
2526	0.00816232
2538	0.00836638
2550	0.00836638
2562	0.00806029
2574	0.00765217
2586	0.00846841
2598	0.00816232
2610	0.00744812
2622	0.00816232
2634	0.00785623
2646	0.00806029
2658	0.00836638
2670	0.00846841
2682	0.00846841
2694	0.00826435
2706	0.00938667
2718	0.0101009
2730	0.0101009
2742	0.0114272
2754	0.0119374
2766	0.0130597
2778	0.0122435
2790	0.0134678
2802	0.0136719
2814	0.014182
2826	0.0162226
2838	0.021018
2850	0.0236707
2862	0.0300986
2874	0.0415258
2886	0.0539733
2898	0.0587687
2910	0.0584626
2922	0.0728487
2934	0.0947849
2946	0.117231
2958	0.111926
2970	0.104376
2982	0.131515
2994	0.114681
3006	0.045913
3018	0.0192835
3030	0.0110191
3042	0.00867246
3054	0.00887652
3066	0.00785623
3078	0.0102029
3090	0.0116313
3102	0.00959073
3114	0.010407
3126	0.00989681
3138	0.0116313
3150	0.0117333
3162	0.0116313
3174	0.0116313
3186	0.0119374
3198	0.0114272
3210	0.0103049
3222	0.00908058
3234	0.00918261
3246	0.00897855
3258	0.00897855
3270	0.00734609
3282	0.0102029
3294	0.00755015
3306	0.00897855
3318	0.00887652
3330	0.00969275
3342	0.00928464
3354	0.00959073
3366	0.00846841
3378	0.010611
3390	0.0110191
3402	0.00857044
3414	0.0119374
3426	0.0108151
3438	0.0116313
3450	0.0116313
3462	0.0143861
3474	0.0144881
3486	0.0159165
3498	0.0151003
3510	0.0160186
3522	0.0178551
3534	0.0220383
3546	0.0287722
3558	0.0677473
3570	0.320269
3582	0.331696
3594	0.0583606
3606	0.0185693
3618	0.0153043
3630	0.0128557
3642	0.00765217
3654	0.0109171
3666	0.00755015
3678	0.00724406
3690	0.00877449
3702	0.00836638
3714	0.0094887
3726	0.0124475
3738	0.00897855
3750	0.0126516
3762	0.00734609
3774	0.00836638
3786	0.00734609
3798	0.00724406
3810	0.0114272
3822	0.0110191
3834	0.00918261
3846	0.0138759
3858	0.00755015
3870	0.00979478
3882	0.00857044
3894	0.010713
3906	0.00887652
3918	0.0125496
3930	0.0155084
3942	0.00601971
3954	0.00734609
3966	0.0103049
