Infrared Spectrum: 3,5-Dichloronitrobenzene
Formula: C 6 H 3 Cl 2 N O 2
CAS: 618-62-2
Origin: Sadtler Research Labs Under US-EPA Contract
1/CM	ABSORBANCE
450	0
462	0.0115058
474	0.00738644
486	0.0105115
498	0.00383527
510	0.00667621
522	0.00525574
534	0.00198866
546	0.00681826
558	0.0072444
570	0.00866487
582	0.0045455
594	0.00639211
606	0.00269889
618	0.00710235
630	0.00553983
642	0.0167615
654	0.0676144
666	0.0389209
678	0.00795463
690	0.00369322
702	0.0100853
714	0.0110797
726	0.0335231
738	0.214633
750	0.282531
762	0.0505687
774	0.0525574
786	0.0626427
798	0.0571029
810	0.289066
822	0.274293
834	0.0390629
846	0.0316765
858	0.0465914
870	0.121166
882	0.0921885
894	0.0501426
906	0.033381
918	0.00951715
930	0.00880691
942	0.00582393
954	0.00468755
966	0.00468755
978	0.0048296
990	0.00838077
1002	0.0117899
1014	0.0149149
1026	0.0190343
1038	0.0149149
1050	0.0144888
1062	0.018182
1074	0.0316765
1086	0.0606541
1098	0.0660519
1110	0.030114
1122	0.0143467
1134	0.0237218
1146	0.0720178
1158	0.107814
1170	0.0606541
1182	0.0455971
1194	0.0176138
1206	0.0170456
1218	0.0183241
1230	0.0154831
1242	0.0156252
1254	0.0177559
1266	0.02429
1278	0.0340913
1290	0.0529835
1302	0.0225855
1314	0.0303981
1326	0.0578131
1338	0.300571
1350	0.7966
1362	0.215343
1374	0.0268469
1386	0.054262
1398	0.123155
1410	0.0855123
1422	0.0721599
1434	0.104547
1446	0.0708815
1458	0.0420459
1470	0.0321026
1482	0.0313924
1494	0.0481539
1506	0.134092
1518	0.10895
1530	0.0828134
1542	0.40455
1554	1.42047
1566	0.5135
1578	0.150854
1590	0.100711
1602	0.0950294
1614	0.0338072
1626	0.0224434
1638	0.0250003
1650	0.0186082
1662	0.00994329
1674	0.00269889
1686	0.000710235
1698	0.00198866
1710	0.0100853
1722	0.00809668
1734	0.00383527
1746	0.0116479
1758	0.0208809
1770	0.0254264
1782	0.0193184
1794	0.00653416
1806	0.00497164
1818	0.0045455
1830	0.00184661
1842	0.0024148
1854	0.00440346
1866	0.0024148
1878	0.00355117
1890	0.00269889
1902	0.0045455
1914	0.00440346
1926	0.00340913
1938	0.00340913
1950	0.00383527
1962	0.00411936
1974	0.00411936
1986	0.00383527
1998	0.00355117
2010	0.00298299
2022	0.00170456
2034	0.00227275
2046	0.00198866
2058	0.00198866
2070	0.00170456
2082	0.00184661
2094	0.00170456
2106	0.00156252
2118	0.00142047
2130	0.00142047
2142	0.00127842
2154	0.000994329
2166	0.00127842
2178	0.00198866
2190	0.00184661
2202	0.00142047
2214	0.00127842
2226	0.00113638
2238	0.000852282
2250	0.000710235
2262	0.000710235
2274	0.00113638
2286	0.00156252
2298	0.00269889
2310	0.00397732
2322	0.00383527
2334	0.00284094
2346	0.00355117
2358	0.00340913
2370	0.0021307
2382	0.00355117
2394	0.00170456
2406	0.000994329
2418	0.000852282
2430	0.00113638
2442	0.00326708
2454	0.00312503
2466	0.00113638
2478	0.00113638
2490	0.00156252
2502	0.0024148
2514	0.00269889
2526	0.00184661
2538	0.00142047
2550	0.00156252
2562	0.0021307
2574	0.00284094
2586	0.00255685
2598	0.00198866
2610	0.00156252
2622	0.00198866
2634	0.0024148
2646	0.00255685
2658	0.00284094
2670	0.00326708
2682	0.00497164
2694	0.00568188
2706	0.00369322
2718	0.00326708
2730	0.00440346
2742	0.00355117
2754	0.00340913
2766	0.00269889
2778	0.00298299
2790	0.00255685
2802	0.00269889
2814	0.00383527
2826	0.00568188
2838	0.00738644
2850	0.00994329
2862	0.00866487
2874	0.00781258
2886	0.0133524
2898	0.0178979
2910	0.0072444
2922	0.00582393
2934	0.00667621
2946	0.00752849
2958	0.00610802
2970	0.00710235
2982	0.00497164
2994	0.00397732
3006	0.00340913
3018	0.00269889
3030	0.0021307
3042	0.0021307
3054	0.00142047
3066	0.00227275
3078	0.00553983
3090	0.0254264
3102	0.0660519
3114	0.0279833
3126	0.00795463
3138	0.0069603
3150	0.00582393
3162	0.0045455
3174	0.00397732
3186	0.00383527
3198	0.0021307
3210	0.00198866
3222	0.00142047
3234	0.00184661
3246	0.00113638
3258	0.00184661
3270	0.00227275
3282	0.00113638
3294	0.00156252
3306	0.00127842
3318	0.00142047
3330	0.00142047
3342	0.000994329
3354	0.000994329
3366	0.000852282
3378	0.00127842
3390	0.000852282
3402	0.00127842
3414	0.00156252
3426	0.00170456
3438	0.00156252
3450	0.000710235
3462	0.00156252
3474	0.000852282
3486	0.00113638
3498	0.00113638
3510	0.00184661
3522	0.00127842
3534	0.00184661
3546	0.0024148
3558	0.00170456
3570	0.00142047
3582	0.00127842
3594	0.00142047
3606	0.00142047
3618	0.00156252
3630	0.00184661
3642	0.00198866
3654	0.00184661
3666	0.00170456
3678	0.00113638
3690	0.00227275
3702	0.00113638
3714	0.00156252
3726	0.00127842
3738	0.00170456
3750	0.000852282
3762	0.000852282
3774	0.0021307
3786	0.00127842
3798	0.00156252
3810	0.00127842
3822	0.00113638
3834	0.00198866
3846	0.000994329
3858	0.00113638
3870	0.00156252
3882	0.00113638
3894	0.00156252
3906	0.0021307
3918	0.00127842
3930	0.00198866
3942	0.00142047
3954	0.00113638
3966	0.00127842
