Infrared Spectrum: Benzene, (dibromomethyl)-
Formula: C 7 H 6 Br 2
CAS: 618-31-5
Origin: Sadtler Research Labs Under US-EPA Contract
1/CM	ABSORBANCE
450	0.0442309
462	0.0499947
474	0.0496815
486	0.0448574
498	0.0421008
510	0.0429153
522	0.002506
534	0.0209251
546	0.0466743
558	0.0469249
570	0.150485
582	0.0652813
594	0.0427273
606	0.116341
618	0.200167
630	0.285433
642	0.317009
654	0.593609
666	0.220152
678	0.325404
690	0.6265
702	0.301284
714	0.130061
726	0.0672861
738	0.0606452
750	0.047614
762	0.04279
774	0.0234938
786	0.0231179
798	0.0218649
810	0.0256865
822	0.149107
834	0.0582019
846	0.0181685
858	0.0118409
870	0.0092722
882	0.0086457
894	0.0070168
906	0.0055132
918	0.00457345
930	0.00394695
942	0.0129686
954	0.0161637
966	0.0248094
978	0.0469249
990	0.0687271
1002	0.072674
1014	0.0661584
1026	0.0773101
1038	0.0764957
1050	0.0525007
1062	0.0614597
1074	0.0894642
1086	0.0690403
1098	0.0727366
1110	0.0571368
1122	0.0536911
1134	0.0957292
1146	0.346893
1158	0.166398
1170	0.0740523
1182	0.0809438
1194	0.0663463
1206	0.0828859
1218	0.179993
1230	0.217208
1242	0.132192
1254	0.0813197
1266	0.0755559
1278	0.07518
1290	0.0692909
1302	0.0535658
1314	0.057638
1326	0.061585
1338	0.0689777
1350	0.0502453
1362	0.0444815
1374	0.0483658
1386	0.0473008
1398	0.0442309
1410	0.0417876
1422	0.0514357
1434	0.0530646
1446	0.101932
1458	0.147603
1470	0.050308
1482	0.0410984
1494	0.0893389
1506	0.041349
1518	0.010024
1530	0.0056385
1542	0.00106505
1554	0.0007518
1566	0.0020048
1578	0.0078939
1590	0.0196095
1602	0.018795
1614	0.00795655
1626	0.00169155
1638	0.0026313
1650	0.003759
1662	0.0040096
1674	0.00883365
1686	0.0077686
1698	0.00269395
1710	0.0149734
1722	0.0343949
1734	0.0408478
1746	0.0295708
1758	0.0266263
1770	0.0232432
1782	0.011465
1794	0.0231179
1806	0.0111517
1818	0.0072674
1830	0.0043855
1842	0.00269395
1854	0.00357105
1866	0.0090216
1878	0.0151613
1890	0.0145975
1902	0.00971075
1914	0.0038843
1926	0.0060144
1938	0.0143469
1950	0.0172288
1962	0.0177926
1974	0.0083951
1986	0.00419755
1998	0.0038843
2010	0.0030072
2022	0.00256865
2034	0.00281925
2046	0.0038843
2058	0.0036337
2070	0.0023807
2082	0.00169155
2094	0.00169155
2106	0.0015036
2118	0.00156625
2130	0.0016289
2142	0.00206745
2154	0.002506
2166	0.0026313
2178	0.0026313
2190	0.0021301
2202	0.00256865
2214	0.00294455
2226	0.00319515
2238	0.0028819
2250	0.00357105
2262	0.00394695
2274	0.00457345
2286	0.0055132
2298	0.002506
2310	0.0042602
2322	0.0076433
2334	0.0060144
2346	0.00645295
2358	0.00432285
2370	0.0041349
2382	0.0030072
2394	0.00294455
2406	0.00319515
2418	0.0031325
2430	0.00407225
2442	0.0047614
2454	0.0053879
2466	0.00394695
2478	0.00269395
2490	0.0023807
2502	0.002506
2514	0.00281925
2526	0.0027566
2538	0.00281925
2550	0.00269395
2562	0.00269395
2574	0.0022554
2586	0.00206745
2598	0.00244335
2610	0.0026313
2622	0.00194215
2634	0.0021301
2646	0.0018795
2658	0.00106505
2670	0.00131565
2682	0.00194215
2694	0.00131565
2706	0.00156625
2718	0.0041349
2730	0.00507465
2742	0.00332045
2754	0.0002506
2766	0.0002506
2778	0.001253
2790	0.001253
2802	0.00332045
2814	0.00419755
2826	0.00419755
2838	0.00281925
2850	0.0015036
2862	0.0021301
2874	0.0035084
2886	0.0035084
2898	0.00419755
2910	0.0052626
2922	0.0053879
2934	0.0061397
2946	0.00745535
2958	0.00858305
2970	0.0127806
2982	0.0136577
2994	0.0103373
3006	0.0124047
3018	0.0278166
3030	0.0779993
3042	0.136201
3054	0.0711704
3066	0.109387
3078	0.19196
3090	0.106004
3102	0.0736138
3114	0.0467369
3126	0.0140963
3138	0.00444815
3150	0.0036337
3162	0.005012
3174	0.0053879
3186	0.0035084
3198	0.00256865
3210	0.00244335
3222	0.002506
3234	0.0018795
3246	0.0020048
3258	0.0020048
3270	0.0022554
3282	0.00206745
3294	0.00269395
3306	0.00206745
3318	0.00231805
3330	0.0021301
3342	0.00194215
3354	0.0020048
3366	0.0018795
3378	0.0021301
3390	0.00169155
3402	0.0020048
3414	0.0020048
3426	0.00144095
3438	0.00156625
3450	0.00093975
3462	0.0006265
3474	0.00068915
3486	0.00144095
3498	0.0003759
3510	0.00181685
3522	0.00081445
3534	0.0005012
3546	0.00169155
3558	0.00093975
3570	0.0018795
3582	0.00532525
3594	0.0048867
3606	0.001253
3618	0.0028819
3630	0.00319515
3642	0.0032578
3654	0.0021301
3666	0.00131565
3678	0.001253
3690	0.00119035
3702	0.0021301
3714	0.00244335
3726	0.00119035
3738	0.00106505
3750	6.265e-05
3762	0.00031325
3774	6.265e-05
3786	6.265e-05
3798	6.265e-05
3810	6.265e-05
3822	6.265e-05
3834	6.265e-05
3846	6.265e-05
3858	0.00106505
3870	0.0003759
3882	0.0005012
3894	0.0017542
3906	0.0001253
3918	0.0007518
3930	6.265e-05
3942	0
3954	0.00031325
3966	6.265e-05
