Infrared Spectrum: Ethyl 3-nitrobenzoate
Formula: C 9 H 9 N O 4
CAS: 618-98-4
Origin: Sadtler Research Labs Under US-EPA Contract
1/CM	ABSORBANCE
450	0
462	0.0108044
474	0.013403
486	0.0140868
498	0.0186
510	0.0146339
522	0.0140868
534	0.0132662
546	0.0154544
558	0.0169589
570	0.0158647
582	0.0154544
594	0.0150442
606	0.0164118
618	0.0155912
630	0.0149074
642	0.0177795
654	0.0304986
666	0.0281736
678	0.027353
690	0.0276265
702	0.0538854
714	0.337126
726	0.312645
738	0.0589457
750	0.0274898
762	0.0330971
774	0.0607237
786	0.0434913
798	0.0299515
810	0.0449957
822	0.0445854
834	0.0522442
846	0.0573045
858	0.0586722
870	0.0549795
882	0.0222927
894	0.0235236
906	0.0419869
918	0.0402089
930	0.0377471
942	0.0213353
954	0.0143603
966	0.016275
978	0.0183265
990	0.0247545
1002	0.0558001
1014	0.111053
1026	0.111327
1038	0.0522442
1050	0.0411663
1062	0.110096
1074	0.168221
1086	0.16658
1098	0.182855
1110	0.173418
1122	0.349435
1134	0.613528
1146	0.345879
1158	0.128422
1170	0.0971032
1182	0.0731693
1194	0.0439016
1206	0.0485516
1218	0.0787766
1230	0.123089
1242	0.211439
1254	0.765474
1266	1.27862
1278	0.354905
1290	0.598347
1302	0.438058
1314	0.238108
1326	0.10189
1338	0.14415
1350	0.508219
1362	0.412757
1374	0.172734
1386	0.0752208
1398	0.0553898
1410	0.0410295
1422	0.0397986
1434	0.0739899
1446	0.0893075
1458	0.0555266
1470	0.0778193
1482	0.100249
1494	0.0660575
1506	0.0731693
1518	0.0716649
1530	0.115703
1542	0.41727
1554	0.632401
1566	0.179983
1578	0.0987443
1590	0.101206
1602	0.0763149
1614	0.114609
1626	0.0858884
1638	0.0263956
1650	0.0177795
1662	0.0211986
1674	0.0135397
1686	0.0161383
1698	0.0358324
1710	0.0568942
1722	0.0690663
1734	0.252195
1746	0.930823
1758	0.384036
1770	0.0581251
1782	0.0439016
1794	0.0336442
1806	0.0186
1818	0.0117618
1830	0.00957355
1842	0.0103941
1854	0.011078
1866	0.00971032
1878	0.0086162
1890	0.00615443
1902	0.00601766
1914	0.0101206
1926	0.0114883
1938	0.00724855
1950	0.00670149
1962	0.00875296
1974	0.00902649
1986	0.00697502
1998	0.00642796
2010	0.00533384
2022	0.00465001
2034	0.00451324
2046	0.00451324
2058	0.00465001
2070	0.00492354
2082	0.00478678
2094	0.00492354
2106	0.00465001
2118	0.00451324
2130	0.0054706
2142	0.00410295
2154	0.00451324
2166	0.00478678
2178	0.00355589
2190	0.00300883
2202	0.0031456
2214	0.00259854
2226	0.00246177
2238	0.0027353
2250	0.00287207
2262	0.00355589
2274	0.00355589
2286	0.00341913
2298	0.00533384
2310	0.00670149
2322	0.00765884
2334	0.00943679
2346	0.00998384
2358	0.00930002
2370	0.0112147
2382	0.00847943
2394	0.0054706
2406	0.00478678
2418	0.00492354
2430	0.00465001
2442	0.00492354
2454	0.00478678
2466	0.00423972
2478	0.00423972
2490	0.00410295
2502	0.00355589
2514	0.00355589
2526	0.00328236
2538	0.0031456
2550	0.00382942
2562	0.00341913
2574	0.00355589
2586	0.00382942
2598	0.00369266
2610	0.00382942
2622	0.00410295
2634	0.00382942
2646	0.00396619
2658	0.00382942
2670	0.00355589
2682	0.00451324
2694	0.0058809
2706	0.0058809
2718	0.00506031
2730	0.0058809
2742	0.00615443
2754	0.00615443
2766	0.00629119
2778	0.00738531
2790	0.00738531
2802	0.00670149
2814	0.00752208
2826	0.00984708
2838	0.0109412
2850	0.0120353
2862	0.0160015
2874	0.0232501
2886	0.0376104
2898	0.0387045
2910	0.0400721
2922	0.0403457
2934	0.043628
2946	0.070434
2958	0.0556634
2970	0.0670149
2982	0.116797
2994	0.141825
3006	0.0759046
3018	0.0433545
3030	0.0236603
3042	0.016275
3054	0.0136765
3066	0.0140868
3078	0.0284471
3090	0.0544325
3102	0.031456
3114	0.0124456
3126	0.00752208
3138	0.00629119
3150	0.00601766
3162	0.0054706
3174	0.00615443
3186	0.00615443
3198	0.00560737
3210	0.00478678
3222	0.00423972
3234	0.00478678
3246	0.00382942
3258	0.00369266
3270	0.00369266
3282	0.0031456
3294	0.0031456
3306	0.00341913
3318	0.00341913
3330	0.00369266
3342	0.00341913
3354	0.00369266
3366	0.00369266
3378	0.00382942
3390	0.00382942
3402	0.00396619
3414	0.00355589
3426	0.00410295
3438	0.00355589
3450	0.00465001
3462	0.00697502
3474	0.0103941
3486	0.00601766
3498	0.00396619
3510	0.0031456
3522	0.00410295
3534	0.00355589
3546	0.00451324
3558	0.0031456
3570	0.00382942
3582	0.00396619
3594	0.00465001
3606	0.00423972
3618	0.00396619
3630	0.00465001
3642	0.00341913
3654	0.0031456
3666	0.00423972
3678	0.00300883
3690	0.00341913
3702	0.00478678
3714	0.00410295
3726	0.00574413
3738	0.00437648
3750	0.0054706
3762	0.00506031
3774	0.00396619
3786	0.00423972
3798	0.00328236
3810	0.00478678
3822	0.00246177
3834	0.00287207
3846	0.00423972
3858	0.00246177
3870	0.00355589
3882	0.0031456
3894	0.00328236
3906	0.00451324
3918	0.00246177
3930	0.00396619
3942	0.00287207
3954	0.0031456
3966	0.00382942
