Infrared Spectrum: 3-Pyridineacrylic acid, methyl ester
Formula: C 9 H 9 N O 2
CAS: 61859-84-5
Origin: Sadtler Research Labs Under US-EPA Contract
1/CM	ABSORBANCE
450	0.0291172
462	0.02789
474	0.0364801
486	0.0488633
498	0.037261
510	0.0433968
522	0.0411656
534	0.02789
546	0.0161762
558	0.0152837
570	0.0264397
582	0.0562262
594	0.0458512
606	0.0228698
618	0.0331333
630	0.0774226
642	0.0358108
654	0.029675
666	0.0322408
678	0.0476361
690	0.105647
702	0.134653
714	0.0951607
726	0.0726256
738	0.048417
750	0.0282247
762	0.0295634
774	0.0383766
786	0.0708406
798	0.123385
810	0.105647
822	0.0670476
834	0.070729
846	0.0727371
858	0.0686094
870	0.0591268
882	0.049198
894	0.0441778
906	0.0389344
918	0.040831
930	0.0566725
942	0.0508714
954	0.0553338
966	0.100739
978	0.163547
990	0.115799
1002	0.0792076
1014	0.163324
1026	0.168121
1038	0.184855
1050	0.161539
1062	0.0708406
1074	0.0516523
1086	0.0543297
1098	0.0544413
1110	0.0655973
1122	0.0875746
1134	0.0785382
1146	0.111783
1158	0.400612
1170	0.967002
1182	0.680181
1194	0.468217
1206	0.394141
1218	0.363128
1230	0.222451
1242	0.207948
1254	0.455388
1266	0.691672
1278	0.420581
1290	0.307794
1302	0.573195
1314	0.574534
1326	0.24097
1338	0.134653
1350	0.0905867
1362	0.0680516
1374	0.0589037
1386	0.0503136
1398	0.0605771
1410	0.158304
1422	0.157634
1434	0.172137
1446	0.199023
1458	0.0674938
1470	0.107544
1482	0.117807
1494	0.0374842
1506	0.0272206
1518	0.0255472
1530	0.0245432
1542	0.0256588
1554	0.0454049
1566	0.0838931
1578	0.0776458
1590	0.0551106
1602	0.0338027
1614	0.0417234
1626	0.0817735
1638	0.238738
1650	0.216092
1662	0.110333
1674	0.0642586
1686	0.0382651
1698	0.058569
1710	0.104755
1722	0.185971
1734	0.533591
1746	1.1156
1758	0.486513
1770	0.154287
1782	0.0737412
1794	0.0350298
1806	0.0208617
1818	0.019523
1830	0.0211964
1842	0.0184074
1854	0.0178496
1866	0.0178496
1878	0.0152837
1890	0.0201924
1902	0.023316
1914	0.0161762
1926	0.0175149
1938	0.0136103
1950	0.0137219
1962	0.0126063
1974	0.0078092
1986	0.00747452
1998	0.0103751
2010	0.0120485
2022	0.012941
2034	0.0109329
2046	0.00758608
2058	0.00792076
2070	0.00859012
2082	0.00870168
2094	0.0103751
2106	0.0118254
2118	0.0089248
2130	0.00658204
2142	0.00435084
2154	0.00256588
2166	0.0016734
2178	0.00078092
2190	0.00011156
2202	0.00078092
2214	0.00178496
2226	0.00267744
2238	0.00401616
2250	0.00345836
2262	0.00256588
2274	0.00245432
2286	0.0039046
2298	0.00591268
2310	0.00814388
2322	0.00680516
2334	0.00635892
2346	0.00792076
2358	0.00747452
2370	0.00747452
2382	0.00680516
2394	0.00189652
2406	0.00178496
2418	0.0011156
2430	0.00089248
2442	0.0011156
2454	0.0016734
2466	0.00211964
2478	0.00267744
2490	0.00267744
2502	0.00312368
2514	0.00356992
2526	0.00312368
2538	0.00323524
2550	0.00245432
2562	0.00145028
2574	0.00267744
2586	0.0039046
2598	0.00423928
2610	0.00457396
2622	0.00345836
2634	0.00290056
2646	0.00312368
2658	0.00368148
2670	0.00312368
2682	0.002789
2694	0.00133872
2706	0.00122716
2718	0.00178496
2730	0.0005578
2742	0.0011156
2754	0.0016734
2766	0.00145028
2778	0.00178496
2790	0.00301212
2802	0.00423928
2814	0.00535488
2826	0.00658204
2838	0.012941
2850	0.0349183
2862	0.0201924
2874	0.0119369
2886	0.0166224
2898	0.0257704
2910	0.0325755
2922	0.0343605
2934	0.0314599
2946	0.0498673
2958	0.177046
2970	0.134988
2982	0.0426159
2994	0.0499789
3006	0.0667129
3018	0.069725
3030	0.0968341
3042	0.113233
3054	0.111895
3066	0.0796538
3078	0.0611349
3090	0.0678285
3102	0.0266628
3114	0.0150606
3126	0.0124947
3138	0.0112676
3150	0.00691672
3162	0.00524332
3174	0.0044624
3186	0.00368148
3198	0.00267744
3210	0.00256588
3222	0.002789
3234	0.00234276
3246	0.00267744
3258	0.0022312
3270	0.00145028
3282	0.0016734
3294	0.00234276
3306	0.00211964
3318	0.00234276
3330	0.0016734
3342	0.00178496
3354	0.00256588
3366	0.00312368
3378	0.00379304
3390	0.00323524
3402	0.00312368
3414	0.00256588
3426	0.00200808
3438	0.0033468
3450	0.00401616
3462	0.0078092
3474	0.0100404
3486	0.0061358
3498	0.00368148
3510	0.00256588
3522	0.00245432
3534	0.00256588
3546	0.00368148
3558	0.00256588
3570	0.00312368
3582	0.00859012
3594	0.00580112
3606	0.00234276
3618	0.00234276
3630	0.00345836
3642	0.00234276
3654	0.00145028
3666	0.00312368
3678	0.00156184
3690	0.00089248
3702	0.00267744
3714	0.00267744
3726	0.002789
3738	0.00089248
3750	0.00211964
3762	0.00066936
3774	0.00156184
3786	0.00100404
3798	0.00033468
3810	0.00200808
3822	0.00078092
3834	0.00011156
3846	0.0016734
3858	0.00100404
3870	0.0011156
3882	0.00200808
3894	0.00145028
3906	0.00211964
3918	0.00211964
3930	0.00245432
3942	0.00133872
3954	0.0016734
3966	0.00100404
