Infrared Spectrum: Ethane, 1,1-dichloro-2,2-diethoxy-
Formula: C 6 H 12 Cl 2 O 2
CAS: 619-33-0
Origin: Sadtler Research Labs Under US-EPA Contract
1/CM	ABSORBANCE
450	0.00478432
462	0.00223682
474	0.0029203
486	0.00323097
498	0.00391444
510	0.0063998
522	0.00323097
534	0.000807742
546	0.00093201
558	0.00403871
570	0.00354164
582	0.00441151
594	0.00869876
606	0.00838809
618	0.00466005
630	0.00677261
642	0.0205042
654	0.0186402
666	0.012054
678	0.00851236
690	0.00851236
702	0.0138559
714	0.0238595
726	0.0194479
738	0.0191994
750	0.0311291
762	0.0828246
774	0.149991
786	0.226976
798	0.172795
810	0.088106
822	0.0284574
834	0.024108
846	0.0225546
858	0.0122404
870	0.0113705
882	0.0210634
894	0.0365969
906	0.0308806
918	0.0193237
930	0.0116191
942	0.00994144
954	0.0116812
966	0.0202557
978	0.0284574
990	0.0270283
1002	0.0420647
1014	0.0677261
1026	0.0817062
1038	0.100036
1050	0.160244
1062	0.30601
1074	0.557093
1086	0.599593
1098	0.43208
1110	0.363795
1122	0.414682
1134	0.410084
1146	0.271029
1158	0.180064
1170	0.138372
1182	0.105876
1194	0.0767355
1206	0.0827625
1218	0.065365
1230	0.0413812
1242	0.0336145
1254	0.031999
1266	0.0304457
1278	0.0275875
1290	0.0291408
1302	0.0348572
1314	0.0390823
1326	0.062134
1338	0.106125
1350	0.0821411
1362	0.0420026
1374	0.0654271
1386	0.0585302
1398	0.0535595
1410	0.0409463
1422	0.0244808
1434	0.0208149
1446	0.0306942
1458	0.0286438
1470	0.0205664
1482	0.0217469
1494	0.0147258
1506	0.00807742
1518	0.00559206
1530	0.00428725
1542	0.00466005
1554	0.00316883
1566	0.0031067
1578	0.00304457
1590	0.00260963
1602	0.00323097
1614	0.00267176
1626	0.0027339
1638	0.00323097
1650	0.0027339
1662	0.00397658
1674	0.00341737
1686	0.00478432
1698	0.00316883
1710	0.0034795
1722	0.00410084
1734	0.00807742
1746	0.0152228
1758	0.0224925
1770	0.0198829
1782	0.00987931
1794	0.00720754
1806	0.00503285
1818	0.00354164
1830	0.0027339
1842	0.00254749
1854	0.00316883
1866	0.00298243
1878	0.0034795
1890	0.0034795
1902	0.00422511
1914	0.00410084
1926	0.00416298
1938	0.00416298
1950	0.00434938
1962	0.00422511
1974	0.00509499
1986	0.00503285
1998	0.00416298
2010	0.00422511
2022	0.00410084
2034	0.00410084
2046	0.00316883
2058	0.00316883
2070	0.00323097
2082	0.00422511
2094	0.00428725
2106	0.00422511
2118	0.00410084
2130	0.00379017
2142	0.00416298
2154	0.00472218
2166	0.00422511
2178	0.00372804
2190	0.00372804
2202	0.00372804
2214	0.0031067
2226	0.00323097
2238	0.00323097
2250	0.00366591
2262	0.00366591
2274	0.0027339
2286	0.00223682
2298	0.00149122
2310	0.00062134
2322	0.00062134
2334	0.00118055
2346	0.00198829
2358	0.00217469
2370	0.00248536
2382	0.00205042
2394	0.00260963
2406	0.0027339
2418	0.0027339
2430	0.00242323
2442	0.00248536
2454	0.0027339
2466	0.00267176
2478	0.00217469
2490	0.00186402
2502	0.00223682
2514	0.00217469
2526	0.00130481
2538	0.00149122
2550	0.00180189
2562	0.00124268
2574	0.00167762
2586	0.00186402
2598	0.00223682
2610	0.00267176
2622	0.0031067
2634	0.00366591
2646	0.00341737
2658	0.00360377
2670	0.00366591
2682	0.00366591
2694	0.00391444
2706	0.00441151
2718	0.00509499
2730	0.00708328
2742	0.00807742
2754	0.00882303
2766	0.010687
2778	0.0115569
2790	0.013918
2802	0.0155956
2814	0.0153471
2826	0.0172733
2838	0.022741
2850	0.0346086
2862	0.0557342
2874	0.0898458
2886	0.128742
2898	0.119794
2910	0.106063
2922	0.122653
2934	0.133091
2946	0.140858
2958	0.0935117
2970	0.0966805
2982	0.198332
2994	0.213865
3006	0.0742501
3018	0.0424375
3030	0.0226789
3042	0.0141044
3054	0.0100036
3066	0.00695901
3078	0.00528139
3090	0.00484645
3102	0.00416298
3114	0.00260963
3126	0.00298243
3138	0.00285816
3150	0.00211256
3162	0.00254749
3174	0.00254749
3186	0.00211256
3198	0.00223682
3210	0.00254749
3222	0.00254749
3234	0.00173975
3246	0.00136695
3258	0.000434938
3270	0.00118055
3282	0.00105628
3294	0.00111841
3306	0.00093201
3318	0.000559206
3330	0.000124268
3342	0.000124268
3354	0.00093201
3366	0.000559206
3378	0.000559206
3390	0.00062134
3402	0.000807742
3414	0.000372804
3426	0.000745608
3438	6.2134e-05
3450	0.00062134
3462	0.000497072
3474	0.00155335
3486	0.00062134
3498	0.00111841
3510	0.000869876
3522	0.000497072
3534	0.000683474
3546	0.00142908
3558	6.2134e-05
3570	0.00180189
3582	0.00149122
3594	0
3606	0.000186402
3618	0
3630	0.00155335
3642	0.00149122
3654	0.00180189
3666	0.000372804
3678	0.000869876
3690	0.00149122
3702	0.000869876
3714	0.000745608
3726	0.00267176
3738	0.000994144
3750	0.000248536
3762	0.00223682
3774	0.00136695
3786	0.00124268
3798	0.000994144
3810	0.00130481
3822	0.00167762
3834	0.00062134
3846	0.000807742
3858	0.00111841
3870	0.00149122
3882	6.2134e-05
3894	0.000559206
3906	0.000994144
3918	0.00062134
3930	0.00211256
3942	0.00111841
3954	0.00062134
3966	0.000559206
