Infrared Spectrum: Benzonitrile, 4-nitro-
Formula: C 7 H 4 N 2 O 2
CAS: 619-72-7
Origin: Sadtler Research Labs Under US-EPA Contract
1/CM	ABSORBANCE
450	0.00500334
462	0.00803816
474	0.000574154
486	0.00369099
498	0.0067258
510	0.0122213
522	0.0346953
534	0.0761164
546	0.0529042
558	0.0491312
570	0.0537244
582	0.0116471
594	0.0104988
606	0.00976062
618	0.00418312
630	0.00590558
642	0.0067258
654	0.00935051
666	0.0281335
678	0.0576615
690	0.0507716
702	0.0251808
714	0.0114011
726	0.0141078
738	0.0561851
750	0.114585
762	0.0778389
774	0.0420773
786	0.0228841
798	0.0239504
810	0.0256729
822	0.0247706
834	0.0565132
846	0.220475
858	0.471544
870	0.14157
882	0.0276414
894	0.00828422
906	0.00803816
918	0.00836624
930	0.007464
942	0.00287077
954	0.00237864
966	0.00205055
978	0.000574154
990	0.000738198
1002	0.00615165
1014	0.0674221
1026	0.0369099
1038	0.0048393
1050	0.00442919
1062	0.00918646
1074	0.018537
1086	0.0234583
1098	0.0565132
1110	0.0538064
1122	0.0140258
1134	0.00606963
1146	0.00623367
1158	0.0041011
1170	0.0117291
1182	0.0195212
1194	0.00910444
1206	0.00885838
1218	0.0125494
1230	0.0134516
1242	0.0100887
1254	0.0132055
1266	0.03732
1278	0.0861231
1290	0.0880916
1302	0.0579896
1314	0.0493772
1326	0.0993286
1338	0.489097
1350	0.82022
1362	0.336372
1374	0.112288
1386	0.044784
1398	0.0310863
1410	0.0351054
1422	0.0479008
1434	0.0435537
1446	0.022474
1458	0.0165684
1470	0.0328088
1482	0.0990826
1494	0.135336
1506	0.0832523
1518	0.122131
1530	0.367869
1542	0.745416
1554	0.675287
1566	0.23893
1578	0.121064
1590	0.182581
1602	0.277234
1614	0.18496
1626	0.063485
1638	0.0240324
1650	0.0210797
1662	0.0203415
1674	0.018783
1686	0.0172246
1698	0.0127954
1710	0.00500334
1722	0.00311684
1734	0.00377301
1746	0.00254268
1758	0.00229662
1770	0.00295279
1782	0.00606963
1794	0.0158302
1806	0.0126314
1818	0.00344492
1830	0.00295279
1842	0.00237864
1854	0.00106629
1866	0.00172246
1878	0.000984264
1890	0.00164044
1902	0.00434717
1914	0.0101707
1926	0.0152561
1938	0.0121393
1950	0.00418312
1962	0.00114831
1974	0.00082022
1986	0.000328088
1998	8.2022e-05
2010	0
2022	8.2022e-05
2034	0.000328088
2046	0.000492132
2058	0.000656176
2070	0.000246066
2082	0.00041011
2094	0.000656176
2106	0.000902242
2118	0.00114831
2130	0.000656176
2142	0.000574154
2154	0.000164044
2166	8.2022e-05
2178	0.000328088
2190	0.000738198
2202	0.00114831
2214	0.0014764
2226	0.00385503
2238	0.00861231
2250	0.00344492
2262	0.00180448
2274	0.00328088
2286	0.00549547
2298	0.00541345
2310	0.00516739
2322	0.0055775
2334	0.00360897
2346	0.00401908
2358	0.0048393
2370	0.00377301
2382	0.00393706
2394	0.00287077
2406	0.00229662
2418	0.00172246
2430	0.00155842
2442	0.00344492
2454	0.00451121
2466	0.00344492
2478	0.00205055
2490	0.00155842
2502	0.000902242
2514	0.000902242
2526	0.00082022
2538	0.00041011
2550	0.000328088
2562	0.000902242
2574	0.00114831
2586	0.00131235
2598	0.00164044
2610	0.00164044
2622	0.0014764
2634	0.00114831
2646	0.00123033
2658	0.00213257
2670	0.00401908
2682	0.00721794
2694	0.0082022
2706	0.00729996
2718	0.00451121
2730	0.00270673
2742	0.0026247
2754	0.00295279
2766	0.00369099
2778	0.00492132
2790	0.00442919
2802	0.00369099
2814	0.0033629
2826	0.00360897
2838	0.00459323
2850	0.00574154
2862	0.00984264
2874	0.0166505
2886	0.0190291
2898	0.0129595
2910	0.00779209
2922	0.00623367
2934	0.00738198
2946	0.00869433
2958	0.00721794
2970	0.00541345
2982	0.0033629
2994	0.00287077
3006	0.00287077
3018	0.00221459
3030	0.00180448
3042	0.00205055
3054	0.00377301
3066	0.00459323
3078	0.00943253
3090	0.0237864
3102	0.0181269
3114	0.00828422
3126	0.00426514
3138	0.00164044
3150	0.000492132
3162	0.000984264
3174	0.000902242
3186	0.000574154
3198	0.00164044
3210	0.00114831
3222	0.000984264
3234	0.000656176
3246	0.00082022
3258	0.00082022
3270	0.000574154
3282	0.00041011
3294	0.000574154
3306	0.000902242
3318	0.000902242
3330	0.000574154
3342	0.000656176
3354	0.00041011
3366	0.000902242
3378	0.00123033
3390	0.00106629
3402	0.00131235
3414	0.00205055
3426	0.00278875
3438	0.00221459
3450	0.000902242
3462	0.00082022
3474	0.00041011
3486	0.000492132
3498	0.00139437
3510	0.000246066
3522	0.000656176
3534	0.00106629
3546	0.000902242
3558	0.000656176
3570	0.00123033
3582	0.000574154
3594	0.00123033
3606	0.00106629
3618	0.000984264
3630	0.00172246
3642	0.0014764
3654	0.00155842
3666	0.00139437
3678	0.00082022
3690	0.00114831
3702	0.0014764
3714	0.00155842
3726	0.00172246
3738	0.00246066
3750	0.00155842
3762	0.00114831
3774	0.000656176
3786	0.000738198
3798	0.00106629
3810	0.000902242
3822	0.0014764
3834	0.000738198
3846	0.0014764
3858	0.00123033
3870	0.00164044
3882	0.00114831
3894	0.00139437
3906	0.00180448
3918	0.00205055
3930	0.00114831
3942	0.00131235
3954	0.00205055
3966	0.00041011
