Infrared Spectrum: Benzoic acid, 3,4-dimethyl-
Formula: C 9 H 10 O 2
CAS: 619-04-5
Origin: Sadtler Research Labs Under US-EPA Contract
1/CM	ABSORBANCE
450	0
462	0.00773242
474	0.0106917
486	0.0198561
498	0.0501176
510	0.0687326
522	0.0381848
534	0.0294023
546	0.0337935
558	0.0570863
570	0.086584
582	0.108445
594	0.0585182
606	0.0752241
618	0.095462
630	0.020047
642	0.00715965
654	0.00572772
666	0.0055368
678	0.00668234
690	0.0177559
702	0.0446762
714	0.110545
726	0.0362756
738	0.0162285
750	0.0810472
762	0.169254
774	0.0764651
786	0.0207153
798	0.0147966
810	0.0164195
822	0.0176605
834	0.0211926
846	0.0108827
858	0.00668234
870	0.00534587
882	0.00964166
894	0.0191879
906	0.0269203
918	0.0141284
930	0.00735057
942	0.00706419
954	0.00773242
966	0.00964166
978	0.0167059
990	0.0389485
1002	0.0408577
1014	0.0281613
1026	0.0354164
1038	0.0324571
1050	0.0272067
1062	0.0410487
1074	0.131451
1086	0.277317
1098	0.211448
1110	0.129256
1122	0.237319
1134	0.281422
1146	0.186151
1158	0.26233
1170	0.241137
1182	0.0638641
1194	0.174218
1206	0.130019
1218	0.0456308
1230	0.0437216
1242	0.0322662
1254	0.0518359
1266	0.0884933
1278	0.082861
1290	0.0523132
1302	0.0491629
1314	0.087825
1326	0.152739
1338	0.122382
1350	0.0743649
1362	0.145961
1374	0.102526
1386	0.0442944
1398	0.0505949
1410	0.0747467
1422	0.0586137
1434	0.0356073
1446	0.0426715
1458	0.0616685
1470	0.042767
1482	0.0252974
1494	0.0334117
1506	0.0391394
1518	0.0195697
1530	0.0109781
1542	0.0174695
1554	0.0168968
1566	0.0248201
1578	0.0370393
1590	0.0318843
1602	0.0420987
1614	0.0719783
1626	0.0381848
1638	0.0160376
1650	0.0158467
1662	0.0141284
1674	0.0177559
1686	0.0221472
1698	0.0360846
1710	0.0538406
1722	0.0535542
1734	0.0784698
1746	0.338126
1758	0.95462
1770	0.497739
1782	0.066537
1794	0.040094
1806	0.0445808
1818	0.0393303
1830	0.0179469
1842	0.00992805
1854	0.00687326
1866	0.00792335
1878	0.00658688
1890	0.00687326
1902	0.0095462
1914	0.0112645
1926	0.00925981
1938	0.00773242
1950	0.00467764
1962	0.00381848
1974	0.00439125
1986	0.00410487
1998	0.00467764
2010	0.00372302
2022	0.00410487
2034	0.00458218
2046	0.00448671
2058	0.00372302
2070	0.00429579
2082	0.00429579
2094	0.00448671
2106	0.00496402
2118	0.00439125
2130	0.00429579
2142	0.00372302
2154	0.00391394
2166	0.0047731
2178	0.00439125
2190	0.00420033
2202	0.00410487
2214	0.0040094
2226	0.00391394
2238	0.00420033
2250	0.00420033
2262	0.00381848
2274	0.0047731
2286	0.00610957
2298	0.00820973
2310	0.00906889
2322	0.00868704
2334	0.00658688
2346	0.00916435
2358	0.0087825
2370	0.00630049
2382	0.00868704
2394	0.00534587
2406	0.00496402
2418	0.00486856
2430	0.00467764
2442	0.00505949
2454	0.00496402
2466	0.00505949
2478	0.0047731
2490	0.00486856
2502	0.00458218
2514	0.00467764
2526	0.00496402
2538	0.00410487
2550	0.0040094
2562	0.00429579
2574	0.00534587
2586	0.0055368
2598	0.00563226
2610	0.0047731
2622	0.00448671
2634	0.00458218
2646	0.00496402
2658	0.00467764
2670	0.00505949
2682	0.00496402
2694	0.00505949
2706	0.00467764
2718	0.00534587
2730	0.00687326
2742	0.00820973
2754	0.0075415
2766	0.0067778
2778	0.00696873
2790	0.00687326
2802	0.00782788
2814	0.00859158
2826	0.00992805
2838	0.0124101
2850	0.0164195
2862	0.0256793
2874	0.0399031
2886	0.0463945
2898	0.041526
2910	0.0387576
2922	0.0532678
2934	0.0938391
2946	0.0823837
2958	0.064055
2970	0.0568954
2982	0.0606184
2994	0.0481128
3006	0.0309297
3018	0.0278749
3030	0.0398077
3042	0.0443898
3054	0.0317888
3066	0.0259657
3078	0.0245337
3090	0.0220517
3102	0.0162285
3114	0.0130783
3126	0.0112645
3138	0.00830519
3150	0.00687326
3162	0.00630049
3174	0.00582318
3186	0.0055368
3198	0.00486856
3210	0.00496402
3222	0.00505949
3234	0.00505949
3246	0.00525041
3258	0.00467764
3270	0.00439125
3282	0.00448671
3294	0.00410487
3306	0.00420033
3318	0.00410487
3330	0.00439125
3342	0.00410487
3354	0.00420033
3366	0.00448671
3378	0.00467764
3390	0.00420033
3402	0.0040094
3414	0.00439125
3426	0.0040094
3438	0.00410487
3450	0.00458218
3462	0.00448671
3474	0.00544133
3486	0.00668234
3498	0.00859158
3510	0.0067778
3522	0.00410487
3534	0.00467764
3546	0.00601411
3558	0.00763696
3570	0.0365619
3582	0.282758
3594	0.18911
3606	0.0108827
3618	0.0055368
3630	0.00601411
3642	0.00525041
3654	0.00486856
3666	0.00544133
3678	0.0047731
3690	0.00505949
3702	0.0047731
3714	0.00448671
3726	0.00534587
3738	0.00486856
3750	0.0047731
3762	0.00496402
3774	0.00496402
3786	0.00496402
3798	0.00467764
3810	0.00410487
3822	0.00439125
3834	0.00439125
3846	0.00458218
3858	0.00439125
3870	0.00439125
3882	0.00439125
3894	0.00429579
3906	0.0047731
3918	0.00420033
3930	0.00486856
3942	0.00505949
3954	0.00496402
3966	0.00610957
