Infrared Spectrum: Benzenamine, N,N-dimethyl-3-nitro-
Formula: C 8 H 10 N 2 O 2
CAS: 619-31-8
Origin: Sadtler Research Labs Under US-EPA Contract
1/CM	ABSORBANCE
450	0.0188434
462	0.00756487
474	0.00316349
486	0.00591435
498	0.00371366
510	0.00701469
522	0.00839012
534	0.00783995
546	0.0115536
558	0.0116912
570	0.00508909
582	0.00275086
594	0.00426383
606	0.00206315
618	0.00137543
630	0.00165052
642	0.00522663
654	0.0199437
666	0.0493779
678	0.0806002
690	0.0404376
702	0.0165052
714	0.0199437
726	0.0834886
738	0.165052
750	0.0625821
762	0.0726227
774	0.184033
786	0.109347
798	0.0314973
810	0.0167802
822	0.012929
834	0.0119662
846	0.030397
858	0.0683589
870	0.137405
882	0.114986
894	0.020769
906	0.00866521
918	0.00728978
930	0.00866521
942	0.0143045
954	0.0376868
966	0.0806002
978	0.046352
990	0.0922914
1002	0.12145
1014	0.0347984
1026	0.0297093
1038	0.0265458
1050	0.0389247
1062	0.0591435
1074	0.0550172
1086	0.0408503
1098	0.0356236
1110	0.0309472
1122	0.0272335
1134	0.0310847
1146	0.0380994
1158	0.0627196
1170	0.0954548
1182	0.113611
1194	0.102057
1206	0.0938043
1218	0.136993
1230	0.133829
1242	0.0760613
1254	0.0477274
1266	0.0452516
1278	0.0489653
1290	0.0596937
1302	0.0753736
1314	0.0988934
1326	0.148271
1338	0.329003
1350	0.826771
1362	0.730078
1374	0.217455
1386	0.103983
1398	0.0728978
1410	0.0547421
1422	0.0572179
1434	0.0788121
1446	0.141119
1458	0.110309
1470	0.10302
1482	0.158037
1494	0.309197
1506	0.347709
1518	0.253492
1530	0.378931
1542	1.19745
1554	1.1284
1566	0.347296
1578	0.300807
1590	0.157349
1602	0.122688
1614	0.222545
1626	0.253904
1638	0.107559
1650	0.0530916
1662	0.038512
1674	0.02407
1686	0.0152673
1698	0.0143045
1710	0.0137543
1722	0.012929
1734	0.0125164
1746	0.0116912
1758	0.0108659
1770	0.00949047
1782	0.00715224
1794	0.00522663
1806	0.00302595
1818	0.00357612
1830	0.00467646
1842	0.00673961
1854	0.00550172
1866	0.00412629
1878	0.00398875
1890	0.00316349
1902	0.00357612
1914	0.00605189
1926	0.00825258
1938	0.00412629
1950	0.00165052
1962	0.00165052
1974	0.000825258
1986	0.000412629
1998	0.000275086
2010	0.000687715
2022	0.00110034
2034	0.000550172
2046	0
2058	0.000137543
2070	0.000412629
2082	0.000550172
2094	0.00110034
2106	0.00178806
2118	0.00233823
2130	0.00261332
2142	0.00137543
2154	0.00110034
2166	0.000825258
2178	0.000687715
2190	0.000412629
2202	0.000550172
2214	0.000550172
2226	0.00110034
2238	0.000962801
2250	0.00137543
2262	0.00233823
2274	0.00302595
2286	0.00330103
2298	0.0038512
2310	0.00467646
2322	0.0038512
2334	0.0019256
2346	0.00412629
2358	0.00330103
2370	0.00206315
2382	0.00453892
2394	0.00275086
2406	0.00233823
2418	0.00247577
2430	0.00247577
2442	0.00330103
2454	0.00412629
2466	0.00357612
2478	0.00316349
2490	0.00247577
2502	0.00302595
2514	0.00343858
2526	0.00440138
2538	0.00508909
2550	0.00481401
2562	0.00481401
2574	0.00536418
2586	0.00591435
2598	0.00673961
2610	0.00783995
2622	0.00880275
2634	0.00852767
2646	0.00825258
2658	0.00852767
2670	0.00935292
2682	0.0105908
2694	0.0116912
2706	0.0122413
2718	0.0118287
2730	0.0118287
2742	0.0132041
2754	0.017743
2766	0.0253079
2778	0.0376868
2790	0.0581807
2802	0.0972429
2814	0.134655
2826	0.116499
2838	0.0931166
2850	0.103707
2862	0.122413
2874	0.130253
2886	0.135755
2898	0.135892
2910	0.12819
2922	0.123514
2934	0.126815
2946	0.131216
2958	0.128053
2970	0.113473
2982	0.100957
2994	0.0943545
3006	0.0763364
3018	0.0528165
3030	0.0387871
3042	0.036724
3054	0.0390622
3066	0.0346608
3078	0.0350735
3090	0.0440138
3102	0.0376868
3114	0.0182932
3126	0.0110034
3138	0.00646452
3150	0.00481401
3162	0.00467646
3174	0.0038512
3186	0.00371366
3198	0.00371366
3210	0.00330103
3222	0.00261332
3234	0.00233823
3246	0.00233823
3258	0.0019256
3270	0.00178806
3282	0.00165052
3294	0.00206315
3306	0.00165052
3318	0.00137543
3330	0.0019256
3342	0.00165052
3354	0.00151297
3366	0.00151297
3378	0.00110034
3390	0.00151297
3402	0.00151297
3414	0.00178806
3426	0.00178806
3438	0.00165052
3450	0.00247577
3462	0.0028884
3474	0.00247577
3486	0.00220069
3498	0.00178806
3510	0.00247577
3522	0.0019256
3534	0.000962801
3546	0.00151297
3558	0.00206315
3570	0.00178806
3582	0.00137543
3594	0.00123789
3606	0.00110034
3618	0.000962801
3630	0.00233823
3642	0.0019256
3654	0.0019256
3666	0.00220069
3678	0.00123789
3690	0.00206315
3702	0.00151297
3714	0.00137543
3726	0.0019256
3738	0.00275086
3750	0.000825258
3762	0.00137543
3774	0.00178806
3786	0.00233823
3798	0.00123789
3810	0.000825258
3822	0.000825258
3834	0.00123789
3846	0.000962801
3858	0.00233823
3870	0.00123789
3882	0
3894	0.00206315
3906	0.00151297
3918	0.00220069
3930	0.00110034
3942	0.000962801
3954	0.00178806
3966	0.00206315
