Infrared Spectrum: Benzenemethanol, 3-nitro-
Formula: C 7 H 7 N O 3
CAS: 619-25-0
Origin: Sadtler Research Labs Under US-EPA Contract
1/CM	ABSORBANCE
450	0.030395
462	0.016032
474	0.00986193
486	0.0075861
498	0.00768725
510	0.00576544
522	0.00414707
534	0.00348961
546	0
558	0.00187124
570	0.00359075
582	0.00627118
594	0.0111769
606	0.0105194
618	0.00470338
630	0.00050574
642	0.00106205
654	0.00460223
666	0.0294341
678	0.0596267
690	0.0490568
702	0.0347949
714	0.0390937
726	0.0796541
738	0.0664037
750	0.020533
762	0.00677692
774	0.00541142
786	0.0165377
798	0.0797046
810	0.0833965
822	0.0153239
834	0.00399535
846	0.00328731
858	0.00379305
870	0.00708036
882	0.0191675
894	0.0304961
906	0.0293835
918	0.0221514
930	0.0208365
942	0.0157285
954	0.0156779
966	0.0221008
978	0.025641
990	0.0286249
1002	0.0382845
1014	0.0507257
1026	0.0759621
1038	0.105953
1050	0.0979113
1062	0.0652405
1074	0.0414707
1086	0.0384868
1098	0.0466798
1110	0.0219997
1122	0.0111769
1134	0.0126941
1146	0.0174986
1158	0.0230617
1170	0.0297375
1182	0.0355535
1194	0.0433419
1206	0.0496637
1218	0.0401558
1230	0.0258433
1242	0.0209376
1254	0.0168411
1266	0.0149193
1278	0.0339352
1290	0.0462246
1302	0.0517878
1314	0.0521924
1326	0.064229
1338	0.145754
1350	0.371112
1362	0.368887
1374	0.136095
1386	0.069337
1398	0.0413695
1410	0.0293835
1422	0.0234663
1434	0.0285237
1446	0.0328225
1458	0.0257927
1470	0.0342386
1482	0.0433419
1494	0.0507763
1506	0.0594245
1518	0.0766702
1530	0.16214
1542	0.404693
1554	0.474637
1566	0.182572
1578	0.0788954
1590	0.0715622
1602	0.0511303
1614	0.0317605
1626	0.021494
1638	0.013301
1650	0.0077884
1662	0.00809184
1674	0.00303444
1686	0.000354018
1698	0.00283214
1710	0.00890102
1722	0.0147676
1734	0.0139078
1746	0.00687806
1758	0.00697921
1770	0.00662519
1782	0.00647347
1794	0.00571486
1806	0.00702979
1818	0.00718151
1830	0.0048551
1842	0.00419764
1854	0.0048551
1866	0.00460223
1878	0.00465281
1890	0.0050574
1902	0.00687806
1914	0.00470338
1926	0.00333788
1938	0.00394477
1950	0.00556314
1962	0.00510797
1974	0.00348961
1986	0.00268042
1998	0.00278157
2010	0.00247813
2022	0.00247813
2034	0.00257927
2046	0.00242755
2058	0.00242755
2070	0.0025287
2082	0.00237698
2094	0.00217468
2106	0.00197239
2118	0.0013655
2130	0.000859758
2142	0.000606888
2154	0.000809184
2166	0.000859758
2178	0.000657462
2190	0.00075861
2202	0.000556314
2214	0.000151722
2226	0.000101148
2238	0.000354018
2250	0.000556314
2262	0.00075861
2274	0.000455166
2286	0.000404592
2298	0.000101148
2310	0.000455166
2322	0.00166894
2334	0.00303444
2346	0.00303444
2358	0.00298387
2370	0.00293329
2382	0.00262985
2394	0.00161837
2406	0.00141607
2418	0.00106205
2430	0.00141607
2442	0.00202296
2454	0.00207353
2466	0.00166894
2478	0.00111263
2490	0.000910332
2502	0.000859758
2514	0.000960906
2526	0.00111263
2538	0.000960906
2550	0.00126435
2562	0.00126435
2574	0.00146665
2586	0.00131492
2598	0.00126435
2610	0.000859758
2622	0.00111263
2634	0.00141607
2646	0.00161837
2658	0.00161837
2670	0.00166894
2682	0.00212411
2694	0.00262985
2706	0.00318616
2718	0.00328731
2730	0.00348961
2742	0.00288272
2754	0.00308501
2766	0.00348961
2778	0.00419764
2790	0.00510797
2802	0.00652405
2814	0.00809184
2826	0.00960906
2838	0.0124918
2850	0.0168411
2862	0.0238709
2874	0.0356547
2886	0.0487028
2898	0.0461741
2910	0.0391443
2922	0.0356041
2934	0.035857
2946	0.0332777
2958	0.024933
2970	0.017094
2982	0.0122389
2994	0.0077884
3006	0.00617003
3018	0.00723208
3030	0.00920447
3042	0.0100642
3054	0.00955849
3066	0.0149193
3078	0.0238709
3090	0.0186112
3102	0.00971021
3114	0.00278157
3126	0.00151722
3138	0.00050574
3150	0.000606888
3162	0.000960906
3174	0.00025287
3186	0.000556314
3198	0.00121378
3210	0.00141607
3222	0.000809184
3234	0.0011632
3246	0.000708036
3258	0.000859758
3270	0.000556314
3282	0.000657462
3294	0.000556314
3306	0.000859758
3318	0.000809184
3330	0.000455166
3342	0.000556314
3354	0.00101148
3366	0.000960906
3378	0.00111263
3390	0.000859758
3402	0.00121378
3414	0.00106205
3426	0.00121378
3438	0.00111263
3450	0.00166894
3462	0.000657462
3474	0.00106205
3486	0.000960906
3498	0.000960906
3510	0.00075861
3522	0.000708036
3534	0.000101148
3546	0.000809184
3558	0.000708036
3570	0.00187124
3582	0.00151722
3594	0.00131492
3606	0.002731
3618	0.00490568
3630	0.00915389
3642	0.0176503
3654	0.0319628
3666	0.0398017
3678	0.0289283
3690	0.0152733
3702	0.0077884
3714	0.00379305
3726	0.00303444
3738	0.00192181
3750	0.00075861
3762	0.00050574
3774	0.000606888
3786	0.000303444
3798	5.0574e-05
3810	0.000606888
3822	0.00025287
3834	0.000354018
3846	0.000202296
3858	0.000859758
3870	0.000101148
3882	0.00161837
3894	0.00025287
3906	0.00111263
3918	0.000910332
3930	5.0574e-05
3942	0.000859758
3954	0.00050574
3966	0.00050574
