Infrared Spectrum: Ethanone, 2-bromo-1-(4-methylphenyl)-
Formula: C 9 H 9 Br O
CAS: 619-41-0
Origin: Sadtler Research Labs Under US-EPA Contract
1/CM	ABSORBANCE
450	0.0112124
462	0.0185547
474	0.0130932
486	0.00585938
498	0.00745081
510	0.00925926
522	0.012623
534	0.0105975
546	0.00784867
558	0.0180845
570	0.035518
582	0.0329138
594	0.0477069
606	0.0234375
618	0.0170718
630	0.010272
642	0.00481048
654	0.00871673
666	0.0251736
678	0.0396412
690	0.02398
702	0.00915076
714	0.00672743
726	0.00448496
738	0.00766783
750	0.00994647
762	0.0066551
774	0.00690828
786	0.0107784
798	0.0311415
810	0.0604746
822	0.054796
834	0.030599
846	0.0157697
858	0.00578704
870	0.00224248
882	0.000253183
894	0.000506366
906	0.00141059
918	0.000904225
930	0.00528067
942	0.0218822
954	0.0364584
966	0.0204355
978	0.0203993
990	0.0209057
1002	0.0331308
1014	0.0657914
1026	0.03125
1038	0.0122975
1050	0.0101273
1062	0.0119358
1074	0.0175781
1086	0.0143229
1098	0.0107784
1110	0.0166016
1122	0.0169271
1134	0.0104167
1146	0.00759549
1158	0.0117549
1170	0.0316479
1182	0.103516
1194	0.059064
1206	0.0472005
1218	0.0491537
1230	0.0656467
1242	0.0808739
1254	0.19307
1266	0.298864
1278	0.190755
1290	0.0864801
1302	0.0319734
1314	0.0331308
1326	0.0166016
1338	0.0193504
1350	0.0414497
1362	0.0769676
1374	0.038086
1386	0.0245949
1398	0.0342882
1410	0.0496239
1422	0.0507451
1434	0.0535301
1446	0.0222078
1458	0.0160952
1470	0.01284
1482	0.00983797
1494	0.01284
1506	0.0141782
1518	0.0124783
1530	0.0116464
1542	0.0135272
1554	0.016059
1566	0.023763
1578	0.0302373
1590	0.0372179
1602	0.0886864
1614	0.106807
1626	0.044524
1638	0.0214482
1650	0.0164569
1662	0.0216291
1674	0.036169
1686	0.120949
1698	0.338252
1710	0.291775
1722	0.0936777
1734	0.030382
1746	0.0178313
1758	0.020978
1770	0.0149016
1782	0.00705295
1794	0.0061849
1806	0.00625724
1818	0.00318287
1830	0.000614873
1842	0.000434028
1854	0.000217014
1866	0.000687211
1878	0.00133825
1890	0.00339989
1902	0.00397859
1914	0.00394242
1926	0.00423177
1938	0.00358073
1950	0.00260417
1962	0.00137442
1974	0.000506366
1986	0.000397859
1998	0.00122975
2010	0.00122975
2022	0.00173611
2034	0.002568
2046	0.00332755
2058	0.00300203
2070	0.00264034
2082	0.0015191
2094	0.00119358
2106	0.000940394
2118	0.000614873
2130	0.000542535
2142	0.000397859
2154	0.000289352
2166	0.000578704
2178	0.00072338
2190	0.000651042
2202	0.000542535
2214	7.2338e-05
2226	3.6169e-05
2238	0.000651042
2250	0.000940394
2262	0.0016276
2274	0.002568
2286	0.00354456
2298	0.00560619
2310	0.00694445
2322	0.00596789
2334	0.00455729
2346	0.00517217
2358	0.00444879
2370	0.0040871
2382	0.00434028
2394	0.00155527
2406	0.00155527
2418	0.00133825
2430	0.00115741
2442	0.00115741
2454	0.0016276
2466	0.000940394
2478	0.00133825
2490	0.00137442
2502	0.00141059
2514	0.00177228
2526	0.00220631
2538	0.00220631
2550	0.00213397
2562	0.00249566
2574	0.00289352
2586	0.00332755
2598	0.00350839
2610	0.00292969
2622	0.00343605
2634	0.00282118
2646	0.00271267
2658	0.002568
2670	0.00224248
2682	0.00285735
2694	0.00289352
2706	0.00329138
2718	0.00354456
2730	0.00372541
2742	0.00452112
2754	0.00444879
2766	0.00379774
2778	0.00426794
2790	0.00430411
2802	0.0046658
2814	0.00509983
2826	0.00625724
2838	0.00694445
2850	0.00857205
2862	0.0132379
2874	0.020327
2886	0.0223886
2898	0.0191696
2910	0.0190611
2922	0.0268374
2934	0.0457176
2946	0.0384838
2958	0.0251013
2970	0.0252821
2982	0.0303096
2994	0.0300203
3006	0.0351924
3018	0.0398221
3030	0.0498047
3042	0.0587385
3054	0.0385923
3066	0.0311777
3078	0.0278863
3090	0.026331
3102	0.0192781
3114	0.0115379
3126	0.00871673
3138	0.0061849
3150	0.0041956
3162	0.0036169
3174	0.00274884
3186	0.00220631
3198	0.00188079
3210	0.00195313
3222	0.00188079
3234	0.00202546
3246	0.00173611
3258	0.00217014
3270	0.00137442
3282	0.00148293
3294	0.00137442
3306	0.00119358
3318	0.000831887
3330	0.00137442
3342	0.000759549
3354	0.00122975
3366	0.00300203
3378	0.00462963
3390	0.00535301
3402	0.00300203
3414	0.00108507
3426	0.000759549
3438	0.00101273
3450	0.000542535
3462	0.00072338
3474	0.000578704
3486	0.000868056
3498	0.000253183
3510	0.000506366
3522	0.00130208
3534	0.000687211
3546	0.0015191
3558	0.00133825
3570	0.00274884
3582	0.00412327
3594	0.00296586
3606	0.00130208
3618	0.0010489
3630	0.00242332
3642	0.00072338
3654	0.00072338
3666	0
3678	0.00282118
3690	0.00036169
3702	0.000289352
3714	0.0015191
3726	0.00188079
3738	0.00220631
3750	0.000904225
3762	0.000687211
3774	0.00130208
3786	0.000397859
3798	0.000470197
3810	0.000578704
3822	0.00155527
3834	0.00173611
3846	0.00122975
3858	0.00191696
3870	0.00242332
3882	0.00206163
3894	0.00115741
3906	0.00235098
3918	0.00173611
3930	0.00072338
3942	0.000795718
3954	0.00137442
3966	0.000108507
