Infrared Spectrum: Ethanol, 2-phenoxy-, acetate
Formula: C 10 H 12 O 3
CAS: 6192-44-5
Origin: Sadtler Research Labs Under US-EPA Contract
1/CM	ABSORBANCE
450	0.0490816
462	0.00902235
474	0.0115486
486	0.0160598
498	0.0373525
510	0.0301346
522	0.0202101
534	0.00523296
546	0.0140749
558	0.000902235
570	0.00902235
582	0.00342849
594	0.027067
606	0.0303151
618	0.0317587
630	0.0180447
642	0.0265257
654	0.0263453
666	0.025443
678	0.0447509
690	0.114223
702	0.0635173
714	0.0236386
726	0.0225559
738	0.0591866
750	0.182973
762	0.1292
774	0.0705548
786	0.0507056
798	0.0353676
810	0.0332022
822	0.0382548
834	0.042405
846	0.0308564
858	0.0274279
870	0.029052
882	0.0456531
894	0.0525101
906	0.0496229
918	0.0564799
930	0.0709157
942	0.098885
954	0.106103
966	0.0797576
978	0.049262
990	0.0562995
1002	0.0759682
1014	0.0757877
1026	0.127035
1038	0.219243
1050	0.326248
1062	0.341767
1074	0.283121
1086	0.215454
1098	0.128839
1110	0.081562
1122	0.057743
1134	0.0512469
1146	0.062976
1158	0.0781336
1170	0.141651
1182	0.105561
1194	0.173049
1206	0.547657
1218	1.44791
1230	1.62077
1242	0.938144
1254	0.538454
1266	0.327692
1278	0.257498
1290	0.239092
1302	0.187845
1314	0.0949151
1326	0.0691112
1338	0.0689308
1350	0.0622542
1362	0.14147
1374	0.21798
1386	0.162583
1398	0.117651
1410	0.0873363
1422	0.0508861
1434	0.0535928
1446	0.0671263
1458	0.131546
1470	0.134794
1482	0.163305
1494	0.441734
1506	0.291783
1518	0.0653218
1530	0.0350067
1542	0.037533
1554	0.0332022
1566	0.0445704
1578	0.0860732
1590	0.227363
1602	0.362157
1614	0.107546
1626	0.0378939
1638	0.0272475
1650	0.0285106
1662	0.0207514
1674	0.025443
1686	0.0341045
1698	0.035909
1710	0.0382548
1722	0.0622542
1734	0.104479
1746	0.219784
1758	0.555777
1770	0.745607
1782	0.328053
1794	0.140929
1806	0.0680285
1818	0.0371721
1830	0.0297738
1842	0.0245408
1854	0.0198492
1866	0.0178643
1878	0.0133531
1890	0.0147967
1902	0.0147967
1914	0.018586
1926	0.0211123
1938	0.018586
1950	0.0158793
1962	0.0124508
1974	0.0124508
1986	0.0133531
1998	0.0140749
2010	0.0147967
2022	0.0171425
2034	0.0176838
2046	0.0173229
2058	0.016962
2070	0.0167816
2082	0.0166011
2094	0.015338
2106	0.0133531
2118	0.0115486
2130	0.0106464
2142	0.00938324
2154	0.00866146
2166	0.00848101
2178	0.00830056
2190	0.00812012
2202	0.00830056
2214	0.00775922
2226	0.00757877
2238	0.00739833
2250	0.00685699
2262	0.00775922
2274	0.00739833
2286	0.0061352
2298	0.00288715
2310	0.000360894
2322	0.000902235
2334	0.00469162
2346	0.00252626
2358	0.000541341
2370	0.0108268
2382	0.00938324
2394	0.00866146
2406	0.0092028
2418	0.00992458
2430	0.0106464
2442	0.0108268
2454	0.0106464
2466	0.0106464
2478	0.0108268
2490	0.0104659
2502	0.00938324
2514	0.00974414
2526	0.00956369
2538	0.00992458
2550	0.00956369
2562	0.00938324
2574	0.00866146
2586	0.00812012
2598	0.00685699
2610	0.00667654
2622	0.00703743
2634	0.00667654
2646	0.00631564
2658	0.00631564
2670	0.00685699
2682	0.0061352
2694	0.00703743
2706	0.00830056
2718	0.00902235
2730	0.0108268
2742	0.0111877
2754	0.0102855
2766	0.010105
2778	0.0104659
2790	0.00992458
2802	0.0104659
2814	0.0106464
2826	0.0120899
2838	0.0144358
2850	0.0180447
2862	0.0295933
2874	0.0505252
2886	0.0656827
2898	0.0618933
2910	0.0570213
2922	0.0665849
2934	0.0806598
2946	0.0994263
2958	0.120539
2970	0.105561
2982	0.0848101
2994	0.0676676
3006	0.0505252
3018	0.0413224
3030	0.0516078
3042	0.0822838
3054	0.0855319
3066	0.0759682
3078	0.0985241
3090	0.0707352
3102	0.054495
3114	0.0346458
3126	0.0149771
3138	0.00830056
3150	0.00685699
3162	0.00559386
3174	0.00469162
3186	0.00469162
3198	0.00451118
3210	0.00378939
3222	0.00415028
3234	0.00415028
3246	0.00433073
3258	0.00415028
3270	0.00415028
3282	0.00433073
3294	0.00360894
3306	0.00396983
3318	0.00433073
3330	0.00433073
3342	0.00469162
3354	0.00415028
3366	0.00378939
3378	0.00433073
3390	0.00378939
3402	0.00469162
3414	0.00415028
3426	0.00378939
3438	0.00396983
3450	0.00487207
3462	0.00433073
3474	0.00396983
3486	0.0061352
3498	0.00721788
3510	0.0111877
3522	0.0088419
3534	0.0061352
3546	0.00487207
3558	0.00198492
3570	0.0061352
3582	0.00234581
3594	0.00559386
3606	0.00234581
3618	0.00144358
3630	0.00775922
3642	0.00180447
3654	0.0120899
3666	0.00162402
3678	0.00541341
3690	0.00812012
3702	0.00324805
3714	0.00649609
3726	0.00270671
3738	0.00396983
3750	0.0092028
3762	0.00234581
3774	0.00198492
3786	0.00396983
3798	0.00649609
3810	0.000541341
3822	0.0088419
3834	0.00378939
3846	0.00685699
3858	0.00848101
3870	0.00775922
3882	0.00505252
3894	0.00216536
3906	0.00812012
3918	0.00595475
3930	0.00396983
3942	0.0061352
3954	0.0057743
3966	0.00848101
