Infrared Spectrum: Benzoic acid, 4-nitro-
Formula: C 7 H 5 N O 4
CAS: 62-23-7
Origin: Sadtler Research Labs Under US-EPA Contract
1/CM	ABSORBANCE
450	0.00157444
462	0.00795968
474	0.0140825
486	0.0657767
498	0.0904429
510	0.05633
522	0.0390986
534	0.0433846
546	0.0661266
558	0.0914926
570	0.11301
582	0.0730366
594	0.0487202
606	0.0344628
618	0.0307016
630	0.0277277
642	0.0242289
654	0.0737364
666	0.122369
678	0.0313139
690	0.0251036
702	0.0534436
714	0.15552
726	0.220947
738	0.0951663
750	0.0362122
762	0.169515
774	0.100764
786	0.0567674
798	0.0405856
810	0.0316638
822	0.0288648
834	0.0299144
846	0.0658642
858	0.144674
870	0.0830081
882	0.0502072
894	0.0208176
906	0.0165316
918	0.0150447
930	0.0157444
942	0.0146948
954	0.0135577
966	0.0130329
978	0.0132078
990	0.0124206
1002	0.0193306
1014	0.0909678
1026	0.053531
1038	0.0248412
1050	0.0286024
1062	0.0725118
1074	0.289085
1086	0.434546
1098	0.141175
1110	0.0687506
1122	0.0552804
1134	0.047933
1146	0.0541433
1158	0.11266
1170	0.300981
1182	0.418539
1194	0.179924
1206	0.0622779
1218	0.0627153
1230	0.0705
1242	0.0830956
1254	0.0727742
1266	0.0705
1278	0.0918424
1290	0.12613
1302	0.117471
1314	0.113272
1326	0.164879
1338	0.40087
1350	0.351101
1362	0.291972
1374	0.173888
1386	0.0769727
1398	0.0566799
1410	0.0600912
1422	0.0375242
1434	0.0136452
1446	0.0177562
1458	0.00953412
1470	0.0176687
1482	0.0323635
1494	0.0446967
1506	0.0562426
1518	0.0824833
1530	0.156395
1542	0.377079
1554	0.379353
1566	0.13374
1578	0.073474
1590	0.0895683
1602	0.116859
1614	0.101989
1626	0.0474957
1638	0.02108
1650	0.00848449
1662	0.0148697
1674	0.00830955
1686	0.00883437
1698	0.0185434
1710	0.0335881
1722	0.0425974
1734	0.0430347
1746	0.0866818
1758	0.400783
1770	0.87469
1782	0.250599
1794	0.042335
1806	0.0377866
1818	0.0335006
1830	0.018456
1842	0.0143449
1854	0.0100589
1866	0.0036737
1878	0.00568548
1890	0.0039361
1902	0.00463586
1914	0.00463586
1926	0.00857196
1938	0.0135577
1950	0.0114584
1962	0.00489826
1974	0.0025366
1986	0.0025366
1998	0.00166191
2010	0.00236166
2022	0.00183685
2034	0.00227419
2046	0.00192432
2058	0.00174938
2070	0.0011371
2082	0.00104963
2094	0.00104963
2106	0.000962159
2118	0.000787221
2130	0.000612283
2142	0.00104963
2154	0.00288648
2166	0.0025366
2178	0.00148697
2190	0.000612283
2202	8.7469e-05
2214	0.000437345
2226	0.000612283
2238	0.000612283
2250	0.00157444
2262	0.00131204
2274	0.00166191
2286	0.00218673
2298	0.00157444
2310	0.00148697
2322	0.00122457
2334	8.7469e-05
2346	0.00314888
2358	0.00148697
2370	0.00236166
2382	0.00349876
2394	0.00323635
2406	0.00288648
2418	0.00349876
2430	0.00358623
2442	0.00358623
2454	0.0039361
2466	0.00341129
2478	0.00279901
2490	0.00262407
2502	0.00218673
2514	0.00218673
2526	0.00262407
2538	0.00236166
2550	0.00192432
2562	0.00201179
2574	0.00218673
2586	0.00218673
2598	0.00236166
2610	0.00209926
2622	0.00262407
2634	0.00183685
2646	0.00174938
2658	0.00218673
2670	0.00306142
2682	0.00341129
2694	0.0039361
2706	0.00384864
2718	0.00349876
2730	0.00279901
2742	0.00192432
2754	0.00192432
2766	0.00227419
2778	0.00244913
2790	0.00314888
2802	0.00279901
2814	0.00218673
2826	0.00314888
2838	0.00498573
2850	0.00638524
2862	0.00725993
2874	0.0101464
2886	0.0106712
2898	0.00944665
2910	0.00673511
2922	0.00594789
2934	0.00656017
2946	0.00612283
2958	0.00603536
2970	0.00769727
2982	0.00691005
2994	0.00454839
3006	0.00472333
3018	0.00437345
3030	0.00498573
3042	0.00489826
3054	0.00533561
3066	0.00769727
3078	0.00673511
3090	0.00542308
3102	0.00524814
3114	0.00472333
3126	0.00288648
3138	0.00218673
3150	0.00192432
3162	0.0013995
3174	0.00148697
3186	0.0013995
3198	0.0011371
3210	0.000962159
3222	0.000262407
3234	0.00166191
3246	0.00131204
3258	0.000962159
3270	0.00174938
3282	0.000787221
3294	0.00131204
3306	0.00201179
3318	0.000699752
3330	0.00157444
3342	0.00209926
3354	0.0025366
3366	0.00314888
3378	0.0036737
3390	0.00288648
3402	0.00227419
3414	0.00288648
3426	0.00244913
3438	0.00227419
3450	0.00297395
3462	0.00218673
3474	0.00306142
3486	0.00262407
3498	0.0036737
3510	0.0073474
3522	0.00752233
3534	0.00376117
3546	0.00332382
3558	0.00865943
3570	0.0729491
3582	0.375329
3594	0.0985776
3606	0.00795968
3618	0.0039361
3630	0.00673511
3642	0.00419851
3654	0.00944665
3666	0.00402357
3678	0.00262407
3690	0.00489826
3702	0.00402357
3714	0.00376117
3726	0.00516067
3738	0.00568548
3750	0.00682258
3762	0.00358623
3774	0.00402357
3786	0.00323635
3798	0.00236166
3810	0.00411104
3822	0.00489826
3834	0.00201179
3846	0.00157444
3858	0.00349876
3870	0.00201179
3882	0.00341129
3894	0.00411104
3906	0.00481079
3918	0.00489826
3930	0.00341129
3942	0.000612283
3954	0.00524814
3966	0.00306142
