Infrared Spectrum: Aniline
Formula: C 6 H 7 N
CAS: 62-53-3
Origin: Sadtler Research Labs Under US-EPA Contract
1/CM	ABSORBANCE
450	0.105548
462	0.130945
474	0.182415
486	0.197769
498	0.185891
510	0.109314
522	0.0660518
534	0.0483801
546	0.0433586
558	0.039689
570	0.044614
582	0.0634445
594	0.069142
606	0.0652793
618	0.0618994
630	0.09367
642	0.259958
654	0.523779
666	0.601806
678	0.396601
690	0.424605
702	0.230216
714	0.201439
726	0.294819
738	0.464874
750	0.493554
762	0.319926
774	0.183188
786	0.090097
798	0.0577471
810	0.0523393
822	0.0385302
834	0.0201825
846	0.0155473
858	0.0299358
870	0.0516633
882	0.0429723
894	0.0330259
906	0.0168027
918	0.00753223
930	0.00260731
942	0.00473178
954	0.010043
966	0.0172855
978	0.0249143
990	0.023852
1002	0.018058
1014	0.0219207
1026	0.0233692
1038	0.0378543
1050	0.0494423
1062	0.0744532
1074	0.103906
1086	0.107672
1098	0.0696248
1110	0.0350538
1122	0.0225001
1134	0.00975327
1146	0.0121674
1158	0.0295495
1170	0.0543672
1182	0.069142
1194	0.0291632
1206	0.00675969
1218	0
1230	0.00791849
1242	0.0479938
1254	0.206557
1266	0.479841
1278	0.486987
1290	0.241321
1302	0.0359229
1314	0.0489595
1326	0.0427792
1338	0.0284873
1350	0.00724252
1362	0.0117812
1374	0.0102361
1386	0.00473178
1398	0.00608372
1410	0.00704939
1422	0.0173821
1434	0.0264594
1446	0.0317705
1458	0.0676935
1470	0.0599681
1482	0.148713
1494	0.541934
1506	0.537975
1518	0.267394
1530	0.0494423
1542	0.0556226
1554	0.0656656
1566	0.0758051
1578	0.0779296
1590	0.221332
1602	0.535947
1614	0.904543
1626	0.831152
1638	0.541065
1650	0.142243
1662	0.059775
1674	0.0663415
1686	0.0699145
1698	0.0710733
1710	0.0417169
1722	0.0155473
1734	0.0196031
1746	0.0163198
1758	0.0193134
1770	0.0217276
1782	0.0134228
1794	0.0136159
1806	0.0148713
1818	0.0207619
1830	0.02588
1842	0.0221138
1854	0.0107189
1866	0.00917386
1878	0.00444208
1890	0.0107189
1902	0.0211482
1914	0.0331225
1926	0.0417169
1938	0.0262662
1950	0.00975327
1962	0.00212447
1974	0.00376611
1986	0.00637342
1998	0.00811163
2010	0.00666312
2022	0.00743566
2034	0.00733909
2046	0.0101395
2058	0.0108155
2070	0.0112018
2082	0.009367
2094	0.00762879
2106	0.00540775
2118	0.00260731
2130	0.00366955
2142	0.00502148
2154	0.00656656
2166	0.00791849
2178	0.00714596
2190	0.00424895
2202	0.00395925
2214	0.00318671
2226	0.00299358
2238	0.00260731
2250	0.00434552
2262	0.00608372
2274	0.00714596
2286	0.00888416
2298	0.0109121
2310	0.0120709
2322	0.0128434
2334	0.00927043
2346	0.00762879
2358	0.00898073
2370	0.0014485
2382	0.00444208
2394	0.00646999
2406	0.00811163
2418	0.0084979
2430	0.0096567
2442	0.00869103
2454	0.00733909
2466	0.00540775
2478	0.00434552
2490	0.00337984
2502	0.00318671
2514	0.00424895
2526	0.00685626
2538	0.00917386
2550	0.00782193
2562	0.00685626
2574	0.00695282
2586	0.00840133
2598	0.00917386
2610	0.0104292
2622	0.0112018
2634	0.00946357
2646	0.00714596
2658	0.00482835
2670	0.00646999
2682	0.00598715
2694	0.00608372
2706	0.00550432
2718	0.00714596
2730	0.00772536
2742	0.00869103
2754	0.00975327
2766	0.00956013
2778	0.00888416
2790	0.00733909
2802	0.00685626
2814	0.00704939
2826	0.00704939
2838	0.00762879
2850	0.00762879
2862	0.00791849
2874	0.0111052
2886	0.0150645
2898	0.0171889
2910	0.0172855
2922	0.0149679
2934	0.0123606
2946	0.00956013
2958	0.00956013
2970	0.0104292
2982	0.0132297
2994	0.0210516
3006	0.0725218
3018	0.1547
3030	0.30071
3042	0.343972
3054	0.316257
3066	0.202501
3078	0.192844
3090	0.193713
3102	0.137318
3114	0.0786055
3126	0.0397856
3138	0.015161
3150	0.00675969
3162	0.00704939
3174	0.00753223
3186	0.00772536
3198	0.0109121
3210	0.0149679
3222	0.0166095
3234	0.0192168
3246	0.0121674
3258	0.00917386
3270	0.00782193
3282	0.00685626
3294	0.00646999
3306	0.00560089
3318	0.00646999
3330	0.00453865
3342	0.00598715
3354	0.00762879
3366	0.010043
3378	0.0141953
3390	0.0343779
3402	0.0674038
3414	0.0858481
3426	0.0638308
3438	0.0395925
3450	0.0217276
3462	0.0235623
3474	0.0450002
3486	0.0692385
3498	0.0798609
3510	0.0514702
3522	0.0392062
3534	0.018734
3546	0.0107189
3558	0.00984983
3570	0.00743566
3582	0.00762879
3594	0.00560089
3606	0.00646999
3618	0.00627685
3630	0.00424895
3642	0.00646999
3654	0.00357298
3666	0.00704939
3678	0.00376611
3690	0.00424895
3702	0.00453865
3714	0.00521462
3726	0.00840133
3738	0.00618029
3750	0.00618029
3762	0.00453865
3774	0.00540775
3786	0.00492492
3798	0.00540775
3810	0.00395925
3822	0.00598715
3834	0.0106224
3846	0.0150645
3858	0.0178649
3870	0.0147748
3882	0.0103327
3894	0.00801506
3906	0.00675969
3918	0.00869103
3930	0.00917386
3942	0.00898073
3954	0.0102361
3966	0.00762879
