Infrared Spectrum: Methanesulfonic acid, ethyl ester
Formula: C 3 H 8 O 3 S
CAS: 62-50-0
Origin: Sadtler Research Labs Under US-EPA Contract
1/CM	ABSORBANCE
450	0.0345121
462	0.0403911
474	0.0428952
486	0.0360363
498	0.0495363
510	0.0983105
522	0.165919
534	0.227323
546	0.194988
558	0.121173
570	0.0322258
582	0.0107782
594	0.00391936
606	0.00195968
618	0.00163306
630	0.000326613
642	0.00108871
654	0.00315726
666	0.00479032
678	0.0149153
690	0.0390847
702	0.0966774
714	0.16777
726	0.169186
738	0.116492
750	0.0898186
762	0.0983105
774	0.21404
786	0.415234
798	0.40119
810	0.194552
822	0.0698952
834	0.0364718
846	0.029504
858	0.0311371
870	0.0453992
882	0.095371
894	0.299504
906	0.757633
918	1.01032
930	0.698299
942	0.262161
954	0.235815
966	0.545226
978	0.507121
990	0.18225
1002	0.290794
1014	0.605323
1026	0.665528
1038	0.336738
1050	0.169403
1062	0.0889476
1074	0.064996
1086	0.0753387
1098	0.0904718
1110	0.0842662
1122	0.0554153
1134	0.0453992
1146	0.0496452
1158	0.0942823
1170	0.321496
1182	0.855726
1194	0.990726
1206	0.464988
1218	0.112899
1230	0.0492097
1242	0.031246
1254	0.0258024
1266	0.0285242
1278	0.0305928
1290	0.0330968
1302	0.041371
1314	0.072617
1326	0.140444
1338	0.221335
1350	0.353286
1362	0.680008
1374	1.04614
1386	1.03482
1398	0.702218
1410	0.317686
1422	0.129556
1434	0.0820887
1446	0.0526936
1458	0.0382137
1470	0.0300484
1482	0.0263468
1494	0.0209032
1506	0.0139355
1518	0.00892742
1530	0.00620565
1542	0.00457258
1554	0.00370161
1566	0.00424597
1578	0.00500807
1590	0.00631452
1602	0.0082742
1614	0.0114315
1626	0.0118669
1638	0.0106694
1650	0.00947178
1662	0.00914516
1674	0.00892742
1686	0.00805645
1698	0.00762097
1710	0.00838307
1722	0.00870968
1734	0.00762097
1746	0.00435484
1758	0.00108871
1770	0.00228629
1782	0.00152419
1794	0.00163306
1806	0.0026129
1818	0.00250403
1830	0.00195968
1842	0.00152419
1854	0.00130645
1866	0.00130645
1878	0.00119758
1890	0.00130645
1902	0.00163306
1914	0.00217742
1926	0.00272178
1938	0.00283065
1950	0.00141532
1962	0.000326613
1974	0.000326613
1986	0.000108871
1998	0.000108871
2010	0.000108871
2022	0.000435484
2034	0.000762097
2046	0.00119758
2058	0.00141532
2070	0.00174194
2082	0.00206855
2094	0.0026129
2106	0.00348387
2118	0.00402823
2130	0.00359274
2142	0.00217742
2154	0.00163306
2166	0.00141532
2178	0.00119758
2190	0.000979839
2202	0.00108871
2214	0.00108871
2226	0.000870968
2238	0.000762097
2250	0.00119758
2262	0.00152419
2274	0.00228629
2286	0.00402823
2298	0.00566129
2310	0.00500807
2322	0.0026129
2334	0.00217742
2346	0.00370161
2358	0.00272178
2370	0.0059879
2382	0.00620565
2394	0.00293952
2406	0.00206855
2418	0.00185081
2430	0.00163306
2442	0.00152419
2454	0.00152419
2466	0.00141532
2478	0.00163306
2490	0.00152419
2502	0.00130645
2514	0.00185081
2526	0.00283065
2538	0.00457258
2550	0.00653226
2562	0.00664113
2574	0.00500807
2586	0.00272178
2598	0.00152419
2610	0.00163306
2622	0.00130645
2634	0.00108871
2646	0.00130645
2658	0.000979839
2670	0.000326613
2682	0.000544355
2694	0.000326613
2706	0.000762097
2718	0.00108871
2730	0.00217742
2742	0.00239516
2754	0.00304839
2766	0.00326613
2778	0.00370161
2790	0.00424597
2802	0.00402823
2814	0.00522581
2826	0.00696774
2838	0.00849194
2850	0.00958065
2862	0.0119758
2874	0.0221008
2886	0.0327702
2898	0.0401734
2910	0.0470323
2922	0.0555242
2934	0.0746855
2946	0.102339
2958	0.100488
2970	0.0918871
2982	0.138484
2994	0.173323
3006	0.148827
3018	0.0935202
3030	0.0551976
3042	0.0310282
3054	0.0170927
3066	0.00947178
3078	0.00642339
3090	0.00533468
3102	0.0041371
3114	0.00381048
3126	0.00348387
3138	0.00304839
3150	0.00315726
3162	0.00348387
3174	0.00326613
3186	0.00315726
3198	0.00293952
3210	0.00283065
3222	0.00272178
3234	0.00217742
3246	0.00217742
3258	0.00152419
3270	0.00163306
3282	0.00152419
3294	0.00130645
3306	0.000870968
3318	0.00108871
3330	0.00130645
3342	0.00152419
3354	0.00141532
3366	0.00130645
3378	0.00141532
3390	0.000870968
3402	0.00130645
3414	0.00119758
3426	0.000653226
3438	0.000653226
3450	0.000870968
3462	0.000762097
3474	0.00130645
3486	0.000870968
3498	0.000870968
3510	0.000762097
3522	0.000544355
3534	0.000544355
3546	0.000435484
3558	0.000979839
3570	0.000435484
3582	0.000762097
3594	0.00152419
3606	0.000435484
3618	0.000435484
3630	0.000435484
3642	0.000217742
3654	0.00108871
3666	0.000870968
3678	0.000979839
3690	0.00163306
3702	0.000217742
3714	0.000217742
3726	0.000653226
3738	0.000544355
3750	0.000108871
3762	0.000653226
3774	0.000108871
3786	0.000762097
3798	0.000435484
3810	0.000979839
3822	0.00130645
3834	0.000979839
3846	0
3858	0.000108871
3870	0.000435484
3882	0.000108871
3894	0.00185081
3906	0.00206855
3918	0.00272178
3930	0.00239516
3942	0.00174194
3954	0.000108871
3966	0.000762097
