Infrared Spectrum: Benzene, 1-(chloromethyl)-3-methyl-
Formula: C 8 H 9 Cl
CAS: 620-19-9
Origin: Sadtler Research Labs Under US-EPA Contract
1/CM	ABSORBANCE
450	6.4941e-05
462	0.00545504
474	0.00129882
486	0.00941645
498	0.0198719
510	0.0233788
522	0.0255218
534	0.0124687
546	0.00772798
558	0.00876703
570	0.0740977
582	0.115335
594	0.0170795
606	0.0170795
618	0.00571481
630	0.00909174
642	0.0156508
654	0.0229242
666	0.0383152
678	0.0966322
690	0.158716
702	0.298014
714	0.64941
726	0.448418
738	0.408479
750	0.262946
762	0.163392
774	0.195667
786	0.180276
798	0.0780591
810	0.0277298
822	0.0138324
834	0.00876703
846	0.00883198
858	0.00993597
870	0.0271453
882	0.0359124
894	0.0272752
906	0.020911
918	0.023119
930	0.0279246
942	0.020911
954	0.0124037
966	0.0114946
978	0.012144
990	0.0150663
1002	0.0153261
1014	0.00915668
1026	0.00980609
1038	0.0170145
1050	0.0343538
1062	0.0268856
1074	0.0214955
1086	0.0494201
1098	0.0471472
1110	0.0210409
1122	0.0193524
1134	0.0190277
1146	0.0301326
1158	0.0643565
1170	0.0312366
1182	0.0222098
1194	0.0179887
1206	0.0217552
1218	0.028574
1230	0.0332498
1242	0.0703311
1254	0.130077
1266	0.254049
1278	0.31912
1290	0.13722
1302	0.0537062
1314	0.0357825
1326	0.0224696
1338	0.0163002
1350	0.0150663
1362	0.0211058
1374	0.0301976
1386	0.0448742
1398	0.0392244
1410	0.0383152
1422	0.0511086
1434	0.0865014
1446	0.129947
1458	0.115595
1470	0.0954633
1482	0.128583
1494	0.162872
1506	0.100788
1518	0.0573429
1530	0.0489655
1542	0.0429909
1554	0.0298729
1566	0.0289637
1578	0.0433806
1590	0.0695518
1602	0.118323
1614	0.174756
1626	0.0691622
1638	0.0150663
1650	0.0105854
1662	0.0107153
1674	0.0122738
1686	0.0167548
1698	0.0151313
1710	0.00857221
1722	0.00954633
1734	0.0133129
1746	0.0149364
1758	0.0160404
1770	0.0151962
1782	0.0162352
1794	0.0162352
1806	0.0111049
1818	0.00740327
1830	0.00922162
1842	0.0139623
1854	0.0184432
1866	0.0169496
1878	0.0120141
1890	0.0068188
1902	0.00519528
1914	0.00558493
1926	0.013248
1938	0.0194174
1950	0.0103906
1962	0.00311717
1974	0.00162353
1986	0.00207811
1998	0.001104
2010	0.00168847
2022	0.0025327
2034	0.00214305
2046	0.00272752
2058	0.00168847
2070	0.00162353
2082	0.00207811
2094	0.00207811
2106	0.00162353
2118	0.00155858
2130	0.00149364
2142	0.00103906
2154	0.000584469
2166	0.00103906
2178	0.000909174
2190	0.000974115
2202	0.000519528
2214	0.000519528
2226	0.000519528
2238	0.000519528
2250	0.00103906
2262	0.000909174
2274	0.00201317
2286	0.00305223
2298	0.00409128
2310	0.00636422
2322	0.00954633
2334	0.0124037
2346	0.0122089
2358	0.0136376
2370	0.00798774
2382	0.00441599
2394	0.00266258
2406	0.00324705
2418	0.00376658
2430	0.00383152
2442	0.00337693
2454	0.00292234
2466	0.00389646
2478	0.00357176
2490	0.00292234
2502	0.00292234
2514	0.00305223
2526	0.00272752
2538	0.00370164
2550	0.00318211
2562	0.00220799
2574	0.00175341
2586	0.00240282
2598	0.00331199
2610	0.00376658
2622	0.00422116
2634	0.00272752
2646	0.00220799
2658	0.00292234
2670	0.0028574
2682	0.00350681
2694	0.00526022
2706	0.00727339
2718	0.00746822
2730	0.00954633
2742	0.0151962
2754	0.0133778
2766	0.00623434
2778	0.00532516
2790	0.00526022
2802	0.00688375
2814	0.00974115
2826	0.0144818
2838	0.023119
2850	0.0368215
2862	0.0663697
2874	0.120985
2886	0.128583
2898	0.105399
2910	0.116829
2922	0.174626
2934	0.260608
2946	0.224241
2958	0.181315
2970	0.192031
2982	0.140143
2994	0.135272
3006	0.166768
3018	0.207422
3030	0.299703
3042	0.299313
3054	0.223917
3066	0.21989
3078	0.15917
3090	0.0729937
3102	0.0485109
3114	0.0428611
3126	0.0232489
3138	0.00844233
3150	0.00623434
3162	0.00467575
3174	0.00454587
3186	0.00441599
3198	0.00402634
3210	0.00409128
3222	0.00422116
3234	0.00292234
3246	0.00240282
3258	0.00188329
3270	0.00233788
3282	0.00214305
3294	0.000909174
3306	0.00227294
3318	0.00181835
3330	0.00201317
3342	0.0025327
3354	0.00149364
3366	0.00201317
3378	0.00318211
3390	0.00214305
3402	0.0025327
3414	0.00162353
3426	0.00240282
3438	0.00175341
3450	0.00344187
3462	0.00415622
3474	0.00233788
3486	0.00194823
3498	0.00188329
3510	0.00214305
3522	0.00272752
3534	0.00240282
3546	0.00305223
3558	0.00376658
3570	0.00305223
3582	0.00376658
3594	0.00461081
3606	0.00272752
3618	0.00448093
3630	0.00545504
3642	0.0036367
3654	0.00422116
3666	0.00337693
3678	0.00428611
3690	0.00532516
3702	0.00441599
3714	0.00493552
3726	0.0050654
3738	0.0064941
3750	0.0068188
3762	0.00500046
3774	0.00493552
3786	0.0050654
3798	0.00551998
3810	0.00610445
3822	0.00668892
3834	0.00513034
3846	0.0061694
3858	0.00720845
3870	0.00727339
3882	0.00772798
3894	0.00727339
3906	0.00564987
3918	0.00642916
3930	0.00500046
3942	0.00590963
3954	0
3966	0.000519528
