Infrared Spectrum: Benzonitrile, 3-methyl-
Formula: C 8 H 7 N
CAS: 620-22-4
Origin: Sadtler Research Labs Under US-EPA Contract
1/CM	ABSORBANCE
450	0.0764393
462	0.0283063
474	0.0085407
486	0.00463638
498	0.0036603
510	0.00829668
522	0.0145192
534	0.00957779
546	0.0103709
558	0.012201
570	0.0207417
582	0.0137871
594	0.00707658
606	0.00335528
618	0.00225719
630	0.00134211
642	0.00866271
654	0.0142142
666	0.0431915
678	0.173681
690	0.341201
702	0.152757
714	0.0323327
726	0.0146412
738	0.0107369
750	0.0172034
762	0.0658244
774	0.275926
786	0.61005
798	0.254208
810	0.04856
822	0.0262322
834	0.0153733
846	0.0073206
858	0.0132991
870	0.037152
882	0.0868711
894	0.0919955
906	0.0815637
918	0.048926
930	0.0218398
942	0.00927276
954	0.0109199
966	0.0096998
978	0.0146412
990	0.0211687
1002	0.0226939
1014	0.0136041
1026	0.0110419
1038	0.0193996
1050	0.0355049
1062	0.0350169
1074	0.024707
1086	0.0434356
1098	0.0592969
1110	0.0349559
1122	0.0129941
1134	0.0141532
1146	0.0209247
1158	0.0236699
1170	0.0171424
1182	0.0132381
1194	0.00866271
1206	0.00689356
1218	0.00860171
1230	0.0101268
1242	0.0197046
1254	0.0315396
1266	0.0328207
1278	0.0408123
1290	0.0378841
1302	0.0193386
1314	0.024402
1326	0.0204977
1338	0.011957
1350	0.0175694
1362	0.024219
1374	0.0277573
1386	0.0405073
1398	0.0359319
1410	0.0388602
1422	0.0591138
1434	0.0772323
1446	0.0794895
1458	0.0782694
1470	0.097181
1482	0.190885
1494	0.205526
1506	0.0909585
1518	0.0621641
1530	0.0528913
1542	0.0477669
1554	0.0411174
1566	0.0502071
1578	0.0958389
1590	0.14751
1602	0.149035
1614	0.109077
1626	0.0544775
1638	0.0206197
1650	0.011591
1662	0.0109199
1674	0.0103098
1686	0.0200096
1698	0.0299535
1710	0.012384
1722	0.00445336
1734	0.00579548
1746	0.00896774
1758	0.0164713
1770	0.0193996
1782	0.0215348
1794	0.0264762
1806	0.0193386
1818	0.0107369
1830	0.0103709
1842	0.00878472
1854	0.0128721
1866	0.0131161
1878	0.0197656
1890	0.024341
1902	0.00884573
1914	0.00469739
1926	0.00597849
1938	0.0158613
1950	0.0220838
1962	0.0142142
1974	0.00378231
1986	0.00164714
1998	0.000671055
2010	0.00024402
2022	0.000793065
2034	0.00048804
2046	0.000671055
2058	0.000793065
2070	0.00128111
2082	0.00170814
2094	0.00176915
2106	0.00085407
2118	0.00024402
2130	0.000671055
2142	0.00115909
2154	0.0012201
2166	0.00024402
2178	0.00128111
2190	0.00225719
2202	0.00183015
2214	0.00768663
2226	0.0647873
2238	0.141044
2250	0.0643603
2262	0.00652754
2274	0.00433136
2286	0.00384332
2298	0.00329427
2310	0.00317226
2322	0.00317226
2334	0.00414834
2346	0.00396533
2358	0.00427035
2370	0.00445336
2382	0.00530744
2394	0.00347729
2406	0.00396533
2418	0.00390432
2430	0.00353829
2442	0.00268422
2454	0.00274523
2466	0.00268422
2478	0.00268422
2490	0.00298925
2502	0.0023792
2514	0.00176915
2526	0.00183015
2538	0.00183015
2550	0.00207417
2562	0.00256221
2574	0.0023792
2586	0.00292824
2598	0.0035993
2610	0.00390432
2622	0.0024402
2634	0.00231819
2646	0.00152513
2658	0.00103709
2670	0.00134211
2682	0.00335528
2694	0.00542945
2706	0.00329427
2718	0.00207417
2730	0.00317226
2742	0.00872371
2754	0.011652
2766	0.00579548
2778	0.00353829
2790	0.00445336
2802	0.00616151
2814	0.00866271
2826	0.0112859
2838	0.0142752
2850	0.0217788
2862	0.0430085
2874	0.0830888
2886	0.0938257
2898	0.0738771
2910	0.0824788
2922	0.129575
2934	0.206624
2946	0.194789
2958	0.119631
2970	0.0760732
2982	0.0580768
2994	0.073694
3006	0.0904094
3018	0.0993771
3030	0.132442
3042	0.180331
3054	0.175999
3066	0.158247
3078	0.138298
3090	0.0923006
3102	0.0652754
3114	0.0448997
3126	0.0188505
3138	0.00713759
3150	0.00420935
3162	0.0023792
3174	0.00372131
3186	0.00408734
3198	0.00372131
3210	0.00225719
3222	0.00115909
3234	0.00140312
3246	0.00109809
3258	0.000915075
3270	0.00073206
3282	0.000793065
3294	0.000915075
3306	0.00109809
3318	0.00109809
3330	0.00109809
3342	0.00213518
3354	0.00219618
3366	0.00213518
3378	0.00329427
3390	0.0048194
3402	0.00311126
3414	0.00250121
3426	0.00201316
3438	0.00152513
3450	0.00152513
3462	0.00262321
3474	0.00445336
3486	0.00530744
3498	0.0035993
3510	0.00207417
3522	0.00189116
3534	0.00146412
3546	0.0012201
3558	0.000793065
3570	0.0024402
3582	0.00183015
3594	0.00146412
3606	0.00128111
3618	0.00170814
3630	0.00231819
3642	0.00305025
3654	0.00530744
3666	0.0035993
3678	0.00298925
3690	0.00189116
3702	0.00146412
3714	0.00274523
3726	0.00207417
3738	0.00280623
3750	0.00347729
3762	0.00311126
3774	0.00195216
3786	0.00219618
3798	0.00219618
3810	0.00372131
3822	0.00305025
3834	0.00311126
3846	0.00445336
3858	0.00396533
3870	0.0024402
3882	0.00225719
3894	0.00408734
3906	0.00414834
3918	0.00372131
3930	0.00390432
3942	0.00427035
3954	0.0036603
3966	0.00542945
