Infrared Spectrum: Benzene, 1-nitro-3-phenoxy-
Formula: C 12 H 9 N O 3
CAS: 620-55-3
Origin: Sadtler Research Labs Under US-EPA Contract
1/CM	ABSORBANCE
450	0
462	0.0176602
474	0.0244207
486	0.0165564
498	0.0195917
510	0.0171083
522	0.0121414
534	0.0180741
546	0.0161425
558	0.0107617
570	0.00814023
582	0.01835
594	0.00883008
606	0.0190399
618	0.0175222
630	0.0190399
642	0.0215233
654	0.0346305
666	0.0721583
678	0.110928
690	0.184604
702	0.100028
714	0.0487034
726	0.087197
738	0.195228
750	0.142109
762	0.0960271
774	0.0615346
786	0.100718
798	0.190537
810	0.122655
822	0.0865072
834	0.243517
846	0.173152
858	0.032147
870	0.0340786
882	0.0637421
894	0.0769873
906	0.0607068
918	0.041253
930	0.0913361
942	0.152319
954	0.0372519
966	0.0263523
978	0.0248346
990	0.0213854
1002	0.0271801
1014	0.0311812
1026	0.0568436
1038	0.023179
1050	0.0246966
1062	0.0427707
1074	0.0764354
1086	0.0667775
1098	0.0387696
1110	0.0262143
1122	0.01835
1134	0.0194538
1146	0.0342166
1158	0.0775391
1170	0.0841617
1182	0.0633282
1194	0.11148
1206	0.13052
1218	0.183638
1230	0.592443
1242	1.28229
1254	0.502487
1266	0.196331
1278	0.429777
1290	0.195228
1302	0.20999
1314	0.215785
1326	0.176602
1338	0.233169
1350	0.485103
1362	0.497796
1374	0.153975
1386	0.08292
1398	0.0442884
1410	0.0390455
1422	0.041529
1434	0.055188
1446	0.121138
1458	0.160735
1470	0.308225
1482	0.591201
1494	0.597272
1506	0.18419
1518	0.183638
1530	0.289599
1542	0.629419
1554	1.28464
1566	0.315399
1578	0.267386
1590	0.435019
1602	0.240758
1614	0.0942335
1626	0.0725722
1638	0.0447023
1650	0.0355963
1662	0.0269042
1674	0.0292496
1686	0.0271801
1698	0.0303534
1710	0.0248346
1722	0.0227651
1734	0.0259384
1746	0.0211094
1758	0.0215233
1770	0.0258004
1782	0.0266282
1794	0.0219372
1806	0.018212
1818	0.0153147
1830	0.0160045
1842	0.0173842
1854	0.018488
1866	0.0219372
1878	0.0223511
1890	0.0161425
1902	0.0135211
1914	0.0168323
1926	0.0212474
1938	0.0280079
1950	0.0240068
1962	0.0155906
1974	0.0128312
1986	0.0125553
1998	0.0154526
2010	0.0161425
2022	0.0179361
2034	0.0216613
2046	0.0202816
2058	0.0133831
2070	0.0122793
2082	0.0122793
2094	0.0114515
2106	0.0107617
2118	0.0107617
2130	0.0108996
2142	0.0121414
2154	0.0117275
2166	0.0118654
2178	0.0121414
2190	0.0103478
2202	0.0096579
2214	0.0103478
2226	0.0100718
2238	0.00993384
2250	0.0103478
2262	0.0100718
2274	0.0104857
2286	0.0111756
2298	0.0102098
2310	0.0115895
2322	0.0132451
2334	0.0120034
2346	0.0120034
2358	0.0110376
2370	0.0122793
2382	0.0143489
2394	0.0151767
2406	0.0153147
2418	0.0166944
2430	0.0209714
2442	0.0222132
2454	0.0153147
2466	0.0129692
2478	0.0133831
2490	0.0122793
2502	0.0115895
2514	0.0129692
2526	0.0129692
2538	0.0120034
2550	0.0126932
2562	0.0131072
2574	0.0120034
2586	0.0124173
2598	0.0122793
2610	0.0115895
2622	0.0104857
2634	0.0102098
2646	0.0102098
2658	0.0103478
2670	0.0103478
2682	0.0120034
2694	0.0122793
2706	0.0114515
2718	0.00979587
2730	0.00910602
2742	0.0082782
2754	0.00869211
2766	0.00814023
2778	0.00910602
2790	0.0102098
2802	0.0108996
2814	0.0102098
2826	0.0115895
2838	0.0122793
2850	0.0132451
2862	0.0157286
2874	0.0175222
2886	0.0200056
2898	0.0215233
2910	0.0175222
2922	0.0143489
2934	0.013797
2946	0.013659
2958	0.0117275
2970	0.0111756
2982	0.0110376
2994	0.0108996
3006	0.0126932
3018	0.0206955
3030	0.0332508
3042	0.0542222
3054	0.0663636
3066	0.0565677
3078	0.0899564
3090	0.107203
3102	0.064432
3114	0.0300775
3126	0.0131072
3138	0.0102098
3150	0.00951993
3162	0.00841617
3174	0.00910602
3186	0.00979587
3198	0.0100718
3210	0.0103478
3222	0.00924399
3234	0.00979587
3246	0.00910602
3258	0.00883008
3270	0.00910602
3282	0.00869211
3294	0.00869211
3306	0.00924399
3318	0.00896805
3330	0.00869211
3342	0.00938196
3354	0.00924399
3366	0.00924399
3378	0.00951993
3390	0.00869211
3402	0.00924399
3414	0.00910602
3426	0.00924399
3438	0.00938196
3450	0.00951993
3462	0.00869211
3474	0.00938196
3486	0.00841617
3498	0.00883008
3510	0.00979587
3522	0.00938196
3534	0.00951993
3546	0.00814023
3558	0.00800226
3570	0.00883008
3582	0.00938196
3594	0.00951993
3606	0.00951993
3618	0.00910602
3630	0.0103478
3642	0.0131072
3654	0.0153147
3666	0.0131072
3678	0.0110376
3690	0.0108996
3702	0.0110376
3714	0.0108996
3726	0.0103478
3738	0.0102098
3750	0.0111756
3762	0.0110376
3774	0.0114515
3786	0.0117275
3798	0.0103478
3810	0.0126932
3822	0.0135211
3834	0.0118654
3846	0.0126932
3858	0.0122793
3870	0.0115895
3882	0.0118654
3894	0.0115895
3906	0.0126932
3918	0.0124173
3930	0.0120034
3942	0.0113135
3954	0.0122793
3966	0.0117275
