Infrared Spectrum: Phenol, 3-ethyl-
Formula: C 8 H 10 O
CAS: 620-17-7
Origin: Sadtler Research Labs Under US-EPA Contract
1/CM	ABSORBANCE
450	0.0543383
462	0.0358402
474	0.00355098
486	0.00495486
498	0.0118091
510	0.0189936
522	0.0352621
534	0.0389782
546	0.0226272
558	0.00743229
570	0.0130478
582	0.0310505
594	0.0279124
606	0.00768003
618	0.00313808
630	0.000743229
642	0.00198194
654	0.00429421
666	0.0165988
678	0.118173
690	0.298613
702	0.144269
714	0.0515305
726	0.0657345
738	0.059128
750	0.0762223
762	0.148728
774	0.268636
786	0.204801
798	0.0689551
810	0.0201498
822	0.0138736
834	0.0384827
846	0.0947204
858	0.0948856
870	0.109255
882	0.0925733
894	0.166483
906	0.335114
918	0.1939
930	0.0316285
942	0.011231
954	0.0109007
966	0.0230401
978	0.0526041
990	0.0583848
1002	0.0387305
1014	0.0248569
1026	0.0237007
1038	0.0421989
1050	0.0899307
1062	0.109172
1074	0.0783694
1086	0.0716803
1098	0.0625138
1110	0.0481447
1122	0.0786997
1134	0.202076
1146	0.680137
1158	0.789805
1170	0.42777
1182	0.539419
1194	0.627616
1206	0.395811
1218	0.129487
1230	0.107851
1242	0.173172
1254	0.233869
1266	0.389287
1278	0.479961
1290	0.292172
1302	0.201167
1314	0.29597
1326	0.279784
1338	0.122468
1350	0.0556596
1362	0.0419511
1374	0.0335279
1386	0.0388131
1398	0.0360879
1410	0.0404647
1422	0.0511176
1434	0.0900959
1446	0.293328
1458	0.460059
1470	0.321158
1482	0.281766
1494	0.294401
1506	0.184569
1518	0.0753139
1530	0.0493834
1542	0.0421163
1554	0.0489705
1566	0.0838197
1578	0.230814
1590	0.60441
1602	0.747688
1614	0.610108
1626	0.344363
1638	0.10752
1650	0.0317937
1662	0.019902
1674	0.014782
1686	0.0176723
1698	0.0151123
1710	0.0120568
1722	0.014782
1734	0.0161859
1746	0.0169291
1758	0.0108181
1770	0.00586325
1782	0.00297292
1794	0.00148646
1806	0.00635874
1818	0.011231
1830	0.0109007
1842	0.0099923
1854	0.00454196
1866	0.00222969
1878	0.00462454
1890	0.00586325
1902	0.0126349
1914	0.0182504
1926	0.0126349
1938	0.00379873
1950	0.000330324
1962	0.000743229
1974	0.00115613
1986	0.00272517
1998	0.00338582
2010	0.00280775
2022	0.0017342
2034	0.00280775
2046	0.00363356
2058	0.00462454
2070	0.0034684
2082	0.00115613
2094	0.000578067
2106	0.000495486
2118	0.00082581
2130	0.00165162
2142	0.00239485
2154	0.00280775
2166	0.00421163
2178	0.00553293
2190	0.00412905
2202	0.00123872
2214	0.000578067
2226	0.00107355
2238	0.00156904
2250	0.0013213
2262	0.00115613
2274	0.000743229
2286	0.00140388
2298	0.00189936
2310	0.00437679
2322	0.0069368
2334	0.00726713
2346	0.00710197
2358	0.00611099
2370	0.0069368
2382	0.00602841
2394	0.00619357
2406	0.00677164
2418	0.00933165
2430	0.0110659
2442	0.00891875
2454	0.00858842
2466	0.00900133
2478	0.00784519
2490	0.00710197
2502	0.00701939
2514	0.00553293
2526	0.00404647
2538	0.00363356
2550	0.00404647
2562	0.00330324
2574	0.00231227
2586	0.00247743
2598	0.00421163
2610	0.00512002
2622	0.00512002
2634	0.00553293
2646	0.00536777
2658	0.00470712
2670	0.00371615
2682	0.00289033
2694	0.00322066
2706	0.00470712
2718	0.00569809
2730	0.0082581
2742	0.0116439
2754	0.0115613
2766	0.0128001
2778	0.0148646
2790	0.015773
2802	0.0159381
2814	0.0172594
2826	0.0230401
2838	0.0347666
2850	0.0511176
2862	0.0929036
2874	0.166814
2886	0.227015
2898	0.210169
2910	0.189689
2922	0.185642
2934	0.28028
2946	0.373018
2958	0.304641
2970	0.573442
2982	0.586821
2994	0.172759
3006	0.133533
3018	0.148315
3030	0.163263
3042	0.235686
3054	0.219913
3066	0.149059
3078	0.113962
3090	0.0833242
3102	0.0544209
3114	0.0371614
3126	0.0237833
3138	0.013791
3150	0.00982714
3162	0.00908391
3174	0.0099923
3186	0.00734971
3198	0.00421163
3210	0.00322066
3222	0.00289033
3234	0.00338582
3246	0.00272517
3258	0.00140388
3270	0.00297292
3282	0.0030555
3294	0.00289033
3306	0.00297292
3318	0.00272517
3330	0.00462454
3342	0.00883617
3354	0.00883617
3366	0.00842326
3378	0.00875359
3390	0.00619357
3402	0.00445937
3414	0.0052026
3426	0.0052026
3438	0.0047897
3450	0.0034684
3462	0.00198194
3474	0.00313808
3486	0.00280775
3498	0.00140388
3510	0.00264259
3522	0.00231227
3534	0.00107355
3546	0.00206453
3558	0.00165162
3570	0.00280775
3582	0.00512002
3594	0.00536777
3606	0.00561551
3618	0.0134607
3630	0.0376569
3642	0.27293
3654	0.562872
3666	0.279372
3678	0.0214711
3690	0.00297292
3702	0.00379873
3714	0.000247743
3726	0.000247743
3738	0.00156904
3750	0.000165162
3762	0.00272517
3774	0.00355098
3786	0.00107355
3798	0.00148646
3810	0.000247743
3822	0.00123872
3834	0.00181678
3846	0.00289033
3858	0.00313808
3870	0.00363356
3882	0.00272517
3894	0.00338582
3906	0.00123872
3918	0.00594583
3930	0.00495486
3942	0.00495486
3954	0.00619357
3966	0.00677164
