Infrared Spectrum: Benzene, 1-ethyl-3-methyl-
Formula: C 9 H 12
CAS: 620-14-4
Origin: Sadtler Research Labs Under US-EPA Contract
1/CM	ABSORBANCE
450	0.00256951
462	0.0043243
474	0.00376026
486	0
498	0.00595374
510	0.00488834
522	0.00470032
534	0.00664313
546	0.00263218
558	0.00350958
570	0.00350958
582	0.00363492
594	0.0019428
606	0.00338423
618	0.00175479
630	0.00263218
642	0.00357225
654	0.00451231
666	0.00852326
678	0.0351584
690	0.114061
702	0.163509
714	0.0777747
726	0.0359732
738	0.0382293
750	0.0602268
762	0.0967014
774	0.189768
786	0.182937
798	0.072197
810	0.0266978
822	0.0137876
834	0.00770853
846	0.00576573
858	0.0114688
870	0.038856
882	0.0773987
894	0.0530197
906	0.0134116
918	0.00557772
930	0.00394827
942	0.00407362
954	0.00564039
966	0.00983935
978	0.0122208
990	0.0127849
1002	0.0117195
1014	0.0112181
1026	0.0127849
1038	0.0208694
1050	0.0370386
1062	0.0470032
1074	0.0313355
1086	0.0208694
1098	0.0295807
1110	0.0230003
1122	0.00902462
1134	0.00708182
1146	0.00701915
1158	0.0115941
1170	0.00983935
1182	0.00607909
1194	0.00457498
1206	0.00457498
1218	0.00470032
1230	0.00639244
1242	0.00946332
1254	0.00996469
1266	0.00883661
1278	0.00940065
1290	0.0107167
1302	0.0149157
1314	0.0265725
1326	0.0411748
1338	0.0311475
1350	0.0158558
1362	0.0193653
1374	0.0346571
1386	0.0471286
1398	0.033153
1410	0.0313355
1422	0.0372266
1434	0.0649272
1446	0.0977668
1458	0.122522
1470	0.123274
1482	0.128413
1494	0.144143
1506	0.0923771
1518	0.0560279
1530	0.0433683
1542	0.0355345
1554	0.0269485
1566	0.0281393
1578	0.0440577
1590	0.0785894
1602	0.153732
1614	0.194907
1626	0.0757066
1638	0.014477
1650	0.0107167
1662	0.0105287
1674	0.0133489
1686	0.00814723
1698	0.00620443
1710	0.0043243
1722	0.0038856
1734	0.0058284
1746	0.0120955
1758	0.0152917
1770	0.0144143
1782	0.0123462
1794	0.0067058
1806	0.00319622
1818	0.00294554
1830	0.00589107
1842	0.0114688
1854	0.0183626
1866	0.014289
1878	0.00419896
1890	0.00250684
1902	0.00275752
1914	0.00645511
1926	0.0151037
1938	0.0143517
1950	0.00413629
1962	0.00175479
1974	0.00100274
1986	0.00062671
1998	0.000313355
2010	0.00062671
2022	0.0015041
2034	0.00181746
2046	0.00131609
2058	0.00100274
2070	0.000313355
2082	0.000125342
2094	0.000501368
2106	0.00062671
2118	0.000250684
2130	0.000501368
2142	0.00062671
2154	0.000313355
2166	0.000689381
2178	0.000438697
2190	0.00062671
2202	0.000689381
2214	0.00062671
2226	0.000877394
2238	0.00106541
2250	0.00125342
2262	0.00213081
2274	0.00206814
2286	0.00169212
2298	0.00188013
2310	0.00250684
2322	0.00325889
2334	0.00357225
2346	0.004763
2358	0.00313355
2370	0.00231883
2382	0.00213081
2394	0.00156677
2406	0.00219348
2418	0.00275752
2430	0.00269485
2442	0.00300821
2454	0.00244417
2466	0.00219348
2478	0.00269485
2490	0.00244417
2502	0.00188013
2514	0.00219348
2526	0.00213081
2538	0.00231883
2550	0.00200547
2562	0.00131609
2574	0.00131609
2586	0.00219348
2598	0.00282019
2610	0.00338423
2622	0.00319622
2634	0.00363492
2646	0.0034469
2658	0.00244417
2670	0.00200547
2682	0.00200547
2694	0.00282019
2706	0.00419896
2718	0.00507635
2730	0.00965133
2742	0.0160438
2754	0.0120955
2766	0.009714
2778	0.0118448
2790	0.0124715
2802	0.0133489
2814	0.0165451
2826	0.0258205
2838	0.0404855
2850	0.0656165
2862	0.131609
2874	0.239905
2886	0.289791
2898	0.255196
2910	0.245608
2922	0.306085
2934	0.444651
2946	0.46364
2958	0.337985
2970	0.596816
2982	0.548935
2994	0.201425
3006	0.206313
3018	0.275314
3030	0.343625
3042	0.282897
3054	0.22173
3066	0.200986
3078	0.115127
3090	0.057908
3102	0.0488834
3114	0.0412375
3126	0.0223109
3138	0.0114061
3150	0.00914997
3162	0.0101527
3174	0.0107167
3186	0.00708182
3198	0.00338423
3210	0.00263218
3222	0.00225616
3234	0.00219348
3246	0.00206814
3258	0.0019428
3270	0.00169212
3282	0.00156677
3294	0.00125342
3306	0.00100274
3318	0.0015041
3330	0.00144143
3342	0.0015041
3354	0.00162945
3366	0.00144143
3378	0.00144143
3390	0.00181746
3402	0.00181746
3414	0.00175479
3426	0.00181746
3438	0.00200547
3450	0.00200547
3462	0.00225616
3474	0.00137876
3486	0.00181746
3498	0.00181746
3510	0.00137876
3522	0.000940065
3534	0.00188013
3546	0.00256951
3558	0.00269485
3570	0.00225616
3582	0.00144143
3594	0.00169212
3606	0.0019428
3618	0.00131609
3630	0.00100274
3642	0.00144143
3654	0.0023815
3666	0.00144143
3678	0.00119075
3690	0.00112808
3702	0.00156677
3714	0.00175479
3726	0.00282019
3738	0.00269485
3750	0.00244417
3762	0.00288287
3774	0.00263218
3786	0.00119075
3798	0.000438697
3810	0.00144143
3822	0.000313355
3834	0.000250684
3846	0.000501368
3858	0.000752052
3870	0.000940065
3882	0.00181746
3894	0.00231883
3906	0.00137876
3918	0.00181746
3930	0.00213081
3942	0.00463765
3954	0.00169212
3966	0.00106541
