Infrared Spectrum: Benzene, 1-nitro-4-phenoxy-
Formula: C 12 H 9 N O 3
CAS: 620-88-2
Origin: Sadtler Research Labs Under US-EPA Contract
1/CM	ABSORBANCE
450	0.0118953
462	0.0220499
474	0.0211795
486	0.0516431
498	0.0484517
510	0.0187134
522	0.00986442
534	0.00884897
546	0.0058026
558	0.0053674
570	0.0029013
582	0.00942922
594	0.0140713
606	0.00797857
618	0.00899403
630	0.0136361
642	0.0240808
654	0.0191486
666	0.0161022
678	0.0420688
690	0.102851
702	0.0555599
714	0.0168275
726	0.0175529
738	0.0583161
750	0.179736
762	0.0686157
774	0.0243709
786	0.0281426
798	0.024516
810	0.013346
822	0.0190035
834	0.0352508
846	0.104882
858	0.116632
870	0.248786
882	0.139843
894	0.0213246
906	0.0252413
918	0.00725325
930	0.00058026
942	0.00145065
954	0.00362662
966	0.0029013
978	0.00551247
990	0.00493221
1002	0.0110249
1014	0.0265469
1026	0.0287229
1038	0.00377169
1050	0.00420688
1062	0.0123305
1074	0.020019
1086	0.0192936
1098	0.0374268
1110	0.0921163
1122	0.0343804
1134	0.00913909
1146	0.0204542
1158	0.128963
1170	0.13375
1182	0.0638286
1194	0.103141
1206	0.06702
1218	0.109669
1230	0.303911
1242	1.08712
1254	1.10032
1266	0.226592
1278	0.105607
1290	0.087039
1302	0.0819617
1314	0.0834124
1326	0.115037
1338	0.266775
1350	0.584757
1362	0.310439
1374	0.103431
1386	0.0432294
1398	0.0288679
1410	0.0226301
1422	0.0320594
1434	0.0295933
1446	0.0394577
1458	0.0590415
1470	0.103431
1482	0.433599
1494	0.788138
1506	0.188149
1518	0.151448
1530	0.314211
1542	0.392401
1554	0.230943
1566	0.127512
1578	0.339742
1590	0.528327
1602	0.208458
1614	0.153479
1626	0.0678904
1638	0.0264018
1650	0.0184233
1662	0.0162473
1674	0.0147966
1686	0.0146516
1698	0.0143614
1710	0.00725325
1722	0.00884897
1734	0.013346
1746	0.00957429
1758	0.00899403
1770	0.015522
1782	0.0113151
1794	0.00551247
1806	0.0033365
1818	0.00101545
1830	0.00377169
1842	0.0053674
1854	0.00362662
1866	0.00739831
1878	0.00696312
1890	0.00696312
1902	0.00971935
1914	0.0130558
1926	0.0087039
1938	0.00768844
1950	0.00696312
1962	0.00377169
1974	0.00348156
1986	0.00449702
1998	0.00696312
2010	0.00652792
2022	0.00710818
2034	0.0107348
2046	0.0101546
2058	0.00464208
2070	0.00493221
2082	0.0029013
2094	0.00188584
2106	0.00261117
2118	0.00261117
2130	0.00101545
2142	0.000725325
2154	0.000145065
2166	0.00058026
2178	0.00029013
2190	0.000145065
2202	0.000145065
2214	0.00145065
2226	0.00174078
2238	0.00145065
2250	0.00159571
2262	0.00145065
2274	0.00275624
2286	0.00362662
2298	0.00478714
2310	0.00667299
2322	0.00754338
2334	0.00565753
2346	0.00812364
2358	0.00710818
2370	0.00667299
2382	0.00884897
2394	0.00609273
2406	0.00710818
2418	0.00768844
2430	0.00884897
2442	0.0129108
2454	0.0110249
2466	0.00841377
2478	0.00768844
2490	0.00594766
2502	0.00362662
2514	0.0029013
2526	0.00275624
2538	0.0029013
2550	0.0033365
2562	0.00362662
2574	0.00449702
2586	0.00435195
2598	0.00493221
2610	0.0058026
2622	0.00464208
2634	0.00391676
2646	0.00391676
2658	0.00232104
2670	0.0024661
2682	0.0024661
2694	0.00348156
2706	0.00319143
2718	0.00275624
2730	0.00261117
2742	0.00275624
2754	0.00203091
2766	0.00217598
2778	0.00261117
2790	0.00217598
2802	0.0024661
2814	0.00232104
2826	0.00362662
2838	0.0053674
2850	0.00652792
2862	0.00797857
2874	0.00884897
2886	0.0082687
2898	0.00739831
2910	0.00565753
2922	0.00551247
2934	0.0053674
2946	0.0058026
2958	0.00464208
2970	0.00420688
2982	0.0029013
2994	0.00319143
3006	0.00406182
3018	0.00913909
3030	0.0150868
3042	0.0291581
3054	0.0342353
3066	0.0310439
3078	0.0532389
3090	0.0588964
3102	0.0278525
3114	0.0126207
3126	0.00435195
3138	0.00232104
3150	0.00174078
3162	0.00159571
3174	0.00261117
3186	0.00232104
3198	0.00319143
3210	0.0033365
3222	0.00449702
3234	0.00275624
3246	0.00217598
3258	0.00217598
3270	0.00159571
3282	0.0024661
3294	0.00261117
3306	0.0033365
3318	0.00174078
3330	0.0024661
3342	0.00377169
3354	0.00319143
3366	0.00275624
3378	0.00275624
3390	0.00188584
3402	0.00275624
3414	0.0024661
3426	0.00348156
3438	0.00232104
3450	0.00261117
3462	0.00203091
3474	0.00217598
3486	0.00232104
3498	0.0024661
3510	0.00362662
3522	0.00130558
3534	0.00362662
3546	0.0024661
3558	0.00232104
3570	0.00261117
3582	0.00435195
3594	0.0024661
3606	0.00348156
3618	0.00275624
3630	0.00391676
3642	0.0029013
3654	0.00275624
3666	0.00435195
3678	0.00362662
3690	0.00261117
3702	0.00638286
3714	0.00362662
3726	0.00406182
3738	0.00188584
3750	0.00507728
3762	0.00420688
3774	0.00478714
3786	0.00406182
3798	0.00319143
3810	0.00507728
3822	0.0029013
3834	0.0053674
3846	0.00362662
3858	0.00449702
3870	0.00638286
3882	0.00232104
3894	0.00377169
3906	0.00464208
3918	0.00377169
3930	0.00507728
3942	0.00464208
3954	0.00464208
3966	0.0029013
