Infrared Spectrum: Benzenemethanol, 3-hydroxy-
Formula: C 7 H 8 O 2
CAS: 620-24-6
Origin: Sadtler Research Labs Under US-EPA Contract
1/CM	ABSORBANCE
450	0.0749437
462	0.038954
474	0.0146279
486	0.00238428
498	0.0144668
510	0.0256793
522	0.0491677
534	0.042176
546	0.0444314
558	0.0197831
570	0.0322522
582	0.0140801
594	0.0279992
606	0.00199764
618	0.0109226
630	0.0129202
642	0.00876384
654	0.0049941
666	0.0113414
678	0.0519709
690	0.0988832
702	0.0593492
714	0.0273548
726	0.0401139
738	0.0708518
750	0.101751
762	0.0957256
774	0.14035
786	0.111642
798	0.044818
810	0.0113737
822	0.00702396
834	0.0178177
846	0.0444314
858	0.0413383
870	0.0495544
882	0.044528
894	0.034862
906	0.0473312
918	0.0826765
930	0.0984321
942	0.0562239
954	0.0456235
966	0.0556439
978	0.0673076
990	0.079229
1002	0.114607
1014	0.150435
1026	0.188874
1038	0.170605
1050	0.118344
1062	0.0855763
1074	0.0651811
1086	0.0431426
1098	0.0304801
1110	0.0299968
1122	0.0498443
1134	0.124144
1146	0.256729
1158	0.286178
1170	0.247127
1182	0.297552
1194	0.314338
1206	0.227505
1218	0.110933
1230	0.0761359
1242	0.0788746
1254	0.122533
1266	0.223993
1278	0.27474
1290	0.205886
1302	0.144442
1314	0.108549
1326	0.0704007
1338	0.0549351
1350	0.045688
1362	0.0588982
1374	0.0936313
1386	0.106262
1398	0.0758459
1410	0.0495544
1422	0.0428204
1434	0.0586726
1446	0.132585
1458	0.186328
1470	0.148276
1482	0.126979
1494	0.0975299
1506	0.0506176
1518	0.0236495
1530	0.0180754
1542	0.019912
1554	0.0178499
1566	0.0326066
1578	0.0953712
1590	0.213103
1602	0.286726
1614	0.211879
1626	0.0923103
1638	0.0264848
1650	0.0120825
1662	0.00331866
1674	0.00750726
1686	0.00944046
1698	0.00960156
1710	0.0108904
1722	0.0197509
1734	0.0209752
1746	0.0145312
1758	0.0218774
1770	0.0136935
1782	0.0049941
1794	0.00399528
1806	0.004833
1818	0.00476856
1830	0.00637956
1842	0.00557406
1854	0.00315756
1866	0.00312534
1878	0.001611
1890	0.003222
1902	0.00509076
1914	0.00766836
1926	0.0085383
1938	0.00470412
1950	0.00138546
1962	0.0009666
1974	0.00099882
1986	0.00148212
1998	0.00212652
2010	0.0025776
2022	0.0035442
2034	0.00335088
2046	0.00277092
2058	0.00270648
2070	0.00260982
2082	0.00235206
2094	0.00199764
2106	0.00122436
2118	0.00077328
2130	0.00019332
2142	0.0001611
2154	0.0003222
2166	0.0009666
2178	0.00074106
2190	0.0012888
2202	0.00135324
2214	0.00086994
2226	0.0006444
2238	0.00035442
2250	0.00022554
2262	0.00022554
2274	0.00067662
2286	0.00125658
2298	0.00277092
2310	0.00409194
2322	0.00518742
2334	0.00589626
2346	0.00695952
2358	0.00583182
2370	0.00476856
2382	0.00476856
2394	0.0028998
2406	0.0038664
2418	0.0041886
2430	0.00438192
2442	0.00351198
2454	0.00409194
2466	0.00373752
2478	0.00393084
2490	0.00335088
2502	0.00244872
2514	0.00186876
2526	0.0019332
2538	0.00212652
2550	0.0024165
2562	0.00190098
2574	0.00154656
2586	0.001611
2598	0.00199764
2610	0.00212652
2622	0.00283536
2634	0.00212652
2646	0.00157878
2658	0.00196542
2670	0.00196542
2682	0.00215874
2694	0.00248094
2706	0.00312534
2718	0.0051552
2730	0.00673398
2742	0.00641178
2754	0.00615402
2766	0.00654066
2778	0.00744282
2790	0.0086994
2802	0.0109548
2814	0.0136935
2826	0.0172377
2838	0.0237784
2850	0.0332833
2862	0.0474278
2874	0.0687575
2886	0.0860274
2898	0.0796156
2910	0.0709807
2922	0.0718184
2934	0.0726883
2946	0.0656321
2958	0.0548384
2970	0.0406616
2982	0.0267104
2994	0.0197509
3006	0.0236173
3018	0.039244
3030	0.0561272
3042	0.0721406
3054	0.0735583
3066	0.0583182
3078	0.0460102
3090	0.0316078
3102	0.0197509
3114	0.0117925
3126	0.00625068
3138	0.00260982
3150	0.00141768
3162	0.00054774
3174	0.00115992
3186	0.00057996
3198	0.0003222
3210	0.00135324
3222	0.00057996
3234	0.00093438
3246	0.0011277
3258	0.00051552
3270	0.00115992
3282	0.001611
3294	0.00141768
3306	0.00122436
3318	0.00138546
3330	0.00238428
3342	0.00328644
3354	0.00248094
3366	0.0019332
3378	0.00251316
3390	0.00235206
3402	0.00347976
3414	0.0025776
3426	0.0028998
3438	0.00267426
3450	0.00202986
3462	0.00293202
3474	0.0019332
3486	0.00219096
3498	0.00122436
3510	0.00122436
3522	0.0030609
3534	0.00170766
3546	0.00309312
3558	0.00019332
3570	0.008055
3582	0.006444
3594	0.006444
3606	0.0046719
3618	0.0138546
3630	0.0492966
3642	0.184846
3654	0.278284
3666	0.155429
3678	0.0359253
3690	0.0154334
3702	0.00824832
3714	0.00505854
3726	0.0020943
3738	0.00180432
3750	0.00183654
3762	6.444e-05
3774	6.444e-05
3786	6.444e-05
3798	0.00067662
3810	0.00157878
3822	0.00106326
3834	0.00351198
3846	0.00115992
3858	0.00270648
3870	0.00331866
3882	0.00119214
3894	0.00196542
3906	0.00315756
3918	0.0061218
3930	0.00318978
3942	0.00157878
3954	0.00206208
3966	0.0051552
