Infrared Spectrum: Benzaldehyde, 3-methyl-
Formula: C 8 H 8 O
CAS: 620-23-5
Origin: Sadtler Research Labs Under US-EPA Contract
1/CM	ABSORBANCE
450	0.00958027
462	0
474	0.00650967
486	0.00429884
498	0.0025793
510	0.00368472
522	0.00994874
534	0.00417602
546	0.00380754
558	0.00233366
570	0.00282495
582	0.00503578
594	0.00601838
606	0.00626402
618	0.00798356
630	0.0101944
642	0.0528143
654	0.0993646
666	0.0632544
678	0.0626402
690	0.0859768
702	0.0469188
714	0.012528
726	0.0266528
738	0.0713607
750	0.0838888
762	0.123684
774	0.241963
786	0.210889
798	0.0621489
810	0.0148617
822	0.00650967
834	0.0056499
846	0.00638685
858	0.0066325
870	0.0124052
882	0.0217398
894	0.0305832
906	0.0380754
918	0.035619
930	0.0399178
942	0.0315658
954	0.0097031
966	0.00712379
978	0.0106857
990	0.0197747
1002	0.0254246
1014	0.0142476
1026	0.0103172
1038	0.0149845
1050	0.0198975
1062	0.017441
1074	0.0207573
1086	0.0318114
1098	0.0259159
1110	0.0157215
1122	0.0196518
1134	0.107471
1146	0.20094
1158	0.12221
1170	0.0385667
1182	0.0138791
1194	0.0128965
1206	0.012528
1218	0.0116683
1230	0.0426199
1242	0.173182
1254	0.166672
1266	0.0350048
1278	0.0534284
1290	0.0832747
1302	0.061412
1314	0.0260387
1326	0.0127737
1338	0.0116683
1350	0.0146161
1362	0.0227224
1374	0.0578501
1386	0.0915039
1398	0.0576045
1410	0.0288636
1422	0.0305832
1434	0.0404091
1446	0.050235
1458	0.0504807
1470	0.0493752
1482	0.0595696
1494	0.0482698
1506	0.0268985
1518	0.0176867
1530	0.0158443
1542	0.0185464
1554	0.0138791
1566	0.0173182
1578	0.0491296
1590	0.109436
1602	0.116192
1614	0.0880648
1626	0.0362331
1638	0.0158443
1650	0.0201431
1662	0.0413917
1674	0.058587
1686	0.0685358
1698	0.0707466
1710	0.407039
1722	1.17321
1734	0.593363
1746	0.0615348
1758	0.0229681
1770	0.0162128
1782	0.0105629
1794	0.0146161
1806	0.0169497
1818	0.0165812
1830	0.0136335
1842	0.00675532
1854	0.00601838
1866	0.00958027
1878	0.0114226
1890	0.0126509
1902	0.0106857
1914	0.00687814
1926	0.00638685
1938	0.00761509
1950	0.00798356
1962	0.00540426
1974	0.00319342
1986	0.00221083
1998	0.00147389
2010	0.00159671
2022	0.00159671
2034	0.000982592
2046	0.000982592
2058	0.00245648
2070	0.00270213
2082	0.00159671
2094	0.000368472
2106	0
2118	0.000122824
2130	0.000736944
2142	0.00110542
2154	0.00184236
2166	0.00270213
2178	0.00122824
2190	0.000491296
2202	0.000368472
2214	0.000368472
2226	0
2238	0.000368472
2250	0.000736944
2262	0.000368472
2274	0.00110542
2286	0.00147389
2298	0.00110542
2310	0.00159671
2322	0.00221083
2334	0.00270213
2346	0.0025793
2358	0.00171954
2370	0.0025793
2382	0.00282495
2394	0.00221083
2406	0.00184236
2418	0.00171954
2430	0.00196518
2442	0.00171954
2454	0.00122824
2466	0.00122824
2478	0.00135106
2490	0.00221083
2502	0.00208801
2514	0.00184236
2526	0.0025793
2538	0.00319342
2550	0.00245648
2562	0.00245648
2574	0.0030706
2586	0.0035619
2598	0.00417602
2610	0.00601838
2622	0.00810638
2634	0.00798356
2646	0.00650967
2658	0.0087205
2670	0.0131422
2682	0.0144932
2694	0.0235822
2706	0.0945745
2718	0.229435
2730	0.192588
2742	0.0503578
2754	0.0305832
2766	0.0445851
2778	0.0880648
2790	0.12614
2802	0.17613
2814	0.18006
2826	0.122456
2838	0.0714836
2850	0.0443395
2862	0.0423743
2874	0.055148
2886	0.0605522
2898	0.0563762
2910	0.0589555
2922	0.0787302
2934	0.111524
2946	0.100961
2958	0.0647282
2970	0.0455677
2982	0.0424971
2994	0.0466731
3006	0.059324
3018	0.0808182
3030	0.104892
3042	0.104769
3054	0.0821693
3066	0.0873279
3078	0.0730803
3090	0.0393037
3102	0.0296006
3114	0.020266
3126	0.00798356
3138	0.00380754
3150	0.00270213
3162	0.00270213
3174	0.00294778
3186	0.00294778
3198	0.00393037
3210	0.00319342
3222	0.00184236
3234	0.00171954
3246	0.00184236
3258	0.00171954
3270	0.00171954
3282	0.00147389
3294	0.00147389
3306	0.00196518
3318	0.00208801
3330	0.00171954
3342	0.00147389
3354	0.00135106
3366	0.00184236
3378	0.00245648
3390	0.00454449
3402	0.00687814
3414	0.0100716
3426	0.0183008
3438	0.0120368
3450	0.00159671
3462	0.00061412
3474	0.00171954
3486	0.00159671
3498	0.00122824
3510	0.00061412
3522	0.00110542
3534	0.00122824
3546	0.000859768
3558	0.00147389
3570	0.00135106
3582	0.0025793
3594	0.00233366
3606	0.000736944
3618	0.00061412
3630	0.00184236
3642	0.00122824
3654	0.00061412
3666	0.00135106
3678	0.00331625
3690	0.00196518
3702	0.00171954
3714	0.00171954
3726	0.00110542
3738	0.00196518
3750	0.0025793
3762	0.00208801
3774	0.00171954
3786	0.00159671
3798	0.00159671
3810	0.00221083
3822	0.00233366
3834	0.00208801
3846	0.00221083
3858	0.00196518
3870	0.00270213
3882	0.00135106
3894	0.00208801
3906	0.00122824
3918	0.000491296
3930	0.00135106
3942	0.00233366
3954	0.00208801
3966	0.00147389
