Infrared Spectrum: Ethane, 2-chloro-1,1-diethoxy-
Formula: C 6 H 13 Cl O 2
CAS: 621-62-5
Origin: Sadtler Research Labs Under US-EPA Contract
1/CM	ABSORBANCE
450	0.0176335
462	0.00929192
474	0.00269254
486	0.014941
498	0.00570186
510	0.0135155
522	0.0101366
534	0.0214876
546	0.0109814
558	0.00892235
570	0.0111397
582	0.0105062
594	0.00712732
606	0.00818323
618	0.00696894
630	0.00749689
642	0.00791925
654	0.0095031
666	0.00976708
678	0.00770807
690	0.00649379
702	0.00818323
714	0.00971428
726	0.0116677
738	0.0119845
750	0.0253944
762	0.0801428
774	0.107807
786	0.042764
798	0.027823
810	0.0225963
822	0.0241273
834	0.0177919
846	0.0155745
858	0.0110869
870	0.0120373
882	0.0192702
894	0.0266615
906	0.0213292
918	0.0189006
930	0.0169472
942	0.0127764
954	0.0143074
966	0.0169472
978	0.0264503
990	0.051
1002	0.0829937
1014	0.120109
1026	0.141279
1038	0.152261
1050	0.248506
1062	0.44332
1074	0.522829
1086	0.38514
1098	0.280658
1110	0.256109
1122	0.303941
1134	0.340739
1146	0.28731
1158	0.189534
1170	0.123699
1182	0.0853695
1194	0.0787701
1206	0.0910714
1218	0.0726987
1230	0.046882
1242	0.0364285
1254	0.0459844
1266	0.0391739
1278	0.0256584
1290	0.0268199
1302	0.0308323
1314	0.0302515
1326	0.0361118
1338	0.0691087
1350	0.0875341
1362	0.0643571
1374	0.078559
1386	0.0802484
1398	0.0570186
1410	0.0428167
1422	0.0327857
1434	0.0544316
1446	0.0564379
1458	0.0375372
1470	0.0242329
1482	0.0235466
1494	0.0175279
1506	0.0115093
1518	0.00976708
1530	0.00823602
1542	0.00749689
1554	0.00702173
1566	0.00712732
1578	0.00564906
1590	0.00691614
1602	0.00675776
1614	0.00707453
1626	0.00718012
1638	0.0084472
1650	0.00855279
1662	0.0084472
1674	0.00791925
1686	0.00718012
1698	0.00718012
1710	0.00834161
1722	0.00860558
1734	0.0146242
1746	0.0205373
1758	0.023705
1770	0.0153105
1782	0.0112981
1794	0.00881676
1806	0.00749689
1818	0.00781366
1830	0.0073385
1842	0.00786645
1854	0.00776086
1866	0.00818323
1878	0.00865838
1890	0.00908074
1902	0.00923912
1914	0.00992546
1926	0.00976708
1938	0.00987266
1950	0.0107702
1962	0.010823
1974	0.0102422
1986	0.00876397
1998	0.00776086
2010	0.00654658
2022	0.00591304
2034	0.0052795
2046	0.00469875
2058	0.00432919
2070	0.00517391
2082	0.00575466
2094	0.0063882
2106	0.00728571
2118	0.00712732
2130	0.00691614
2142	0.00749689
2154	0.00707453
2166	0.00760248
2178	0.00744409
2190	0.00718012
2202	0.0063354
2214	0.00601863
2226	0.00570186
2238	0.00596584
2250	0.00564906
2262	0.00612422
2274	0.00575466
2286	0.00580745
2298	0.00702173
2310	0.00744409
2322	0.00876397
2334	0.00564906
2346	0.00227019
2358	0.00818323
2370	0.000158385
2382	0.000158385
2394	0.00337888
2406	0.00364285
2418	0.0031677
2430	0.0031677
2442	0.0031677
2454	0.00253416
2466	0.00285093
2478	0.0021646
2490	0.00184782
2502	0.00153105
2514	0.0011087
2526	0.000686335
2538	0.000475155
2550	0.000897515
2562	0.00095031
2574	0.00063354
2586	0.000791925
2598	0.00221739
2610	0.00300931
2622	0.00353726
2634	0.00411801
2646	0.00649379
2658	0.00580745
2670	0.00533229
2682	0.00469875
2694	0.00464596
2706	0.00496273
2718	0.00570186
2730	0.00707453
2742	0.00876397
2754	0.0108758
2766	0.0111925
2778	0.0135683
2790	0.0162081
2802	0.0183727
2814	0.0199565
2826	0.0215932
2838	0.0266087
2850	0.0401242
2862	0.0660465
2874	0.108652
2886	0.142388
2898	0.122907
2910	0.124543
2922	0.142969
2934	0.134574
2946	0.136686
2958	0.100891
2970	0.13014
2982	0.249456
2994	0.199776
3006	0.0646739
3018	0.0441894
3030	0.0329969
3042	0.0157857
3054	0.00981987
3066	0.00797205
3078	0.00617702
3090	0.00443478
3102	0.00374844
3114	0.00380124
3126	0.0042236
3138	0.00348447
3150	0.00443478
3162	0.00390683
3174	0.00480434
3186	0.00464596
3198	0.00432919
3210	0.00438198
3222	0.00485714
3234	0.0041708
3246	0.00290372
3258	0.00258695
3270	0.00195342
3282	0.0031149
3294	0.00179503
3306	0.00269254
3318	0.0021646
3330	0.00237578
3342	0.00131987
3354	0.00200621
3366	0.00142546
3378	0.00131987
3390	0.00131987
3402	0.0010559
3414	0.00263975
3426	0.00263975
3438	0.00290372
3450	0.00227019
3462	0.00274534
3474	0.00279813
3486	0.00279813
3498	0.00406521
3510	0.00263975
3522	0.00248137
3534	0.00274534
3546	0.00406521
3558	0.00469875
3570	0.0021646
3582	0.00427639
3594	0.00205901
3606	0.00269254
3618	0.00374844
3630	0.00343167
3642	0.00179503
3654	0.00343167
3666	0.00332608
3678	0.00322049
3690	0.00580745
3702	0.00153105
3714	0.00100311
3726	0.00248137
3738	0.00010559
3750	0.00174223
3762	0.000475155
3774	0.00274534
3786	0.000580745
3798	0.00269254
3810	0.0010559
3822	0.00263975
3834	0.00242857
3846	0.00116149
3858	0.000369565
3870	0.0010559
3882	0.000158385
3894	0.00084472
3906	0.00232298
3918	0.00543788
3930	0.00137267
3942	0.00496273
3954	0
3966	0.000158385
