Infrared Spectrum: 1-Propanamine, N-nitroso-N-propyl-
Formula: C 6 H 14 N 2 O
CAS: 621-64-7
Origin: Sadtler Research Labs Under US-EPA Contract
1/CM	ABSORBANCE
450	0.00819795
462	0.0033806
474	0.00912762
486	0.0110715
498	0.0130998
510	0.0130998
522	0.0206217
534	0.0168185
546	0.0119166
558	0.00963471
570	0.0115786
582	0.00997277
594	0.0104799
606	0.00929665
618	0.0078599
630	0.00938117
642	0.011325
654	0.0114095
666	0.00836699
678	0.00667668
690	0.00760635
702	0.0118321
714	0.0140295
726	0.0128463
738	0.019861
750	0.0314396
762	0.022481
774	0.0151282
786	0.0241713
798	0.0260306
810	0.0140295
822	0.0136069
834	0.0257771
846	0.0292422
858	0.031186
870	0.0447084
882	0.0775848
894	0.102855
906	0.121702
918	0.117814
930	0.0491032
942	0.0149592
954	0.00473284
966	0.00152127
978	0.00853601
990	0.0208752
1002	0.0490187
1014	0.127449
1026	0.289548
1038	0.500329
1050	0.581125
1062	0.365781
1074	0.157282
1086	0.0961781
1098	0.0739506
1110	0.053329
1122	0.0333834
1134	0.0233261
1146	0.0216358
1158	0.0298338
1170	0.0742887
1182	0.198103
1194	0.254897
1206	0.138267
1218	0.0769086
1230	0.0420885
1242	0.0214668
1254	0.0319467
1266	0.0607663
1278	0.105475
1290	0.138774
1302	0.17427
1314	0.20554
1326	0.21171
1338	0.21864
1350	0.241966
1362	0.248559
1374	0.168776
1386	0.121279
1398	0.0952484
1410	0.0645695
1422	0.0889098
1434	0.119251
1446	0.143506
1458	0.218302
1470	0.44269
1482	0.772383
1494	0.568025
1506	0.151366
1518	0.0482581
1530	0.0298338
1542	0.0218049
1554	0.0155508
1566	0.0119166
1578	0.0104799
1590	0.00760635
1602	0.00709926
1614	0.00600057
1626	0.00422575
1638	0.00414124
1650	0.00414124
1662	0.00371866
1674	0.00405672
1686	0.00498639
1698	0.0033806
1710	0.00397221
1722	0.00304254
1734	0.00321157
1746	0.00397221
1758	0.00405672
1770	0.00363415
1782	0.00295802
1794	0.0022819
1806	0.00261997
1818	0.00236642
1830	0.00236642
1842	0.00194385
1854	0.00194385
1866	0.00143676
1878	0.00202836
1890	0.00177481
1902	0.00185933
1914	0.0022819
1926	0.00270448
1938	0.00253545
1950	0.00287351
1962	0.00219739
1974	0.0016903
1986	0.00135224
1998	0.00101418
2010	0.00084515
2022	0.0016903
2034	0.00126772
2046	0.00194385
2058	0.00253545
2070	0.00261997
2082	0.00253545
2094	0.00219739
2106	0.0016903
2118	0.00143676
2130	0.00135224
2142	0.000929665
2154	0.000760635
2166	0.000760635
2178	0.00126772
2190	0.00160578
2202	0.00211288
2214	0.00219739
2226	0.00261997
2238	0.00211288
2250	0.0016903
2262	0.00143676
2274	0.00101418
2286	0.00118321
2298	0.00101418
2310	0.00084515
2322	0.00033806
2334	0.00033806
2346	0.00067612
2358	0.00101418
2370	0.00126772
2382	0.00177481
2394	0.00253545
2406	0.00278899
2418	0.00219739
2430	0.00126772
2442	0.00016903
2454	0.00050709
2466	0.00118321
2478	0.0016903
2490	0.00202836
2502	0.00236642
2514	0.00245094
2526	0.00346511
2538	0.00354963
2550	0.00304254
2562	0.00219739
2574	0.00194385
2586	0.00160578
2598	0.0016903
2610	0.00143676
2622	0.000929665
2634	0.00202836
2646	0.00321157
2658	0.00397221
2670	0.00490187
2682	0.00490187
2694	0.0056625
2706	0.00591605
2718	0.00684571
2730	0.00929665
2742	0.0126772
2754	0.0147056
2766	0.0141985
2778	0.0141985
2790	0.0155508
2802	0.0184243
2814	0.0216358
2826	0.0269603
2838	0.0357498
2850	0.0489342
2862	0.081895
2874	0.159902
2886	0.277294
2898	0.248812
2910	0.207991
2922	0.282703
2934	0.41649
2946	0.461029
2958	0.373134
2970	0.59076
2982	0.725223
2994	0.254982
3006	0.0767396
3018	0.0485116
3030	0.036764
3042	0.0276364
3054	0.0213823
3066	0.0154662
3078	0.0125927
3090	0.0106489
3102	0.00946568
3114	0.00862053
3126	0.0084515
3138	0.00709926
3150	0.00701475
3162	0.00625411
3174	0.00701475
3186	0.00667668
3198	0.00557799
3210	0.00498639
3222	0.00414124
3234	0.00329608
3246	0.00304254
3258	0.00321157
3270	0.00261997
3282	0.00245094
3294	0.00278899
3306	0.00236642
3318	0.00287351
3330	0.00270448
3342	0.00354963
3354	0.00388769
3366	0.00278899
3378	0.00321157
3390	0.00363415
3402	0.00245094
3414	0.00304254
3426	0.00270448
3438	0.00236642
3450	0.00304254
3462	0.00253545
3474	0.0022819
3486	0.00245094
3498	0.00126772
3510	0.00245094
3522	0.00219739
3534	0.00185933
3546	0.0022819
3558	0.0010987
3570	0.00219739
3582	0.00152127
3594	0.00202836
3606	0.00177481
3618	0.00177481
3630	0
3642	0.00219739
3654	0.00160578
3666	0.00135224
3678	0.00033806
3690	0.00219739
3702	0.00253545
3714	0.0016903
3726	0.00135224
3738	0.00253545
3750	0.00312706
3762	0.00295802
3774	0.00312706
3786	0.00278899
3798	0.00380317
3810	0.00287351
3822	0.00278899
3834	0.00245094
3846	0.00202836
3858	0.00084515
3870	0.0010987
3882	0.00143676
3894	0.00050709
3906	0.00185933
3918	0.00236642
3930	0.000591605
3942	0.00143676
3954	0.0016903
3966	0.00295802
