Infrared Spectrum: m-Tolylacetic acid
Formula: C 9 H 10 O 2
CAS: 621-36-3
Origin: Sadtler Research Labs Under US-EPA Contract
1/CM	ABSORBANCE
450	0.0160667
462	0.0129402
474	0.0165009
486	0.0301359
498	0.0277042
510	0.0345651
522	0.0542794
534	0.0324808
546	0.0121586
558	0.0238829
570	0.0633115
582	0.238656
594	0.368752
606	0.226323
618	0.182031
630	0.128012
642	0.0869338
654	0.0519345
666	0.0397759
678	0.0610534
690	0.136784
702	0.162578
714	0.0684354
726	0.0237961
738	0.0322202
750	0.0836337
762	0.135568
774	0.0821573
786	0.0484606
798	0.0172826
810	0.00225802
822	0
834	0.00121586
846	0.00451604
858	0.0104216
870	0.0169352
882	0.0184984
894	0.0168483
906	0.0188458
918	0.0168483
930	0.0155456
942	0.0189326
954	0.0148508
966	0.00877155
978	0.00625298
990	0.0072083
1002	0.00816362
1014	0.00364757
1026	0.00547136
1038	0.011377
1050	0.023275
1062	0.0447262
1074	0.0950106
1086	0.219028
1098	0.450302
1110	0.779712
1122	0.676104
1134	0.344869
1146	0.208172
1158	0.128099
1170	0.103695
1182	0.101698
1194	0.115593
1206	0.144079
1218	0.15233
1230	0.109254
1242	0.0730383
1254	0.0620956
1266	0.0548873
1278	0.0581875
1290	0.0681749
1302	0.0732989
1314	0.0665248
1326	0.0649616
1338	0.0992661
1350	0.147379
1362	0.137392
1374	0.102653
1386	0.068088
1398	0.043163
1410	0.0369968
1422	0.0464631
1434	0.0633115
1446	0.0655695
1458	0.0459421
1470	0.0378653
1482	0.0587086
1494	0.0841547
1506	0.0517608
1518	0.0267489
1530	0.0242303
1542	0.0183247
1554	0.0122454
1566	0.0137218
1578	0.0257936
1590	0.0457684
1602	0.0898866
1614	0.117157
1626	0.0296148
1638	0.00677407
1650	0.00521082
1662	0.00642668
1674	0.00981371
1686	0.0148508
1698	0.0222328
1710	0.0341309
1722	0.0617482
1734	0.11542
1746	0.228929
1758	0.422163
1770	0.692692
1782	0.86847
1794	0.641973
1806	0.35642
1818	0.140171
1830	0.0541925
1842	0.0291806
1854	0.019888
1866	0.0132876
1878	0.0104216
1890	0.00798992
1902	0.00616614
1914	0.00599244
1926	0.00877155
1938	0.00990056
1950	0.00512397
1962	0.00356073
1974	0.00382127
1986	0.00338703
1998	0.0027791
2010	0.0027791
2022	0.00251856
2034	0.00191063
2046	0.0014764
2058	0.000694776
2070	0.000347388
2082	0.000434235
2094	0.000347388
2106	0.000607929
2118	0.00225802
2130	0.00260541
2142	0.00112901
2154	0.00086847
2166	0.000955317
2178	0.00138955
2190	0.00173694
2202	0.00269226
2214	0.00338703
2226	0.0029528
2238	0.00217118
2250	0.00138955
2262	0.000955317
2274	0.0014764
2286	0.00199748
2298	0.00399496
2310	0.0057319
2322	0.00625298
2334	0.0057319
2346	0.00677407
2358	0.00512397
2370	0.00486343
2382	0.00503713
2394	0.00191063
2406	0.00182379
2418	0.00165009
2430	0.00165009
2442	0.0014764
2454	0.00173694
2466	0.00156325
2478	0.00165009
2490	0.00112901
2502	0.000434235
2514	0.000260541
2526	0.000434235
2538	0.000434235
2550	0.000347388
2562	0
2574	0
2586	0.000434235
2598	0.000521082
2610	0.000521082
2622	0.000607929
2634	0.000781623
2646	0.000781623
2658	0.00086847
2670	0.000781623
2682	0.000955317
2694	0.000955317
2706	0.00112901
2718	0.00225802
2730	0.00347388
2742	0.00538451
2754	0.00434235
2766	0.00165009
2778	0.00182379
2790	0.00234487
2802	0.00330019
2814	0.00503713
2826	0.00755569
2838	0.0117243
2850	0.0190195
2862	0.0321334
2874	0.0504581
2886	0.0522819
2898	0.0498502
2910	0.0646142
2922	0.102653
2934	0.139042
2946	0.112206
2958	0.0724304
2970	0.0522819
2982	0.0491554
2994	0.0578401
3006	0.0652221
3018	0.0923184
3030	0.144948
3042	0.142342
3054	0.107777
3066	0.104998
3078	0.0692171
3090	0.0354336
3102	0.0258804
3114	0.0207564
3126	0.0105085
3138	0.00503713
3150	0.00330019
3162	0.00243172
3174	0.00234487
3186	0.00182379
3198	0.00182379
3210	0.00130271
3222	0.00121586
3234	0.000955317
3246	0.00104216
3258	0.00086847
3270	0.00086847
3282	0.00086847
3294	0.000434235
3306	0.000781623
3318	0.00086847
3330	0.00121586
3342	0.00104216
3354	0.000781623
3366	0.00086847
3378	0.000955317
3390	0.000694776
3402	0.00086847
3414	0.00104216
3426	0.0014764
3438	0.00130271
3450	0.00138955
3462	0.00243172
3474	0.00182379
3486	0.0029528
3498	0.00382127
3510	0.00555821
3522	0.00911893
3534	0.0146771
3546	0.0323071
3558	0.0691302
3570	0.305528
3582	0.325329
3594	0.062443
3606	0.0209301
3618	0.0086847
3630	0.00755569
3642	0.0027791
3654	0.00399496
3666	0.00191063
3678	0.00338703
3690	0.00303965
3702	0.00234487
3714	0.00312649
3726	0.00434235
3738	0.00408181
3750	0.00538451
3762	0.00217118
3774	0.00121586
3786	0.00165009
3798	0.00286595
3810	0.00199748
3822	0.00364757
3834	0.00364757
3846	0.00208433
3858	0.00460289
3870	0.00460289
3882	0.00451604
3894	0.00234487
3906	0.00547136
3918	0.00321334
3930	0.00286595
3942	0.00191063
3954	0.00173694
3966	0.00173694
