Infrared Spectrum: 2-Propenoic acid, 3-phenyl-
Formula: C 9 H 8 O 2
CAS: 621-82-9
Origin: Sadtler Research Labs Under US-EPA Contract
1/CM	ABSORBANCE
450	0.010001
462	0.0120012
474	0.0184564
486	0.0224567
498	0.0351853
510	0.0603696
522	0.087645
534	0.105192
546	0.13765
558	0.274118
570	0.251479
582	0.128013
594	0.0566419
606	0.037731
618	0.0319122
630	0.0350943
642	0.0651882
654	0.0932819
666	0.0941001
678	0.104738
690	0.113466
702	0.0730072
714	0.0376401
726	0.029912
738	0.0456408
750	0.0984642
762	0.153742
774	0.0974641
786	0.0369127
798	0.0133649
810	0.0167289
822	0.0260025
834	0.0344579
846	0.0335487
858	0.0452772
870	0.0547326
882	0.0472774
894	0.0501867
906	0.0457318
918	0.0318213
930	0.0384583
942	0.0506413
954	0.0551872
966	0.0791896
978	0.123558
990	0.0936455
1002	0.0528234
1014	0.025457
1026	0.0236387
1038	0.022184
1050	0.0289119
1062	0.0456408
1074	0.0608241
1086	0.079826
1098	0.156743
1110	0.475956
1122	0.758256
1134	0.342215
1146	0.296029
1158	0.377401
1170	0.16047
1182	0.0947366
1194	0.0948275
1206	0.0803715
1218	0.058733
1230	0.0684613
1242	0.0744618
1254	0.0837355
1266	0.101192
1278	0.102101
1290	0.103647
1302	0.0791896
1314	0.0897361
1326	0.101192
1338	0.120648
1350	0.167289
1362	0.242933
1374	0.149287
1386	0.0545508
1398	0.039913
1410	0.0340942
1422	0.0307303
1434	0.034367
1446	0.0575511
1458	0.0586421
1470	0.0309121
1482	0.0304575
1494	0.0613696
1506	0.0449135
1518	0.0245479
1530	0.0233659
1542	0.024366
1554	0.022184
1566	0.0260935
1578	0.0457318
1590	0.0370945
1602	0.0320031
1614	0.0414586
1626	0.0862812
1638	0.24657
1650	0.209657
1662	0.0705524
1674	0.0550963
1686	0.0462773
1698	0.0505504
1710	0.0750074
1722	0.116011
1734	0.20602
1746	0.560782
1758	0.901634
1770	0.387856
1782	0.193383
1794	0.142741
1806	0.0783713
1818	0.0407313
1830	0.0324577
1842	0.0289119
1854	0.0296393
1866	0.0280027
1878	0.0279118
1890	0.0273663
1902	0.0233659
1914	0.0210021
1926	0.0214566
1938	0.0242751
1950	0.0274572
1962	0.0265481
1974	0.0228204
1986	0.0208202
1998	0.0195474
2010	0.0179108
2022	0.0180018
2034	0.0189109
2046	0.0203656
2058	0.0208202
2070	0.0192746
2082	0.0180927
2094	0.0171835
2106	0.0164562
2118	0.0159106
2130	0.0152742
2142	0.0157288
2154	0.0158197
2166	0.0156379
2178	0.0156379
2190	0.0160925
2202	0.0165471
2214	0.0172744
2226	0.0175472
2238	0.0173653
2250	0.0168198
2262	0.0160016
2274	0.0162743
2286	0.0170926
2298	0.0192746
2310	0.0212748
2322	0.0213657
2334	0.0187291
2346	0.0205475
2358	0.0205475
2370	0.0190928
2382	0.0171835
2394	0.0140923
2406	0.0145469
2418	0.0140014
2430	0.0138195
2442	0.0141832
2454	0.0142741
2466	0.0148196
2478	0.0147287
2490	0.0141832
2502	0.0140923
2514	0.0135468
2526	0.0134559
2538	0.0128194
2550	0.0129104
2562	0.0133649
2574	0.0137286
2586	0.0139105
2598	0.0135468
2610	0.0125467
2622	0.0114557
2634	0.0120921
2646	0.0114557
2658	0.0111829
2670	0.011092
2682	0.0111829
2694	0.012183
2706	0.0115466
2718	0.0109102
2730	0.0109102
2742	0.0109102
2754	0.0104556
2766	0.0108192
2778	0.0110011
2790	0.0114557
2802	0.0110011
2814	0.0103647
2826	0.00972823
2838	0.00981914
2850	0.00663701
2862	0.00781895
2874	0.00963731
2886	0.0100919
2898	0.00900088
2910	0.00600059
2922	0.00245479
2934	0.00445498
2946	0.00991006
2958	0.00863721
2970	0.00836446
2982	0.0136377
2994	0.0153651
3006	0.0180927
3018	0.0256389
3030	0.0493685
3042	0.0645518
3054	0.0452772
3066	0.0713706
3078	0.0950093
3090	0.0572783
3102	0.0446407
3114	0.0279118
3126	0.0154561
3138	0.0131831
3150	0.013274
3162	0.0123648
3174	0.0117284
3186	0.0114557
3198	0.0106374
3210	0.0110011
3222	0.0110011
3234	0.0106374
3246	0.0109102
3258	0.0107283
3270	0.0102737
3282	0.00981914
3294	0.0105465
3306	0.0107283
3318	0.0105465
3330	0.0106374
3342	0.0115466
3354	0.0116375
3366	0.0116375
3378	0.0120921
3390	0.012183
3402	0.012183
3414	0.0117284
3426	0.0114557
3438	0.0112738
3450	0.0115466
3462	0.0137286
3474	0.0137286
3486	0.0162743
3498	0.0167289
3510	0.0153651
3522	0.0124558
3534	0.0130013
3546	0.0147287
3558	0.0159106
3570	0.0460045
3582	0.310849
3594	0.195019
3606	0.0227295
3618	0.014365
3630	0.0138195
3642	0.012183
3654	0.0131831
3666	0.0122739
3678	0.0141832
3690	0.0130922
3702	0.0130013
3714	0.0130013
3726	0.0117284
3738	0.0127285
3750	0.0123648
3762	0.0117284
3774	0.0111829
3786	0.0115466
3798	0.0109102
3810	0.0115466
3822	0.0117284
3834	0.0114557
3846	0.0117284
3858	0.0130922
3870	0.0135468
3882	0.0130013
3894	0.0145469
3906	0.0133649
3918	0.0133649
3930	0.0129104
3942	0.0125467
3954	0
3966	0.0010001
