Infrared Spectrum: Phenol, 3-ethoxy-
Formula: C 8 H 10 O 2
CAS: 621-34-1
Origin: Sadtler Research Labs Under US-EPA Contract
1/CM	ABSORBANCE
450	0.0328011
462	0.0514179
474	0.0248224
486	0.0190862
498	0.0110554
510	0.0106382
522	0.0204942
534	0.0176782
546	0.0212242
558	0.0145493
570	0.0026074
582	0.0276384
594	0.0214328
606	0.0205463
618	0.0173131
630	0.00881301
642	0.0181475
654	0.0137671
666	0.0341569
678	0.0739459
690	0.0465682
702	0.0290464
714	0.0163745
726	0.0215893
738	0.0390589
750	0.0634641
762	0.0773876
774	0.0444301
786	0.0178868
798	0.0202334
810	0.0274298
822	0.0444301
834	0.0495927
846	0.0486019
858	0.0457338
870	0.0308195
882	0.0300894
894	0.0280556
906	0.023258
918	0.0252918
930	0.0194512
942	0.0302458
954	0.0638292
966	0.0919891
978	0.0790042
990	0.0319146
1002	0.0263347
1014	0.0276906
1026	0.0450037
1038	0.103983
1050	0.129901
1062	0.0869307
1074	0.0607524
1086	0.0571542
1098	0.0554333
1110	0.0640899
1122	0.111023
1134	0.29229
1146	0.52148
1158	0.310802
1170	0.255264
1182	0.300007
1194	0.240611
1206	0.116394
1218	0.0813509
1230	0.0362429
1242	0.0284207
1254	0.045108
1266	0.0932928
1278	0.199414
1290	0.23889
1302	0.20781
1314	0.142886
1326	0.0947529
1338	0.047559
1350	0.0219022
1362	0.023258
1374	0.028525
1386	0.0455774
1398	0.0755103
1410	0.0432828
1422	0.0235187
1434	0.0361907
1446	0.0611175
1458	0.0854184
1470	0.123226
1482	0.183092
1494	0.23039
1506	0.144085
1518	0.0495927
1530	0.0347827
1542	0.0205463
1554	0.0396325
1566	0.0532431
1578	0.102575
1590	0.253909
1602	0.376404
1614	0.295679
1626	0.181266
1638	0.0679488
1650	0.0324361
1662	0.0221629
1674	0.0180954
1686	0.00625776
1698	0.00714428
1710	0.0107946
1722	0.00766576
1734	0.0039111
1746	0.00589272
1758	0.00568413
1770	0.00568413
1782	0.00526695
1794	0.00552769
1806	0.00578843
1818	0.00568413
1830	0.00427614
1842	0.00323318
1854	0.00630991
1866	0.0052148
1878	0.00735287
1890	0.0101689
1902	0.0109511
1914	0.011264
1926	0.0077179
1938	0.00688354
1950	0.0065185
1962	0.0040154
1974	0.00484976
1986	0.00427614
1998	0.00370251
2010	0.00464117
2022	0.00349392
2034	0.00495406
2046	0.00464117
2058	0.00328532
2070	0.00458902
2082	0.00203377
2094	0.00396325
2106	0.00349392
2118	0.00213807
2130	0.00406754
2142	0.00198162
2154	0.00406754
2166	0.00359821
2178	0.00265955
2190	0.00453688
2202	0.00229451
2214	0.00370251
2226	0.00328532
2238	0.0027117
2250	0.00354606
2262	0.00198162
2274	0.00198162
2286	0.00224236
2298	0.00172088
2310	0.00323318
2322	0.000625776
2334	0.00213807
2346	0.00328532
2358	0.00078222
2370	0.00385895
2382	0.00203377
2394	0.00265955
2406	0.00479762
2418	0.00573628
2430	0.00818724
2442	0.00683139
2454	0.00573628
2466	0.00625776
2478	0.00396325
2490	0.00453688
2502	0.00438043
2514	0.00281599
2526	0.00318103
2538	0.00166874
2550	0.00323318
2562	0.00286814
2574	0.00281599
2586	0.00495406
2598	0.00354606
2610	0.00474547
2622	0.00432828
2634	0.00349392
2646	0.00406754
2658	0.00203377
2670	0.00333747
2682	0.00245096
2694	0.00192948
2706	0.0039111
2718	0.00281599
2730	0.00495406
2742	0.00615346
2754	0.00537124
2766	0.00855227
2778	0.00693568
2790	0.00735287
2802	0.0079265
2814	0.00578843
2826	0.00943879
2838	0.00891731
2850	0.0111597
2862	0.0179389
2874	0.0277427
2886	0.0441172
2898	0.0487584
2910	0.0538167
2922	0.0551204
2934	0.0529824
2946	0.0635163
2958	0.0474547
2970	0.0480805
2982	0.0865657
2994	0.0987683
3006	0.0456816
3018	0.0239881
3030	0.0279513
3042	0.0341569
3054	0.0355649
3066	0.0326968
3078	0.0269605
3090	0.0214328
3102	0.0193991
3114	0.0100124
3126	0.00818724
3138	0.00589272
3150	0.00318103
3162	0.00557984
3174	0.00229451
3186	0.00500621
3198	0.00516265
3210	0.0026074
3222	0.00469332
3234	0.00312888
3246	0.00265955
3258	0.00427614
3270	0.00276384
3282	0.00484976
3294	0.00427614
3306	0.00427614
3318	0.00589272
3330	0.00276384
3342	0.00589272
3354	0.00422399
3366	0.00516265
3378	0.00620561
3390	0.00422399
3402	0.00584058
3414	0.00427614
3426	0.00438043
3438	0.0077179
3450	0.0039111
3462	0.00615346
3474	0.00578843
3486	0.00427614
3498	0.00724857
3510	0.00307673
3522	0.00604917
3534	0.00411969
3546	0.0039111
3558	0.00677924
3570	0.00146014
3582	0.00589272
3594	0.00589272
3606	0.00432828
3618	0.00761361
3630	0.0103253
3642	0.0633077
3654	0.137045
3666	0.0606481
3678	0.00703998
3690	0.00156444
3702	0.00297244
3714	0.00276384
3726	0.00078222
3738	0.000886516
3750	0.00078222
3762	0.00104296
3774	0.00516265
3786	0.001408
3798	0.00166874
3810	0.00156444
3822	0.00078222
3834	0.00297244
3846	0.000677924
3858	0.00203377
3870	0.00151229
3882	0.000886516
3894	0.00552769
3906	0.00198162
3918	0.0079265
3930	0.00730072
3942	0.00385895
3954	0
3966	0.00078222
