Infrared Spectrum: Butane, 2,2,3-tribromo-
Formula: C 4 H 7 Br 3
CAS: 62127-47-3
Origin: Sadtler Research Labs Under US-EPA Contract
1/CM	ABSORBANCE
450	0.00318168
462	0.040928
474	0.10796
486	0.0672492
498	0.0714433
510	0.0645737
522	0.0504731
534	0.0595843
546	0.0846039
558	0.27066
570	0.497427
582	0.61891
594	0.0683339
606	0.11295
618	0.101163
630	0.0368786
642	0.0428804
654	0.0579934
666	0.226478
678	0.593312
690	0.132185
702	0.0383248
714	0.0128714
726	0.0100512
738	0.00759266
750	0.0046279
762	0.00513408
774	0.00498946
786	0
798	0.00368786
810	0.00498946
822	0.0142453
834	0.0349262
846	0.0588612
858	0.0261766
870	0.0104128
882	0.00491715
894	0.00426635
906	0.00629106
918	0.00542333
930	0.00665261
942	0.00730341
954	0.0173546
966	0.0477976
978	0.0857608
990	0.142597
1002	0.0877132
1014	0.221127
1026	0.0572703
1038	0.0512685
1050	0.264152
1062	0.517024
1074	0.451293
1086	0.220549
1098	0.226695
1110	0.114324
1122	0.0649353
1134	0.026032
1146	0.0329015
1158	0.0921242
1170	0.110708
1182	0.0794698
1194	0.22966
1206	0.146141
1218	0.0941489
1230	0.0285628
1242	0.0136668
1254	0.0104851
1266	0.00961736
1278	0.00809883
1290	0.0124375
1302	0.0416511
1314	0.0854716
1326	0.0261766
1338	0.00925581
1350	0.00896656
1362	0.0184393
1374	0.156409
1386	0.541031
1398	0.101814
1410	0.0108467
1422	0.0268274
1434	0.106586
1446	0.268635
1458	0.186635
1470	0.0517747
1482	0.00925581
1494	0.00665261
1506	0.00556795
1518	0.00506177
1530	0.0052787
1542	0.00470022
1554	0.00354324
1566	0.00267551
1578	0.00238626
1590	0.00231395
1602	0.00173546
1614	0.00354324
1626	0.00621875
1638	0.00520639
1650	0.00491715
1662	0.00441097
1674	0.00484484
1686	0.00470022
1698	0.00318168
1710	0.0019524
1722	0.00282013
1734	0.00477253
1746	0.0046279
1758	0.0026032
1770	0.00245857
1782	0.00072311
1794	0.000940043
1806	0.000506177
1818	0.000506177
1830	0.00101235
1842	0.00072311
1854	0.000650799
1866	0.000940043
1878	0.000433866
1890	0.00151853
1902	0.000433866
1914	0.000433866
1926	0.000867732
1938	0.000650799
1950	0.000433866
1962	0.000506177
1974	0.000578488
1986	0.00144622
1998	0.00108467
2010	0.00101235
2022	0.00108467
2034	0.000795421
2046	0.000578488
2058	0.00115698
2070	0.00151853
2082	0.00180778
2094	0.0019524
2106	0.00274782
2118	0.0026032
2130	0.0019524
2142	0.00122929
2154	0.00180778
2166	0.00180778
2178	0.00274782
2190	0.00166315
2202	0.000867732
2214	0.00159084
2226	0.00180778
2238	0.0013016
2250	0.000867732
2262	0.000795421
2274	0.00101235
2286	0.000940043
2298	0.000289244
2310	0.000289244
2322	0.00202471
2334	0.00339862
2346	0.00310937
2358	0.00354324
2370	0.00744803
2382	0.0052787
2394	0.0052787
2406	0.00390479
2418	0.00303706
2430	0.00354324
2442	0.00455559
2454	0.00498946
2466	0.00383248
2478	0.00282013
2490	0.00318168
2502	0.00477253
2514	0.00419404
2526	0.00282013
2538	0.00433866
2550	0.00419404
2562	0.00274782
2574	0.00216933
2586	0.00202471
2598	0.00238626
2610	0.00441097
2622	0.00376017
2634	0.0026032
2646	0.00282013
2658	0.00274782
2670	0.00274782
2682	0.00253089
2694	0.003254
2706	0.00296475
2718	0.00318168
2730	0.00332631
2742	0.00600181
2754	0.00766497
2766	0.00354324
2778	0.0026032
2790	0.00282013
2802	0.00267551
2814	0.0059295
2826	0.0119313
2838	0.0109913
2850	0.00882194
2862	0.0212594
2874	0.0370232
2886	0.0415065
2898	0.0266828
2910	0.0203194
2922	0.0286352
2934	0.1089
2946	0.196975
2958	0.12546
2970	0.0418681
2982	0.0629829
2994	0.246797
3006	0.250919
3018	0.113167
3030	0.012799
3042	0.00824345
3054	0.00629106
3066	0.00636337
3078	0.00520639
3090	0.00520639
3102	0.00484484
3114	0.00506177
3126	0.00368786
3138	0.00390479
3150	0.00404942
3162	0.00404942
3174	0.00433866
3186	0.00542333
3198	0.00484484
3210	0.00535101
3222	0.00571257
3234	0.00636337
3246	0.00520639
3258	0.00542333
3270	0.00614644
3282	0.00679723
3294	0.00506177
3306	0.00491715
3318	0.00390479
3330	0.00267551
3342	0.00397711
3354	0.00267551
3366	0.00209702
3378	0.00245857
3390	0.00137391
3402	0.00224164
3414	0.00303706
3426	0.00332631
3438	0.00354324
3450	0.00274782
3462	0.00159084
3474	0.00397711
3486	0.00441097
3498	0.00383248
3510	0.00455559
3522	0.00361555
3534	0.0026032
3546	0.00282013
3558	0.00397711
3570	0.00419404
3582	0.00506177
3594	0.00383248
3606	0.00549564
3618	0.00108467
3630	0.0046279
3642	0.00513408
3654	0.00339862
3666	0.0013016
3678	0.003254
3690	0
3702	0.00484484
3714	0.00419404
3726	0.00535101
3738	0.00484484
3750	0.00412173
3762	0.00318168
3774	0.00404942
3786	0.00448328
3798	0.0046279
3810	0.00535101
3822	0.00571257
3834	0.00404942
3846	0.00564026
3858	0.00940043
3870	0.00578488
3882	0.00376017
3894	0.0059295
3906	0.00600181
3918	0.00650799
3930	0.00679723
3942	0.00846039
3954	0.00686955
3966	0.0026032
