Infrared Spectrum: N-Ethyl-p-toluidine
Formula: C 9 H 13 N
CAS: 622-57-1
Origin: Sadtler Research Labs Under US-EPA Contract
1/CM	ABSORBANCE
450	0.0962257
462	0.0786568
474	0.0775285
486	0.0860712
498	0.126528
510	0.134909
522	0.107508
534	0.0784956
546	0.0588314
558	0.0601209
570	0.0639893
582	0.0602821
594	0.0672129
606	0.0680188
618	0.0630222
630	0.0722095
642	0.0564137
654	0.0536736
666	0.0477099
678	0.0441639
690	0.0406179
702	0.0435191
714	0.0435191
726	0.0280457
738	0.0190195
750	0.0156347
762	0.0178912
774	0.0274009
786	0.0883277
798	0.266111
810	0.366528
822	0.174721
834	0.0533512
846	0.0236938
858	0.00902619
870	0.00402955
882	0.00193418
894	0.000483546
906	0.00338482
918	0.00515782
930	0.00886501
942	0.00612492
954	0.001773
966	0.00128946
978	0.00499664
990	0.00644728
1002	0.00290128
1014	0.00644728
1026	0.00886501
1038	0.0209537
1050	0.0427132
1062	0.0462592
1074	0.0332035
1086	0.0364271
1098	0.0651175
1110	0.0815581
1122	0.0915514
1134	0.110571
1146	0.174882
1158	0.120887
1170	0.0617327
1182	0.138455
1194	0.0680188
1206	0.0436803
1218	0.0515782
1230	0.0733378
1242	0.273848
1254	0.465977
1266	0.305601
1278	0.357824
1290	0.371041
1302	0.364916
1314	0.333163
1326	0.248059
1338	0.0973539
1350	0.0751108
1362	0.0680188
1374	0.0899396
1386	0.133459
1398	0.1146
1410	0.115245
1422	0.0707589
1434	0.0668905
1446	0.098321
1458	0.14587
1470	0.177139
1482	0.254668
1494	0.26595
1506	0.386676
1518	1.54058
1530	0.968543
1542	0.118952
1554	0.0597985
1566	0.0477099
1578	0.0556078
1590	0.0804298
1602	0.160054
1614	0.358791
1626	0.476776
1638	0.151028
1650	0.0330423
1662	0.0211148
1674	0.00918737
1686	0.0116051
1698	0.00918737
1710	0.0104768
1722	0.00693083
1734	0.00128946
1746	0.0107992
1758	0.00773674
1770	0.00193418
1782	0.00306246
1794	0.00161182
1806	0.00548019
1818	0.00644728
1830	0.00596373
1842	0.0146676
1854	0.0328811
1866	0.0278845
1878	0.0137005
1890	0.00773674
1902	0.00725319
1914	0.00515782
1926	0.0062861
1938	0.00644728
1950	0.00564137
1962	0.0062861
1974	0.00580255
1986	0.00499664
1998	0.003546
2010	0.00193418
2022	0.00145064
2034	0.00241773
2046	0.00112827
2058	0.001773
2070	0.00193418
2082	0.003546
2094	0.00386837
2106	0.00370719
2118	0.00322364
2130	0.00306246
2142	0.00338482
2154	0.00225655
2166	0.00145064
2178	0.00145064
2190	0.00161182
2202	0.00112827
2214	0.001773
2226	0.00112827
2238	0.00128946
2250	0.00112827
2262	0.000967092
2274	0.00145064
2286	0.00241773
2298	0.0045131
2310	0.00660846
2322	0.00757555
2334	0.00596373
2346	0.00080591
2358	0.00854265
2370	0.000161182
2382	0.000161182
2394	0.000322364
2406	0.001773
2418	0.00257891
2430	0.00241773
2442	0.00338482
2454	0.003546
2466	0.00225655
2478	0.00145064
2490	0.00209537
2502	0.00338482
2514	0.00370719
2526	0.00725319
2538	0.00934856
2550	0.00999328
2562	0.00886501
2574	0.00934856
2586	0.00918737
2598	0.00934856
2610	0.00709201
2622	0.00580255
2634	0.00612492
2646	0.00596373
2658	0.00709201
2670	0.00789792
2682	0.0111216
2694	0.0122498
2706	0.0135393
2718	0.0137005
2730	0.0164406
2742	0.0286904
2754	0.0244997
2766	0.0175688
2778	0.0203089
2790	0.0280457
2802	0.0377166
2814	0.0543183
2826	0.0739825
2838	0.0981598
2850	0.137005
2862	0.202283
2874	0.33816
2886	0.404083
2898	0.289805
2910	0.240161
2922	0.303828
2934	0.455178
2946	0.361048
2958	0.287226
2970	0.370074
2982	0.496279
2994	0.317529
3006	0.228717
3018	0.309631
3030	0.329295
3042	0.205668
3054	0.185682
3066	0.140228
3078	0.0886501
3090	0.0483546
3102	0.0435191
3114	0.0377166
3126	0.0232102
3138	0.0170853
3150	0.0128946
3162	0.00918737
3174	0.00676964
3186	0.00515782
3198	0.00435191
3210	0.0045131
3222	0.00370719
3234	0.00370719
3246	0.00338482
3258	0.00193418
3270	0.00257891
3282	0.00145064
3294	0.000967092
3306	0.00306246
3318	0.00241773
3330	0.00290128
3342	0.00257891
3354	0.00306246
3366	0.00322364
3378	0.00402955
3390	0.00483546
3402	0.0111216
3414	0.0238549
3426	0.043358
3438	0.0348153
3450	0.0253056
3462	0.0198254
3474	0.0140228
3486	0.0098321
3498	0.00725319
3510	0.00531901
3522	0.00596373
3534	0.00515782
3546	0.00564137
3558	0.00580255
3570	0.00693083
3582	0.00596373
3594	0.00596373
3606	0.00644728
3618	0.00580255
3630	0.0045131
3642	0.00660846
3654	0.00564137
3666	0.00950974
3678	0.00467428
3690	0.00757555
3702	0.00612492
3714	0.00435191
3726	0.00435191
3738	0.00322364
3750	0.00499664
3762	0.00612492
3774	0.00580255
3786	0.00435191
3798	0.00660846
3810	0.00290128
3822	0.00676964
3834	0.00370719
3846	0.00499664
3858	0.00257891
3870	0.00435191
3882	0.00499664
3894	0.00612492
3906	0.00419073
3918	0.00531901
3930	0.00693083
3942	0.0045131
3954	0.0062861
3966	0.00467428
