Infrared Spectrum: Benzene, (2-chloroethoxy)-
Formula: C 8 H 9 Cl O
CAS: 622-86-6
Origin: Sadtler Research Labs Under US-EPA Contract
1/CM	ABSORBANCE
450	0
462	0.00596828
474	0.00688107
486	0.0135515
498	0.0222582
510	0.0282264
522	0.0122174
534	0.00926838
546	0.00175538
558	0.00926838
570	0.0132706
582	0.0115153
594	0.0100407
606	0.0014043
618	0.00624914
630	0.00344054
642	0.010111
654	0.01306
666	0.0365118
678	0.0891028
690	0.131232
702	0.0719704
714	0.0322287
726	0.0353884
738	0.0893135
750	0.195549
762	0.157562
774	0.0941583
786	0.0565231
798	0.0324393
810	0.0309648
822	0.0332819
834	0.0474653
846	0.0226794
858	0.0150962
870	0.0240837
882	0.0434631
894	0.0393906
906	0.0116557
918	0.00779387
930	0.00568742
942	0.0112344
954	0.01306
966	0.0148856
978	0.0152367
990	0.0219071
1002	0.0308946
1014	0.0444461
1026	0.0958435
1038	0.190564
1050	0.192319
1062	0.0811685
1074	0.0846091
1086	0.0594019
1098	0.0255583
1110	0.0146047
1122	0.00926838
1134	0.0109535
1146	0.0161495
1158	0.0463419
1170	0.107218
1182	0.0649489
1194	0.0936668
1206	0.133338
1218	0.270187
1230	0.515027
1242	0.70215
1254	0.325868
1266	0.115153
1278	0.103497
1290	0.116065
1302	0.131794
1314	0.0814494
1326	0.0464121
1338	0.0359501
1350	0.0213454
1362	0.0172027
1374	0.0259093
1386	0.0437439
1398	0.0185368
1410	0.00723215
1422	0.0102514
1434	0.0309648
1446	0.0351075
1458	0.0779386
1470	0.094369
1482	0.151313
1494	0.384919
1506	0.23178
1518	0.0437439
1530	0.0196602
1542	0.0146749
1554	0.0172729
1566	0.0353181
1578	0.0782897
1590	0.19583
1602	0.300941
1614	0.0938072
1626	0.0213454
1638	0.0108833
1650	0.00730236
1662	0.00610871
1674	0.00582785
1686	0.00617892
1698	0.00828537
1710	0.00638957
1722	0.00554698
1734	0.00533634
1746	0.00540656
1758	0.00884709
1770	0.00961946
1782	0.00624914
1794	0.00365118
1806	0.00484484
1818	0.00498527
1830	0.00653
1842	0.00723215
1854	0.00695129
1866	0.00674064
1878	0.00379161
1890	0.00386183
1902	0.00400226
1914	0.00870666
1926	0.0107429
1938	0.0117961
1950	0.00947903
1962	0.00484484
1974	0.00540656
1986	0.00575763
1998	0.00765344
2010	0.00674064
2022	0.00821516
2034	0.00786408
2046	0.00674064
2058	0.00751301
2070	0.00835559
2082	0.00737258
2094	0.00463419
2106	0.0051257
2118	0.00344054
2130	0.00393204
2142	0.00245753
2154	0.00224688
2166	0.00224688
2178	0.00203623
2190	0.00245753
2202	0.00203623
2214	0.00287882
2226	0.00196602
2238	0.00386183
2250	0.00393204
2262	0.00407247
2274	0.00358097
2286	0.00344054
2298	0.00519591
2310	0.00393204
2322	0.0056172
2334	0.00133409
2346	0.00238731
2358	0.000912795
2370	0.0051257
2382	0.00470441
2394	0.00365118
2406	0.00414269
2418	0.00393204
2430	0.00505548
2442	0.00498527
2454	0.00554698
2466	0.00463419
2478	0.00596828
2490	0.00603849
2502	0.00414269
2514	0.00498527
2526	0.00463419
2538	0.00554698
2550	0.00470441
2562	0.00449376
2574	0.00294903
2586	0.0028086
2598	0.00252774
2610	0.00245753
2622	0.00351075
2634	0.0023171
2646	0.0023171
2658	0.00203623
2670	0.00337032
2682	0.00203623
2694	0.00330011
2706	0.00252774
2718	0.00393204
2730	0.00575763
2742	0.00688107
2754	0.00730236
2766	0.00301925
2778	0.00337032
2790	0.00322989
2802	0.00470441
2814	0.00435333
2826	0.00610871
2838	0.00912795
2850	0.014043
2862	0.0272434
2874	0.0342649
2886	0.0377757
2898	0.0374948
2910	0.0369331
2922	0.0381267
2934	0.0412162
2946	0.0442355
2958	0.0477462
2970	0.0613679
2982	0.0577167
2994	0.0344054
3006	0.0301222
3018	0.0370033
3030	0.0418481
3042	0.064668
3054	0.0697235
3066	0.055189
3078	0.0799047
3090	0.0602445
3102	0.044727
3114	0.0273136
3126	0.00912795
3138	0.00407247
3150	0.00273839
3162	0.00442355
3174	0.00294903
3186	0.00407247
3198	0.00182559
3210	0.00301925
3222	0.00337032
3234	0.00435333
3246	0.00435333
3258	0.00126387
3270	0.00294903
3282	0.00203623
3294	0.00526612
3306	0.0037214
3318	0.00365118
3330	0.0014043
3342	0.0023171
3354	0.00491505
3366	0.00435333
3378	0.0042129
3390	0.0014043
3402	0.00386183
3414	0.0028086
3426	0.00505548
3438	0.00379161
3450	0.00386183
3462	0.00365118
3474	0.00414269
3486	0.00660021
3498	0.00266817
3510	0.00386183
3522	0.00308946
3534	0.00631935
3546	0.00463419
3558	0.00442355
3570	0.0051257
3582	0.00393204
3594	0.00603849
3606	0.00519591
3618	0.00667043
3630	0.00365118
3642	0.00716193
3654	0.00695129
3666	0.00779387
3678	0.00681086
3690	0.00386183
3702	0.00505548
3714	0.00491505
3726	0.00723215
3738	0.00484484
3750	0.00519591
3762	0.00344054
3774	0.0037214
3786	0.00540656
3798	0.00351075
3810	0.0037214
3822	0.00105323
3834	0.00393204
3846	0.00217666
3858	0.00449376
3870	0.00196602
3882	0.00245753
3894	0.00182559
3906	0.00175538
3918	0.00379161
3930	0.0028086
3942	0.00182559
3954	0.00098301
3966	0.00098301
