Infrared Spectrum: 4-Chlorobenzyl bromide
Formula: C 7 H 6 Br Cl
CAS: 622-95-7
Origin: Sadtler Research Labs Under US-EPA Contract
1/CM	ABSORBANCE
450	0.00490958
462	0.0119233
474	0.0276834
486	0.0517775
498	0.023599
510	0.00849894
522	0.00391941
534	0.00222788
546	0.00165028
558	0.00482707
570	0.00544592
582	0.0179468
594	0.0534691
606	0.100131
618	0.110321
630	0.0593276
642	0.031149
654	0.0231864
666	0.0208348
678	0.0141512
690	0.0110569
702	0.0173692
714	0.0350272
726	0.0232277
738	0.020546
750	0.0130372
762	0.0124184
774	0.0221138
786	0.0462491
798	0.0780995
810	0.121296
822	0.161562
834	0.116427
846	0.047363
858	0.025208
870	0.0193083
882	0.0150175
894	0.0100667
906	0.00643609
918	0.00375439
930	0.00255793
942	0.00181531
954	0.00226914
966	0.00577598
978	0.00482707
990	0.00210411
1002	0.0120883
1014	0.146462
1026	0.0477756
1038	0.0128309
1050	0.020711
1062	0.023599
1074	0.0438149
1086	0.133838
1098	0.41257
1110	0.0847831
1122	0.0280548
1134	0.0143574
1146	0.0127072
1158	0.0162553
1170	0.0187719
1182	0.0307777
1194	0.0562745
1206	0.0740563
1218	0.138293
1230	0.115231
1242	0.0613904
1254	0.0326343
1266	0.0289212
1278	0.0165441
1290	0.0120883
1302	0.00899403
1314	0.00664238
1326	0.00577598
1338	0.00651861
1350	0.00602352
1362	0.00713746
1374	0.00998419
1386	0.0143987
1398	0.0297876
1410	0.036925
1422	0.0297876
1434	0.0229389
1446	0.0228564
1458	0.0211236
1470	0.0277247
1482	0.104009
1494	0.302909
1506	0.107598
1518	0.00895277
1530	0.00701369
1542	0.00726123
1554	0.00783883
1566	0.00915905
1578	0.0193495
1590	0.0481469
1602	0.0747989
1614	0.0111394
1626	0.00503335
1638	0.00953037
1650	0.013491
1662	0.0119233
1674	0.0107681
1686	0.00726123
1698	0.00507461
1710	0.00800386
1722	0.0246304
1734	0.0197621
1746	0.0129134
1758	0.0195558
1770	0.0201747
1782	0.00643609
1794	0.00346559
1806	0.00152651
1818	0.000453827
1830	0.00107268
1842	0.000123771
1854	0.000660112
1866	0.00259919
1878	0.00668363
1890	0.0138211
1902	0.0115107
1914	0.00391941
1926	0.00119645
1938	0.000990168
1950	0.000536341
1962	0.00111394
1974	0.000618855
1986	0.000660112
1998	0.00103143
2010	0.000577598
2022	0.000453827
2034	0.000948911
2046	0.00082514
2058	0.000495084
2070	0.000660112
2082	0.000577598
2094	0.000453827
2106	0.000288799
2118	0.00041257
2130	0.000288799
2142	0.000330056
2154	0.000618855
2166	0.000701369
2178	0.000453827
2190	0.000948911
2202	0.000990168
2214	0.00152651
2226	0.00148525
2238	0.00198034
2250	0.00259919
2262	0.00338307
2274	0.00445576
2286	0.0052809
2298	0.00598227
2310	0.00717872
2322	0.00672489
2334	0.00589975
2346	0.00639484
2358	0.0055697
2370	0.00610604
2382	0.00569347
2394	0.00688992
2406	0.00548718
2418	0.00569347
2430	0.00585849
2442	0.00462078
2454	0.00635358
2466	0.0047033
2478	0.00363062
2490	0.0082514
2502	0.00433199
2514	0.00552844
2526	0.00730249
2538	0.00676615
2550	0.00610604
2562	0.00676615
2574	0.007385
2586	0.00721998
2598	0.00668363
2610	0.007385
2622	0.00862271
2634	0.0085402
2646	0.00833391
2658	0.00750877
2670	0.00655986
2682	0.00730249
2694	0.00697243
2706	0.00779757
2718	0.00812763
2730	0.00928282
2742	0.00763255
2754	0.00788009
2766	0.00647735
2778	0.00730249
2790	0.00618855
2802	0.00746752
2814	0.00759129
2826	0.00953037
2838	0.00837517
2850	0.0082514
2862	0.00944785
2874	0.0109744
2886	0.00994294
2898	0.00829266
2910	0.00915905
2922	0.0113869
2934	0.0149763
2946	0.0176167
2958	0.0183594
2970	0.0320979
2982	0.0418346
2994	0.028261
3006	0.0195558
3018	0.0226914
3030	0.0364712
3042	0.0478581
3054	0.0323867
3066	0.0238053
3078	0.0239291
3090	0.0303652
3102	0.0283023
3114	0.0148525
3126	0.00775632
3138	0.00610604
3150	0.00594101
3162	0.00544592
3174	0.00515713
3186	0.0049921
3198	0.00457953
3210	0.00462078
3222	0.00449701
3234	0.00445576
3246	0.0041257
3258	0.00420821
3270	0.00391941
3282	0.0035481
3294	0.0038369
3306	0.00321805
3318	0.00288799
3330	0.00259919
3342	0.00243416
3354	0.00214536
3366	0.00181531
3378	0.00103143
3390	0.00152651
3402	0.00210411
3414	0.00226914
3426	0.00218662
3438	0.00239291
3450	0.00160902
3462	0.00280548
3474	0.00264045
3486	0.00276422
3498	0.00202159
3510	0.00231039
3522	0.0032593
3534	0.00305302
3546	0.00334182
3558	0.00313553
3570	0.00429073
3582	0.0052809
3594	0.0055697
3606	0.00288799
3618	0.00363062
3630	0.00581724
3642	0.00338307
3654	0.0032593
3666	0.00280548
3678	0.00490958
3690	0.00375439
3702	0.00367187
3714	0.00466204
3726	0.00466204
3738	0.00482707
3750	0.00264045
3762	0.00243416
3774	0.00198034
3786	0.00226914
3798	0.00330056
3810	0.00119645
3822	0.00288799
3834	0.00387816
3846	0.00276422
3858	0.00292925
3870	0.00453827
3882	0.0032593
3894	0.00482707
3906	0.0032593
3918	0.00474456
3930	0.00292925
3942	0.00259919
3954	0.00284673
3966	0.00255793
