Infrared Spectrum: Benzene, propoxy-
Formula: C 9 H 12 O
CAS: 622-85-5
Origin: Sadtler Research Labs Under US-EPA Contract
1/CM	ABSORBANCE
450	0
462	0.00874384
474	0.00922961
486	0.0225073
498	0.0433954
510	0.0586161
522	0.0351373
534	0.0163542
546	0.0121442
558	0.0134396
570	0.0148969
582	0.0212119
594	0.0238027
606	0.00858192
618	0.00518154
630	0.00404807
642	0.00518154
654	0.0127919
666	0.0286604
678	0.11448
690	0.255191
702	0.138606
714	0.0469577
726	0.0450146
738	0.168076
750	0.418895
762	0.29891
774	0.0973157
786	0.0450146
798	0.0385377
810	0.0477673
822	0.0574827
834	0.0563492
846	0.0200785
858	0.0173258
870	0.0309273
882	0.05052
894	0.0440431
906	0.0377281
918	0.0352992
930	0.0297938
942	0.0265554
954	0.0401569
966	0.111889
978	0.270573
990	0.177953
1002	0.13553
1014	0.127595
1026	0.180544
1038	0.168724
1050	0.252438
1062	0.28126
1074	0.236893
1086	0.119499
1098	0.067198
1110	0.069303
1122	0.0646073
1134	0.0503581
1146	0.0576446
1158	0.111565
1170	0.221835
1182	0.107841
1194	0.0888957
1206	0.177306
1218	0.482207
1230	0.812206
1242	1.48224
1254	1.1971
1266	0.340686
1278	0.320122
1290	0.321903
1302	0.280289
1314	0.132777
1326	0.0913246
1338	0.0877623
1350	0.0527869
1362	0.0474434
1374	0.0626642
1386	0.14314
1398	0.172772
1410	0.0476054
1422	0.0299558
1434	0.0422619
1446	0.0702746
1458	0.14735
1470	0.345382
1482	0.415171
1494	0.889443
1506	0.670847
1518	0.0940773
1530	0.0519773
1542	0.05052
1554	0.0446907
1566	0.0728653
1578	0.166295
1590	0.429582
1602	0.799576
1614	0.323036
1626	0.06315
1638	0.0328704
1650	0.0307654
1662	0.0187831
1674	0.0229931
1686	0.0286604
1698	0.0299558
1710	0.0157065
1722	0.0144111
1734	0.0213738
1746	0.0165161
1758	0.0220215
1770	0.0249361
1782	0.0134396
1794	0.0124681
1806	0.00825807
1818	0.0111727
1830	0.0208881
1842	0.0202404
1854	0.0132777
1866	0.0100392
1878	0.00550538
1890	0.00744846
1902	0.0110108
1914	0.0218596
1926	0.0255838
1938	0.0244504
1950	0.0171638
1962	0.0113346
1974	0.0100392
1986	0.0106869
1998	0.0137635
2010	0.0131158
2022	0.0121442
2034	0.0127919
2046	0.0160304
2058	0.0181354
2070	0.0173258
2082	0.0136015
2094	0.00939153
2106	0.00728653
2118	0.006315
2130	0.00534346
2142	0.00421
2154	0.00372423
2166	0.00372423
2178	0.00453384
2190	0.00437192
2202	0.00421
2214	0.00388615
2226	0.00421
2238	0.00437192
2250	0.00453384
2262	0.00437192
2274	0.00469577
2286	0.00469577
2298	0.00534346
2310	0.00680077
2322	0.00534346
2334	0.00615307
2346	0.00761038
2358	0.00696269
2370	0.00955346
2382	0.00939153
2394	0.00874384
2406	0.0108488
2418	0.0113346
2430	0.0108488
2442	0.0113346
2454	0.0110108
2466	0.0106869
2478	0.0119823
2490	0.0140873
2502	0.0103631
2514	0.0103631
2526	0.0132777
2538	0.0155446
2550	0.0148969
2562	0.0103631
2574	0.00890576
2586	0.00858192
2598	0.00906769
2610	0.00922961
2622	0.00906769
2634	0.00825807
2646	0.00696269
2658	0.00615307
2670	0.00680077
2682	0.00825807
2694	0.00906769
2706	0.00955346
2718	0.0111727
2730	0.0161923
2742	0.0228311
2754	0.0249361
2766	0.0226692
2778	0.0213738
2790	0.0197546
2802	0.0191069
2814	0.0221835
2826	0.0291461
2838	0.0411284
2850	0.0683315
2862	0.128567
2874	0.193012
2886	0.280936
2898	0.301339
2910	0.275431
2922	0.26944
2934	0.311054
2946	0.400436
2958	0.403998
2970	0.502447
2982	0.495646
2994	0.238836
3006	0.0795042
3018	0.0710842
3030	0.10444
3042	0.181354
3054	0.187345
3066	0.154151
3078	0.209852
3090	0.153503
3102	0.114318
3114	0.0790184
3126	0.0296319
3138	0.0137635
3150	0.0100392
3162	0.00825807
3174	0.0077723
3186	0.0077723
3198	0.00728653
3210	0.00615307
3222	0.00501961
3234	0.00582923
3246	0.00534346
3258	0.00469577
3270	0.00501961
3282	0.00469577
3294	0.00453384
3306	0.00437192
3318	0.00485769
3330	0.00469577
3342	0.00501961
3354	0.00501961
3366	0.00534346
3378	0.00485769
3390	0.00501961
3402	0.00437192
3414	0.00485769
3426	0.00485769
3438	0.00469577
3450	0.00550538
3462	0.00485769
3474	0.00550538
3486	0.00501961
3498	0.00501961
3510	0.00437192
3522	0.00518154
3534	0.00437192
3546	0.00485769
3558	0.00534346
3570	0.00437192
3582	0.00421
3594	0.00437192
3606	0.00469577
3618	0.00469577
3630	0.00469577
3642	0.00582923
3654	0.00680077
3666	0.0056673
3678	0.006315
3690	0.00582923
3702	0.00550538
3714	0.00599115
3726	0.00469577
3738	0.00599115
3750	0.0056673
3762	0.0056673
3774	0.00518154
3786	0.00453384
3798	0.0056673
3810	0.00550538
3822	0.00582923
3834	0.00599115
3846	0.00599115
3858	0.00728653
3870	0.00647692
3882	0.00453384
3894	0.00599115
3906	0.00501961
3918	0.00453384
3930	0.00453384
3942	0.00372423
3954	0.00550538
3966	0.00437192
