Infrared Spectrum: Benzene, (2-chloroethyl)-
Formula: C 8 H 9 Cl
CAS: 622-24-2
Origin: Sadtler Research Labs Under US-EPA Contract
1/CM	ABSORBANCE
450	0.0133982
462	0.0332179
474	0.0830051
486	0.146111
498	0.0952934
510	0.0232287
522	0.00586665
534	0.0154594
546	0.0308395
558	0.107819
570	0.157448
582	0.0297296
594	0.00673872
606	0.00776934
618	0.0123675
630	0.0172828
642	0.0333765
654	0.102349
666	0.260273
678	0.338521
690	0.513014
702	0.631537
714	0.558124
726	0.79279
738	0.444834
750	0.388863
762	0.30348
774	0.101001
786	0.038926
798	0.0387674
810	0.0428899
822	0.073016
834	0.0467746
846	0.0300467
858	0.0128432
870	0.0167279
882	0.0353584
894	0.0421764
906	0.0497079
918	0.0742844
930	0.0669115
942	0.0541476
954	0.0417008
966	0.0256864
978	0.0202161
990	0.0168864
1002	0.0299675
1014	0.044317
1026	0.126767
1038	0.152929
1050	0.0295711
1062	0.0393224
1074	0.062234
1086	0.0440791
1098	0.0245765
1110	0.0211675
1122	0.0217224
1134	0.0279855
1146	0.0264792
1158	0.0195819
1170	0.0191855
1182	0.0340107
1194	0.037499
1206	0.0340107
1218	0.0198198
1230	0.0316323
1242	0.0981474
1254	0.153881
1266	0.0530377
1278	0.0583493
1290	0.138818
1302	0.176792
1314	0.124864
1326	0.163632
1338	0.137549
1350	0.048598
1362	0.0226738
1374	0.0198198
1386	0.0192648
1398	0.0167279
1410	0.0185513
1422	0.0347242
1434	0.0865727
1446	0.211358
1458	0.216115
1470	0.119077
1482	0.0544647
1494	0.218969
1506	0.242118
1518	0.0331386
1530	0.020454
1542	0.0214846
1554	0.0186306
1566	0.0249729
1578	0.0332179
1590	0.0493908
1602	0.115906
1614	0.0954519
1626	0.0222774
1638	0.0140324
1650	0.0108612
1662	0.0114162
1674	0.0127639
1686	0.0112576
1698	0.0110991
1710	0.0108612
1722	0.0134774
1734	0.0183927
1746	0.0179171
1758	0.0159351
1770	0.0129225
1782	0.017045
1794	0.0429692
1806	0.0388467
1818	0.0161729
1830	0.0124468
1842	0.0128432
1854	0.0183134
1866	0.0261621
1878	0.0283026
1890	0.0229116
1902	0.0105441
1914	0.00990988
1926	0.0185513
1938	0.0341692
1950	0.040353
1962	0.0319494
1974	0.00769006
1986	0.00570809
1998	0.00356756
2010	0.00277476
2022	0.00348828
2034	0.00507386
2046	0.00428107
2058	0.00428107
2070	0.00499458
2082	0.00554953
2094	0.00412251
2106	0.00325044
2118	0.00325044
2130	0.00364683
2142	0.00372611
2154	0.00285404
2166	0.00253693
2178	0.00364683
2190	0.00325044
2202	0.0049153
2214	0.00380539
2226	0.00404323
2238	0.00364683
2250	0.00412251
2262	0.00412251
2274	0.00388467
2286	0.00443962
2298	0.00515313
2310	0.00784862
2322	0.0129225
2334	0.00903781
2346	0.00650088
2358	0.00761078
2370	0
2382	0.000475674
2394	0.00285404
2406	0.00293332
2418	0.00325044
2430	0.003409
2442	0.00380539
2454	0.00332972
2466	0.00285404
2478	0.00253693
2490	0.00166486
2502	0.00198197
2514	0.00245765
2526	0.00198197
2538	0.000951348
2550	0.000475674
2562	0.000554953
2574	0.000634232
2586	0.00245765
2598	0.00221981
2610	0.0030126
2622	0.00206125
2634	0.00515313
2646	0.00578737
2658	0.00634232
2670	0.00697655
2682	0.00697655
2694	0.00713511
2706	0.00515313
2718	0.0015063
2730	0.00269549
2742	0.00570809
2754	0.00539097
2766	0.00650088
2778	0.0120504
2790	0.0162522
2802	0.0118918
2814	0.0107819
2826	0.01649
2838	0.0308395
2850	0.0526413
2862	0.0688142
2874	0.0949762
2886	0.103935
2898	0.0916465
2910	0.138421
2922	0.141117
2934	0.129225
2946	0.19907
2958	0.294284
2970	0.345022
2982	0.186068
2994	0.166962
3006	0.226104
3018	0.214212
3030	0.426204
3042	0.515393
3054	0.245686
3066	0.324885
3078	0.447134
3090	0.24735
3102	0.175841
3114	0.0990987
3126	0.0392431
3138	0.00895853
3150	0.00872069
3162	0.0075315
3174	0.00776934
3186	0.00261621
3198	0.0030126
3210	0.00134774
3222	0.000872069
3234	0.00229909
3246	0.00103063
3258	0.003409
3270	0.00539097
3282	0.00436034
3294	0.00261621
3306	0.00285404
3318	0.00118918
3330	0.00103063
3342	0.00277476
3354	0.00404323
3366	0.000554953
3378	0.0015063
3390	0.00483602
3402	0.00356756
3414	0.00206125
3426	0.00380539
3438	0.0045189
3450	0.00420179
3462	0.00578737
3474	0.00578737
3486	0.00396395
3498	0.00142702
3510	0.00380539
3522	0.00166486
3534	0.00554953
3546	0.00142702
3558	0.00364683
3570	0.00237837
3582	0.00126846
3594	0.0015063
3606	0.00420179
3618	0.00443962
3630	0.00594592
3642	0.00499458
3654	0.00554953
3666	0.0064216
3678	0.00443962
3690	0.00428107
3702	0.00269549
3714	0.00348828
3726	0.000396395
3738	0.000951348
3750	0.00467746
3762	0.00134774
3774	0.00214053
3786	0.00404323
3798	0.00380539
3810	0.00578737
3822	0.00554953
3834	0.00523241
3846	0.00483602
3858	0.0060252
3870	0.00594592
3882	0.00325044
3894	0.00237837
3906	0.00245765
3918	0.00515313
3930	0.00919636
3942	0.00578737
3954	0.00705583
3966	0.0049153
