Infrared Spectrum: Benzene, 1-ethoxy-4-methyl-
Formula: C 9 H 12 O
CAS: 622-60-6
Origin: Sadtler Research Labs Under US-EPA Contract
1/CM	ABSORBANCE
450	0.0470358
462	0.019534
474	0.010281
486	0.0268592
498	0.0625858
510	0.0723528
522	0.0552606
534	0.0551321
546	0.0402246
558	0.0309716
570	0.0212046
582	0.0212046
594	0.0111806
606	0.0173493
618	0.010281
630	0.0182488
642	0.00963847
654	0.00963847
666	0.00822483
678	0.00668268
690	0.0170922
702	0.0259596
714	0.0425378
726	0.0313572
738	0.0562887
750	0.0204336
762	0.0131083
774	0.0177348
786	0.0466502
798	0.115148
810	0.177862
822	0.20832
834	0.117332
846	0.0430519
858	0.0203051
870	0.0177348
882	0.0201765
894	0.0371403
906	0.0566742
918	0.0711962
930	0.0625858
942	0.0213332
954	0.0143935
966	0.0128513
978	0.0115662
990	0.0151645
1002	0.0222327
1014	0.0517907
1026	0.079421
1038	0.196111
1050	0.310616
1062	0.205235
1074	0.099212
1086	0.0899591
1098	0.122344
1110	0.139565
1122	0.136352
1134	0.0611722
1146	0.0418952
1158	0.0672123
1170	0.1893
1182	0.150103
1194	0.0508911
1206	0.0921438
1218	0.269492
1230	0.757456
1242	1.28513
1254	0.749616
1266	0.23248
1278	0.238263
1290	0.256512
1302	0.189942
1314	0.115405
1326	0.0565457
1338	0.0339274
1350	0.0336704
1362	0.0359836
1374	0.0489635
1386	0.10628
1398	0.173107
1410	0.0924008
1422	0.0456221
1434	0.0463932
1446	0.0602726
1458	0.0472928
1470	0.0683689
1482	0.173364
1494	0.15126
1506	0.605939
1518	0.998803
1530	0.137766
1542	0.0290439
1554	0.0372688
1566	0.0454936
1578	0.0675978
1590	0.0956137
1602	0.111421
1614	0.199324
1626	0.147918
1638	0.044851
1650	0.0192769
1662	0.0196625
1674	0.0109236
1686	0.00372688
1698	0.00167067
1710	0.0151645
1722	0.0127228
1734	0.00128513
1746	0.0131083
1758	0.0176063
1770	0.0111806
1782	0.010281
1794	0.00732524
1806	0.0116947
1818	0.0128513
1830	0.0106666
1842	0.0133654
1854	0.0221042
1866	0.024803
1878	0.0258311
1890	0.0167067
1902	0.0149075
1914	0.0123372
1926	0.0141364
1938	0.0181203
1950	0.0186344
1962	0.0160641
1974	0.0179918
1986	0.0185059
1998	0.0133654
2010	0.0124658
2022	0.0107951
2034	0.0109236
2046	0.0104096
2058	0.0124658
2070	0.0120802
2082	0.0106666
2094	0.00822483
2106	0.00706822
2118	0.00604011
2130	0.00526903
2142	0.00424093
2154	0.00385539
2166	0.00346985
2178	0.00257026
2190	0.00179918
2202	0.00167067
2214	0.00244175
2226	0.00282729
2238	0.00257026
2250	0.00244175
2262	0.00244175
2274	0.00282729
2286	0.00321282
2298	0.00346985
2310	0.00359836
2322	0.00475498
2334	0.00308431
2346	0.00796781
2358	0.00179918
2370	0.00346985
2382	0.00269877
2394	0.00346985
2406	0.00629714
2418	0.00783929
2430	0.00809632
2442	0.00732524
2454	0.00873888
2466	0.00938145
2478	0.0098955
2490	0.00873888
2502	0.00706822
2514	0.00835334
2526	0.0107951
2538	0.0114377
2550	0.00809632
2562	0.00552606
2574	0.00501201
2586	0.0059116
2598	0.00604011
2610	0.00552606
2622	0.00539755
2634	0.00488349
2646	0.00385539
2658	0.00411242
2670	0.00424093
2682	0.00436944
2694	0.00475498
2706	0.00604011
2718	0.00861037
2730	0.0127228
2742	0.0203051
2754	0.0187629
2766	0.0138794
2778	0.0138794
2790	0.0146505
2802	0.0160641
2814	0.0188914
2826	0.024289
2838	0.030072
2850	0.0461362
2862	0.0828909
2874	0.168224
2886	0.214231
2898	0.191613
2910	0.210119
2922	0.220657
2934	0.284271
2946	0.264094
2958	0.161412
2970	0.159485
2982	0.266407
2994	0.309588
3006	0.199324
3018	0.144192
3030	0.174649
3042	0.183388
3054	0.0845616
3066	0.0729954
3078	0.0701681
3090	0.0478068
3102	0.0404816
3114	0.0322568
3126	0.0190199
3138	0.014779
3150	0.0088674
3162	0.00642565
3174	0.00565457
3186	0.00449795
3198	0.00449795
3210	0.00436944
3222	0.0039839
3234	0.00462647
3246	0.00372688
3258	0.00321282
3270	0.00372688
3282	0.0039839
3294	0.00475498
3306	0.00372688
3318	0.00372688
3330	0.00359836
3342	0.00359836
3354	0.00411242
3366	0.00436944
3378	0.00346985
3390	0.00385539
3402	0.00449795
3414	0.00514052
3426	0.00514052
3438	0.00411242
3450	0.00526903
3462	0.00488349
3474	0.0039839
3486	0.00385539
3498	0.00424093
3510	0.00346985
3522	0.00424093
3534	0.00436944
3546	0.00449795
3558	0.00346985
3570	0.00424093
3582	0.00411242
3594	0.00526903
3606	0.00475498
3618	0.00372688
3630	0.00681119
3642	0.00334134
3654	0.00809632
3666	0.00514052
3678	0.00257026
3690	0.00719673
3702	0.00552606
3714	0.0069397
3726	0.00257026
3738	0.00436944
3750	0.0113091
3762	0.0029558
3774	0.00346985
3786	0.00539755
3798	0.0088674
3810	0.00218472
3822	0.00822483
3834	0.0059116
3846	0.00719673
3858	0.00578308
3870	0.0039839
3882	0.00629714
3894	0.00167067
3906	0.00616862
3918	0.0088674
3930	0.00526903
3942	0.00205621
3954	0.00629714
3966	0.00745375
