Infrared Spectrum: Acetic acid, cyclohexyl ester
Formula: C 8 H 14 O 2
CAS: 622-45-7
Origin: Sadtler Research Labs Under US-EPA Contract
1/CM	ABSORBANCE
450	0.0183821
462	0.0223437
474	0.0198083
486	0.0204421
498	0.0136281
510	0.0120434
522	0.0167974
534	0.0206006
546	0.0267808
558	0.0244038
570	0.0206006
582	0.0150543
594	0.0213929
606	0.0323271
618	0.0318517
630	0.0217098
642	0.0182236
654	0.0245622
666	0.0074479
678	0.00190159
690	0.000475398
702	0.00190159
714	0.000633864
726	0.00174313
738	0.00269392
750	0.00158466
762	0.00174313
774	0.000158466
786	0.00079233
798	0.00618017
810	0.00586324
822	0.00808177
834	0.0145789
846	0.0144204
858	0.0126773
870	0.0191744
882	0.0274146
894	0.0472229
906	0.056097
918	0.0320101
930	0.0251961
942	0.0391411
954	0.0841454
966	0.100151
978	0.058474
990	0.0459551
1002	0.0773314
1014	0.173362
1026	0.267015
1038	0.233896
1050	0.418826
1062	0.197607
1074	0.129784
1086	0.0922272
1098	0.0540369
1110	0.0380318
1122	0.0746375
1134	0.0785991
1146	0.0362887
1158	0.0356549
1170	0.0307424
1182	0.0318517
1194	0.0521353
1206	0.106648
1218	0.278108
1230	0.987243
1242	1.58466
1254	0.794232
1266	0.271928
1278	0.107123
1290	0.0510261
1302	0.0364472
1314	0.0383488
1326	0.0389826
1338	0.0385072
1350	0.0592663
1362	0.227082
1374	0.270185
1386	0.167023
1398	0.0622771
1410	0.0301085
1422	0.0288408
1434	0.0470644
1446	0.0939703
1458	0.132953
1470	0.0746375
1482	0.0289993
1494	0.0155297
1506	0.0131527
1518	0.0152127
1530	0.0174313
1542	0.0136281
1554	0.0112511
1566	0.00808177
1578	0.00728944
1590	0.0079233
1602	0.00871563
1614	0.0110926
1626	0.00934949
1638	0.0069725
1650	0.0107757
1662	0.0122019
1674	0.0125188
1686	0.0172728
1698	0.0217098
1710	0.0415181
1722	0.0619602
1734	0.118691
1746	0.504556
1758	0.877426
1770	0.394263
1782	0.110451
1794	0.0670311
1806	0.0378734
1818	0.0196498
1830	0.0134696
1842	0.0145789
1854	0.011568
1866	0.0079233
1878	0.00586324
1890	0.00459551
1902	0.00443705
1914	0.00507091
1926	0.00491245
1938	0.00412012
1950	0.00301085
1962	0.00221852
1974	0.00174313
1986	0.00126773
1998	0.000950796
2010	0.00110926
2022	0.00110926
2034	0.000950796
2046	0.00110926
2058	0.00110926
2070	0.00190159
2082	0.00237699
2094	0.00158466
2106	0.00285239
2118	0.00507091
2130	0.00459551
2142	0.00507091
2154	0.00491245
2166	0.00253546
2178	0.00206006
2190	0.00190159
2202	0.00206006
2214	0.00158466
2226	0.00079233
2238	0.00174313
2250	0.00253546
2262	0.00221852
2274	0.00174313
2286	0.00158466
2298	0.00110926
2310	0.00110926
2322	0.00174313
2334	0.00190159
2346	0.00221852
2358	0.00158466
2370	0.00174313
2382	0.00221852
2394	0.00142619
2406	0.00142619
2418	0.00079233
2430	0.000475398
2442	0.00079233
2454	0.00158466
2466	0.00301085
2478	0.00443705
2490	0.00316932
2502	0.00174313
2514	0.00126773
2526	0.000950796
2538	0.000316932
2550	0
2562	0.000475398
2574	0.00158466
2586	0.00253546
2598	0.00412012
2610	0.00443705
2622	0.00380318
2634	0.00396165
2646	0.00538784
2658	0.0088741
2670	0.0126773
2682	0.00950796
2694	0.00776483
2706	0.0079233
2718	0.0074479
2730	0.00522938
2742	0.00396165
2754	0.00412012
2766	0.00554631
2778	0.00728944
2790	0.0106172
2802	0.0126773
2814	0.0131527
2826	0.0148958
2838	0.0237699
2850	0.0746375
2862	0.26654
2874	0.320894
2886	0.152286
2898	0.0939703
2910	0.145472
2922	0.297124
2934	0.670628
2946	1.08961
2958	0.673164
2970	0.187782
2982	0.0456382
2994	0.0218683
3006	0.0167974
3018	0.0155297
3030	0.0177482
3042	0.0171143
3054	0.0134696
3066	0.0110926
3078	0.00998336
3090	0.00776483
3102	0.00618017
3114	0.00427858
3126	0.00301085
3138	0.00285239
3150	0.00364472
3162	0.00348625
3174	0.00253546
3186	0.00126773
3198	0.000633864
3210	0.00079233
3222	0.000633864
3234	0.000158466
3246	0.000950796
3258	0.000950796
3270	0.00079233
3282	0.00110926
3294	0.000950796
3306	0.00110926
3318	0.00079233
3330	0.00110926
3342	0.00126773
3354	0.00079233
3366	0.00079233
3378	0.00142619
3390	0.00158466
3402	0.00206006
3414	0.00237699
3426	0.00269392
3438	0.00190159
3450	0.00174313
3462	0.00206006
3474	0.00285239
3486	0.00681404
3498	0.00808177
3510	0.00237699
3522	0.00110926
3534	0.000633864
3546	0.00158466
3558	0.000950796
3570	0.00079233
3582	0.00079233
3594	0.000158466
3606	0.00126773
3618	0.00110926
3630	0.00206006
3642	0.0074479
3654	0.0109342
3666	0.00760637
3678	0.00158466
3690	0.00110926
3702	0.00126773
3714	0.00221852
3726	0.00079233
3738	0.00190159
3750	0.000633864
3762	0.00142619
3774	0.00142619
3786	0.00110926
3798	0.00126773
3810	0.00079233
3822	0.000633864
3834	0.00110926
3846	0.00174313
3858	0.000633864
3870	0.00079233
3882	0.000950796
3894	0.000950796
3906	0.000633864
3918	0.000633864
3930	0
3942	0.000475398
3954	0.00142619
3966	0.000475398
