Infrared Spectrum: 1-Tetradecanol, methanesulfonate
Formula: C 15 H 32 O 3 S
CAS: 6222-16-8
Origin: Sadtler Research Labs Under US-EPA Contract
1/CM	ABSORBANCE
450	0.00111481
462	0.00679018
474	0.0050673
486	0.00739826
498	0.0133777
510	0.0230055
522	0.0420586
534	0.0730705
546	0.0399303
558	0.0568551
570	0.0145938
582	0.0063848
594	0.00547268
606	0.00253365
618	0.00162154
630	0.00202692
642	0.0037498
654	0.00445922
666	0.00476326
678	0.00628345
690	0.0132763
702	0.0257419
714	0.0355724
726	0.0356738
738	0.0271607
750	0.0250325
762	0.0314173
774	0.0547268
786	0.0639493
798	0.0672937
810	0.0733745
822	0.0515851
834	0.0337482
846	0.0258432
858	0.021688
870	0.023715
882	0.0310119
894	0.0420586
906	0.0620238
918	0.0806714
930	0.102663
942	0.141175
954	0.192051
966	0.194686
978	0.100941
990	0.0841172
1002	0.0635439
1014	0.0481393
1026	0.0440855
1038	0.0461124
1050	0.10469
1062	0.0422613
1074	0.0227015
1086	0.0186477
1098	0.0169248
1110	0.0168234
1122	0.0183436
1134	0.0182423
1146	0.0236136
1158	0.0423626
1170	0.105096
1182	0.266945
1194	0.348833
1206	0.202489
1218	0.118676
1230	0.0692193
1242	0.0418559
1254	0.0281742
1266	0.0258432
1278	0.0227015
1290	0.0229042
1302	0.0267553
1314	0.0317213
1326	0.0443895
1338	0.0633413
1350	0.0916168
1362	0.145736
1374	0.186983
1386	0.167424
1398	0.11746
1410	0.0453017
1422	0.03162
1434	0.0310119
1446	0.0484434
1458	0.0738812
1470	0.0685099
1482	0.0274648
1494	0.0113508
1506	0.00648614
1518	0.00425653
1530	0.00314173
1542	0.00253365
1554	0.0024323
1566	0.00141884
1578	0.00202692
1590	0.00141884
1602	0.00121615
1614	0.00162154
1626	0.00202692
1638	0.00456057
1650	0.00324307
1662	0.00182423
1674	0.0013175
1686	0.00202692
1698	0.00192557
1710	0.00283769
1722	0.00395249
1734	0.0050673
1746	0.00486461
1758	0.00395249
1770	0.00304038
1782	0.00273634
1794	0.00222961
1806	0.00202692
1818	0.00192557
1830	0.00101346
1842	0.00101346
1854	0.00050673
1866	0.000304038
1878	0.000304038
1890	0.000304038
1902	0.000304038
1914	0.000304038
1926	0.000304038
1938	0.000202692
1950	0.000202692
1962	0
1974	0.000202692
1986	0.000304038
1998	0.000202692
2010	0.000405384
2022	0.000810768
2034	0.0013175
2046	0.0013175
2058	0.000912114
2070	0.00101346
2082	0.0013175
2094	0.00141884
2106	0.00121615
2118	0.00121615
2130	0.00121615
2142	0.000810768
2154	0.0013175
2166	0.0013175
2178	0.00162154
2190	0.00152019
2202	0.00152019
2214	0.00172288
2226	0.00152019
2238	0.00182423
2250	0.00202692
2262	0.00212827
2274	0.00222961
2286	0.00304038
2298	0.00466192
2310	0.00577672
2322	0.00496595
2334	0.0024323
2346	0.00364846
2358	0.00324307
2370	0.000912114
2382	0.00324307
2394	0.00141884
2406	0.00141884
2418	0.00101346
2430	0.00101346
2442	0.00101346
2454	0.000912114
2466	0.00101346
2478	0.00121615
2490	0.00152019
2502	0.00182423
2514	0.0024323
2526	0.00293903
2538	0.0037498
2550	0.00405384
2562	0.00395249
2574	0.00405384
2586	0.00395249
2598	0.00466192
2610	0.00516865
2622	0.00557403
2634	0.00628345
2646	0.00719557
2658	0.00780364
2670	0.00901979
2682	0.00993191
2694	0.00983056
2706	0.00942518
2718	0.00932383
2730	0.00993191
2742	0.0110467
2754	0.0116548
2766	0.0122629
2778	0.0141884
2790	0.0173302
2802	0.0230055
2814	0.0299984
2826	0.0414505
2838	0.0639493
2850	0.143303
2862	0.372548
2874	0.286708
2886	0.19803
2898	0.197827
2910	0.314071
2922	0.582942
2934	1.01346
2946	0.621656
2958	0.314679
2970	0.288836
2982	0.14756
2994	0.080266
3006	0.0540174
3018	0.0464165
3030	0.0341536
3042	0.023715
3054	0.0176342
3066	0.0152019
3078	0.0143911
3090	0.0147965
3102	0.00952652
3114	0.00780364
3126	0.00679018
3138	0.00608076
3150	0.00537134
3162	0.00537134
3174	0.00445922
3186	0.00425653
3198	0.00385115
3210	0.00324307
3222	0.00273634
3234	0.00202692
3246	0.00202692
3258	0.00222961
3270	0.00202692
3282	0.00192557
3294	0.00182423
3306	0.00192557
3318	0.00162154
3330	0.00192557
3342	0.00162154
3354	0.00172288
3366	0.00172288
3378	0.00192557
3390	0.00212827
3402	0.00192557
3414	0.00192557
3426	0.0013175
3438	0.000912114
3450	0.00121615
3462	0.00162154
3474	0.000912114
3486	0.00182423
3498	0.00111481
3510	0.000912114
3522	0.00182423
3534	0.00152019
3546	0.00141884
3558	0.00141884
3570	0.002635
3582	0.00283769
3594	0.00344576
3606	0.00314173
3618	0.00334442
3630	0.00415519
3642	0.00304038
3654	0.00293903
3666	0.00253365
3678	0.00344576
3690	0.002635
3702	0.00202692
3714	0.00314173
3726	0.00283769
3738	0.00314173
3750	0.0024323
3762	0.00233096
3774	0.00293903
3786	0.00233096
3798	0.0037498
3810	0.00324307
3822	0.00344576
3834	0.00456057
3846	0.00425653
3858	0.00445922
3870	0.00395249
3882	0.00435788
3894	0.00496595
3906	0.00476326
3918	0.00445922
3930	0.00354711
3942	0.00486461
3954	0.00456057
3966	0.00466192
