Infrared Spectrum: Cyclohexyl propionate
Formula: C 9 H 16 O 2
CAS: 6222-35-1
Origin: Sadtler Research Labs Under US-EPA Contract
1/CM	ABSORBANCE
450	0.100636
462	0.0201272
474	0.00495319
486	0.0221714
498	0.00967051
510	0.0116361
522	0.0106926
534	0.00801944
546	0.0110857
558	0.00896291
570	0.0078622
582	0.0115574
594	0.00573941
606	0.00967051
618	0.013523
630	0.0136802
642	0.0078622
654	0.00982775
666	0.0092774
678	0.0104567
690	0.0101422
702	0.0111643
714	0.00558216
726	0.00385248
738	0.0103781
750	0.0114002
762	0.0113216
774	0.0127368
786	0.0155672
798	0.0161175
810	0.01997
822	0.0209135
834	0.0236652
846	0.0247659
858	0.024137
870	0.025159
882	0.0231149
894	0.0368737
906	0.043478
918	0.0435566
930	0.0596741
942	0.0438711
954	0.0326281
966	0.0183975
978	0.0225645
990	0.0391538
1002	0.0683225
1014	0.106533
1026	0.148438
1038	0.157637
1050	0.150325
1062	0.144743
1074	0.172339
1086	0.162826
1098	0.0969409
1110	0.0718605
1122	0.111565
1134	0.104489
1146	0.077364
1158	0.122336
1170	0.198835
1182	0.506876
1194	0.710193
1206	0.416618
1218	0.300572
1230	0.198363
1242	0.163534
1254	0.15292
1266	0.150797
1278	0.140576
1290	0.0888429
1302	0.051576
1314	0.0521264
1326	0.0984347
1338	0.140812
1350	0.150011
1362	0.126424
1374	0.0668287
1386	0.0610107
1398	0.0308198
1410	0.0231935
1422	0.0271246
1434	0.0452076
1446	0.0772854
1458	0.106847
1470	0.0964692
1482	0.0392324
1494	0.0191051
1506	0.0120292
1518	0.00872704
1530	0.00872704
1542	0.00762633
1554	0.00699736
1566	0.00636838
1578	0.0053463
1590	0.00518905
1602	0.00597527
1614	0.00621114
1626	0.00668287
1638	0.00754771
1650	0.00872704
1662	0.00998499
1674	0.0102995
1686	0.0115574
1698	0.01997
1710	0.037031
1722	0.0550354
1734	0.147259
1746	0.491938
1758	0.550747
1770	0.165578
1782	0.0456794
1794	0.0272032
1806	0.0169824
1818	0.0109285
1830	0.00825531
1842	0.00699736
1854	0.00621114
1866	0.0046387
1878	0.00330212
1890	0.00306626
1902	0.00338075
1914	0.00306626
1926	0.00353799
1938	0.00330212
1950	0.00298764
1962	0.00243728
1974	0.00212279
1986	0.00220142
1998	0.00243728
2010	0.00290901
2022	0.00487456
2034	0.00573941
2046	0.0046387
2058	0.00668287
2070	0.00558216
2082	0.00306626
2094	0.00259453
2106	0.00196555
2118	0.00180831
2130	0.000864842
2142	0.00078622
2154	0.000471732
2166	0.000550354
2178	0.00110071
2190	0.00117933
2202	0.00172968
2214	0.00149382
2226	0.00110071
2238	0.00149382
2250	0.00228004
2262	0.00165106
2274	0.00165106
2286	0.00228004
2298	0.00212279
2310	0.00165106
2322	0.00165106
2334	0.0025159
2346	0.006447
2358	0.00212279
2370	0.00982775
2382	0.00809807
2394	0.00440283
2406	0.0032235
2418	0.00306626
2430	0.0032235
2442	0.00314488
2454	0.00314488
2466	0.00298764
2478	0.00361661
2490	0.00377386
2502	0.00416697
2514	0.00408834
2526	0.00416697
2538	0.00408834
2550	0.00385248
2562	0.00503181
2574	0.00361661
2586	0.00361661
2598	0.00487456
2610	0.00408834
2622	0.00275177
2634	0.00283039
2646	0.00408834
2658	0.00456008
2670	0.00723322
2682	0.00912015
2694	0.00896291
2706	0.00849118
2718	0.00770496
2730	0.00628976
2742	0.006447
2754	0.00668287
2766	0.00676149
2778	0.00794082
2790	0.00990637
2802	0.0117147
2814	0.0139161
2826	0.0150954
2838	0.0192624
2850	0.0415124
2862	0.168251
2874	0.20937
2886	0.101894
2898	0.0805875
2910	0.102051
2922	0.183975
2934	0.41363
2946	0.78622
2958	0.464263
2970	0.158266
2982	0.111329
2994	0.110464
3006	0.0542492
3018	0.0326281
3030	0.0184762
3042	0.0109285
3054	0.00841255
3066	0.00652563
3078	0.00566078
3090	0.00542492
3102	0.0046387
3114	0.00432421
3126	0.0032235
3138	0.00400972
3150	0.00550354
3162	0.00361661
3174	0.00267315
3186	0.00259453
3198	0.00196555
3210	0.00243728
3222	0.00330212
3234	0.00385248
3246	0.00220142
3258	0.000943464
3270	0.00243728
3282	0.00408834
3294	0.00298764
3306	0.00345937
3318	0.00306626
3330	0.00432421
3342	0.00369523
3354	0.0025159
3366	0.00298764
3378	0.00283039
3390	0.00400972
3402	0.00345937
3414	0.0053463
3426	0.00503181
3438	0.00456008
3450	0.00495319
3462	0.0039311
3474	0.00731185
3486	0.00778358
3498	0.0053463
3510	0.00212279
3522	0.00220142
3534	0.00353799
3546	0.00149382
3558	0.00338075
3570	0.0025159
3582	0.00212279
3594	0.00330212
3606	0.00283039
3618	0.00235866
3630	0.00542492
3642	0.00235866
3654	0.00243728
3666	0.00157244
3678	0.00361661
3690	0.00314488
3702	0.00503181
3714	0.00440283
3726	0.00456008
3738	0.00809807
3750	0.00408834
3762	0.00369523
3774	0.00424559
3786	0.00621114
3798	0.00408834
3810	0.00345937
3822	0.00117933
3834	0.00432421
3846	0.0025159
3858	0.00518905
3870	0.00078622
3882	0.00385248
3894	0.00400972
3906	0.00039311
3918	0.00361661
3930	0.00542492
3942	0.00259453
3954	0.0039311
3966	0.0104567
