Infrared Spectrum: 2-Furanmethanol, acetate
Formula: C 7 H 8 O 3
CAS: 623-17-6
Origin: Sadtler Research Labs Under US-EPA Contract
1/CM	ABSORBANCE
450	0.0638826
462	0.0456073
474	0.0447987
486	0.018437
498	0.0111592
510	0.0116444
522	0.00614566
534	0.00161728
546	0.00873331
558	0.00388147
570	0.0137469
582	0.0190839
594	0.0575752
606	0.0766591
618	0.0596776
630	0.0284641
642	0.0164963
654	0.0163345
666	0.00889504
678	0.00355802
690	0.0092185
702	0.0176284
714	0.047548
726	0.169976
738	0.330895
750	0.199411
762	0.075527
774	0.0307283
786	0.0242592
798	0.0454456
810	0.0863628
822	0.0604863
834	0.0299197
846	0.0229654
858	0.0215098
870	0.0271703
882	0.058869
894	0.0807023
906	0.0828047
918	0.133911
930	0.117738
942	0.0646912
954	0.0656616
966	0.116121
978	0.143938
990	0.171593
1002	0.236932
1014	0.416126
1026	0.438606
1038	0.31165
1050	0.166903
1062	0.125986
1074	0.112886
1086	0.104638
1098	0.0598394
1110	0.0323456
1122	0.021995
1134	0.0274938
1146	0.109813
1158	0.165609
1170	0.0632356
1182	0.0811875
1194	0.173372
1206	0.472407
1218	1.03231
1230	1.59965
1242	1.3176
1254	0.412892
1266	0.164316
1278	0.126148
1290	0.108358
1302	0.0596776
1314	0.0316987
1326	0.0252296
1338	0.0289493
1350	0.0726159
1362	0.190516
1374	0.251487
1386	0.206365
1398	0.093964
1410	0.0515912
1422	0.0428579
1434	0.0612949
1446	0.0807023
1458	0.0727776
1470	0.0566048
1482	0.0433431
1494	0.0556344
1506	0.0722924
1518	0.0481949
1530	0.0318604
1542	0.0328308
1554	0.0307283
1566	0.0221567
1578	0.0195691
1590	0.0245827
1602	0.0349332
1614	0.0307283
1626	0.0182753
1638	0.0142321
1650	0.0153642
1662	0.018437
1674	0.0221567
1686	0.0250678
1698	0.0313752
1710	0.045769
1722	0.0674406
1734	0.0950961
1746	0.236608
1758	0.729232
1770	1.0336
1782	0.473054
1794	0.172079
1806	0.0734245
1818	0.0388147
1830	0.0249061
1842	0.0198925
1854	0.0134234
1866	0.00840986
1878	0.00501357
1890	0.00436666
1902	0.00371974
1914	0.00388147
1926	0.00388147
1938	0.00436666
1950	0.00533702
1962	0.00501357
1974	0.0051753
1986	0.0051753
1998	0.00549875
2010	0.0051753
2022	0.00630739
2034	0.00743949
2046	0.00792467
2058	0.00824813
2070	0.00873331
2082	0.00760122
2094	0.00663085
2106	0.00646912
2118	0.0051753
2130	0.00485184
2142	0.00436666
2154	0.00452838
2166	0.00339629
2178	0.0029111
2190	0.00323456
2202	0.0029111
2214	0.00388147
2226	0.00355802
2238	0.00388147
2250	0.00307283
2262	0.00194074
2274	0.00177901
2286	0.00161728
2298	0.00242592
2310	0.00339629
2322	0.0029111
2334	0.00129382
2346	0.0011321
2358	0.00226419
2370	0.0029111
2382	0.0029111
2394	0.0029111
2406	0.00355802
2418	0.0040432
2430	0.00469011
2442	0.0051753
2454	0.00533702
2466	0.00501357
2478	0.00452838
2490	0.00258765
2502	0.00226419
2514	0.00177901
2526	0.00210246
2538	0.00226419
2550	0.00226419
2562	0.00226419
2574	0.00371974
2586	0.00436666
2598	0.0040432
2610	0.00226419
2622	0.00080864
2634	0.000646912
2646	0.00129382
2658	0.00274938
2670	0.00355802
2682	0.00452838
2694	0.00371974
2706	0.00242592
2718	0.00371974
2730	0.00501357
2742	0.00533702
2754	0.00501357
2766	0.00533702
2778	0.00501357
2790	0.00566048
2802	0.00711603
2814	0.00679258
2826	0.0069543
2838	0.00630739
2850	0.00679258
2862	0.00986541
2874	0.0135852
2886	0.0155259
2898	0.0147172
2910	0.0129382
2922	0.0155259
2934	0.0247444
2946	0.0472246
2958	0.0698665
2970	0.0732628
2982	0.0562813
2994	0.0383295
3006	0.0263617
3018	0.0198925
3030	0.0174666
3042	0.0164963
3054	0.0143938
3066	0.0135852
3078	0.0121296
3090	0.0092185
3102	0.00824813
3114	0.0109975
3126	0.0197308
3138	0.0131
3150	0.00760122
3162	0.0108358
3174	0.00371974
3186	0.000646912
3198	0.00177901
3210	0.00339629
3222	0.00274938
3234	0.00177901
3246	0.00161728
3258	0.00177901
3270	0.00194074
3282	0.00210246
3294	0.00161728
3306	0.00161728
3318	0.00177901
3330	0.00323456
3342	0.0029111
3354	0.00258765
3366	0.00194074
3378	0.00129382
3390	0.00194074
3402	0.00177901
3414	0.00145555
3426	0.00161728
3438	0.00339629
3450	0.0029111
3462	0.00258765
3474	0.00129382
3486	0.00355802
3498	0.0051753
3510	0.010674
3522	0.0100271
3534	0.00598394
3546	0.00339629
3558	0.00355802
3570	0.00630739
3582	0.00533702
3594	0.00566048
3606	0.00323456
3618	0.00194074
3630	0.00274938
3642	0.00177901
3654	0.0040432
3666	0.00274938
3678	0.00323456
3690	0.0029111
3702	0.00420493
3714	0.00307283
3726	0.00420493
3738	0.00452838
3750	0.00582221
3762	0.00355802
3774	0.0069543
3786	0.00533702
3798	0.00339629
3810	0.00485184
3822	0.0029111
3834	0.0040432
3846	0.00177901
3858	0.0040432
3870	0.00598394
3882	0.00485184
3894	0.00258765
3906	0.0040432
3918	0.00371974
3930	0.00469011
3942	0.00307283
3954	0.00485184
3966	0.00323456
