Infrared Spectrum: Ethyl propiolate
Formula: C 5 H 6 O 2
CAS: 623-47-2
Origin: Sadtler Research Labs Under US-EPA Contract
1/CM	ABSORBANCE
450	0.000513992
462	0.00186322
474	0.00141348
486	0.000128498
498	0.00167047
510	0.00385494
522	0.00321245
534	0.00391919
546	0.00269846
558	0.0030197
570	0.00244146
582	0.00443318
594	0.00578241
606	0.00558966
618	0.00488292
630	0.0145845
642	0.0328312
654	0.0591091
666	0.0278198
678	0.033795
690	0.0242219
702	0.00828812
714	0.00366219
726	0.00494717
738	0.0137493
750	0.0250571
762	0.0241576
774	0.0156768
786	0.00700314
798	0.00385494
810	0.00237721
822	0.00173472
834	0.00276271
846	0.00687464
858	0.0104726
870	0.00989435
882	0.00398344
894	0.00250571
906	0.00308395
918	0.00372644
930	0.00237721
942	0.000899486
954	6.4249e-05
966	0.000321245
978	0.00109223
990	0.00256996
1002	0.00661765
1014	0.0195959
1026	0.0431753
1038	0.0436251
1050	0.0168332
1062	0.00854512
1074	0.00636065
1086	0.0118218
1098	0.0191462
1110	0.0211379
1122	0.0164477
1134	0.0129783
1146	0.0122073
1158	0.014713
1170	0.0246074
1182	0.0415691
1194	0.0727299
1206	0.163192
1218	0.460858
1230	0.602334
1242	0.352149
1254	0.0873786
1266	0.0305825
1278	0.0279483
1290	0.0277556
1302	0.0266633
1314	0.0213949
1326	0.0138135
1338	0.00770988
1350	0.00867362
1362	0.0177327
1374	0.0219732
1386	0.015998
1398	0.0099586
1410	0.00873786
1422	0.00732439
1434	0.00726014
1446	0.0106653
1458	0.0119503
1470	0.0158695
1482	0.014713
1494	0.0099586
1506	0.00526842
1518	0.0032767
1530	0.00237721
1542	0.000321245
1554	0.00179897
1566	0.00244146
1578	0.00295545
1590	0.00263421
1602	0.00295545
1614	0.00282696
1626	0.00199172
1638	0.00199172
1650	0.000835237
1662	0.00276271
1674	0.00295545
1686	0.00578241
1698	0.0110508
1710	0.034566
1722	0.108517
1734	0.249929
1746	0.267212
1758	0.122266
1770	0.0318675
1782	0.00783838
1794	0.00469018
1806	0.00411194
1818	0.0032767
1830	0.00192747
1842	0.00154198
1854	0.00231296
1866	0.00173472
1878	0.00224872
1890	0.00199172
1902	0.00212022
1914	0.00141348
1926	0.00154198
1938	0.00115648
1950	0.00109223
1962	0.00109223
1974	0.00109223
1986	0.00102798
1998	0.00122073
2010	0.00147773
2022	0.00128498
2034	0.00147773
2046	0.00154198
2058	0.00192747
2070	0.00269846
2082	0.00424043
2094	0.00835237
2106	0.0216519
2118	0.0418261
2130	0.0483152
2142	0.0302613
2154	0.0116933
2166	0.00424043
2178	0.00109223
2190	0.000449743
2202	0.000449743
2214	0.000321245
2226	0.000385494
2238	0.000321245
2250	0.000385494
2262	0.000256996
2274	0.000706739
2286	0.000513992
2298	0
2310	0.000256996
2322	0.000256996
2334	0.000128498
2346	0.00064249
2358	0.000385494
2370	0.000192747
2382	0.000321245
2394	0.000256996
2406	0.000706739
2418	0.00128498
2430	0.00128498
2442	0.00173472
2454	0.00179897
2466	0.00134923
2478	0.000770988
2490	0.000578241
2502	0.000835237
2514	0.000321245
2526	0.000835237
2538	0.00064249
2550	0.000321245
2562	0.000449743
2574	0.000385494
2586	0.000385494
2598	0.000963735
2610	0.000963735
2622	0.000513992
2634	0.000963735
2646	0.000963735
2658	0.000963735
2670	0.000899486
2682	0.000578241
2694	0.00102798
2706	0.00102798
2718	0.000963735
2730	0.000963735
2742	0.00160622
2754	0.00102798
2766	0.00160622
2778	0.00160622
2790	0.00154198
2802	0.00154198
2814	0.00154198
2826	0.00212022
2838	0.00218447
2850	0.00218447
2862	0.00308395
2874	0.00430468
2886	0.00738864
2898	0.00938035
2910	0.0098301
2922	0.0103441
2934	0.013171
2946	0.0191462
2958	0.0201742
2970	0.0212664
2982	0.0371359
2994	0.0424043
3006	0.031996
3018	0.0181825
3030	0.00841662
3042	0.00424043
3054	0.00321245
3066	0.00224872
3078	0.00167047
3090	0.00237721
3102	0.00179897
3114	0.00179897
3126	0.00128498
3138	0.00109223
3150	0.000706739
3162	0.00134923
3174	0.00134923
3186	0.000899486
3198	0.00134923
3210	0.00141348
3222	0.000899486
3234	0.00122073
3246	0.000835237
3258	0.000963735
3270	0.00141348
3282	0.0028912
3294	0.00700314
3306	0.0153555
3318	0.046709
3330	0.0451028
3342	0.0154198
3354	0.00218447
3366	0.000963735
3378	0.000963735
3390	0.00102798
3402	0.000963735
3414	0.00064249
3426	0.00102798
3438	0.00141348
3450	0.0034052
3462	0.00295545
3474	0.00295545
3486	0.000963735
3498	0.000513992
3510	0.000321245
3522	0.000128498
3534	0.00102798
3546	0.000449743
3558	0.000513992
3570	0.000192747
3582	0.000513992
3594	0.00109223
3606	0.00064249
3618	0.000256996
3630	0.00102798
3642	0.000835237
3654	0.000770988
3666	0.000770988
3678	0.000770988
3690	0.00122073
3702	0.000321245
3714	0.00122073
3726	0.00128498
3738	0.00122073
3750	0.00115648
3762	0.00122073
3774	0.00128498
3786	0.00109223
3798	0.00109223
3810	0.000963735
3822	0.000835237
3834	0.000899486
3846	0.00134923
3858	0.00141348
3870	0.000835237
3882	0.00160622
3894	0.00102798
3906	0.00128498
3918	0.00122073
3930	0.00154198
3942	0.00134923
3954	0.00218447
3966	0.00231296
