Infrared Spectrum: 3-Hexanol
Formula: C 6 H 14 O
CAS: 623-37-0
Origin: Sadtler Research Labs Under US-EPA Contract
1/CM	ABSORBANCE
450	0.0165131
462	0.0207138
474	0.0189756
486	0.0304189
498	0.0202793
510	0.0157889
522	0.019555
534	0.0212932
546	0.0072426
558	0.0101396
570	0.0130367
582	0.0124573
594	0.0153543
606	0.0131815
618	0.0152095
630	0.0139058
642	0.0128918
654	0.0140506
666	0.0137609
678	0.0126021
690	0.0130367
702	0.0130367
714	0.0146301
726	0.0123124
738	0.0214381
750	0.0221624
762	0.0214381
774	0.0281013
786	0.0356336
798	0.023466
810	0.0256388
822	0.0367924
834	0.0572165
846	0.0654731
858	0.0593893
870	0.0559129
882	0.0657628
894	0.0748885
906	0.0663422
918	0.0496842
930	0.0543195
942	0.103714
954	0.191639
966	0.249435
978	0.251608
990	0.258706
1002	0.245669
1014	0.180051
1026	0.127035
1038	0.130222
1050	0.133409
1062	0.139058
1074	0.150212
1086	0.162959
1098	0.168897
1110	0.174836
1122	0.200185
1134	0.22539
1146	0.194247
1158	0.120082
1170	0.0769164
1182	0.0728606
1194	0.0918362
1206	0.125732
1218	0.153978
1230	0.158323
1242	0.143403
1254	0.127615
1266	0.118199
1278	0.111101
1290	0.101976
1302	0.0905325
1314	0.0793789
1326	0.0737297
1338	0.0806826
1350	0.101396
1362	0.138334
1374	0.192363
1386	0.213222
1398	0.17136
1410	0.102121
1422	0.0705429
1434	0.0809723
1446	0.135002
1458	0.211194
1470	0.218437
1482	0.131526
1494	0.0569268
1506	0.0285358
1518	0.0210035
1530	0.0157889
1542	0.0163683
1554	0.0143403
1566	0.0120227
1578	0.0120227
1590	0.0101396
1602	0.00898082
1614	0.00927053
1626	0.0072426
1638	0.00840142
1650	0.00666319
1662	0.00622864
1674	0.00666319
1686	0.00738745
1698	0.0069529
1710	0.00550438
1722	0.0069529
1734	0.00869112
1746	0.0075323
1758	0.00651834
1770	0.00463526
1782	0.00347645
1794	0.00347645
1806	0.00347645
1818	0.00318674
1830	0.00260734
1842	0.00304189
1854	0.00289704
1866	0.00202793
1878	0.00231763
1890	0.00217278
1902	0.00275219
1914	0.00260734
1926	0.00304189
1938	0.00289704
1950	0.00260734
1962	0.00289704
1974	0.00231763
1986	0.00275219
1998	0.00188308
2010	0.00144852
2022	0.00173822
2034	0.00173822
2046	0.00202793
2058	0.00072426
2070	0.000579408
2082	0.00144852
2094	0.00101396
2106	0.00115882
2118	0.00115882
2130	0.00144852
2142	0.00130367
2154	0.00173822
2166	0.00188308
2178	0.00231763
2190	0.00202793
2202	0.00246248
2214	0.00260734
2226	0.00217278
2238	0.00188308
2250	0.00217278
2262	0.00246248
2274	0.00275219
2286	0.00260734
2298	0.00260734
2310	0.00275219
2322	0.00405586
2334	0.00564923
2346	0.00680804
2358	0.00521467
2370	0.0102845
2382	0.00825656
2394	0.00608378
2406	0.00637349
2418	0.0069529
2430	0.00593893
2442	0.00478012
2454	0.00420071
2466	0.00405586
2478	0.00420071
2490	0.00434556
2502	0.00449041
2514	0.00478012
2526	0.00434556
2538	0.00564923
2550	0.00535952
2562	0.00637349
2574	0.00767716
2586	0.00999479
2598	0.0124573
2610	0.0141955
2622	0.0150646
2634	0.0149198
2646	0.0168028
2658	0.0186859
2670	0.0202793
2682	0.0210035
2694	0.0212932
2706	0.0233212
2718	0.0253491
2730	0.0286807
2742	0.035199
2754	0.0370821
2766	0.0354887
2778	0.0388203
2790	0.0441799
2802	0.0512776
2814	0.0633003
2826	0.0866215
2838	0.143693
2850	0.256243
2862	0.402544
2874	0.577815
2886	0.712817
2898	0.610406
2910	0.59708
2922	0.842314
2934	1.14433
2946	1.15708
2958	1.0974
2970	1.44852
2982	1.05612
2994	0.35764
3006	0.134278
3018	0.0816965
3030	0.0661974
3042	0.0563474
3054	0.0478012
3066	0.041138
3078	0.0375167
3090	0.0308535
3102	0.0282461
3114	0.0257837
3126	0.0243351
3138	0.0220175
3150	0.0223072
3162	0.0230315
3174	0.0211484
3186	0.0202793
3198	0.0176719
3210	0.0137609
3222	0.0130367
3234	0.00956023
3246	0.00927053
3258	0.0075323
3270	0.00811171
3282	0.00492497
3294	0.00420071
3306	0.00463526
3318	0.00405586
3330	0.003911
3342	0.00492497
3354	0.00217278
3366	0.00231763
3378	0.0036213
3390	0.00420071
3402	0.00579408
3414	0.00709775
3426	0.0072426
3438	0.00564923
3450	0.00550438
3462	0.00463526
3474	0.00535952
3486	0.00478012
3498	0.00521467
3510	0.00463526
3522	0.00405586
3534	0.00492497
3546	0.00463526
3558	0.00579408
3570	0.00709775
3582	0.00579408
3594	0.00521467
3606	0.0110088
3618	0.0215829
3630	0.0386755
3642	0.0677907
3654	0.109508
3666	0.105452
3678	0.0512776
3690	0.0233212
3702	0.0128918
3714	0.0141955
3726	0.0115882
3738	0.0133264
3750	0.011733
3762	0.0126021
3774	0.00941538
3786	0.0131815
3798	0.0136161
3810	0.0124573
3822	0.015644
3834	0.0160786
3846	0.0163683
3858	0.0170925
3870	0.0147749
3882	0.0162234
3894	0.0162234
3906	0.0160786
3918	0.0163683
3930	0.0141955
3942	0.00927053
3954	0.0143403
3966	0.0133264
