Infrared Spectrum: 3-Buten-2-one, 4-(2-furanyl)-
Formula: C 8 H 8 O 2
CAS: 623-15-4
Origin: Sadtler Research Labs Under US-EPA Contract
1/CM	ABSORBANCE
450	0.00898361
462	0.0328741
474	0.0521247
486	0.0312946
498	0.0277406
510	0.03396
522	0.00227058
534	0.00503477
546	0.035046
558	0.0878617
570	0.117873
582	0.244927
594	0.0925016
606	0.0373165
618	0.0115504
630	0.00908233
642	0.0158941
654	0.00977338
666	0.0164864
678	0.0112542
690	0.02547
702	0.00740408
714	0.0255687
726	0.165358
738	0.439703
750	0.28017
762	0.0644648
774	0.0288265
786	0.0416603
798	0.0893425
810	0.0705855
822	0.0347498
834	0.0190532
846	0.0101683
858	0.0214225
870	0.0228046
882	0.138703
894	0.132286
906	0.0461027
918	0.0542966
930	0.0989184
942	0.125573
954	0.174341
966	0.329136
978	0.257662
990	0.121624
1002	0.112147
1014	0.345425
1026	0.180067
1038	0.0505452
1050	0.0307022
1062	0.0265559
1074	0.0353421
1086	0.0470899
1098	0.0271483
1110	0.0227058
1122	0.0330715
1134	0.0506439
1146	0.105928
1158	0.283033
1170	0.316105
1182	0.159138
1194	0.160422
1206	0.333776
1218	0.0724612
1230	0.0809512
1242	0.40061
1254	0.504069
1266	0.284119
1278	0.343253
1290	0.227651
1302	0.23693
1314	0.125178
1326	0.0459053
1338	0.0573569
1350	0.130707
1362	0.301494
1374	0.200305
1386	0.141763
1398	0.0990172
1410	0.0483733
1422	0.0541978
1434	0.0603185
1446	0.0493605
1458	0.0517298
1470	0.110074
1482	0.193
1494	0.110568
1506	0.0453129
1518	0.0386986
1530	0.0567646
1542	0.0850975
1554	0.21304
1566	0.193493
1578	0.0646623
1590	0.10346
1602	0.251048
1614	0.59588
1626	0.938837
1638	0.407619
1650	0.156572
1662	0.105434
1674	0.165654
1686	0.534673
1698	0.636158
1710	0.443948
1722	0.283132
1734	0.11422
1746	0.0525196
1758	0.0401794
1770	0.0338613
1782	0.0299125
1794	0.031492
1806	0.0250751
1818	0.0135248
1830	0.00878617
1842	0.00641687
1854	0.00631814
1866	0.00671303
1878	0.00394884
1890	0.00483733
1902	0.00434372
1914	0.00493605
1926	0.00710791
1938	0.00760152
1950	0.00779896
1962	0.00740408
1974	0.00513349
1986	0.00483733
1998	0.00523221
2010	0.00454117
2022	0.00542966
2034	0.00592326
2046	0.0061207
2058	0.00444245
2070	0.004245
2082	0.0056271
2094	0.0116491
2106	0.00819384
2118	0.00315907
2130	0.0018757
2142	0.00217186
2154	0.00315907
2166	0.00473861
2178	0.0061207
2190	0.00572582
2202	0.00523221
2214	0.00315907
2226	0.00414628
2238	0.004245
2250	0.00286291
2262	0.00266547
2274	0.00246802
2286	0.00157954
2298	0.00138209
2310	0.000592326
2322	0.000197442
2334	0.00217186
2346	0.0037514
2358	0
2370	0.00325779
2382	0.00177698
2394	0.00138209
2406	0.00315907
2418	0.0018757
2430	0.0018757
2442	0.00276419
2454	0.00365268
2466	0.00523221
2478	0.00394884
2490	0.00414628
2502	0.00493605
2514	0.00523221
2526	0.00483733
2538	0.00404756
2550	0.00513349
2562	0.00681175
2574	0.0056271
2586	0.00266547
2598	0.00167826
2610	0.00227058
2622	0.00296163
2634	0.0056271
2646	0.00681175
2658	0.00533093
2670	0.004245
2682	0.00286291
2694	0.00286291
2706	0.004245
2718	0.00365268
2730	0.00394884
2742	0.00542966
2754	0.0056271
2766	0.00513349
2778	0.00760152
2790	0.00829256
2802	0.00681175
2814	0.00700919
2826	0.0079964
2838	0.0106619
2850	0.0130312
2862	0.0158941
2874	0.0178685
2886	0.0173749
2898	0.0181647
2910	0.021225
2922	0.0301099
2934	0.0340587
2946	0.0295176
2958	0.0306035
2970	0.0368229
2982	0.0340587
2994	0.0278393
3006	0.0397846
3018	0.0619968
3030	0.0329728
3042	0.0318869
3054	0.0411667
3066	0.0371191
3078	0.0231007
3090	0.0184608
3102	0.0181647
3114	0.0196455
3126	0.0348485
3138	0.0245815
3150	0.00967466
3162	0.00829256
3174	0.00473861
3186	0.00463989
3198	0.00473861
3210	0.00404756
3222	0.00315907
3234	0.00404756
3246	0.00483733
3258	0.00335651
3270	0.00463989
3282	0.00463989
3294	0.00454117
3306	0.00493605
3318	0.00513349
3330	0.00661431
3342	0.00760152
3354	0.0093785
3366	0.0123401
3378	0.00819384
3390	0.0100695
3402	0.0134261
3414	0.0112542
3426	0.0061207
3438	0.00266547
3450	0.00394884
3462	0.00365268
3474	0.00276419
3486	0.00276419
3498	0.00286291
3510	0.00306035
3522	0.00394884
3534	0.00266547
3546	0.0037514
3558	0.00434372
3570	0.00691047
3582	0.00523221
3594	0.00345524
3606	0.00315907
3618	0.00286291
3630	0.00276419
3642	0.00217186
3654	0.00177698
3666	0.00217186
3678	0.00345524
3690	0.000296163
3702	0.00365268
3714	0.00463989
3726	0.00404756
3738	0.00444245
3750	0.00227058
3762	0.00434372
3774	0.0037514
3786	0.00315907
3798	0.00128337
3810	0.00404756
3822	0.00286291
3834	0.0023693
3846	0.00355396
3858	0.0061207
3870	0.00582454
3882	0.00365268
3894	0.00533093
3906	0.00661431
3918	0.0061207
3930	0.00385012
3942	0.0056271
3954	0.00473861
3966	0.00631814
