Infrared Spectrum: Benzonitrile, 4-bromo-
Formula: C 7 H 4 Br N
CAS: 623-00-7
Origin: Sadtler Research Labs Under US-EPA Contract
1/CM	ABSORBANCE
450	0.0220759
462	0.0335195
474	0.0175924
486	0.023058
498	0.0282674
510	0.040992
522	0.0726327
534	0.189118
546	0.155855
558	0.0479521
570	0.0288225
582	0.0186599
594	0.0243817
606	0.0163114
618	0.0110166
630	0.0279258
642	0.0143045
654	0.0202398
666	0.0202825
678	0.0101199
690	0.0180194
702	0.019215
714	0.0132797
726	0.0142191
738	0.0184464
750	0.0322812
762	0.0663985
774	0.0844606
786	0.032879
798	0.0450912
810	0.144241
822	0.260128
834	0.234594
846	0.12383
858	0.0286944
870	0.0214354
882	0.0189588
894	0.0156709
906	0.0150731
918	0.0143045
930	0.0124257
942	0.0135786
954	0.0112301
966	0.0135359
978	0.0163541
990	0.0152012
1002	0.0355264
1014	0.269608
1026	0.0955199
1038	0.0128527
1050	0.0266448
1062	0.13869
1074	0.33669
1086	0.11307
1098	0.0457744
1110	0.0299327
1122	0.0191296
1134	0.0141337
1146	0.0112728
1158	0.0190015
1170	0.0345443
1182	0.0278831
1194	0.0133224
1206	0.010248
1218	0.0204106
1230	0.029036
1242	0.0322812
1254	0.0405223
1266	0.0360388
1278	0.0260897
1290	0.0198982
1302	0.0274988
1314	0.0246379
1326	0.016653
1338	0.01281
1350	0.0156709
1362	0.0333487
1374	0.0283528
1386	0.0342454
1398	0.0523075
1410	0.0442372
1422	0.0180194
1434	0.0140056
1446	0.0174216
1458	0.0361669
1470	0.12541
1482	0.372387
1494	0.297534
1506	0.0757071
1518	0.0596092
1530	0.0211792
1542	0.0123403
1554	0.0116144
1566	0.0166957
1578	0.0582428
1590	0.206497
1602	0.0930006
1614	0.039711
1626	0.0144753
1638	0.0116144
1650	0.0109739
1662	0.0133651
1674	0.0087535
1686	0.0070882
1698	0.0078141
1710	0.0078995
1722	0.0093513
1734	0.0125538
1746	0.0210511
1758	0.0521794
1770	0.0569618
1782	0.0249368
1794	0.012383
1806	0.0068747
1818	0.0060207
1830	0.0063623
1842	0.0070882
1854	0.0052521
1866	0.0060634
1878	0.008113
1890	0.0155428
1902	0.0227164
1914	0.0209657
1926	0.0108458
1938	0.0053802
1950	0.0038857
1962	0.0033733
1974	0.0031171
1986	0.0027328
1998	0.0024766
2010	0.002562
2022	0.002989
2034	0.0032452
2046	0.0024766
2058	0.0019642
2070	0.002135
2082	0.0018361
2094	0.0020069
2106	0.0020923
2118	0.0020496
2130	0.0014518
2142	0.0012383
2154	0.0010248
2166	0.0010675
2178	0.0013237
2190	0.0017507
2202	0.0015372
2214	0.0048251
2226	0.0363377
2238	0.0715652
2250	0.0140056
2262	0.0044408
2274	0.0041419
2286	0.0057645
2298	0.006832
2310	0.0071736
2322	0.0048678
2334	0.0030744
2346	0.0068747
2358	0.0067466
2370	0.0065331
2382	0.0056364
2394	0.0031171
2406	0.0028182
2418	0.0030317
2430	0.0026047
2442	0.0024766
2454	0.0026047
2466	0.002989
2478	0.0034587
2490	0.0045689
2502	0.0067039
2514	0.0072163
2526	0.0064477
2538	0.0076006
2550	0.0055083
2562	0.0047397
2574	0.0046116
2586	0.0053802
2598	0.0057218
2610	0.0049959
2622	0.003416
2634	0.0035441
2646	0.0041419
2658	0.0049532
2670	0.0049959
2682	0.0044835
2694	0.0036295
2706	0.0040992
2718	0.0045262
2730	0.0049532
2742	0.005978
2754	0.0080276
2766	0.0116998
2778	0.0127246
2790	0.0124684
2802	0.013664
2814	0.0152439
2826	0.0118706
2838	0.011956
2850	0.0121695
2862	0.0130235
2874	0.015799
2886	0.01708
2898	0.0167384
2910	0.0152866
2922	0.0141764
2934	0.012383
2946	0.0096502
2958	0.0074298
2970	0.0076433
2982	0.008967
2994	0.0090524
3006	0.0097783
3018	0.00854
3030	0.0084973
3042	0.0090951
3054	0.0074725
3066	0.008113
3078	0.0111874
3090	0.0137494
3102	0.014091
3114	0.0074298
3126	0.0038003
3138	0.0030744
3150	0.0035441
3162	0.0037149
3174	0.0043127
3186	0.0045689
3198	0.0036722
3210	0.003843
3222	0.0036295
3234	0.003843
3246	0.003843
3258	0.0039284
3270	0.0032452
3282	0.004697
3294	0.0047397
3306	0.0043127
3318	0.0047397
3330	0.0053375
3342	0.0056364
3354	0.0068747
3366	0.007259
3378	0.0086254
3390	0.0104188
3402	0.0142618
3414	0.0176351
3426	0.0176351
3438	0.0103761
3450	0.0063623
3462	0.0063196
3474	0.0052094
3486	0.0050386
3498	0.0049959
3510	0.0049959
3522	0.0050386
3534	0.0060207
3546	0.0065758
3558	0.0067893
3570	0.00854
3582	0.0228018
3594	0.0125538
3606	0.0077287
3618	0.0061061
3630	0.0028609
3642	0.0073017
3654	0.0016653
3666	0.0078995
3678	0.005978
3690	0.0031171
3702	0.0077287
3714	0.0068747
3726	0.0099064
3738	0.0069601
3750	0
3762	0.0075152
3774	0.0066185
3786	0.0076433
3798	0.0029036
3810	0.0105042
3822	0.0030744
3834	0.0073871
3846	0.0061061
3858	0.0026474
3870	0.0042273
3882	0.0059353
3894	0.0086681
3906	0.0075152
3918	0.0063623
3930	0.0071309
3942	0.0049532
3954	0.0078995
3966	0.0084119
