Infrared Spectrum: Benzene, 1-chloro-4-methoxy-
Formula: C 7 H 7 Cl O
CAS: 623-12-1
Origin: Sadtler Research Labs Under US-EPA Contract
1/CM	ABSORBANCE
450	0.00200977
462	0.000516798
474	0.00907268
486	0.0156188
498	0.0254379
510	0.0242895
522	0.0147575
534	0.00838361
546	0.00780939
558	0.00660353
570	0.00539767
582	0.00631642
594	0.00689064
606	0.0127477
618	0.0366927
630	0.0968709
642	0.0873963
654	0.0150446
666	0.00723517
678	0.00568478
690	0.00970432
702	0.00970432
714	0.00712033
726	0.0080965
738	0.0103934
750	0.00631642
762	0.00735002
774	0.00947463
786	0.013609
798	0.0244618
810	0.0597189
822	0.112088
834	0.0984787
846	0.0392766
858	0.0120012
870	0.00884299
882	0.00815392
894	0.00654611
906	0.00735002
918	0.00597189
930	0.00660353
942	0.00700548
954	0.00803908
966	0.0096469
978	0.0122883
990	0.0187196
1002	0.0404251
1014	0.0488661
1026	0.0583408
1038	0.124548
1050	0.115189
1062	0.0307208
1074	0.0183176
1086	0.0579962
1098	0.142292
1110	0.0400806
1122	0.0207868
1134	0.0133219
1146	0.0122883
1158	0.0311227
1170	0.0857885
1182	0.0606951
1194	0.0307782
1206	0.0217055
1218	0.0332473
1230	0.12116
1242	0.429
1254	0.270687
1266	0.117198
1278	0.178755
1290	0.184382
1302	0.064772
1314	0.0237153
1326	0.0148149
1338	0.0104508
1350	0.0091301
1362	0.00792424
1374	0.00786681
1386	0.00769455
1398	0.00901525
1410	0.0144703
1422	0.023945
1434	0.030204
1446	0.0565032
1458	0.0604079
1470	0.0859607
1482	0.12541
1494	0.57422
1506	0.248235
1518	0.0324434
1530	0.0173989
1542	0.00786681
1554	0.00832619
1566	0.0124606
1578	0.0383579
1590	0.0741892
1602	0.0680451
1614	0.0311801
1626	0.0181454
1638	0.00918752
1650	0.00712033
1662	0.00602931
1674	0.00436407
1686	0.00275626
1698	0.00252657
1710	0.00465118
1722	0.00545509
1734	0.00505314
1746	0.00689064
1758	0.00384727
1770	0.00321563
1782	0.00333048
1794	0.00361759
1806	0.0047086
1818	0.00424923
1830	0.00407696
1842	0.00568478
1854	0.00746486
1866	0.0109676
1878	0.0109102
1890	0.00775197
1902	0.00556993
1914	0.00499571
1926	0.00488087
1938	0.00442149
1950	0.00292852
1962	0.00333048
1974	0.00327305
1986	0.00269883
1998	0.00275626
2010	0.00269883
2022	0.00419181
2034	0.00717775
2046	0.0086133
2058	0.00706291
2070	0.00884299
2082	0.00895783
2094	0.00568478
2106	0.00258399
2118	0.00229688
2130	0.00189493
2142	0.00132071
2154	0.00132071
2166	0.00132071
2178	0.00120586
2190	0.00120586
2202	0.00166524
2214	0.00195235
2226	0.00206719
2238	0.00160782
2250	0.00160782
2262	0.00200977
2274	0.00275626
2286	0.00442149
2298	0.0033879
2310	0.00143555
2322	0.00057422
2334	0.000229688
2346	0.000229688
2358	0.000229688
2370	0.000229688
2382	0.00160782
2394	0.00252657
2406	0.00252657
2418	0.00241172
2430	0.00155039
2442	0.00126328
2454	0.00166524
2466	0.00160782
2478	0.00218204
2490	0.00218204
2502	0.00218204
2514	0.00327305
2526	0.0047086
2538	0.00482345
2550	0.00333048
2562	0.00229688
2574	0.0023543
2586	0.0023543
2598	0.0018375
2610	0.00200977
2622	0.00137813
2634	0.00155039
2646	0.00200977
2658	0.00149297
2670	0.00149297
2682	0.00149297
2694	0.00206719
2706	0.00172266
2718	0.00155039
2730	0.00212461
2742	0.00212461
2754	0.00218204
2766	0.00269883
2778	0.00327305
2790	0.00327305
2802	0.00476603
2814	0.00694806
2826	0.0133219
2838	0.0339938
2850	0.04967
2862	0.0218778
2874	0.0139535
2886	0.0142981
2898	0.0194086
2910	0.0354868
2922	0.0404825
2934	0.0385302
2946	0.0649443
2958	0.068447
2970	0.0420329
2982	0.0244044
2994	0.0207868
3006	0.0520243
3018	0.0546657
3030	0.0149297
3042	0.0139535
3054	0.0156188
3066	0.012518
3078	0.0124606
3090	0.0150446
3102	0.0166524
3114	0.0120586
3126	0.00493829
3138	0.00292852
3150	0.00229688
3162	0.00241172
3174	0.00241172
3186	0.00241172
3198	0.00252657
3210	0.00155039
3222	0.00109102
3234	0.00114844
3246	0.00126328
3258	0.000516798
3270	0.00114844
3282	0.0010336
3294	0.000746486
3306	0.00172266
3318	0.00126328
3330	0.00166524
3342	0.0018375
3354	0.00172266
3366	0.00172266
3378	0.0018375
3390	0.00086133
3402	0.000976174
3414	0.00149297
3426	0.00137813
3438	0.00137813
3450	0.00166524
3462	0.00114844
3474	0.00160782
3486	0.00155039
3498	0.00109102
3510	0.000689064
3522	0.00126328
3534	0.00109102
3546	0.00109102
3558	0.00114844
3570	0.00057422
3582	0.0010336
3594	0.00120586
3606	0.00120586
3618	0.00137813
3630	0.000229688
3642	0.00126328
3654	0.00086133
3666	0.00137813
3678	0.000229688
3690	0.000631642
3702	0.000918752
3714	0.000459376
3726	0.00132071
3738	0.000229688
3750	0.000229688
3762	0.00155039
3774	0.00218204
3786	0.00206719
3798	0.00114844
3810	0.0010336
3822	0.00166524
3834	0.00120586
3846	0.00252657
3858	0.000976174
3870	0.00166524
3882	0.00269883
3894	0.00269883
3906	0.00166524
3918	0.00132071
3930	0.00137813
3942	0.00229688
3954	0
3966	0.000229688
