Infrared Spectrum: Sulfurous acid, diethyl ester
Formula: C 4 H 10 O 3 S
CAS: 623-81-4
Origin: Sadtler Research Labs Under US-EPA Contract
1/CM	ABSORBANCE
450	0.0128554
462	0.0277055
474	0.0207237
486	0.0160692
498	0.0106389
510	0.00498699
522	0.00387877
534	0.00387877
546	0.00487617
558	0.00543028
570	0.0144069
582	0.0372362
594	0.0382336
606	0.0191722
618	0.0179532
630	0.0210562
642	0.0347981
654	0.0764672
666	0.142739
678	0.312518
690	0.581594
702	0.698179
714	0.636007
726	0.493047
738	0.348535
750	0.217765
762	0.100737
774	0.0551894
786	0.0428881
798	0.0408933
810	0.0322492
822	0.0246025
834	0.0221644
846	0.0332466
858	0.0779079
870	0.292348
882	0.922926
894	1.04184
906	0.62559
918	0.383444
930	0.170666
942	0.0736966
954	0.0480967
966	0.0493158
978	0.0816758
990	0.211338
1002	0.573171
1014	0.778635
1026	0.615173
1038	0.426665
1050	0.207791
1062	0.131989
1074	0.112263
1086	0.119134
1098	0.127999
1110	0.0894334
1122	0.0534162
1134	0.0431098
1146	0.0422232
1158	0.0495374
1170	0.0581815
1182	0.0793486
1194	0.186513
1206	0.403392
1218	0.460465
1230	0.418021
1242	0.295341
1254	0.0897658
1266	0.0334682
1278	0.0224969
1290	0.0179532
1302	0.0152934
1314	0.01618
1326	0.0283704
1338	0.0533054
1350	0.0683772
1362	0.0868844
1374	0.122569
1386	0.161246
1398	0.144734
1410	0.0590681
1422	0.0400067
1434	0.0403392
1446	0.0496483
1458	0.0459911
1470	0.0422232
1482	0.0403392
1494	0.0254891
1506	0.0117471
1518	0.0045437
1530	0.00210562
1542	0.00121904
1554	0.00132986
1566	0.0019948
1578	0.00443288
1590	0.00598439
1602	0.00842247
1614	0.00986316
1626	0.00997398
1638	0.00775754
1650	0.00565192
1662	0.00321384
1674	0.00243808
1686	0.00232726
1698	0.00310302
1710	0.00365713
1722	0.00642768
1734	0.00853329
1746	0.00853329
1758	0.00786836
1770	0.00676014
1782	0.00432206
1794	0.00321384
1806	0.00155151
1818	0.000664932
1830	0.000110822
1842	0.000110822
1854	0.000664932
1866	0.00110822
1878	0.00265973
1890	0.00543028
1902	0.00720343
1914	0.00687096
1926	0.0045437
1938	0.00288137
1950	0.00177315
1962	0.00166233
1974	0.00132986
1986	0.00177315
1998	0.00155151
2010	0.00155151
2022	0.00132986
2034	0.00155151
2046	0.00144069
2058	0.00132986
2070	0.000997398
2082	0.00121904
2094	0.00166233
2106	0.0019948
2118	0.00188397
2130	0.00144069
2142	0.000886576
2154	0.000997398
2166	0.000886576
2178	0.00121904
2190	0.000775754
2202	0.000997398
2214	0.000110822
2226	0.000332466
2238	0.000221644
2250	0.000886576
2262	0.00144069
2274	0.00188397
2286	0.00132986
2298	0.000443288
2310	0.000110822
2322	0.000443288
2334	0.00144069
2346	0.00132986
2358	0.00132986
2370	0.00277055
2382	0.00265973
2394	0.00376795
2406	0.00443288
2418	0.00376795
2430	0.00232726
2442	0.00299219
2454	0.0045437
2466	0.00398959
2478	0.00310302
2490	0.00243808
2502	0.00121904
2514	0.00166233
2526	0.000443288
2538	0.000221644
2550	0.000332466
2562	0.000443288
2574	0.000221644
2586	0.00055411
2598	0.000664932
2610	0.00110822
2622	0.000997398
2634	0.00110822
2646	0.000664932
2658	0.000443288
2670	0.000332466
2682	0.000664932
2694	0.00110822
2706	0.00177315
2718	0.00376795
2730	0.00509781
2742	0.00531946
2754	0.00598439
2766	0.0075359
2778	0.00786836
2790	0.00742507
2802	0.00842247
2814	0.0114147
2826	0.0157367
2838	0.0196155
2850	0.0252674
2862	0.0384552
2874	0.0654958
2886	0.102843
2898	0.128664
2910	0.133319
2922	0.12534
2934	0.165901
2946	0.222863
2958	0.196709
2970	0.20358
2982	0.30199
2994	0.34111
3006	0.220868
3018	0.112041
3030	0.0610629
3042	0.0332466
3054	0.0183965
3066	0.0115255
3078	0.00831165
3090	0.00620603
3102	0.00421124
3114	0.00387877
3126	0.00376795
3138	0.00343548
3150	0.00365713
3162	0.00387877
3174	0.00432206
3186	0.00443288
3198	0.00410041
3210	0.00376795
3222	0.00299219
3234	0.00288137
3246	0.00232726
3258	0.00210562
3270	0.00177315
3282	0.00232726
3294	0.00210562
3306	0.00144069
3318	0.00232726
3330	0.00221644
3342	0.00221644
3354	0.00210562
3366	0.00321384
3378	0.00232726
3390	0.00321384
3402	0.00310302
3414	0.00321384
3426	0.00299219
3438	0.00277055
3450	0.00210562
3462	0.00265973
3474	0.00277055
3486	0.00299219
3498	0.00177315
3510	0.00188397
3522	0.000886576
3534	0.00110822
3546	0.00110822
3558	0.00110822
3570	0.00155151
3582	0.000997398
3594	0.00110822
3606	0.00055411
3618	0.000997398
3630	0.00288137
3642	0.00398959
3654	0.00443288
3666	0.00421124
3678	0.00698179
3690	0.00543028
3702	0.00410041
3714	0.00166233
3726	0.000443288
3738	0.000886576
3750	0.00055411
3762	0.000332466
3774	0.00121904
3786	0.00121904
3798	0.00232726
3810	0.000886576
3822	0.00121904
3834	0.0019948
3846	0.00110822
3858	0.00110822
3870	0.00221644
3882	0.000443288
3894	0.00188397
3906	0.000775754
3918	0.00144069
3930	0.000221644
3942	0.00132986
3954	0.000221644
3966	0.00166233
