Infrared Spectrum: 5-Nonanol
Formula: C 9 H 20 O
CAS: 623-93-8
Origin: Sadtler Research Labs Under US-EPA Contract
1/CM	ABSORBANCE
450	0.0032117
462	0.00413952
474	0.00556694
486	0.00599516
498	0.00528145
510	0.00570968
522	0.00485323
534	0.00649476
546	0.00563831
558	0.00578105
570	0.004425
582	0.00292621
594	0.00314032
606	0.00371129
618	0.00413952
630	0.00356855
642	0.00278347
654	0.00342581
666	0.00342581
678	0.00399678
690	0.00421089
702	0.00406815
714	0.00535283
726	0.0109198
738	0.0162012
750	0.0143456
762	0.00992057
774	0.0103488
786	0.0140601
798	0.0139887
810	0.00870726
822	0.00642339
834	0.00742258
846	0.0104915
858	0.0124899
870	0.0151307
882	0.0191988
894	0.022696
906	0.0217682
918	0.0204121
930	0.0149165
942	0.0134177
954	0.0162012
966	0.0241948
978	0.0347577
990	0.049246
1002	0.0701577
1014	0.0877863
1026	0.102703
1038	0.0828617
1050	0.058096
1062	0.047319
1074	0.0470335
1086	0.0456774
1098	0.0445355
1110	0.0454633
1122	0.0510303
1134	0.0568827
1146	0.0444641
1158	0.0266214
1170	0.0229101
1182	0.0284057
1194	0.0362565
1206	0.0390399
1218	0.0375411
1230	0.039825
1242	0.0441786
1254	0.0487464
1266	0.0458916
1278	0.0371843
1290	0.0330448
1302	0.0331875
1314	0.0286198
1326	0.0271924
1338	0.033473
1350	0.042323
1362	0.0478186
1374	0.0626637
1386	0.0825049
1398	0.0590952
1410	0.0358282
1422	0.0255508
1434	0.0301186
1446	0.0468907
1458	0.075225
1470	0.0833613
1482	0.0418948
1494	0.0162012
1506	0.0100633
1518	0.00827904
1530	0.00649476
1542	0.00563831
1554	0.00413952
1566	0.00335444
1578	0.00335444
1590	0.00278347
1602	0.00242661
1614	0.00235524
1626	0.00214113
1638	0.00157016
1650	0.00142742
1662	0.00128468
1674	0.00121331
1686	0.00135605
1698	0.00128468
1710	0.00135605
1722	0.00149879
1734	0.00178428
1746	0.000999194
1758	0.000642339
1770	0.000570968
1782	0.000642339
1794	0.000785081
1806	0.000856452
1818	0.000785081
1830	0.00071371
1842	0.000214113
1854	0.000356855
1866	0.000285484
1878	0.000499597
1890	0.000570968
1902	0.000856452
1914	0.000285484
1926	0.000785081
1938	0.000642339
1950	0.000356855
1962	0.000285484
1974	0.000285484
1986	0.000356855
1998	0.000642339
2010	0.00071371
2022	0.000785081
2034	0.00135605
2046	0.00121331
2058	0.00071371
2070	0.000785081
2082	0.000214113
2094	0.000428226
2106	0.00071371
2118	0.000785081
2130	0.000785081
2142	0.000642339
2154	0.000927823
2166	0.00121331
2178	0.00114194
2190	0.00071371
2202	0.00107057
2214	0.00107057
2226	0.00107057
2238	0.00107057
2250	0.00114194
2262	0.00107057
2274	0.00114194
2286	0.00107057
2298	0.000999194
2310	0.00142742
2322	0.00142742
2334	0.00135605
2346	0.00142742
2358	0.0017129
2370	0.000927823
2382	0.00149879
2394	0.00157016
2406	0.00149879
2418	0.00149879
2430	0.00121331
2442	0.000999194
2454	0.000499597
2466	0.000999194
2478	0.000570968
2490	0.000999194
2502	0.000856452
2514	0.000927823
2526	0.00142742
2538	0.00142742
2550	0.00185565
2562	0.00242661
2574	0.00292621
2586	0.00406815
2598	0.00449637
2610	0.0049246
2622	0.00549557
2634	0.00592379
2646	0.00706573
2658	0.00799355
2670	0.00849315
2682	0.00942097
2694	0.00949234
2706	0.00913549
2718	0.00992057
2730	0.0109911
2742	0.0143456
2754	0.0142028
2766	0.0134891
2778	0.0153448
2790	0.0185565
2802	0.0234811
2814	0.029048
2826	0.0391827
2838	0.0653758
2850	0.126541
2862	0.246087
2874	0.332446
2886	0.296689
2898	0.214398
2910	0.282986
2922	0.454919
2934	0.684448
2946	0.633632
2958	0.445855
2970	0.567614
2982	0.231456
2994	0.0765097
3006	0.0458916
3018	0.0329734
3030	0.0257649
3042	0.018271
3054	0.0131323
3066	0.0112052
3078	0.00906412
3090	0.00813629
3102	0.0076367
3114	0.00670887
3126	0.00613791
3138	0.00528145
3150	0.00478186
3162	0.00471049
3174	0.00428226
3186	0.00456774
3198	0.00399678
3210	0.00328307
3222	0.00178428
3234	0.00178428
3246	0.00121331
3258	0.00135605
3270	0.000856452
3282	0.000785081
3294	0.000570968
3306	0.000856452
3318	0.00128468
3330	0.000856452
3342	0.00142742
3354	0.00107057
3366	0.00128468
3378	0.00178428
3390	0.00185565
3402	0.0022125
3414	0.00185565
3426	0.00199839
3438	0.00185565
3450	0.0022125
3462	0.00178428
3474	0.000785081
3486	0.00128468
3498	0.00228387
3510	0.00135605
3522	0.00107057
3534	0.00142742
3546	0.00121331
3558	0.00071371
3570	0.00206976
3582	0.00142742
3594	0.00128468
3606	0.00285484
3618	0.00528145
3630	0.0126327
3642	0.0199125
3654	0.0354
3666	0.0261218
3678	0.00885
3690	0.00328307
3702	0.00228387
3714	0.00192702
3726	0.00149879
3738	0.00178428
3750	0.00164153
3762	0.00199839
3774	0.00235524
3786	0.00185565
3798	0.00242661
3810	0.00363992
3822	0.00328307
3834	0.00278347
3846	0.00285484
3858	0.0027121
3870	0.00235524
3882	0.00314032
3894	0.00371129
3906	0.00235524
3918	0.00157016
3930	0.00114194
3942	0.00128468
3954	0.00178428
3966	0.0017129
