Infrared Spectrum: Butanoic acid, methyl ester
Formula: C 5 H 10 O 2
CAS: 623-42-7
Origin: Sadtler Research Labs Under US-EPA Contract
1/CM	ABSORBANCE
450	0.00328086
462	0.00374134
474	0.00316575
486	0.00149653
498	0.00155409
510	0.00212968
522	0.000115118
534	0.00230236
546	0.00328086
558	0.00201457
570	0.00443204
582	0.00667684
594	0.00851873
606	0.00880653
618	0.00713732
630	0.0067344
642	0.0057559
654	0.00218724
666	0.000460472
678	0.00218724
690	0.00328086
702	0.00374134
714	0.00523787
726	0.0047774
738	0.00564078
750	0.00782802
762	0.00961235
774	0.0130659
786	0.0195125
798	0.0206061
810	0.0166346
822	0.0184189
834	0.0220451
846	0.0242323
858	0.0248079
870	0.0256713
882	0.0244626
894	0.0186491
906	0.0119147
918	0.00610125
930	0.00195701
942	0.000920944
954	0.00189945
966	0.00276283
978	0.00880653
990	0.0352837
1002	0.074136
1014	0.0710854
1026	0.0319452
1038	0.0317726
1050	0.0470257
1062	0.0534148
1074	0.0585375
1086	0.0888135
1098	0.134573
1110	0.128529
1122	0.0845542
1134	0.0638905
1146	0.0806402
1158	0.160935
1170	0.37799
1182	0.513311
1194	0.445276
1206	0.357154
1218	0.22897
1230	0.181541
1242	0.189312
1254	0.218091
1266	0.204968
1278	0.142919
1290	0.11909
1302	0.123176
1314	0.0939363
1326	0.0613003
1338	0.0694737
1350	0.103491
1362	0.121449
1374	0.0934758
1386	0.055602
1398	0.0359168
1410	0.0298156
1422	0.0448385
1434	0.111089
1446	0.138947
1458	0.0839786
1470	0.0678621
1482	0.0439175
1494	0.0249806
1506	0.0181886
1518	0.0123752
1530	0.00995771
1542	0.0100728
1554	0.00966991
1566	0.00846117
1578	0.00834605
1590	0.00782802
1602	0.0067344
1614	0.00615881
1626	0.00638905
1638	0.00621637
1650	0.00644661
1662	0.0067344
1674	0.00725243
1686	0.00990015
1698	0.015138
1710	0.0283766
1722	0.0621062
1734	0.154431
1746	0.364233
1758	0.565805
1770	0.528334
1782	0.249633
1794	0.0705098
1806	0.0205486
1818	0.00817338
1830	0.00466228
1842	0.00374134
1854	0.00299307
1866	0.00333842
1878	0.00287795
1890	0.00316575
1902	0.00287795
1914	0.00287795
1926	0.00287795
1938	0.00328086
1950	0.00299307
1962	0.00287795
1974	0.00391401
1986	0.00483496
1998	0.00598614
2010	0.00546811
2022	0.00529543
2034	0.00581346
2046	0.00684952
2058	0.00707976
2070	0.00587102
2082	0.00535299
2094	0.0047774
2106	0.00345354
2118	0.00201457
2130	0.00155409
2142	0.00143898
2154	0.000978503
2166	0.000920944
2178	0.00103606
2190	0.000920944
2202	0.000805826
2214	0.000402913
2226	0.000402913
2238	0.000518031
2250	0.000920944
2262	0.0012663
2274	0.000978503
2286	0.000748267
2298	0.0012663
2310	0.00120874
2322	0.000978503
2334	0.000920944
2346	0.00189945
2358	0.00155409
2370	0.00143898
2382	0.00178433
2394	0.00155409
2406	0.00103606
2418	0.00155409
2430	0.0012663
2442	0.00103606
2454	0.00103606
2466	0.00103606
2478	0.000748267
2490	0.00103606
2502	0.00109362
2514	0.00109362
2526	0.00109362
2538	0.00115118
2550	0.000920944
2562	0.000633149
2574	0.00115118
2586	0.0012663
2598	0.00155409
2610	0.00207212
2622	0.00212968
2634	0.00259016
2646	0.00207212
2658	0.00235992
2670	0.00259016
2682	0.00259016
2694	0.00212968
2706	0.00212968
2718	0.00172677
2730	0.00259016
2742	0.00368378
2754	0.00431693
2766	0.00408669
2778	0.00408669
2790	0.00558322
2802	0.00621637
2814	0.00817338
2826	0.0116845
2838	0.0217573
2850	0.0356866
2862	0.0400035
2874	0.0539903
2886	0.0884682
2898	0.0904827
2910	0.0838059
2922	0.0987712
2934	0.132155
2946	0.194147
2958	0.277549
2970	0.31197
2982	0.243762
2994	0.154258
3006	0.0905979
3018	0.0613579
3030	0.0453565
3042	0.0321755
3054	0.0208364
3066	0.0153683
3078	0.012663
3090	0.0114542
3102	0.0104757
3114	0.00869141
3126	0.00707976
3138	0.00592858
3150	0.00489252
3162	0.00431693
3174	0.00328086
3186	0.00305063
3198	0.00328086
3210	0.00287795
3222	0.00235992
3234	0.00149653
3246	0.00109362
3258	0.00178433
3270	0.000978503
3282	0.00155409
3294	0.000978503
3306	0.000402913
3318	0.000978503
3330	0
3342	0.000345354
3354	0.000172677
3366	0.00057559
3378	0
3390	0.000518031
3402	0.000518031
3414	0.000518031
3426	0.000402913
3438	0.000978503
3450	0.00103606
3462	0.00189945
3474	0.00195701
3486	0.00385645
3498	0.00638905
3510	0.00650417
3522	0.00431693
3534	0.00201457
3546	0.000920944
3558	0.000978503
3570	0.00115118
3582	0.00184189
3594	0.00103606
3606	0.00184189
3618	0.00149653
3630	0.00230236
3642	0.000978503
3654	0.00138142
3666	0.00166921
3678	0.00212968
3690	0.00230236
3702	0.00149653
3714	0.0022448
3726	0.00282039
3738	0.00276283
3750	0.00230236
3762	0.0025326
3774	0.0025326
3786	0.00207212
3798	0.00230236
3810	0.0025326
3822	0.00270527
3834	0.00241748
3846	0.00184189
3858	0.00264771
3870	0.00235992
3882	0.00207212
3894	0.0022448
3906	0.00195701
3918	0.00235992
3930	0.00218724
3942	0.00287795
3954	0.00282039
3966	0.00270527
