Infrared Spectrum: 3-Hexanone, 5-methyl-
Formula: C 7 H 14 O
CAS: 623-56-3
Origin: Sadtler Research Labs Under US-EPA Contract
1/CM	ABSORBANCE
450	0.00763559
462	0.00826239
474	0.00763559
486	0.00643897
498	0.00723671
510	0.00797748
522	0.0160119
534	0.0139606
546	0.0113964
558	0.00809144
570	0.00136757
582	0.00826239
594	0.0149863
606	0.00752162
618	0.00849032
630	0.00997185
642	0.01265
654	0.0107696
666	0.00239324
678	0.00364685
690	0.00233626
702	0.00336194
714	0.000626802
726	0.00056982
738	0.00438761
750	0.0044446
762	0.00598311
774	0.00381779
786	0.00381779
798	0.0091741
810	0.0170376
822	0.0141315
834	0.00774955
846	0.0085473
858	0.00906014
870	0.0112255
882	0.00968694
894	0.00723671
906	0.00951599
918	0.019146
930	0.0388047
942	0.0536201
954	0.0345881
966	0.018975
978	0.0198297
990	0.0223369
1002	0.0264396
1014	0.0456426
1026	0.0717973
1038	0.0565261
1050	0.0304854
1062	0.0226788
1074	0.0237615
1086	0.0377221
1098	0.0777234
1110	0.0890629
1122	0.0619964
1134	0.0709996
1146	0.0952739
1158	0.1061
1170	0.116984
1182	0.0766978
1194	0.0360126
1206	0.0242743
1218	0.0279212
1230	0.0318529
1242	0.0242743
1254	0.0207984
1266	0.0242173
1278	0.0426795
1290	0.0488336
1302	0.0361266
1314	0.0429074
1326	0.0594892
1338	0.0907153
1350	0.135047
1362	0.178866
1374	0.15066
1386	0.0988068
1398	0.0654153
1410	0.0593752
1422	0.0677516
1434	0.0644466
1446	0.0682644
1458	0.104163
1470	0.119605
1482	0.0729939
1494	0.0298016
1506	0.0149293
1518	0.0102568
1530	0.00700879
1542	0.00735068
1554	0.00535631
1566	0.00518536
1578	0.00638198
1590	0.00495743
1602	0.00649595
1614	0.00655293
1626	0.00723671
1638	0.00826239
1650	0.00843334
1662	0.0119092
1674	0.0172086
1686	0.0314541
1698	0.0655863
1710	0.180747
1722	0.400868
1734	0.426567
1746	0.192713
1758	0.0611987
1770	0.0339043
1782	0.0233056
1794	0.0173795
1806	0.0116813
1818	0.00683784
1830	0.00450158
1842	0.00290608
1854	0.00262117
1866	0.0012536
1878	0.00113964
1890	0.00165248
1902	0.00148153
1914	0.000911712
1926	0.000968694
1938	0.00085473
1950	0.00102568
1962	5.6982e-05
1974	0.000113964
1986	0.000398874
1998	0.000626802
2010	0.000626802
2022	0.000512838
2034	0.000512838
2046	0.00108266
2058	0.00136757
2070	0.00056982
2082	0.000512838
2094	0.00056982
2106	0
2118	0.00056982
2130	0.00108266
2142	0.00148153
2154	0.0015955
2166	0.00199437
2178	0.00153851
2190	0.00148153
2202	0.00148153
2214	0.000968694
2226	0.00108266
2238	0.00056982
2250	0.000512838
2262	0.000626802
2274	0.000740766
2286	0.00170946
2298	0.00136757
2310	0.00153851
2322	0.00108266
2334	0.00148153
2346	0.00358987
2358	0.00102568
2370	0.00558424
2382	0.00518536
2394	0.0028491
2406	0.00239324
2418	0.00193739
2430	0.00256419
2442	0.00233626
2454	0.00256419
2466	0.00262117
2478	0.00273514
2490	0.00279212
2502	0.00267815
2514	0.00227928
2526	0.00176644
2538	0.00182342
2550	0.00188041
2562	0.00233626
2574	0.00239324
2586	0.00341892
2598	0.00421667
2610	0.00484347
2622	0.00501442
2634	0.00461554
2646	0.0044446
2658	0.00541329
2670	0.0050714
2682	0.00609707
2694	0.00786352
2706	0.00837635
2718	0.0100288
2730	0.0131059
2742	0.0150432
2754	0.0142455
2766	0.0130489
2778	0.0131628
2790	0.015727
2802	0.0194878
2814	0.0251291
2826	0.0309412
2838	0.0362975
2850	0.0456426
2862	0.0688343
2874	0.155048
2886	0.240179
2898	0.245023
2910	0.245592
2922	0.24998
2934	0.277787
2946	0.360924
2958	0.482296
2970	0.569079
2982	0.41386
2994	0.217215
3006	0.0862138
3018	0.0426795
3030	0.0276933
3042	0.0210833
3054	0.0169237
3066	0.0138466
3078	0.0121372
3090	0.0118523
3102	0.0116813
3114	0.0107126
3126	0.00911712
3138	0.0098009
3150	0.00906014
3162	0.00843334
3174	0.00957298
3186	0.0112255
3198	0.00985789
3210	0.0085473
3222	0.00609707
3234	0.00529933
3246	0.00387478
3258	0.0050714
3270	0.00478649
3282	0.00586915
3294	0.00535631
3306	0.00484347
3318	0.00490045
3330	0.00398874
3342	0.00330496
3354	0.00336194
3366	0.00484347
3378	0.00358987
3390	0.00552725
3402	0.00609707
3414	0.00586915
3426	0.00780653
3438	0.0101428
3450	0.00888919
3462	0.00341892
3474	0.00273514
3486	0.00227928
3498	0.00148153
3510	0.00102568
3522	0.0022223
3534	0.00256419
3546	0.00193739
3558	0.00302005
3570	0.00740766
3582	0.00364685
3594	0.00313401
3606	0.00165248
3618	0.00131059
3630	0.00239324
3642	0.00319099
3654	0.00358987
3666	0.00148153
3678	0.00472951
3690	0.00336194
3702	0.00381779
3714	0.00290608
3726	0.00279212
3738	0.00358987
3750	0.0056982
3762	0.00484347
3774	0.0028491
3786	0.00353288
3798	0.00296306
3810	0.0034759
3822	0.00358987
3834	0.00490045
3846	0.00455856
3858	0.00421667
3870	0.00501442
3882	0.00518536
3894	0.00404572
3906	0.00598311
3918	0.00387478
3930	0.00210833
3942	0.0034759
3954	0.00376081
3966	0.00387478
