Infrared Spectrum: 2-Pentanone oxime
Formula: C 5 H 11 N O
CAS: 623-40-5
Origin: Sadtler Research Labs Under US-EPA Contract
1/CM	ABSORBANCE
450	0
462	0.0150948
474	0.0109939
486	0.0119537
498	0.0145713
510	0.0253034
522	0.0354247
534	0.0214642
546	0.0131752
558	0.0186721
570	0.0308876
582	0.0473784
594	0.07242
606	0.0716347
618	0.0547076
630	0.0923137
642	0.0922264
654	0.044848
666	0.0401364
678	0.0440628
690	0.0492107
702	0.056889
714	0.0612516
726	0.0629094
738	0.0616006
750	0.0686681
762	0.0699769
774	0.0392639
786	0.0198064
798	0.023122
810	0.0332434
822	0.0329816
834	0.0261759
846	0.0413579
858	0.0746886
870	0.133933
882	0.192655
894	0.176862
906	0.187332
918	0.345173
930	0.573339
942	0.535297
954	0.220925
966	0.109415
978	0.106885
990	0.123288
1002	0.122329
1014	0.0837629
1026	0.0415324
1038	0.0321964
1050	0.0280082
1062	0.0285317
1074	0.0477274
1086	0.10863
1098	0.182533
1110	0.147196
1122	0.0554057
1134	0.0238201
1146	0.0232966
1158	0.0310621
1170	0.0248671
1182	0.0340287
1194	0.0876893
1206	0.183406
1218	0.193265
1230	0.133235
1242	0.164385
1254	0.186721
1266	0.111771
1278	0.078964
1290	0.0869912
1302	0.0767826
1314	0.121456
1326	0.19789
1338	0.278163
1350	0.286539
1362	0.240818
1374	0.218133
1386	0.169794
1398	0.0942332
1410	0.0550566
1422	0.0634329
1434	0.0997302
1446	0.143008
1458	0.165257
1470	0.144229
1482	0.0890853
1494	0.0513048
1506	0.0380423
1518	0.0284445
1530	0.0239073
1542	0.0189339
1554	0.0161418
1566	0.0126517
1578	0.0128262
1590	0.00951058
1602	0.00977234
1614	0.0103831
1626	0.0123899
1638	0.0191957
1650	0.0369953
1662	0.0417069
1674	0.0292298
1686	0.0136115
1698	0.0127389
1710	0.0157055
1722	0.0185849
1734	0.0156183
1746	0.0106449
1758	0.00907431
1770	0.00951058
1782	0.0101213
1794	0.0239946
1806	0.0149203
1818	0.0130879
1830	0.0129134
1842	0.0109066
1854	0.0105576
1866	0.00985959
1878	0.00907431
1890	0.00889981
1902	0.00828904
1914	0.0087253
1926	0.00881255
1938	0.00907431
1950	0.00881255
1962	0.00977234
1974	0.00985959
1986	0.00994684
1998	0.0101213
2010	0.00994684
2022	0.0101213
2034	0.0103831
2046	0.00994684
2058	0.00994684
2070	0.00959783
2082	0.00933607
2094	0.00889981
2106	0.00837629
2118	0.00863805
2130	0.00898706
2142	0.00889981
2154	0.00907431
2166	0.00951058
2178	0.00968508
2190	0.00959783
2202	0.00881255
2214	0.00811453
2226	0.00828904
2238	0.00837629
2250	0.0087253
2262	0.0087253
2274	0.0087253
2286	0.00907431
2298	0.00916156
2310	0.00959783
2322	0.00916156
2334	0.0087253
2346	0.00942332
2358	0.00855079
2370	0.00898706
2382	0.00959783
2394	0.00855079
2406	0.00881255
2418	0.00933607
2430	0.00942332
2442	0.00916156
2454	0.00907431
2466	0.0087253
2478	0.0087253
2490	0.00881255
2502	0.00907431
2514	0.00924882
2526	0.0102086
2538	0.0112556
2550	0.0126517
2562	0.0147458
2574	0.0161418
2586	0.01588
2598	0.0150075
2610	0.0150948
2622	0.01588
2634	0.0165781
2646	0.0173633
2658	0.0178869
2670	0.0198937
2682	0.0202427
2694	0.0191084
2706	0.0185849
2718	0.0186721
2730	0.0194574
2742	0.0219878
2754	0.0225985
2766	0.0202427
2778	0.0198064
2790	0.0232093
2802	0.0278337
2814	0.0341159
2826	0.0447608
2838	0.0695406
2850	0.107757
2862	0.153914
2874	0.26682
2886	0.380598
2898	0.353026
2910	0.336971
2922	0.416808
2934	0.533465
2946	0.629879
2958	0.693312
2970	0.87253
2982	0.689124
2994	0.290116
3006	0.146062
3018	0.0943205
3030	0.0748631
3042	0.0643927
3054	0.0545331
3066	0.04415
3078	0.0353375
3090	0.0283572
3102	0.0247799
3114	0.0219005
3126	0.0212025
3138	0.0200682
3150	0.0184104
3162	0.0164908
3174	0.0149203
3186	0.0145713
3198	0.0140477
3210	0.013437
3222	0.0124772
3234	0.0117792
3246	0.0112556
3258	0.0131752
3270	0.0147458
3282	0.0192829
3294	0.0183231
3306	0.0161418
3318	0.0136115
3330	0.0121282
3342	0.0121282
3354	0.0127389
3366	0.0119537
3378	0.0115174
3390	0.0115174
3402	0.0111684
3414	0.0103831
3426	0.0108194
3438	0.0103831
3450	0.00968508
3462	0.0105576
3474	0.00994684
3486	0.00951058
3498	0.00907431
3510	0.00898706
3522	0.00959783
3534	0.00855079
3546	0.00977234
3558	0.00933607
3570	0.0115174
3582	0.0115174
3594	0.0136115
3606	0.0177996
3618	0.0417942
3630	0.154874
3642	0.600213
3654	0.716609
3666	0.330776
3678	0.0530498
3690	0.0203299
3702	0.0164908
3714	0.0146585
3726	0.0114301
3738	0.0119537
3750	0.00863805
3762	0.00933607
3774	0.00985959
3786	0.00846354
3798	0.0109066
3810	0.00802728
3822	0.0101213
3834	0.00994684
3846	0.00846354
3858	0.0101213
3870	0.0102959
3882	0.00924882
3894	0.0109066
3906	0.0100341
3918	0.0102959
3930	0.0117792
3942	0.0111684
3954	0.0125644
3966	0.0130879
