Infrared Spectrum: Acetic acid, hydroxy-, ethyl ester
Formula: C 4 H 8 O 3
CAS: 623-50-7
Origin: Sadtler Research Labs Under US-EPA Contract
1/CM	ABSORBANCE
450	0.0133298
462	0.0173417
474	0.0143652
486	0.0089297
498	0.00672963
510	0.00297657
522	0.00271774
534	0.00465898
546	0.00802379
558	0.0139769
570	0.0266597
582	0.0328717
594	0.0302833
606	0.0232949
618	0.0179888
630	0.0172123
642	0.0144946
654	0.0135887
666	0.014624
678	0.016177
690	0.0200595
702	0.0238125
714	0.0269185
726	0.0236831
738	0.0163064
750	0.00776496
762	0.0024589
774	0.00064708
786	0.00258832
798	0.0032354
810	0.00168241
822	0.00155299
834	0.0064708
846	0.0188947
858	0.040766
870	0.0424484
882	0.0191536
894	0.0108709
906	0.016177
918	0.023036
930	0.0271774
942	0.0267891
954	0.0226478
966	0.023942
978	0.0344247
990	0.0502134
1002	0.0804968
1014	0.156852
1026	0.255079
1038	0.29028
1050	0.275009
1062	0.334282
1074	0.513782
1086	0.773908
1098	0.99275
1110	0.763425
1122	0.298692
1134	0.215995
1146	0.227902
1158	0.251714
1170	0.313575
1182	0.455803
1194	0.582631
1206	0.739095
1218	1.20176
1230	1.20771
1242	0.607479
1254	0.476769
1266	0.60269
1278	0.677493
1290	0.52957
1302	0.404684
1314	0.362753
1326	0.230878
1338	0.121263
1350	0.0810144
1362	0.116474
1374	0.154782
1386	0.149864
1398	0.103015
1410	0.0859322
1422	0.0748024
1434	0.0854146
1446	0.104698
1458	0.111298
1470	0.0949913
1482	0.0638021
1494	0.0352012
1506	0.0166947
1518	0.00763554
1530	0.00440014
1542	0.00427073
1554	0.00375306
1566	0.00452956
1578	0.00763554
1590	0.00905912
1602	0.00660022
1614	0.00634138
1626	0.00517664
1638	0.00465898
1650	0.00608255
1662	0.00595314
1674	0.0116474
1686	0.0194124
1698	0.0332599
1710	0.0621197
1722	0.132134
1734	0.306845
1746	0.733659
1758	1.08852
1770	1.03326
1782	0.579007
1794	0.240584
1806	0.104827
1818	0.0534488
1830	0.0318363
1842	0.019283
1854	0.0108709
1866	0.00802379
1878	0.00776496
1890	0.00828262
1902	0.0064708
1914	0.00491781
1926	0.00414131
1938	0.00465898
1950	0.00271774
1962	0.00181182
1974	0.000776496
1986	0.000129416
1998	0.000129416
2010	0.000517664
2022	0.000258832
2034	0.00103533
2046	0.00142358
2058	0.00232949
2070	0.00362365
2082	0.00634138
2094	0.0072473
2106	0.00556489
2118	0.00414131
2130	0.00388248
2142	0.0032354
2154	0.00284715
2166	0.00207066
2178	0.00258832
2190	0.00232949
2202	0.00129416
2214	0.000129416
2226	0.000129416
2238	0.000258832
2250	0.000388248
2262	0.000129416
2274	0.000258832
2286	0.00103533
2298	0.00271774
2310	0.00465898
2322	0.00375306
2334	0.00103533
2346	0.00271774
2358	0.00142358
2370	0.000905912
2382	0.00310598
2394	0.00142358
2406	0.00194124
2418	0.00349423
2430	0.00517664
2442	0.00582372
2454	0.00556489
2466	0.00452956
2478	0.00388248
2490	0.0032354
2502	0.00310598
2514	0.00310598
2526	0.00336482
2538	0.00297657
2550	0.00336482
2562	0.00310598
2574	0.00271774
2586	0.00220007
2598	0.00297657
2610	0.00284715
2622	0.00362365
2634	0.00362365
2646	0.00414131
2658	0.00504722
2670	0.00530606
2682	0.0056943
2694	0.00530606
2706	0.00504722
2718	0.00504722
2730	0.00763554
2742	0.00867087
2754	0.0104827
2766	0.0129416
2778	0.0155299
2790	0.0191536
2802	0.0242008
2814	0.0327422
2826	0.0443897
2838	0.0550018
2850	0.0606961
2862	0.0729906
2874	0.0942148
2886	0.122298
2898	0.134463
2910	0.157499
2922	0.202018
2934	0.24149
2946	0.246537
2958	0.208748
2970	0.204089
2982	0.284586
2994	0.318752
3006	0.227643
3018	0.133816
3030	0.0641903
3042	0.0315775
3054	0.0185065
3066	0.0121651
3078	0.00996503
3090	0.00802379
3102	0.00685905
3114	0.00672963
3126	0.00672963
3138	0.00608255
3150	0.00491781
3162	0.00491781
3174	0.0040119
3186	0.00375306
3198	0.00336482
3210	0.00349423
3222	0.00284715
3234	0.00310598
3246	0.00258832
3258	0.00258832
3270	0.00194124
3282	0.00116474
3294	0.000776496
3306	0.00142358
3318	0.00129416
3330	0.00129416
3342	0.00155299
3354	0.00129416
3366	0.00232949
3378	0.00207066
3390	0.00258832
3402	0.00194124
3414	0.00116474
3426	0.00103533
3438	0
3450	0
3462	0.00142358
3474	0.00336482
3486	0.00595314
3498	0.00983562
3510	0.00854146
3522	0.0072473
3534	0.00685905
3546	0.0141063
3558	0.0474957
3570	0.111039
3582	0.144558
3594	0.125792
3606	0.0798497
3618	0.0427073
3630	0.0264009
3642	0.030801
3654	0.0326128
3666	0.0216125
3678	0.0112592
3690	0.00802379
3702	0.0024589
3714	0
3726	0
3738	0
3750	0
3762	0
3774	0
3786	0
3798	0
3810	0
3822	0
3834	0
3846	0
3858	0
3870	0
3882	0
3894	0
3906	0
3918	0.000258832
3930	0
3942	0
3954	0
3966	0
