Infrared Spectrum: Propanoic acid, 3-chloro-, ethyl ester
Formula: C 5 H 9 Cl O 2
CAS: 623-71-2
Origin: Sadtler Research Labs Under US-EPA Contract
1/CM	ABSORBANCE
450	0.0256766
462	0.0180499
474	0.00966051
486	0.0115672
498	0.00648271
510	0.00114401
522	0.00063556
534	0.00190668
546	0.0021609
558	0.00457603
570	0.0148721
582	0.0231344
594	0.0212277
606	0.0152534
618	0.0123299
630	0.0153806
642	0.0245326
654	0.0404216
666	0.0639373
678	0.145797
690	0.117579
702	0.0335576
714	0.0157619
726	0.0111859
738	0.0139823
750	0.0238971
762	0.0512261
774	0.0587257
786	0.0547853
798	0.0401674
810	0.0357185
822	0.0297442
834	0.0235157
846	0.0409301
858	0.0742334
870	0.0735978
882	0.0321593
894	0.0180499
906	0.0172872
918	0.02949
930	0.0662254
942	0.0849108
954	0.0505906
966	0.0388963
978	0.0311424
990	0.0301255
1002	0.0524973
1014	0.141476
1026	0.230454
1038	0.26935
1050	0.262359
1062	0.15228
1074	0.0832584
1086	0.0799534
1098	0.141094
1110	0.153297
1122	0.172491
1134	0.248758
1146	0.536031
1158	0.640009
1170	0.644966
1182	0.696447
1194	0.652974
1206	0.727589
1218	0.726826
1230	0.6184
1242	0.598698
1254	0.482263
1266	0.419724
1278	0.281934
1290	0.173889
1302	0.208337
1314	0.220031
1326	0.179609
1338	0.261851
1350	0.399767
1362	0.277104
1374	0.367227
1386	0.239987
1398	0.111604
1410	0.0983847
1422	0.116562
1434	0.124824
1446	0.13601
1458	0.131434
1470	0.11224
1482	0.0687676
1494	0.0353371
1506	0.0199566
1518	0.0123299
1530	0.0105503
1542	0.00966051
1554	0.00877073
1566	0.00966051
1578	0.0102961
1590	0.00838939
1602	0.00813517
1614	0.00902495
1626	0.0111859
1638	0.0106774
1650	0.0104232
1662	0.00902495
1674	0.0130925
1686	0.0202108
1698	0.0322864
1710	0.0541497
1722	0.106901
1734	0.257148
1746	0.704836
1758	1.2265
1770	0.991982
1782	0.303671
1794	0.104359
1806	0.0619035
1818	0.0327949
1830	0.0226259
1842	0.0156348
1854	0.0104232
1866	0.00889784
1878	0.00877073
1890	0.00889784
1902	0.00788094
1914	0.00660982
1926	0.00584715
1938	0.00572004
1950	0.00470314
1962	0.00381336
1974	0.00394047
1986	0.00483026
1998	0.00610138
2010	0.0063556
2022	0.0053387
2034	0.00521159
2046	0.00572004
2058	0.00572004
2070	0.00546582
2082	0.00521159
2094	0.00508448
2106	0.00406758
2118	0.00292358
2130	0.00228802
2142	0.00177957
2154	0.00114401
2166	0.000762672
2178	0.000889784
2190	0.000889784
2202	0.000889784
2214	0.00114401
2226	0.00139823
2238	0.00177957
2250	0.00114401
2262	0.00127112
2274	0.00165246
2286	0.00177957
2298	0.00241513
2310	0.00254224
2322	0.00190668
2334	0.00228802
2346	0.0031778
2358	0.00292358
2370	0.00368625
2382	0.00343202
2394	0.00228802
2406	0.00228802
2418	0.00203379
2430	0.00165246
2442	0.00152534
2454	0.00165246
2466	0.00165246
2478	0.00139823
2490	0.0010169
2502	0.000508448
2514	0.000508448
2526	0.000127112
2538	0.000381336
2550	0.000381336
2562	0.000254224
2574	0.000254224
2586	0.000381336
2598	0.000381336
2610	0.000508448
2622	0.000889784
2634	0.00063556
2646	0.000508448
2658	0.000254224
2670	0.000508448
2682	0.00063556
2694	0.000762672
2706	0.0010169
2718	0.00165246
2730	0.0031778
2742	0.00394047
2754	0.00381336
2766	0.00470314
2778	0.00597426
2790	0.00584715
2802	0.0063556
2814	0.00762672
2826	0.0104232
2838	0.0122028
2850	0.0142365
2862	0.0208464
2874	0.034066
2886	0.0568191
2898	0.063556
2910	0.0786823
2922	0.0940629
2934	0.104867
2946	0.149992
2958	0.146814
2970	0.201727
2982	0.34244
2994	0.350066
3006	0.196896
3018	0.115545
3030	0.0610138
3042	0.0312696
3054	0.0186855
3066	0.0119485
3078	0.00902495
3090	0.00762672
3102	0.00610138
3114	0.00597426
3126	0.00597426
3138	0.0053387
3150	0.00483026
3162	0.00444892
3174	0.00406758
3186	0.00355914
3198	0.00343202
3210	0.00330491
3222	0.00266935
3234	0.00228802
3246	0.00139823
3258	0.0010169
3270	0.0010169
3282	0.000889784
3294	0.000762672
3306	0.0010169
3318	0.00127112
3330	0.00114401
3342	0.00190668
3354	0.00139823
3366	0.0010169
3378	0.00139823
3390	0.00152534
3402	0.00127112
3414	0.00190668
3426	0.0010169
3438	0.0010169
3450	0.00165246
3462	0.0021609
3474	0.00457603
3486	0.00749961
3498	0.0104232
3510	0.0085165
3522	0.00330491
3534	0.000762672
3546	0.000381336
3558	0.00139823
3570	0.00724538
3582	0.00800806
3594	0.00432181
3606	0.00165246
3618	0.00139823
3630	0.00165246
3642	0.00177957
3654	0.00114401
3666	0.00165246
3678	0.00190668
3690	0.00254224
3702	0.00127112
3714	0.00241513
3726	0.0010169
3738	0.00203379
3750	0.00063556
3762	0.00114401
3774	0.00190668
3786	0.00152534
3798	0.00177957
3810	0.00139823
3822	0.00165246
3834	0.000889784
3846	0.00165246
3858	0.00190668
3870	0.00165246
3882	0.0010169
3894	0.00165246
3906	0.00165246
3918	0.00305069
3930	0.00114401
3942	0.000381336
3954	0.00241513
3966	0.000889784
