Infrared Spectrum: 2-Cyclopentene-1-tridecanoic acid, ethyl ester, (S)-
Formula: C 20 H 36 O 2
CAS: 623-32-5
Origin: Sadtler Research Labs Under US-EPA Contract
1/CM	ABSORBANCE
450	0.0108455
462	0.00590232
474	0.0073779
486	0.00730412
498	0.00287738
510	0.0107717
522	0.00988639
534	0.0185923
546	0.0168954
558	0.027372
570	0.0176332
582	0.0166003
594	0.0209532
606	0.0360042
618	0.0346024
630	0.0303969
642	0.0290689
654	0.0309872
666	0.0327579
678	0.0478826
690	0.0508337
702	0.074443
714	0.104545
726	0.0886086
738	0.0572525
750	0.0455954
762	0.0408736
774	0.038734
786	0.0416851
798	0.0379224
810	0.0385864
822	0.038734
834	0.0399144
846	0.0410211
858	0.0415376
870	0.0383651
882	0.0356353
894	0.0405785
906	0.0451527
918	0.0461119
930	0.042718
942	0.0405785
954	0.0374797
966	0.0397669
978	0.042718
990	0.0441936
1002	0.05076
1014	0.0634499
1026	0.0959865
1038	0.119227
1050	0.100118
1062	0.0906006
1074	0.0836654
1086	0.0905268
1098	0.122178
1110	0.122252
1122	0.119817
1134	0.135237
1146	0.178619
1158	0.233363
1170	0.252029
1182	0.234322
1194	0.194039
1206	0.17102
1218	0.15892
1230	0.163789
1242	0.165486
1254	0.150657
1266	0.11421
1278	0.0956914
1290	0.088461
1302	0.094142
1314	0.0919286
1326	0.0786484
1338	0.0856574
1350	0.0963554
1362	0.0919286
1374	0.112365
1386	0.0669176
1398	0.0565147
1410	0.048399
1422	0.059761
1434	0.0705327
1446	0.0904531
1458	0.129703
1470	0.0914122
1482	0.0438985
1494	0.0314299
1506	0.03807
1518	0.0305445
1530	0.024052
1542	0.0368895
1554	0.0247897
1566	0.023019
1578	0.0272245
1590	0.021027
1602	0.023019
1614	0.0264129
1626	0.0272982
1638	0.0320939
1650	0.0334219
1662	0.0297329
1674	0.0333481
1686	0.0458168
1698	0.0537111
1710	0.0639664
1722	0.10211
1734	0.215361
1746	0.308618
1758	0.279032
1770	0.125203
1782	0.0533422
1794	0.0319463
1806	0.0174856
1818	0.01269
1830	0.014682
1842	0.0106242
1854	0.0091486
1866	0.00936993
1878	0.00826325
1890	0.00988639
1902	0.00774679
1914	0.00796813
1926	0.00892726
1938	0.00826325
1950	0.00804191
1962	0.00708278
1974	0.00671389
1986	0.00671389
1998	0.00649255
2010	0.00634499
2022	0.00752546
2034	0.007009
2046	0.00575476
2058	0.00568098
2070	0.00450052
2082	0.00413162
2094	0.00368895
2106	0.00472186
2118	0.00332006
2130	0.00339383
2142	0.00287738
2154	0.00258226
2166	0.00221337
2178	0.00258226
2190	0.00206581
2202	0.0014018
2214	0.00228715
2226	0.00184447
2238	0.00184447
2250	0.00169692
2262	0.00184447
2274	0.00228715
2286	0.00243471
2298	0.00398407
2310	0.00649255
2322	0.00693523
2334	0.00759924
2346	0.00848458
2358	0.01269
2370	0.00907482
2382	0.00346761
2394	0.00272982
2406	0.0031725
2418	0.00346761
2430	0.00272982
2442	0.00324628
2454	0.00332006
2466	0.00368895
2478	0.00368895
2490	0.00324628
2502	0.00332006
2514	0.00339383
2526	0.00442674
2538	0.00501697
2550	0.00516453
2562	0.00568098
2574	0.00604988
2586	0.00686145
2598	0.00715656
2610	0.0073779
2622	0.00841081
2634	0.00900104
2646	0.00973883
2658	0.0107717
2670	0.0112144
2682	0.0121735
2694	0.0116571
2706	0.0117309
2718	0.0123949
2730	0.0138705
2742	0.0139442
2754	0.0162314
2766	0.0179283
2778	0.0199203
2790	0.0247897
2802	0.0317987
2814	0.0427918
2826	0.060425
2838	0.0976096
2850	0.207098
2862	0.358197
2874	0.237273
2886	0.171684
2898	0.21359
2910	0.324849
2922	0.507452
2934	0.73779
2946	0.473809
2958	0.280286
2970	0.158404
2982	0.133024
2994	0.0967243
3006	0.0596134
3018	0.0413162
3030	0.0237568
3042	0.0284049
3054	0.0508337
3066	0.0504648
3078	0.0136491
3090	0.0056072
3102	0.00398407
3114	0.00339383
3126	0.00147558
3138	0.00169692
3150	0.00206581
3162	0.00302494
3174	0.00339383
3186	0.00346761
3198	0.00243471
3210	0.00302494
3222	0.00309872
3234	0.00110669
3246	0.00287738
3258	0.00184447
3270	0.00265604
3282	0.00258226
3294	0.00184447
3306	0.00258226
3318	0.0017707
3330	0.00272982
3342	0.00221337
3354	0.00228715
3366	0.00361517
3378	0.0028036
3390	0.00250849
3402	0.0028036
3414	0.00250849
3426	0.00243471
3438	0.00398407
3450	0.00486941
3462	0.00324628
3474	0.00221337
3486	0.00309872
3498	0.0014018
3510	0.00265604
3522	0.00184447
3534	0.00118046
3546	0.00479564
3558	0.00191825
3570	0.00649255
3582	0.00575476
3594	0.00368895
3606	0.00486941
3618	0.00767302
3630	0.0110668
3642	0.00272982
3654	0.00538587
3666	0.00118046
3678	0.00671389
3690	0.00774679
3702	0.0028036
3714	0.00627122
3726	0.00494319
3738	0.0073779
3750	0.0087797
3762	0.00184447
3774	0.00169692
3786	0.00383651
3798	0.00723034
3810	0.0059761
3822	0.00841081
3834	0.00723034
3846	0.00671389
3858	0.00759924
3870	0.0091486
3882	0.00855836
3894	0.00767302
3906	0.00575476
3918	0.0028036
3930	0.00221337
3942	0.0017707
3954	0
3966	0.000221337
