Infrared Spectrum: Pyridine, 2,6-dimethoxy-
Formula: C 7 H 9 N O 2
CAS: 6231-18-1
Origin: Sadtler Research Labs Under US-EPA Contract
1/CM	ABSORBANCE
450	0.0385281
462	0.0327669
474	0.0138629
486	0.00234049
498	0.014223
510	0.0052211
522	0.00612129
534	0.0162034
546	0.00774163
558	0.0181838
570	0.0147631
582	0.0111624
594	0.0129627
606	0.0127827
618	0.0196241
630	0.0586924
642	0.0334871
654	0.00630133
666	0.00450095
678	0.00486103
690	0.0075616
702	0.0163835
714	0.0493304
726	0.149792
738	0.0930796
750	0.0264656
762	0.0145831
774	0.0736355
786	0.280679
798	0.280499
810	0.085158
822	0.0226848
834	0.0122426
846	0.0104422
858	0.0090019
870	0.0136829
882	0.0216046
894	0.0163835
906	0.0127827
918	0.0192641
930	0.0388882
942	0.14259
954	0.218566
966	0.0559918
978	0.0226848
990	0.0270057
1002	0.0442893
1014	0.19066
1026	0.654258
1038	0.696027
1050	0.429571
1062	0.297963
1074	0.242511
1086	0.180398
1098	0.0975806
1110	0.0594125
1122	0.0631933
1134	0.264836
1146	0.208484
1158	0.04753
1170	0.0291662
1182	0.0419489
1194	0.0545515
1206	0.0536513
1218	0.066254
1230	0.251333
1242	1.30852
1254	1.43436
1266	0.232789
1278	0.179138
1290	0.160054
1302	0.260695
1314	0.858421
1326	1.80038
1338	0.937638
1350	0.119185
1362	0.0507707
1374	0.0493304
1386	0.061393
1398	0.272397
1410	1.3384
1422	1.15224
1434	0.23567
1446	0.248813
1458	0.977606
1470	1.71576
1482	0.819173
1494	0.180758
1506	0.107123
1518	0.125486
1530	0.145651
1542	0.161854
1554	0.183099
1566	0.416968
1578	0.997951
1590	1.54815
1602	1.06655
1614	1.07321
1626	0.437492
1638	0.0671542
1650	0.0453696
1662	0.0273658
1674	0.0318667
1686	0.037988
1698	0.0457297
1710	0.0343873
1722	0.0198042
1734	0.023765
1746	0.0185439
1758	0.0129627
1770	0.0131428
1782	0.0100821
1794	0.0100821
1806	0.00828175
1818	0.0133228
1830	0.0147631
1842	0.0111624
1854	0.00594125
1866	0.0052211
1878	0.00540114
1890	0.0108023
1902	0.0117025
1914	0.0100821
1926	0.0126027
1938	0.023765
1950	0.0239451
1962	0.018904
1974	0.0149432
1986	0.0145831
1998	0.0172836
2010	0.014223
2022	0.0106222
2034	0.019084
2046	0.0259255
2058	0.019084
2070	0.0122426
2082	0.00738156
2094	0.00810171
2106	0.0075616
2118	0.00648137
2130	0.00720152
2142	0.00396084
2154	0.00324068
2166	0.00432091
2178	0.0111624
2190	0.0181838
2202	0.0133228
2214	0.00306065
2226	0.000360076
2238	0.00108023
2250	0.0037808
2262	0.0104422
2274	0.0165635
2286	0.0129627
2298	0.0133228
2310	0.0194441
2322	0.0194441
2334	0.00936198
2346	0.00252053
2358	0.0147631
2370	0
2382	0
2394	0.00288061
2406	0.00882186
2418	0.0113424
2430	0.00720152
2442	0.0014403
2454	0.00252053
2466	0.00360076
2478	0.00162034
2490	0.00288061
2502	0.00414087
2514	0.00918194
2526	0.0129627
2538	0.00864182
2550	0.00954201
2562	0.0162034
2574	0.0165635
2586	0.00738156
2598	0.00576122
2610	0.00738156
2622	0.00342072
2634	0.00342072
2646	0.00612129
2658	0.00792167
2670	0.00918194
2682	0.0115224
2694	0.00990209
2706	0.00738156
2718	0.0104422
2730	0.00954201
2742	0.0075616
2754	0.00612129
2766	0.0052211
2778	0.00612129
2790	0.00774163
2802	0.0106222
2814	0.0214245
2826	0.0374479
2838	0.0417688
2850	0.0797568
2862	0.14151
2874	0.109823
2886	0.0829975
2898	0.111624
2910	0.138809
2922	0.130708
2934	0.132688
2946	0.227028
2958	0.393563
2970	0.336851
2982	0.299763
2994	0.180398
3006	0.175357
3018	0.253674
3030	0.119005
3042	0.0558118
3054	0.0462698
3066	0.0583323
3078	0.0667941
3090	0.052211
3102	0.0590525
3114	0.0244852
3126	0.0129627
3138	0.0109823
3150	0.00918194
3162	0.00954201
3174	0.00954201
3186	0.00684144
3198	0.00540114
3210	0.0037808
3222	0.00234049
3234	0.00252053
3246	0.000180038
3258	0.00126027
3270	0.00180038
3282	0.00252053
3294	0.00450095
3306	0.00162034
3318	0.00216046
3330	0.00396084
3342	0.00504106
3354	0.0037808
3366	0.00324068
3378	0.00396084
3390	0.00432091
3402	0.00396084
3414	0.00450095
3426	0.00396084
3438	0.00666141
3450	0.00576122
3462	0.00504106
3474	0.00450095
3486	0.00414087
3498	0.00576122
3510	0.00504106
3522	0.00450095
3534	0.0052211
3546	0.00486103
3558	0.00486103
3570	0.00504106
3582	0.0052211
3594	0.00432091
3606	0.00396084
3618	0.00342072
3630	0.00270057
3642	0.00108023
3654	0.00216046
3666	0.0037808
3678	0.0052211
3690	0.0037808
3702	0.00306065
3714	0.00486103
3726	0.00468099
3738	0.00162034
3750	0.000540114
3762	0.00252053
3774	0.00396084
3786	0.00486103
3798	0.00468099
3810	0.00306065
3822	0.00414087
3834	0.00558118
3846	0.0037808
3858	0.00216046
3870	0.00828175
3882	0.0075616
3894	0.00666141
3906	0.00558118
3918	0.00666141
3930	0.00612129
3942	0.0117025
3954	0.00954201
3966	0.00990209
