Infrared Spectrum: 2-Butene, (E)-
Formula: C 4 H 8
CAS: 624-64-6
Origin: Sadtler Research Labs Under US-EPA Contract
1/CM	ABSORBANCE
450	0.0033917
462	0.0147639
474	0.00648414
486	0.00668365
498	0.00603524
510	0.00568609
522	0.00758146
534	0.00698292
546	0.00438926
558	0.00688316
570	0.00374085
582	0.00319219
594	0.00623475
606	0.00468853
618	0.00443914
630	0.00448902
642	0.00433939
654	0.00648414
666	0.00409
678	0.00468853
690	0.00379073
702	0.00518731
714	0.00508756
726	0.00428951
738	0.00523719
750	0.00533695
762	0.00433939
774	0.00513743
786	0.00503768
798	0.0058856
810	0.00528707
822	0.00693304
834	0.00718243
846	0.00728219
858	0.00942694
870	0.0107736
882	0.0140656
894	0.0200011
906	0.0323209
918	0.0541675
930	0.0902792
942	0.134022
954	0.171481
966	0.244552
978	0.207343
990	0.161056
1002	0.0831965
1014	0.0457381
1026	0.0305752
1038	0.0291786
1050	0.037608
1062	0.0342662
1074	0.03681
1086	0.0158113
1098	0.00798048
1110	0.00628463
1122	0.00608512
1134	0.00553646
1146	0.00663377
1158	0.00723231
1170	0.00808024
1182	0.0095267
1194	0.0107238
1206	0.0108734
1218	0.0111228
1230	0.0113722
1242	0.0121204
1254	0.0127189
1266	0.0126191
1278	0.0133174
1290	0.025338
1302	0.0254378
1314	0.0325703
1326	0.0176568
1338	0.0151629
1350	0.018006
1362	0.0238417
1374	0.0350642
1386	0.0438428
1398	0.0595045
1410	0.0599534
1422	0.0675348
1434	0.0746175
1446	0.104943
1458	0.08175
1470	0.0894313
1482	0.0742683
1494	0.0594546
1506	0.0444413
1518	0.0321713
1530	0.0221957
1542	0.0176568
1554	0.0138661
1566	0.0129184
1578	0.011871
1590	0.0107736
1602	0.0102749
1614	0.0100754
1626	0.00867877
1638	0.00882841
1650	0.00813011
1662	0.00892816
1674	0.010225
1686	0.0164099
1698	0.0161605
1710	0.0171082
1722	0.00947682
1734	0.00618487
1746	0.00613499
1758	0.00643426
1770	0.00947682
1782	0.0101252
1794	0.0105243
1806	0.00533695
1818	0.00384061
1830	0.00334183
1842	0.00354134
1854	0.00314231
1866	0.00344158
1878	0.00364109
1890	0.0033917
1902	0.00344158
1914	0.00379073
1926	0.00423963
1938	0.00438926
1950	0.00394036
1962	0.00359122
1974	0.00443914
1986	0.00643426
1998	0.00683329
2010	0.00693304
2022	0.00428951
2034	0.00299268
2046	0.00219463
2058	0.00164597
2070	0.00194524
2082	0.00199512
2094	0.00179561
2106	0.00164597
2118	0.00189536
2130	0.00164597
2142	0.00169585
2154	0.00139658
2166	0.00184549
2178	0.00184549
2190	0.00169585
2202	0.00149634
2214	0.00164597
2226	0.00199512
2238	0.00199512
2250	0.00199512
2262	0.00229439
2274	0.00164597
2286	0.0029428
2298	0.00349146
2310	0.00428951
2322	0.00309244
2334	0.00304256
2346	0.00379073
2358	0.00394036
2370	0.00364109
2382	0.00443914
2394	0.00299268
2406	0.00364109
2418	0.00463865
2430	0.00553646
2442	0.0058856
2454	0.0054367
2466	0.00369097
2478	0.00274329
2490	0.00299268
2502	0.00214475
2514	0.00234427
2526	0.00209488
2538	0.00209488
2550	0.00134671
2562	0.00099756
2574	0.00139658
2586	0.00174573
2598	0.00219463
2610	0.0024939
2622	0.00259366
2634	0.00194524
2646	0.00184549
2658	0.00229439
2670	0.00239414
2682	0.00319219
2694	0.00409
2706	0.00483817
2718	0.00798048
2730	0.0170084
2742	0.0213478
2754	0.0260363
2766	0.0164099
2778	0.00972621
2790	0.0114221
2802	0.0137663
2814	0.0189038
2826	0.0271835
2838	0.033119
2850	0.0661382
2862	0.19233
2874	0.205447
2886	0.276773
2898	0.263306
2910	0.284853
2922	0.434238
2934	0.448902
2946	0.475537
2958	0.37628
2970	0.332337
2982	0.336776
2994	0.277771
3006	0.246148
3018	0.226147
3030	0.199063
3042	0.182603
3054	0.130381
3066	0.0918254
3078	0.0653402
3090	0.0447406
3102	0.0332686
3114	0.0254877
3126	0.0195522
3138	0.0159111
3150	0.0127189
3162	0.0104744
3174	0.00917755
3186	0.00768121
3198	0.00668365
3210	0.0045389
3222	0.00394036
3234	0.00354134
3246	0.00389048
3258	0.00319219
3270	0.00329195
3282	0.0024939
3294	0.00224451
3306	0.00234427
3318	0.00149634
3330	0.00209488
3342	0.00219463
3354	0.00154622
3366	0.00234427
3378	0.0015961
3390	0.00179561
3402	0.00244402
3414	0.00244402
3426	0.00284305
3438	0.00334183
3450	0.00319219
3462	0.00309244
3474	0.0033917
3486	0.00284305
3498	0.00254378
3510	0.00264353
3522	0.00199512
3534	0.00259366
3546	0.00209488
3558	0.00284305
3570	0.00214475
3582	0.00219463
3594	0.000798048
3606	0.0024939
3618	0.00184549
3630	0.00144646
3642	0.00194524
3654	0.00234427
3666	0.00314231
3678	0.00219463
3690	0.00234427
3702	0.00279317
3714	0.0033917
3726	0.00379073
3738	0.00154622
3750	0.00359122
3762	0.00369097
3774	0.00269341
3786	0.00329195
3798	0.00224451
3810	0.00384061
3822	0.00289292
3834	0.00269341
3846	0.0033917
3858	0.00284305
3870	0.00324207
3882	0.00578585
3894	0.0045389
3906	0.00443914
3918	0.00364109
3930	0.00354134
3942	0.00473841
3954	0.00244402
3966	0.00319219
