Infrared Spectrum: 4-Decanone
Formula: C 10 H 20 O
CAS: 624-16-8
Origin: Sadtler Research Labs Under US-EPA Contract
1/CM	ABSORBANCE
450	0.0109764
462	0.00860892
474	0.00581102
486	0.00882414
498	0.00667191
510	0.00545232
522	0.00868066
534	0.0087524
546	0.0100437
558	0.00703062
570	0.00516535
582	0.00380227
594	0.0031566
606	0.00660017
618	0.00789151
630	0.0134156
642	0.00423272
654	0.00215223
666	0.00301312
678	0.00337183
690	0.00451968
702	0.00803499
714	0.013559
726	0.0210919
738	0.0187244
750	0.0145634
762	0.0159265
774	0.0140612
786	0.0114068
798	0.009972
810	0.00918285
822	0.0101155
834	0.0104742
846	0.00860892
858	0.00918285
870	0.0114068
882	0.0152091
894	0.0185809
906	0.0149939
918	0.00767629
930	0.00631321
942	0.00552406
954	0.00746106
966	0.011909
978	0.0178635
990	0.0303464
1002	0.0352248
1014	0.0334313
1026	0.0411793
1038	0.0477795
1050	0.061482
1062	0.0608364
1074	0.0386684
1086	0.0298443
1098	0.0304182
1110	0.0428294
1122	0.0736063
1134	0.099433
1146	0.0823587
1158	0.0745389
1170	0.0551688
1182	0.0422554
1194	0.0450533
1206	0.043762
1218	0.0351531
1230	0.0345792
1242	0.0319247
1254	0.033503
1266	0.0465599
1278	0.0558862
1290	0.0560297
1302	0.0521557
1314	0.0473491
1326	0.045986
1338	0.0599037
1350	0.0965634
1362	0.141402
1374	0.115646
1386	0.0777672
1398	0.050147
1410	0.0565319
1422	0.0685844
1434	0.0644234
1446	0.0769064
1458	0.114427
1470	0.108688
1482	0.0522992
1494	0.0228136
1506	0.0145634
1518	0.010259
1530	0.00731758
1542	0.00638495
1554	0.00538058
1566	0.0043762
1578	0.00387401
1590	0.00394576
1602	0.00394576
1614	0.00480665
1626	0.00523709
1638	0.00645669
1650	0.00796325
1662	0.00946981
1674	0.0164287
1686	0.0288399
1698	0.0546666
1710	0.148432
1722	0.382953
1734	0.389984
1746	0.128703
1758	0.0469186
1770	0.0286247
1782	0.0220245
1794	0.0155678
1806	0.00868066
1818	0.00566754
1830	0.00387401
1842	0.00272616
1854	0.00186527
1866	0.00208049
1878	0.00150656
1890	0.00129134
1902	0.00129134
1914	0.000932633
1926	0.0012196
1938	0.0015783
1950	0.00114786
1962	0.000932633
1974	0.000645669
1986	0.000430446
1998	0.000430446
2010	0.000430446
2022	0.000358705
2034	0.0015783
2046	0.00114786
2058	0.00071741
2070	0.00243919
2082	0.00229571
2094	0.0012196
2106	0.00100437
2118	0.0012196
2130	0.00114786
2142	0.00150656
2154	0.00193701
2166	0.00179353
2178	0.00229571
2190	0.00215223
2202	0.00215223
2214	0.00193701
2226	0.00179353
2238	0.00143482
2250	0.00150656
2262	0.00143482
2274	0.00165004
2286	0.00186527
2298	0.00236745
2310	0.00387401
2322	0.00243919
2334	0
2346	0
2358	0.00243919
2370	0
2382	0
2394	0.00136308
2406	0.00165004
2418	0.00143482
2430	0.00100437
2442	0.000645669
2454	0.00143482
2466	0.000789151
2478	0.000358705
2490	0.000430446
2502	0.000358705
2514	0.000286964
2526	0.000932633
2538	0.000860892
2550	0.00114786
2562	0.00172178
2574	0.00150656
2586	0.00129134
2598	0.00150656
2610	0.00129134
2622	0.00215223
2634	0.0031566
2646	0.00308486
2658	0.00451968
2670	0.00781977
2682	0.00846544
2694	0.00760455
2706	0.00645669
2718	0.00695888
2730	0.00832196
2742	0.0115503
2754	0.0124112
2766	0.011622
2778	0.0130569
2790	0.0179352
2802	0.0242485
2814	0.0324269
2826	0.0397445
2838	0.0572493
2850	0.108042
2862	0.234952
2874	0.305904
2886	0.340985
2898	0.301671
2910	0.349522
2922	0.490995
2934	0.685916
2946	0.677163
2958	0.573139
2970	0.697466
2982	0.382236
2994	0.141473
3006	0.0713106
3018	0.0431163
3030	0.0293421
3042	0.0213071
3054	0.0158548
3066	0.0122677
3078	0.0104024
3090	0.0100437
3102	0.00889588
3114	0.00774803
3126	0.00588276
3138	0.00703062
3150	0.00674365
3162	0.00638495
3174	0.00760455
3186	0.00667191
3198	0.00767629
3210	0.00545232
3222	0.00459142
3234	0.00337183
3246	0.0043762
3258	0.00473491
3270	0.00373053
3282	0.00423272
3294	0.0027979
3306	0.00337183
3318	0.00330009
3330	0.00301312
3342	0.00265442
3354	0.00265442
3366	0.00272616
3378	0.00373053
3390	0.00387401
3402	0.00337183
3414	0.0068154
3426	0.00817847
3438	0.00903937
3450	0.00746106
3462	0.00416098
3474	0.000430446
3486	0.00265442
3498	0.00136308
3510	0.00344357
3522	0.00165004
3534	0.00265442
3546	0.0043762
3558	0.0040175
3570	0.00624147
3582	0.00631321
3594	0.00258268
3606	0.00380227
3618	0.0043762
3630	0.00215223
3642	0.00451968
3654	0.00229571
3666	0.00251094
3678	0.00530883
3690	0.00380227
3702	0.00143482
3714	0.00416098
3726	0.0043762
3738	0.00215223
3750	0.00380227
3762	0.00365879
3774	0.00351531
3786	0.00322835
3798	0.00344357
3810	0.00466317
3822	0.00423272
3834	0.00509361
3846	0.00487839
3858	0.00451968
3870	0.00487839
3882	0.00616973
3894	0.00566754
3906	0.00444794
3918	0.00552406
3930	0.00616973
3942	0.00301312
3954	0.0015783
3966	0.00616973
