Infrared Spectrum: Benzene, 1,4-diiodo-
Formula: C 6 H 4 I 2
CAS: 624-38-4
Origin: Sadtler Research Labs Under US-EPA Contract
1/CM	ABSORBANCE
450	0.0498159
462	0.0474364
474	0.0325454
486	0.0103623
498	0.00184219
510	0.000921096
522	0.00414493
534	0.00314708
546	0.00744553
558	0.00683146
570	0.0122813
582	0.0136629
594	0.014277
606	0.0115137
618	0.0144305
630	0.0101321
642	0.0130489
654	0.0106694
666	0.0110532
678	0.0150446
690	0.0152748
702	0.0172705
714	0.0111299
726	0.0151981
738	0.0206479
750	0.0184987
762	0.012358
774	0.0227971
786	0.0538841
798	0.115367
810	0.103393
822	0.0409888
834	0.0160424
846	0.0116672
858	0.0115905
870	0.0100553
882	0.00882717
894	0.0138164
906	0.0143537
918	0.0109764
930	0.0103623
942	0.0122813
954	0.0151981
966	0.0202641
978	0.0216458
990	0.302119
1002	0.522799
1014	0.0182684
1026	0.0186522
1038	0.0162727
1050	0.0201874
1062	0.0944123
1074	0.198189
1086	0.0171938
1098	0.0207247
1110	0.0174241
1122	0.0105926
1134	0.014277
1146	0.0129721
1158	0.0136629
1170	0.0119742
1182	0.0125883
1194	0.0129721
1206	0.0143537
1218	0.021262
1230	0.0148143
1242	0.0163495
1254	0.0147375
1266	0.0127418
1278	0.0126651
1290	0.0112067
1302	0.0119742
1314	0.0142002
1326	0.0147375
1338	0.0146608
1350	0.0182684
1362	0.0320848
1374	0.0558031
1386	0.04759
1398	0.0314708
1410	0.0130489
1422	0.00875041
1434	0.0102088
1446	0.0125116
1458	0.0378417
1470	0.343339
1482	0.0224901
1494	0.0151213
1506	0.0062174
1518	0.00882717
1530	0.0111299
1542	0.00406817
1554	0.00836662
1566	0.00951799
1578	0.00790607
1590	0.0107461
1602	0.0133559
1614	0.0175776
1626	0.0159657
1638	0.0076758
1650	0.00637091
1662	0.00667795
1674	0.00683146
1686	0.00268653
1698	0.00406817
1710	0.00721525
1722	0.00752228
1734	0.00521954
1746	0.00644767
1758	0.00629416
1770	0.011744
1782	0.00660119
1794	0.00391466
1806	0.00437521
1818	0.00391466
1830	0.00360763
1842	0.00399142
1854	0.00414493
1866	0.00606388
1878	0.0105158
1890	0.012358
1902	0.0105158
1914	0.00629416
1926	0.00422169
1938	0.00498927
1950	0.00544982
1962	0.00560333
1974	0.00483575
1986	0.00422169
1998	0.00429845
2010	0.00414493
2022	0.00460548
2034	0.00514279
2046	0.00460548
2058	0.00391466
2070	0.00330059
2082	0.00368438
2094	0.00314708
2106	0.00399142
2118	0.00460548
2130	0.00399142
2142	0.0038379
2154	0.00406817
2166	0.00429845
2178	0.00360763
2190	0.00353087
2202	0.00391466
2214	0.00307032
2226	0.00330059
2238	0.00330059
2250	0.0038379
2262	0.00322384
2274	0.004759
2286	0.00544982
2298	0.00782932
2310	0.00836662
2322	0.00890393
2334	0.0101321
2346	0.0104391
2358	0.0144305
2370	0.0112834
2382	0.00614064
2394	0.00276329
2406	0.00268653
2418	0.00245626
2430	0.00214922
2442	0.00284005
2454	0.00199571
2466	0.00191895
2478	0.00230274
2490	0.00253301
2502	0.00207247
2514	0.00360763
2526	0.00245626
2538	0.00391466
2550	0.00544982
2562	0.00376114
2574	0.00222598
2586	0.00191895
2598	0.00168868
2610	0.00184219
2622	0.00337735
2634	0.00207247
2646	0.00107461
2658	0.00168868
2670	0.00115137
2682	0.000997854
2694	0.00153516
2706	0.00122813
2718	0.00153516
2730	0.00115137
2742	0.00230274
2754	0.00284005
2766	0.0029168
2778	0.0038379
2790	0.00399142
2802	0.00268653
2814	0.00276329
2826	0.00268653
2838	0.00284005
2850	0.00176543
2862	0.00314708
2874	0.00307032
2886	0.00353087
2898	0.00268653
2910	0.00253301
2922	0.00276329
2934	0.00307032
2946	0.00391466
2958	0.00414493
2970	0.00376114
2982	0.00353087
2994	0.00422169
3006	0.00514279
3018	0.00544982
3030	0.00552658
3042	0.00521954
3054	0.00591037
3066	0.00959475
3078	0.0169635
3090	0.0138164
3102	0.00798283
3114	0.00629416
3126	0.00414493
3138	0.00460548
3150	0.00452872
3162	0.00360763
3174	0.00468224
3186	0.00314708
3198	0.00414493
3210	0.00544982
3222	0.00452872
3234	0.00399142
3246	0.00360763
3258	0.00452872
3270	0.00429845
3282	0.00391466
3294	0.00422169
3306	0.00452872
3318	0.00521954
3330	0.00506603
3342	0.00330059
3354	0.00498927
3366	0.00353087
3378	0.00284005
3390	0.00414493
3402	0.00452872
3414	0.00268653
3426	0.00253301
3438	0.00376114
3450	0.00368438
3462	0.00429845
3474	0.00322384
3486	0.00345411
3498	0.00314708
3510	0.00322384
3522	0.00437521
3534	0.00345411
3546	0.00191895
3558	0.00414493
3570	0.00115137
3582	0.00452872
3594	0.00314708
3606	0.00506603
3618	0.00360763
3630	0.000921096
3642	0.00284005
3654	0.00391466
3666	0.00406817
3678	0.00191895
3690	0.00414493
3702	0.00614064
3714	0.00376114
3726	0.00406817
3738	0.0023795
3750	0.00307032
3762	0.00706174
3774	0.00798283
3786	0.00706174
3798	0.00805959
3810	0.00667795
3822	0.00537306
3834	0.00790607
3846	0.00667795
3858	0.00568009
3870	0.00759904
3882	0.00974827
3894	0.0101321
3906	0.00805959
3918	0.00790607
3930	0.00798283
3942	0.00852014
3954	0
3966	0.00076758
