Infrared Spectrum: 1-Butanol, 3,3-dimethyl-
Formula: C 6 H 14 O
CAS: 624-95-3
Origin: Sadtler Research Labs Under US-EPA Contract
1/CM	ABSORBANCE
450	0
462	0.0333591
474	0.026791
486	0.0340505
498	0.030075
510	0.0380259
522	0.0421742
534	0.0343962
546	0.0369888
558	0.032322
570	0.0302479
582	0.0295565
594	0.0321492
606	0.0295565
618	0.032322
630	0.0359518
642	0.0304207
654	0.0330134
666	0.0359518
678	0.0319763
690	0.0337048
702	0.0343962
714	0.032322
726	0.0349147
738	0.0328406
750	0.0369888
762	0.0369888
774	0.0350875
786	0.0331862
798	0.0350875
810	0.0338776
822	0.0373345
834	0.0516807
846	0.053582
858	0.0508164
870	0.049088
882	0.0437298
894	0.0470138
906	0.0615328
918	0.0803729
930	0.0824471
942	0.0748419
954	0.0862497
966	0.136202
978	0.182524
990	0.209661
1002	0.182697
1014	0.152622
1026	0.314924
1038	0.511448
1050	0.442138
1062	0.30075
1074	0.257021
1086	0.165067
1098	0.0976574
1110	0.0853854
1122	0.0931635
1134	0.10146
1146	0.0954104
1158	0.0864225
1170	0.0905708
1182	0.100941
1194	0.112522
1206	0.125658
1218	0.14398
1230	0.172845
1242	0.187537
1254	0.155388
1266	0.106473
1278	0.0829656
1290	0.0815828
1302	0.0846941
1314	0.0850397
1326	0.0831384
1338	0.0853854
1350	0.116843
1362	0.224698
1374	0.308701
1386	0.233514
1398	0.185981
1410	0.129461
1422	0.074669
1434	0.0693108
1446	0.08141
1458	0.131189
1470	0.218303
1482	0.229538
1494	0.138622
1506	0.0560018
1518	0.0354332
1530	0.0314578
1542	0.0285194
1554	0.0283466
1566	0.0271367
1578	0.0262724
1590	0.026791
1602	0.0254082
1614	0.0243711
1626	0.0254082
1638	0.0235069
1650	0.0238526
1662	0.0241983
1674	0.0235069
1686	0.0235069
1698	0.0236798
1710	0.0243711
1722	0.0238526
1734	0.0233341
1746	0.0233341
1758	0.0236798
1770	0.0226427
1782	0.0226427
1794	0.0228155
1806	0.0231612
1818	0.0229884
1830	0.0228155
1842	0.0228155
1854	0.0217785
1866	0.0228155
1878	0.0224698
1890	0.0231612
1902	0.0233341
1914	0.0233341
1926	0.0226427
1938	0.0224698
1950	0.022297
1962	0.0226427
1974	0.022297
1986	0.0221242
1998	0.0235069
2010	0.0240255
2022	0.0259268
2034	0.0293837
2046	0.0273095
2058	0.0257539
2070	0.0280009
2082	0.0259268
2094	0.0228155
2106	0.0221242
2118	0.0219513
2130	0.0216056
2142	0.0212599
2154	0.0205686
2166	0.0203957
2178	0.0207414
2190	0.0202229
2202	0.0203957
2214	0.0210871
2226	0.0209142
2238	0.0207414
2250	0.0207414
2262	0.0202229
2274	0.0214328
2286	0.0217785
2298	0.0210871
2310	0.0193586
2322	0.0195315
2334	0.0202229
2346	0.0205686
2358	0.0209142
2370	0.024544
2382	0.0236798
2394	0.0233341
2406	0.0236798
2418	0.0236798
2430	0.0235069
2442	0.0228155
2454	0.0233341
2466	0.0228155
2478	0.0229884
2490	0.0226427
2502	0.0226427
2514	0.0235069
2526	0.0236798
2538	0.0238526
2550	0.024544
2562	0.0248897
2574	0.0248897
2586	0.0262724
2598	0.0264453
2610	0.026791
2622	0.027828
2634	0.0288651
2646	0.0302479
2658	0.0304207
2670	0.0342233
2682	0.0392358
2694	0.039063
2706	0.0394087
2718	0.0437298
2730	0.0492608
2742	0.0499522
2754	0.0515078
2766	0.052372
2778	0.0530634
2790	0.0558289
2802	0.0660268
2814	0.0781259
2826	0.099213
2838	0.133609
2850	0.185463
2862	0.301615
2874	0.499349
2886	0.635205
2898	0.703998
2910	0.767432
2922	0.778148
2934	0.828446
2946	1.07665
2958	1.59087
2970	1.51067
2982	0.648514
2994	0.190994
3006	0.0807186
3018	0.0539276
3030	0.0458039
3042	0.0404457
3054	0.0369888
3066	0.0349147
3078	0.0340505
3090	0.032322
3102	0.0305936
3114	0.030075
3126	0.030075
3138	0.0299022
3150	0.0299022
3162	0.0304207
3174	0.0316306
3186	0.0335319
3198	0.0324949
3210	0.0318035
3222	0.032322
3234	0.0304207
3246	0.0260996
3258	0.0236798
3270	0.0203957
3282	0.0224698
3294	0.0243711
3306	0.0247168
3318	0.0247168
3330	0.0243711
3342	0.0235069
3354	0.0240255
3366	0.0254082
3378	0.0255811
3390	0.0248897
3402	0.022297
3414	0.0224698
3426	0.0221242
3438	0.0231612
3450	0.0247168
3462	0.0257539
3474	0.0238526
3486	0.0238526
3498	0.0229884
3510	0.0228155
3522	0.0236798
3534	0.0228155
3546	0.0216056
3558	0.0209142
3570	0.022297
3582	0.0231612
3594	0.0226427
3606	0.0243711
3618	0.0243711
3630	0.0292108
3642	0.0478781
3654	0.0961018
3666	0.155215
3678	0.124448
3690	0.0530634
3702	0.0321492
3714	0.0247168
3726	0.0273095
3738	0.0247168
3750	0.0252354
3762	0.0229884
3774	0.0236798
3786	0.0236798
3798	0.0247168
3810	0.0281737
3822	0.0295565
3834	0.0269638
3846	0.0295565
3858	0.0276552
3870	0.0309393
3882	0.0288651
3894	0.0273095
3906	0.0283466
3918	0.0255811
3930	0.0271367
3942	0.0273095
3954	0.0238526
3966	0.0191858
