Infrared Spectrum: 4-Pentene-2-ol, 2-methyl
Formula: C 6 H 12 O
CAS: 624-97-5
Origin: Sadtler Research Labs Under US-EPA Contract
1/CM	ABSORBANCE
450	0.0272133
462	0.000618485
474	0.00927727
486	0.00272133
498	0.00210285
510	0.00853509
522	0.0102669
534	0.0111327
546	0.00754552
558	0.00321612
570	0.00185545
582	0.00259764
594	0.000123697
606	0.00383461
618	0.00618485
630	0.00705073
642	0.00333982
654	0.00160806
666	0.00136067
678	0.00222655
690	0.00210285
702	0.00197915
714	0.00371091
726	0.00742182
738	0.00902988
750	0.00729812
762	0.00742182
774	0.00519527
786	0.00507158
798	0.00581376
810	0.0105142
822	0.00940097
834	0.00915358
846	0.0186782
858	0.0316664
870	0.0252342
882	0.0202863
894	0.0186782
906	0.0218944
918	0.0173176
930	0.015091
942	0.0100195
954	0.0100195
966	0.0103905
978	0.0112564
990	0.0173176
1002	0.0305532
1014	0.0222655
1026	0.0217707
1038	0.021647
1050	0.0274607
1062	0.0205337
1074	0.0123697
1086	0.00940097
1098	0.00865879
1110	0.0100195
1122	0.0108853
1134	0.0128645
1146	0.0282029
1158	0.029811
1170	0.0194204
1182	0.0233787
1194	0.0500973
1206	0.0603641
1218	0.0554163
1230	0.0833718
1242	0.0602404
1254	0.0364906
1266	0.0267186
1278	0.0142252
1290	0.0128645
1302	0.0102669
1314	0.012246
1326	0.0153384
1338	0.017565
1350	0.0331508
1362	0.12345
1374	0.177134
1386	0.0899277
1398	0.0919069
1410	0.0356247
1422	0.0272133
1434	0.033893
1446	0.0504684
1458	0.0818874
1470	0.140396
1482	0.16093
1494	0.05554
1506	0.0201626
1518	0.0116275
1530	0.0084114
1542	0.00853509
1554	0.00655594
1566	0.00581376
1578	0.00593746
1590	0.00519527
1602	0.00519527
1614	0.00556637
1626	0.00667964
1638	0.0105142
1650	0.0123697
1662	0.008164
1674	0.00581376
1686	0.00804031
1698	0.00977206
1710	0.0119986
1722	0.0116275
1734	0.00865879
1746	0.00902988
1758	0.00791661
1770	0.00729812
1782	0.00643224
1794	0.0042057
1806	0.00346352
1818	0.00284503
1830	0.00259764
1842	0.00235024
1854	0.00222655
1866	0.00235024
1878	0.00247394
1890	0.00210285
1902	0.00173176
1914	0.00173176
1926	0.00235024
1938	0.00197915
1950	0.00148436
1962	0.00148436
1974	0.00136067
1986	0.00123697
1998	0.00148436
2010	0.00148436
2022	0.00185545
2034	0.00185545
2046	0.00160806
2058	0.00185545
2070	0.00111327
2082	0.00111327
2094	0.00160806
2106	0.00123697
2118	0.00160806
2130	0.00185545
2142	0.00123697
2154	0.00123697
2166	0.00148436
2178	0.00123697
2190	0.000989576
2202	0.000989576
2214	0.00111327
2226	0.00111327
2238	0.00111327
2250	0.00123697
2262	0.000865879
2274	0.00123697
2286	0.00173176
2298	0.00148436
2310	0.000865879
2322	0.000371091
2334	0.000989576
2346	0.00185545
2358	0.000742182
2370	0.00284503
2382	0.00259764
2394	0.00235024
2406	0.00173176
2418	0.00148436
2430	0.00123697
2442	0.000865879
2454	0.000742182
2466	0.00111327
2478	0.00136067
2490	0.00148436
2502	0.00160806
2514	0.00160806
2526	0.00148436
2538	0.00173176
2550	0.00222655
2562	0.00259764
2574	0.00197915
2586	0.00222655
2598	0.00321612
2610	0.00321612
2622	0.0042057
2634	0.00445309
2646	0.00358721
2658	0.00383461
2670	0.00470049
2682	0.00544267
2694	0.00667964
2706	0.00791661
2718	0.0126171
2730	0.0126171
2742	0.0107616
2754	0.0132356
2766	0.0116275
2778	0.0103905
2790	0.0133593
2802	0.0173176
2814	0.024492
2826	0.0324086
2838	0.054303
2850	0.100566
2862	0.156724
2874	0.306769
2886	0.304789
2898	0.30046
2910	0.409066
2922	0.409808
2934	0.3774
2946	0.541669
2958	1.08321
2970	1.03188
2982	0.43529
2994	0.176763
3006	0.0916595
3018	0.0594983
3030	0.0416859
3042	0.0327797
3054	0.0274607
3066	0.0210285
3078	0.0174413
3090	0.0145962
3102	0.0111327
3114	0.00977206
3126	0.00890618
3138	0.00853509
3150	0.00890618
3162	0.00878249
3174	0.00890618
3186	0.00927727
3198	0.00964837
3210	0.00853509
3222	0.00742182
3234	0.00717443
3246	0.00569006
3258	0.00432939
3270	0.0039583
3282	0.00296873
3294	0.00259764
3306	0.00247394
3318	0.00309243
3330	0.00309243
3342	0.00309243
3354	0.00284503
3366	0.00383461
3378	0.004082
3390	0.00309243
3402	0.00210285
3414	0.00197915
3426	0.00160806
3438	0.00210285
3450	0.00160806
3462	0.00173176
3474	0.00148436
3486	0.00185545
3498	0.000618485
3510	0.000371091
3522	0.00148436
3534	0.000618485
3546	0.000494788
3558	0.000494788
3570	0.00235024
3582	0.00222655
3594	0.00197915
3606	0.000865879
3618	0.00123697
3630	0.00160806
3642	0.00148436
3654	0.00296873
3666	0.00123697
3678	0.00247394
3690	0.000123697
3702	0.000865879
3714	0.00111327
3726	0.00123697
3738	0.00185545
3750	0.00160806
3762	0.000247394
3774	0.000742182
3786	0.000247394
3798	0.00210285
3810	0.00148436
3822	0.000865879
3834	0.000989576
3846	0.000494788
3858	0.000989576
3870	0.00136067
3882	0.00148436
3894	0.00284503
3906	0.00272133
3918	0.00160806
3930	0.00185545
3942	0.00197915
3954	0.000742182
3966	0.00185545
