Infrared Spectrum: Benzene, 1-iodo-4-methyl-
Formula: C 7 H 7 I
CAS: 624-31-7
Origin: Sadtler Research Labs Under US-EPA Contract
1/CM	ABSORBANCE
450	0.10814
462	0.134828
474	0.166058
486	0.0841085
498	0.0358804
510	0.0042082
522	0.00797342
534	0.0387043
546	0.0170543
558	0.02835
570	0.0537099
582	0.0756368
594	0.0361019
606	0.0327796
618	0.0209856
630	0.014175
642	0.0208749
654	0.0284053
666	0.0212625
678	0.0246401
690	0.0239756
702	0.0218715
714	0.024917
726	0.0167774
738	0.0365449
750	0.0391473
762	0.0375415
774	0.13206
786	0.350443
798	0.481229
810	0.257752
822	0.0802879
834	0.0292359
846	0.0280731
858	0.0276855
870	0.0274086
882	0.0166113
894	0.0293466
906	0.0336656
918	0.0211517
930	0.0259136
942	0.036268
954	0.033278
966	0.0316722
978	0.0260244
990	0.0355482
1002	0.302935
1014	0.511407
1026	0.0511074
1038	0.0469546
1050	0.0734219
1062	0.203655
1074	0.075969
1086	0.0441861
1098	0.0537652
1110	0.060742
1122	0.0478959
1134	0.0369878
1146	0.0276855
1158	0.0331119
1170	0.0311739
1182	0.0483389
1194	0.0571982
1206	0.107088
1218	0.0786822
1230	0.0661683
1242	0.0291805
1254	0.0326689
1266	0.0319491
1278	0.0301772
1290	0.0322259
1302	0.0365449
1314	0.0429679
1326	0.0333333
1338	0.0321152
1350	0.0348837
1362	0.0310078
1374	0.0422481
1386	0.0678295
1398	0.07835
1410	0.0811739
1422	0.0537099
1434	0.0503876
1446	0.0485604
1458	0.0517165
1470	0.155426
1482	0.460576
1494	0.435216
1506	0.0734219
1518	0.0330011
1530	0.0322813
1542	0.0169435
1554	0.0264673
1566	0.0293466
1578	0.0296789
1590	0.0414729
1602	0.0385936
1614	0.0406423
1626	0.0353821
1638	0.0233666
1650	0.0140089
1662	0.0137874
1674	0.0110188
1686	0.00448505
1698	0.0059247
1710	0.01268
1722	0.0194906
1734	0.00996678
1746	0.01268
1758	0.0115172
1770	0.0184385
1782	0.0257475
1794	0.00487265
1806	0.00675526
1818	0.00542636
1830	0.00387597
1842	0.00869325
1854	0.0105759
1866	0.0152824
1878	0.0263012
1890	0.0309524
1902	0.0232558
1914	0.0111296
1926	0.006866
1938	0.0076412
1950	0.00869325
1962	0.0093577
1974	0.00769657
1986	0.00719823
1998	0.00719823
2010	0.00537099
2022	0.00658915
2034	0.00498339
2046	0.00503876
2058	0.00564784
2070	0.00581395
2082	0.00559247
2094	0.00498339
2106	0.00470654
2118	0.00603544
2130	0.0055371
2142	0.00526025
2154	0.00614618
2166	0.0076412
2178	0.00575858
2190	0.00669989
2202	0.00598007
2214	0.00559247
2226	0.00393134
2238	0.0051495
2250	0.00620155
2262	0.00476191
2274	0.00791805
2286	0.0102436
2298	0.0140642
2310	0.0188261
2322	0.0168882
2334	0.0153378
2346	0.0194352
2358	0.0254153
2370	0.0222038
2382	0.0144518
2394	0.00775194
2406	0.00808417
2418	0.00941307
2430	0.00653378
2442	0.00797342
2454	0.00736434
2466	0.00697675
2478	0.00841639
2490	0.00902547
2502	0.00753046
2514	0.00841639
2526	0.00847176
2538	0.0104651
2550	0.010299
2562	0.00963455
2574	0.0118494
2586	0.0145626
2598	0.0143965
2610	0.0100222
2622	0.00880399
2634	0.0097453
2646	0.00952381
2658	0.0107973
2670	0.00913621
2682	0.0097453
2694	0.0114618
2706	0.00913621
2718	0.0116279
2730	0.0121816
2742	0.0181063
2754	0.0187154
2766	0.0141196
2778	0.0133444
2790	0.0140642
2802	0.0146733
2814	0.0183832
2826	0.0208749
2838	0.0253599
2850	0.0312846
2862	0.0559247
2874	0.098062
2886	0.107973
2898	0.093577
2910	0.0835548
2922	0.115892
2934	0.224862
2946	0.168549
2958	0.0857143
2970	0.0723145
2982	0.0700997
2994	0.0812846
3006	0.0939646
3018	0.127686
3030	0.205316
3042	0.145127
3054	0.131728
3066	0.113289
3078	0.0978406
3090	0.0928018
3102	0.051938
3114	0.0241418
3126	0.0174972
3138	0.0162791
3150	0.0143411
3162	0.0132337
3174	0.0160576
3186	0.0128461
3198	0.0143965
3210	0.0152824
3222	0.0127353
3234	0.013289
3246	0.010742
3258	0.0149502
3270	0.0121262
3282	0.0130676
3294	0.01268
3306	0.0134552
3318	0.0157254
3330	0.0155593
3342	0.0115172
3354	0.0117387
3366	0.0143965
3378	0.0097453
3390	0.0115725
3402	0.0113511
3414	0.00880399
3426	0.0125692
3438	0.01268
3450	0.0123477
3462	0.0108527
3474	0.0121262
3486	0.0116279
3498	0.00946844
3510	0.0137874
3522	0.0112957
3534	0.0108527
3546	0.00808417
3558	0.0110188
3570	0.00631229
3582	0.0113511
3594	0.0103544
3606	0.0097453
3618	0.00919159
3630	0.00681063
3642	0.0126246
3654	0.00996678
3666	0.0155039
3678	0.00841639
3690	0.0115172
3702	0.0102436
3714	0.00991141
3726	0.0116279
3738	0.00869325
3750	0.00880399
3762	0.0127907
3774	0.0151163
3786	0.0163898
3798	0.0183278
3810	0.0159468
3822	0.0138428
3834	0.0151163
3846	0.016722
3858	0.0157254
3870	0.0166113
3882	0.0187154
3894	0.0199889
3906	0.0173311
3918	0.016113
3930	0.0155039
3942	0.0158361
3954	0.00492802
3966	0.00609081
