Infrared Spectrum: 2-Butenedioic acid (Z)-, dimethyl ester
Formula: C 6 H 8 O 4
CAS: 624-48-6
Origin: Sadtler Research Labs Under US-EPA Contract
1/CM	ABSORBANCE
450	0.00868292
462	0.00177461
474	0.00557735
486	0.00367598
498	0.00380274
510	0.0063379
522	0.00570411
534	0.00703507
546	0.00443653
558	0.00424639
570	0.00893644
582	0.00836603
594	0.0128659
606	0.0136899
618	0.0126124
630	0.0090632
642	0.0102674
654	0.00792238
666	0.0112181
678	0.00798575
690	0.010204
702	0.0103942
714	0.0123589
726	0.015211
738	0.013373
750	0.0123589
762	0.0132462
774	0.0148307
786	0.0167321
798	0.0271262
810	0.0382809
822	0.0489286
834	0.0550764
846	0.0553299
858	0.0503229
870	0.0349218
882	0.0242742
894	0.0190137
906	0.0141969
918	0.0149574
930	0.0184433
942	0.0214855
954	0.0163518
966	0.0168588
978	0.0209151
990	0.0407527
1002	0.0789069
1014	0.104765
1026	0.0853715
1038	0.0587523
1050	0.0322599
1062	0.018063
1074	0.0155912
1086	0.0152743
1098	0.0169856
1110	0.0216756
1122	0.0320064
1134	0.056851
1146	0.139941
1158	0.356
1170	0.3939
1182	0.271452
1194	0.259727
1206	0.357077
1218	0.393077
1230	0.294015
1242	0.244706
1254	0.224869
1266	0.196919
1278	0.174039
1290	0.181074
1302	0.156673
1314	0.0801744
1326	0.0359359
1338	0.027253
1350	0.0242108
1362	0.0252882
1374	0.0392316
1386	0.12549
1398	0.113892
1410	0.0400555
1422	0.0323867
1434	0.092977
1446	0.140828
1458	0.0446822
1470	0.0342247
1482	0.0239573
1494	0.0159715
1506	0.0127392
1518	0.012549
1530	0.0114716
1542	0.0100139
1554	0.0112815
1566	0.0116617
1578	0.0111547
1590	0.0122955
1602	0.0141335
1614	0.0195207
1626	0.0299149
1638	0.0437315
1650	0.0503229
1662	0.0376471
1674	0.0247812
1686	0.0200911
1698	0.0231967
1710	0.0354289
1722	0.0589425
1734	0.151729
1746	0.450371
1758	0.63379
1770	0.377168
1782	0.122385
1794	0.0413231
1806	0.0247812
1818	0.018063
1830	0.0126758
1842	0.00957023
1854	0.00779562
1866	0.00773224
1878	0.00728859
1890	0.00621114
1902	0.00570411
1914	0.00519708
1926	0.00608438
1938	0.00589425
1950	0.00551397
1962	0.00551397
1974	0.00595763
1986	0.00728859
1998	0.00849279
2010	0.00918996
2022	0.00817589
2034	0.00766886
2046	0.00678155
2058	0.00627452
2070	0.00602101
2082	0.00602101
2094	0.00545059
2106	0.00532384
2118	0.00538722
2130	0.00488018
2142	0.00386612
2154	0.00342247
2166	0.00329571
2178	0.0027253
2190	0.00316895
2202	0.00266192
2214	0.00253516
2226	0.00202813
2238	0.00196475
2250	0.00196475
2262	0.00183799
2274	0.00177461
2286	0.00133096
2298	0.00133096
2310	0.00133096
2322	0.000190137
2334	0.000253516
2346	0.000253516
2358	0.000253516
2370	0.00126758
2382	0.00228164
2394	0.00266192
2406	0.0027253
2418	0.00234502
2430	0.00266192
2442	0.0027253
2454	0.00228164
2466	0.00171123
2478	0.00190137
2490	0.00145772
2502	0.00177461
2514	0.00177461
2526	0.00177461
2538	0.00171123
2550	0.00158448
2562	0.00177461
2574	0.00234502
2586	0.00247178
2598	0.0027253
2610	0.00278868
2622	0.00234502
2634	0.00228164
2646	0.0024084
2658	0.00234502
2670	0.00228164
2682	0.00228164
2694	0.00177461
2706	0.0015211
2718	0.00139434
2730	0.00139434
2742	0.00183799
2754	0.00158448
2766	0.00234502
2778	0.00139434
2790	0.00183799
2802	0.0024084
2814	0.00285206
2826	0.0048168
2838	0.00773224
2850	0.0171757
2862	0.017556
2874	0.00811251
2886	0.0087463
2898	0.0138166
2910	0.0178095
2922	0.0188236
2934	0.0181264
2946	0.0318163
2958	0.10147
2970	0.0950685
2982	0.0283304
2994	0.02776
3006	0.0363795
3018	0.0321965
3030	0.0295346
3042	0.023577
3054	0.0152743
3066	0.0121688
3078	0.0111547
3090	0.0090632
3102	0.00792238
3114	0.00589425
3126	0.0048168
3138	0.00342247
3150	0.00297881
3162	0.00247178
3174	0.00196475
3186	0.00171123
3198	0.00202813
3210	0.0015211
3222	0.00101406
3234	0.00139434
3246	0.00158448
3258	0.0015211
3270	0.000570411
3282	0.00114082
3294	0.0012042
3306	0.00101406
3318	0.00101406
3330	0.0015211
3342	0.0012042
3354	0.000887306
3366	0.00158448
3378	0.0015211
3390	0.0015211
3402	0.00158448
3414	0.00164785
3426	0.00158448
3438	0.00158448
3450	0.00164785
3462	0.00145772
3474	0.00291543
3486	0.00602101
3498	0.00697169
3510	0.00443653
3522	0.00291543
3534	0.00158448
3546	0.00164785
3558	0.00114082
3570	0.000950685
3582	0.00101406
3594	0.0012042
3606	0.00114082
3618	0.000697169
3630	0.000380274
3642	0.0012042
3654	0.0012042
3666	0.00101406
3678	0.000697169
3690	0.000570411
3702	0.000760548
3714	0.000316895
3726	0.00126758
3738	0.00107744
3750	0.00133096
3762	0.00177461
3774	0.00177461
3786	0.00171123
3798	0.00177461
3810	0.00177461
3822	0.00171123
3834	0.00171123
3846	0.00171123
3858	0.00171123
3870	0.00171123
3882	0.00285206
3894	0.00278868
3906	0.00310557
3918	0.00228164
3930	0.00329571
3942	0.00329571
3954	0
3966	0.000253516
