Infrared Spectrum: Pentanoic acid, 4-oxo-, methyl ester
Formula: C 6 H 10 O 3
CAS: 624-45-3
Origin: Sadtler Research Labs Under US-EPA Contract
1/CM	ABSORBANCE
450	0.185337
462	0.0177658
474	0.040804
486	0.021892
498	0.0286545
510	0.0121495
522	0.0221213
534	0.0166196
546	0.0195997
558	0.0441279
570	0.0566213
582	0.051922
594	0.0270498
606	0.0192558
618	0.0115764
630	0.0226944
642	0.011691
654	0.012608
666	0.0214336
678	0.00767941
690	0.00802326
702	0.0100864
714	0.0069917
726	0.0106595
738	0.0151296
750	0.0302592
762	0.03301
774	0.0187974
786	0.0145565
798	0.0217774
810	0.0359901
822	0.0476811
834	0.039314
846	0.0279668
858	0.0184535
870	0.0186827
882	0.0276229
894	0.0322077
906	0.032093
918	0.032093
930	0.0375947
942	0.0427525
954	0.0479103
966	0.0725532
978	0.0793157
990	0.0720947
1002	0.101437
1014	0.117025
1026	0.114733
1038	0.136052
1050	0.117713
1062	0.122412
1074	0.11095
1086	0.0707193
1098	0.0569651
1110	0.0680831
1122	0.108658
1134	0.189464
1146	0.440592
1158	0.933678
1170	0.749602
1182	0.558419
1194	0.521512
1206	0.643695
1218	0.634067
1230	0.514291
1242	0.448844
1254	0.356462
1266	0.303394
1278	0.282992
1290	0.26259
1302	0.231185
1314	0.255598
1326	0.233133
1338	0.222474
1350	0.33904
1362	0.519678
1374	0.354284
1386	0.168259
1398	0.122297
1410	0.150952
1422	0.200238
1434	0.274166
1446	0.302362
1458	0.133301
1470	0.0826396
1482	0.0538705
1494	0.0416063
1506	0.0395432
1518	0.0373655
1530	0.0317492
1542	0.0335831
1554	0.0292276
1566	0.0251013
1578	0.022809
1590	0.0187974
1602	0.0186827
1614	0.0166196
1626	0.0181096
1638	0.0238405
1650	0.0265914
1662	0.0233821
1674	0.039314
1686	0.0665931
1698	0.111065
1710	0.204708
1722	0.465578
1734	0.85654
1746	1.06457
1758	1.13013
1770	0.845881
1782	0.339384
1794	0.137427
1806	0.0669369
1818	0.0436695
1830	0.0312907
1842	0.0159319
1854	0.00985715
1866	0.0104302
1878	0.00722093
1890	0.00836711
1902	0.00687708
1914	0.00538705
1926	0.00550166
1938	0.00527243
1950	0.00527243
1962	0.0069917
1974	0.00905482
1986	0.00916944
1998	0.00951329
2010	0.010201
2022	0.0112326
2034	0.0100864
2046	0.00882559
2058	0.0082525
2070	0.00928406
2082	0.00962791
2094	0.00790864
2106	0.00722093
2118	0.00641861
2130	0.00504319
2142	0.00366778
2154	0.0025216
2166	0.00217774
2178	0.00275083
2190	0.0025216
2202	0.00171927
2214	0.00057309
2226	0.000343854
2238	0.000802326
2250	0.000802326
2262	0.00137542
2274	0.000916944
2286	0.00103156
2298	0.00149003
2310	0.00217774
2322	0.00263621
2334	0.00217774
2346	0.00171927
2358	0.00263621
2370	0.00194851
2382	0.0032093
2394	0.00240698
2406	0.0025216
2418	0.00217774
2430	0.00194851
2442	0.00217774
2454	0.00183389
2466	0.00149003
2478	0.00206312
2490	0.00229236
2502	0.00229236
2514	0.00298007
2526	0.00217774
2538	0.00137542
2550	0.00160465
2562	0.00183389
2574	0.00217774
2586	0.00263621
2598	0.0032093
2610	0.00263621
2622	0.00263621
2634	0.00275083
2646	0.00275083
2658	0.00355316
2670	0.00263621
2682	0.00378239
2694	0.00263621
2706	0.00366778
2718	0.00343854
2730	0.00343854
2742	0.00435548
2754	0.00492857
2766	0.00561628
2778	0.00722093
2790	0.00928406
2802	0.0121495
2814	0.017995
2826	0.0238405
2838	0.0322077
2850	0.0560482
2862	0.0576529
2874	0.0419502
2886	0.0445864
2898	0.0639568
2910	0.115535
2922	0.174563
2934	0.168832
2946	0.174563
2958	0.278522
2970	0.255827
2982	0.126424
2994	0.116108
3006	0.124017
3018	0.111523
3030	0.0883705
3042	0.0616645
3054	0.0410332
3066	0.0327807
3078	0.0279668
3090	0.0236113
3102	0.0187974
3114	0.0154734
3126	0.0120349
3138	0.0089402
3150	0.00687708
3162	0.00596014
3174	0.00527243
3186	0.00458472
3198	0.00424087
3210	0.00389701
3222	0.00309469
3234	0.00286545
3246	0.00229236
3258	0.00217774
3270	0.00149003
3282	0.00171927
3294	0.00137542
3306	0.00103156
3318	0.000802326
3330	0.00137542
3342	0.00183389
3354	0.00137542
3366	0.00217774
3378	0.00194851
3390	0.00229236
3402	0.00366778
3414	0.00412625
3426	0.00664784
3438	0.0124934
3450	0.0229236
3462	0.0256744
3474	0.0187974
3486	0.0105449
3498	0.0110033
3510	0.00848173
3522	0.00664784
3534	0.00275083
3546	0.00561628
3558	0.000114618
3570	0.00985715
3582	0.00596014
3594	0.00401163
3606	0.00206312
3618	0.00389701
3630	0.00641861
3642	0.00263621
3654	0.00722093
3666	0.00412625
3678	0.00424087
3690	0.00332392
3702	0.00630399
3714	0.00676246
3726	0.00515781
3738	0.00630399
3750	0.00481396
3762	0.000114618
3774	0.000802326
3786	0.000114618
3798	0.00217774
3810	0.000114618
3822	0.00309469
3834	0.000916944
3846	0.00057309
3858	0.000916944
3870	0.00229236
3882	0.00194851
3894	0.000114618
3906	0.00298007
3918	0.00458472
3930	0.000114618
3942	0.000114618
3954	0.000343854
3966	0.000114618
