Infrared Spectrum: 5-Methyl-2-hexanone oxime
Formula: C 7 H 15 N O
CAS: 624-44-2
Origin: Sadtler Research Labs Under US-EPA Contract
1/CM	ABSORBANCE
450	0.0176666
462	0.00824442
474	0.0089692
486	0.0118683
498	0.00335213
510	0.000543588
522	0.0046205
534	0.0144957
546	0.0117777
558	0.00742904
570	0.0125025
582	0.0196598
594	0.0251862
606	0.0336119
618	0.0394101
630	0.0753775
642	0.0424905
654	0.0192068
666	0.017123
678	0.0186632
690	0.0229213
702	0.0261828
714	0.0267264
726	0.0232837
738	0.0146769
750	0.0148581
762	0.0167606
774	0.0112342
786	0.00770083
798	0.00416751
810	0.00552648
822	0.00724784
834	0.0149487
846	0.0167606
858	0.0236461
870	0.0481981
882	0.0616972
894	0.0880613
906	0.20448
918	0.356231
930	0.282303
942	0.162986
954	0.0830784
966	0.0512785
978	0.0520033
990	0.0674049
1002	0.0857057
1014	0.099839
1026	0.0744716
1038	0.0314375
1050	0.0134085
1062	0.00770083
1074	0.0046205
1086	0.00652306
1098	0.0244615
1110	0.064234
1122	0.0506443
1134	0.0183914
1146	0.0109624
1158	0.0217435
1170	0.0385042
1182	0.0319811
1194	0.0761929
1206	0.101651
1218	0.0468392
1230	0.0552648
1242	0.111164
1254	0.112613
1266	0.0849809
1278	0.0584357
1290	0.0371452
1302	0.0411315
1314	0.0968493
1326	0.134538
1338	0.148581
1350	0.158003
1362	0.155738
1374	0.176938
1386	0.145863
1398	0.0806322
1410	0.0329777
1422	0.0340648
1434	0.0564426
1446	0.090145
1458	0.114606
1470	0.11968
1482	0.0735656
1494	0.0283572
1506	0.0153111
1518	0.0106906
1530	0.00706664
1542	0.00697605
1554	0.00561708
1566	0.00416751
1578	0.00326153
1590	0.00172136
1602	0.00135897
1614	0.00190256
1626	0.00289914
1638	0.00824442
1650	0.0183914
1662	0.0221965
1674	0.00815382
1686	0.00117777
1698	0.00117777
1710	0.00226495
1722	0.00407691
1734	0.00516409
1746	0.00271794
1758	0.00126837
1770	0.00135897
1782	0.00117777
1794	0.00199316
1806	0.00172136
1818	0.00217435
1830	0.00217435
1842	0.00172136
1854	0.00117777
1866	0.000362392
1878	0.000724784
1890	0.00045299
1902	0.000271794
1914	0.000181196
1926	0.000634186
1938	0.000724784
1950	0.000724784
1962	0.000724784
1974	0.000724784
1986	0.00090598
1998	0.000996578
2010	0.00090598
2022	0.000634186
2034	0.000815382
2046	0.00090598
2058	0.000815382
2070	0.00045299
2082	0.000362392
2094	0.00045299
2106	0.00045299
2118	0.000634186
2130	0.00090598
2142	0.00090598
2154	0.000815382
2166	0.000996578
2178	0.000996578
2190	0.00090598
2202	0.000362392
2214	0.000362392
2226	0.000181196
2238	0.00045299
2250	0.000271794
2262	0.00045299
2274	0.000543588
2286	0.00108718
2298	0.00190256
2310	0.00181196
2322	0.00298973
2334	0.00289914
2346	0.00154017
2358	0.00244615
2370	0.000634186
2382	0.00181196
2394	0.00154017
2406	0.00117777
2418	0.00181196
2430	0.00144957
2442	0.00108718
2454	0.00108718
2466	0.00126837
2478	0.00144957
2490	0.00172136
2502	0.00163076
2514	0.00190256
2526	0.00226495
2538	0.00289914
2550	0.00380512
2562	0.00498289
2574	0.00588887
2586	0.00688545
2598	0.00751963
2610	0.00751963
2622	0.00815382
2634	0.00878801
2646	0.0091504
2658	0.00960339
2670	0.00942219
2682	0.00942219
2694	0.00969399
2706	0.00969399
2718	0.0111436
2730	0.0137709
2742	0.0137709
2754	0.0123213
2766	0.0123213
2778	0.0131367
2790	0.0143145
2802	0.0188444
2814	0.0244615
2826	0.0324341
2838	0.0487417
2850	0.091504
2862	0.163892
2874	0.265452
2886	0.30305
2898	0.268985
2910	0.348259
2922	0.468754
2934	0.514778
2946	0.516318
2958	0.703765
2970	0.853252
2982	0.324522
2994	0.123213
3006	0.0761023
3018	0.0452084
3030	0.0340648
3042	0.0289008
3054	0.0266358
3066	0.0238273
3078	0.0207469
3090	0.0170324
3102	0.0135897
3114	0.0114153
3126	0.0106
3138	0.0103282
3150	0.00987518
3162	0.0102376
3174	0.0109624
3186	0.0105094
3198	0.00869741
3210	0.00715724
3222	0.00489229
3234	0.00416751
3246	0.00380512
3258	0.0044393
3270	0.00588887
3282	0.00815382
3294	0.00842561
3306	0.00634186
3318	0.00507349
3330	0.00507349
3342	0.0047111
3354	0.0047111
3366	0.00480169
3378	0.0047111
3390	0.0044393
3402	0.00362392
3414	0.00344272
3426	0.00317093
3438	0.00308033
3450	0.00280854
3462	0.00289914
3474	0.00280854
3486	0.00181196
3498	0.00262734
3510	0.00235555
3522	0.00226495
3534	0.00172136
3546	0.00135897
3558	0.00126837
3570	0.000996578
3582	0.0044393
3594	0.00679485
3606	0.0114153
3618	0.0248239
3630	0.0863399
3642	0.338021
3654	0.45
3666	0.119861
3678	0.0209281
3690	0.00951279
3702	0.00770083
3714	0.00262734
3726	0.00135897
3738	0.00045299
3750	0
3762	0.00208375
3774	0.00371452
3786	0.00298973
3798	0.00253674
3810	0.00280854
3822	0.00253674
3834	0.00298973
3846	0.00344272
3858	0.00163076
3870	0.00135897
3882	9.0598e-05
3894	0.00380512
3906	0.00172136
3918	0.00280854
3930	0.00271794
3942	0.00308033
3954	0.00335213
3966	0.00362392
