Infrared Spectrum: 1-Adamantaneethanol
Formula: C 12 H 20 O
CAS: 6240-11-5
Origin: Sadtler Research Labs Under US-EPA Contract
1/CM	ABSORBANCE
450	0.0330215
462	0.0224546
474	0.0110952
486	0.010699
498	0.0112273
510	0.00383049
522	0.0179637
534	0.0120198
546	0.00911393
558	0.00871768
570	0.0162466
582	0.00884976
594	0.00884976
606	0.00290589
618	0.0116236
630	0.00832142
642	0.00805725
654	0.0047551
666	0.00330215
678	0.00964228
690	0.00739682
702	0.00871768
714	0.00673639
726	0.0108311
738	0.010699
750	0.0141332
762	0.0124161
774	0.00449092
786	0.0116236
798	0.0174354
810	0.0202092
822	0.0202092
834	0.0118877
846	0.0120198
858	0.012284
870	0.0105669
882	0.0191525
894	0.0116236
906	0.0117557
918	0.0120198
930	0.02153
942	0.0187562
954	0.0332857
966	0.0390975
978	0.0443809
990	0.0451734
1002	0.0455697
1014	0.0892901
1026	0.0891581
1038	0.101046
1050	0.103688
1062	0.075289
1074	0.0495322
1086	0.0330215
1098	0.0556082
1110	0.0450413
1122	0.0249643
1134	0.0253605
1146	0.0220584
1158	0.00858559
1170	0.0141332
1182	0.0219263
1194	0.0210017
1206	0.0157182
1218	0.0142653
1230	0.0129444
1242	0.0180958
1254	0.0196808
1266	0.0249643
1278	0.0221904
1290	0.0176995
1302	0.022983
1314	0.036852
1326	0.0241717
1338	0.0310402
1350	0.0359274
1362	0.0344744
1374	0.0273418
1386	0.0297194
1398	0.0311723
1410	0.0253605
1422	0.0212658
1434	0.0299835
1446	0.0657788
1458	0.0857238
1470	0.0408146
1482	0.0228509
1494	0.0132086
1506	0.00726473
1518	0.0117557
1530	0.0182279
1542	0.00449092
1554	0.00356632
1566	0.00554761
1578	0.00383049
1590	0.00422675
1602	0.000528344
1614	0.0047551
1626	0.00964228
1638	0.00264172
1650	0.00303798
1662	0.00739682
1674	0.00449092
1686	0.00343424
1698	0.00343424
1710	0.00700056
1722	0.00554761
1734	0.00488718
1746	0.00501927
1758	0.00303798
1770	0.00250963
1782	0.00435884
1794	0.00581178
1806	0.00501927
1818	0.0066043
1830	0.00686847
1842	0.00620804
1854	0.00686847
1866	0.00700056
1878	0.00581178
1890	0.00607596
1902	0.00647221
1914	0.00700056
1926	0.00739682
1938	0.00634013
1950	0.00620804
1962	0.00594387
1974	0.00581178
1986	0.00581178
1998	0.00647221
2010	0.00607596
2022	0.00686847
2034	0.00607596
2046	0.00739682
2058	0.00673639
2070	0.00713264
2082	0.00673639
2094	0.00647221
2106	0.00686847
2118	0.00634013
2130	0.00634013
2142	0.00620804
2154	0.00541553
2166	0.00607596
2178	0.00554761
2190	0.00528344
2202	0.0056797
2214	0.00501927
2226	0.00488718
2238	0.00383049
2250	0.00449092
2262	0.00488718
2274	0.00435884
2286	0.00277381
2298	0.0018492
2310	0.00105669
2322	0.00198129
2334	0.00462301
2346	0.00224546
2358	0.00700056
2370	0.00449092
2382	0.00224546
2394	0.00435884
2406	0.00462301
2418	0.00449092
2430	0.00462301
2442	0.00409467
2454	0.00330215
2466	0.00317006
2478	0.00317006
2490	0.00277381
2502	0.00290589
2514	0.00290589
2526	0.00330215
2538	0.00356632
2550	0.00449092
2562	0.00449092
2574	0.00501927
2586	0.00528344
2598	0.00528344
2610	0.00541553
2622	0.00581178
2634	0.00884976
2646	0.0117557
2658	0.0159824
2670	0.0186241
2682	0.0163787
2694	0.0105669
2706	0.00792516
2718	0.00818933
2730	0.00832142
2742	0.00911393
2754	0.0103027
2766	0.0101706
2778	0.0112273
2790	0.0142653
2802	0.0187562
2814	0.0253605
2826	0.0379087
2838	0.0792516
2850	0.247925
2862	0.302873
2874	0.1412
2886	0.157447
2898	0.447772
2910	1.15509
2922	1.0909
2934	0.428619
2946	0.206847
2958	0.0801762
2970	0.049136
2982	0.0270776
2994	0.0137369
3006	0.00977436
3018	0.00924602
3030	0.0075289
3042	0.00686847
3054	0.00779307
3066	0.00832142
3078	0.00501927
3090	0.00383049
3102	0.00224546
3114	0.00158503
3126	0.0018492
3138	0.0018492
3150	0.00264172
3162	0.00264172
3174	0.00250963
3186	0.00290589
3198	0.00277381
3210	0.00330215
3222	0.00449092
3234	0.00211338
3246	0.00224546
3258	0.00356632
3270	0.00330215
3282	0.00264172
3294	0.00303798
3306	0.00224546
3318	0.00356632
3330	0.00303798
3342	0.00224546
3354	0.00409467
3366	0.00501927
3378	0.00317006
3390	0.00237755
3402	0.00303798
3414	0.00158503
3426	0.00250963
3438	0.00277381
3450	0.00290589
3462	0.00449092
3474	0.00369841
3486	0.00198129
3498	0.00290589
3510	0.00356632
3522	0.00356632
3534	0.00501927
3546	0.00369841
3558	0.00409467
3570	0.00541553
3582	0.00409467
3594	0.00237755
3606	0.00647221
3618	0.00541553
3630	0.00515135
3642	0.0104348
3654	0.0180958
3666	0.0357953
3678	0.0173033
3690	0.00303798
3702	0.00369841
3714	0.00145295
3726	0.00528344
3738	0.00198129
3750	0.00066043
3762	0.00264172
3774	0.00198129
3786	0.00435884
3798	0.00317006
3810	0.00449092
3822	0.000132086
3834	0.00409467
3846	0.00501927
3858	0
3870	0.00462301
3882	0.00515135
3894	0.00462301
3906	0.00264172
3918	0.00515135
3930	0.00871768
3942	0.00607596
3954	0.00224546
3966	0.00330215
