Infrared Spectrum: Hexanoic acid, cyclohexyl ester
Formula: C 12 H 22 O 2
CAS: 6243-10-3
Origin: Sadtler Research Labs Under US-EPA Contract
1/CM	ABSORBANCE
450	0
462	0.06601
474	0.0919795
486	0.0856682
498	0.0732525
510	0.0548359
522	0.0486281
534	0.0543186
546	0.0451103
558	0.043248
570	0.0635269
582	0.0545255
594	0.051732
606	0.0528701
618	0.0531805
630	0.0562844
642	0.0518355
654	0.0519389
666	0.0508008
678	0.0493523
690	0.0484212
702	0.0535944
714	0.0510078
726	0.0584572
738	0.0612507
750	0.0551463
762	0.0526632
774	0.0548359
786	0.0523528
798	0.053077
810	0.0576294
822	0.055974
834	0.0549394
846	0.0590779
858	0.058871
870	0.0607334
882	0.0594918
894	0.0732525
906	0.0885652
918	0.0877375
930	0.0822539
942	0.0744941
954	0.0855647
966	0.119191
978	0.110086
990	0.0832885
1002	0.0832885
1014	0.132434
1026	0.164301
1038	0.181683
1050	0.185821
1062	0.101498
1074	0.10305
1086	0.13171
1098	0.194823
1110	0.190995
1122	0.186339
1134	0.156127
1146	0.149609
1158	0.275007
1170	0.521872
1182	0.47252
1194	0.27149
1206	0.236726
1218	0.274076
1230	0.326015
1242	0.354675
1254	0.29001
1266	0.20579
1278	0.161197
1290	0.147747
1302	0.138228
1314	0.131192
1326	0.127985
1338	0.137607
1350	0.150126
1362	0.152609
1374	0.109361
1386	0.105533
1398	0.0681828
1410	0.0600091
1422	0.069114
1434	0.0877375
1446	0.115155
1458	0.160473
1470	0.114949
1482	0.06601
1494	0.0494558
1506	0.0434549
1518	0.0408683
1530	0.0398336
1542	0.0371436
1554	0.0389025
1566	0.0397302
1578	0.0399371
1590	0.0396267
1602	0.0397302
1614	0.0396267
1626	0.0379713
1638	0.0394198
1650	0.0384886
1662	0.0408683
1674	0.0407648
1686	0.0440757
1698	0.0534909
1710	0.0701486
1722	0.0879444
1734	0.201858
1746	0.645098
1758	0.438274
1770	0.119501
1782	0.0707694
1794	0.0550428
1806	0.047283
1818	0.0425237
1830	0.0390059
1842	0.0376609
1854	0.0377644
1866	0.0354882
1878	0.0347639
1890	0.03435
1902	0.0337293
1914	0.0331085
1926	0.0340397
1938	0.0332119
1950	0.0329016
1962	0.0327981
1974	0.0325912
1986	0.0324877
1998	0.0331085
2010	0.0334189
2022	0.0333154
2034	0.033005
2046	0.0335223
2058	0.0329016
2070	0.03166
2082	0.0315565
2094	0.0310392
2106	0.0309357
2118	0.0310392
2130	0.0304184
2142	0.0300046
2154	0.030108
2166	0.0297976
2178	0.0297976
2190	0.0296942
2202	0.0294872
2214	0.0291768
2226	0.0284526
2238	0.0289699
2250	0.0289699
2262	0.028763
2274	0.0284526
2286	0.0285561
2298	0.0291768
2310	0.0302115
2322	0.0317634
2334	0.0312461
2346	0.027211
2358	0.0300046
2370	0.0224517
2382	0.0224517
2394	0.0256591
2406	0.025866
2418	0.0256591
2430	0.0253487
2442	0.0244175
2454	0.0233829
2466	0.0236933
2478	0.0237967
2490	0.0233829
2502	0.022969
2514	0.0225552
2526	0.0232794
2538	0.0233829
2550	0.0236933
2562	0.024314
2574	0.0241071
2586	0.0236933
2598	0.0250383
2610	0.0254521
2622	0.0253487
2634	0.0253487
2646	0.0255556
2658	0.0277284
2670	0.0305219
2682	0.0291768
2694	0.0295907
2706	0.0297976
2718	0.0286595
2730	0.0278318
2742	0.0282457
2754	0.0279353
2766	0.0295907
2778	0.030108
2790	0.033005
2802	0.0356951
2814	0.0385921
2826	0.0428341
2838	0.0531805
2850	0.0865994
2862	0.259798
2874	0.336258
2886	0.205169
2898	0.147126
2910	0.195857
2922	0.338638
2934	0.629372
2946	1.03464
2958	0.558188
2970	0.392129
2982	0.181269
2994	0.0799777
3006	0.0522493
3018	0.0423168
3030	0.0364193
3042	0.0323842
3054	0.030108
3066	0.0296942
3078	0.028763
3090	0.027418
3102	0.0269006
3114	0.0262799
3126	0.0255556
3138	0.0256591
3150	0.0270041
3162	0.0265902
3174	0.0254521
3186	0.0242106
3198	0.0246244
3210	0.0246244
3222	0.0248314
3234	0.0251418
3246	0.0240036
3258	0.024521
3270	0.024314
3282	0.0247279
3294	0.0251418
3306	0.0249348
3318	0.0255556
3330	0.0244175
3342	0.0257625
3354	0.0253487
3366	0.0248314
3378	0.0250383
3390	0.0267972
3402	0.0254521
3414	0.0263833
3426	0.0263833
3438	0.0255556
3450	0.0240036
3462	0.0260729
3474	0.0295907
3486	0.0269006
3498	0.0241071
3510	0.0249348
3522	0.0256591
3534	0.0248314
3546	0.0239002
3558	0.0237967
3570	0.0224517
3582	0.0244175
3594	0.0247279
3606	0.0247279
3618	0.0231759
3630	0.0252452
3642	0.0249348
3654	0.0247279
3666	0.0264868
3678	0.0248314
3690	0.0242106
3702	0.0255556
3714	0.0262799
3726	0.0262799
3738	0.0244175
3750	0.0250383
3762	0.0260729
3774	0.0244175
3786	0.0257625
3798	0.0270041
3810	0.0237967
3822	0.0265902
3834	0.0266937
3846	0.0265902
3858	0.0254521
3870	0.027211
3882	0.0277284
3894	0.0264868
3906	0.0250383
3918	0.0290734
3930	0.0267972
3942	0.0262799
3954	0.0300046
3966	0.0317634
