Infrared Spectrum: Aniline, N,N-diallyl-
Formula: C 12 H 15 N
CAS: 6247-00-3
Origin: Sadtler Research Labs Under US-EPA Contract
1/CM	ABSORBANCE
450	0.0196216
462	0.0112458
474	0.0242488
486	0.0166344
498	0.0215545
510	0.0417033
522	0.0286417
534	0.0274703
546	0.0379547
558	0.0298131
570	0.0173959
582	0.0098401
594	0.00181573
606	0.0139987
618	0.014233
630	0.00937152
642	0.0179816
654	0.0212031
666	0.0353775
678	0.0637849
690	0.142974
702	0.0877994
714	0.031336
726	0.0274703
738	0.101154
750	0.207345
762	0.074855
774	0.0260645
786	0.010543
798	0.00421718
810	0.00632578
822	0.00404147
834	0.00761436
846	0.0122415
858	0.0176302
870	0.0270017
882	0.0299889
894	0.0393018
906	0.0745036
918	0.239852
930	0.186962
942	0.114684
954	0.106191
966	0.0739764
978	0.0654835
990	0.131084
1002	0.0804194
1014	0.0397704
1026	0.0393604
1038	0.0636092
1050	0.0379547
1062	0.0294617
1074	0.0298717
1086	0.0271188
1098	0.0297546
1110	0.0433433
1122	0.0496691
1134	0.0521291
1146	0.0570491
1158	0.0753822
1170	0.105722
1182	0.131728
1194	0.102032
1206	0.0835237
1218	0.159257
1230	0.320857
1242	0.201781
1254	0.103907
1266	0.0720436
1278	0.0514848
1290	0.0600363
1302	0.0641949
1314	0.089088
1326	0.118374
1338	0.149241
1350	0.174486
1362	0.165524
1374	0.134598
1386	0.140924
1398	0.0865694
1410	0.0750307
1422	0.102618
1434	0.0671821
1446	0.0726879
1458	0.0692321
1470	0.0651906
1482	0.0807708
1494	0.241961
1506	0.58572
1518	0.177766
1530	0.046799
1542	0.0316875
1554	0.033386
1566	0.0425233
1578	0.0851051
1590	0.208223
1602	0.46389
1614	0.238681
1626	0.075265
1638	0.0713407
1650	0.0616177
1662	0.0214374
1674	0.014643
1686	0.0136473
1698	0.0148773
1710	0.0116558
1722	0.00849294
1734	0.00685292
1746	0.00937152
1758	0.0104258
1770	0.00708721
1782	0.00456862
1794	0.00445147
1806	0.0069115
1818	0.00913723
1830	0.0141159
1842	0.0244245
1854	0.0197973
1866	0.00825865
1878	0.00533005
1890	0.00515434
1902	0.00884437
1914	0.012593
1926	0.010133
1938	0.00779008
1950	0.00369004
1962	0.00392432
1974	0.00492005
1986	0.0054472
1998	0.00374861
2010	0.00193288
2022	0.00087858
2034	0.0014643
2046	0.0010543
2058	0.000234288
2070	0.00123001
2082	0.00111287
2094	0.000175716
2106	0.00117144
2118	0.000820008
2130	0.0014643
2142	0.00228431
2154	0.000995724
2166	0.000937152
2178	0.000820008
2190	0.00087858
2202	0.00111287
2214	0.000644292
2226	0.000937152
2238	0.00152287
2250	0.00158144
2262	0.00246002
2274	0.00234288
2286	0.00246002
2298	0.00357289
2310	0.00538862
2322	0.00339718
2334	0.00140573
2346	0.00345575
2358	0.00445147
2370	0.00216716
2382	0.00380718
2394	0.00228431
2406	0.00257717
2418	0.00263574
2430	0.00210859
2442	0.00275288
2454	0.0029286
2466	0.00263574
2478	0.00228431
2490	0.00169859
2502	0.00199145
2514	0.00363146
2526	0.00433433
2538	0.00386575
2550	0.00538862
2562	0.00579863
2574	0.00568148
2586	0.00597434
2598	0.00632578
2610	0.00591577
2622	0.00503719
2634	0.00421718
2646	0.00410004
2658	0.00509576
2670	0.00538862
2682	0.00579863
2694	0.00644292
2706	0.00579863
2718	0.00591577
2730	0.00667721
2742	0.00796579
2754	0.00925438
2766	0.010953
2778	0.0141744
2790	0.0188016
2802	0.027646
2814	0.0452176
2826	0.0639021
2838	0.069525
2850	0.071165
2862	0.0722778
2874	0.0675335
2886	0.062262
2898	0.0676507
2910	0.0787208
2922	0.0872723
2934	0.0889709
2946	0.0753236
2958	0.0534177
2970	0.045569
2982	0.0801265
2994	0.0938909
3006	0.061032
3018	0.0948281
3030	0.0872723
3042	0.103262
3054	0.0978152
3066	0.126164
3078	0.163123
3090	0.172319
3102	0.114625
3114	0.0404733
3126	0.0186259
3138	0.00861008
3150	0.00556434
3162	0.00527148
3174	0.00509576
3186	0.00287003
3198	0.00410004
3210	0.00246002
3222	0.00205002
3234	0.00246002
3246	0.00210859
3258	0.00169859
3270	0.00281146
3282	0.00281146
3294	0.00205002
3306	0.00298717
3318	0.00287003
3330	0.0018743
3342	0.00310432
3354	0.00298717
3366	0.00257717
3378	0.00316289
3390	0.00339718
3402	0.00298717
3414	0.00462719
3426	0.00515434
3438	0.00597434
3450	0.00404147
3462	0.00445147
3474	0.00404147
3486	0.00322146
3498	0.0033386
3510	0.00386575
3522	0.00152287
3534	0.00158144
3546	0.00257717
3558	0.00216716
3570	0.00269431
3582	0.00193288
3594	0.00421718
3606	0.00216716
3618	0.00263574
3630	0.000995724
3642	0.00257717
3654	0.00234288
3666	0.00152287
3678	0.00257717
3690	0.000702864
3702	0.000937152
3714	0.00205002
3726	0.000117144
3738	0.00158144
3750	0.00087858
3762	0.000117144
3774	0.00474433
3786	0.00234288
3798	0.00128858
3810	0.00322146
3822	0.00298717
3834	0.0025186
3846	0.000644292
3858	0.00240145
3870	0.00222574
3882	0.00392432
3894	0.00199145
3906	0.000820008
3918	0.00193288
3930	0.0039829
3942	0.00087858
3954	0.00128858
3966	0.00603292
