Infrared Spectrum: Benzene, 1-chloro-3-fluoro-
Formula: C 6 H 4 Cl F
CAS: 625-98-9
Origin: Sadtler Research Labs Under US-EPA Contract
1/CM	ABSORBANCE
450	0.020088
462	0.0188871
474	0.00829722
486	0.000982566
498	0.00731466
510	0.0347173
522	0.0483641
534	0.0120091
546	0.00185596
558	0.00185596
570	0.00272935
582	0.00283852
594	0.00185596
606	0.00262018
618	0.00414861
630	0.00382109
642	0.00644127
654	0.0311146
666	0.0873392
678	0.120419
690	0.0736924
702	0.0157211
714	0.005022
726	0.00262018
738	0.00393026
750	0.0215073
762	0.133192
774	0.388987
786	0.148804
798	0.0213981
810	0.00556787
822	0.0058954
834	0.00611374
846	0.0632117
858	0.152079
870	0.194002
882	0.555041
894	0.52742
906	0.0336256
918	0.00884309
930	0.00403944
942	0.00229265
954	0.00196513
966	0.00327522
978	0.00240183
990	0.00524035
1002	0.0215073
1014	0.0188871
1026	0.00360274
1038	0.00327522
1050	0.0406127
1062	0.113213
1074	0.106226
1086	0.117035
1098	0.0640851
1110	0.0148477
1122	0.00753301
1134	0.00665961
1146	0.0113541
1158	0.0135376
1170	0.00447613
1182	0.00436696
1194	0.0152844
1206	0.0557879
1218	0.198478
1230	0.225772
1242	0.0974924
1254	0.113978
1266	0.198042
1278	0.0845007
1290	0.0292586
1302	0.0197605
1314	0.00644127
1326	0.0121183
1338	0.0104807
1350	0.00469448
1362	0.00141926
1374	0.000436696
1386	0.00305687
1398	0.0136467
1410	0.0270752
1422	0.106445
1434	0.138542
1446	0.079042
1458	0.0687796
1470	0.291931
1482	0.577967
1494	0.218348
1506	0.0278394
1518	0.0444338
1530	0.0605916
1542	0.0284944
1554	0.0282761
1566	0.0708539
1578	0.186688
1590	0.514646
1602	1.09174
1614	0.214854
1626	0.019433
1638	0.00818805
1650	0.00567705
1662	0.00665961
1674	0.00524035
1686	0.00196513
1698	0.00262018
1710	0.0116816
1722	0.0145201
1734	0.0105899
1746	0.00927979
1758	0.0104807
1770	0.0101532
1782	0.00360274
1794	0.000327522
1806	0.000764218
1818	0.00152844
1830	0.00360274
1842	0.0119
1854	0.00818805
1866	0.000327522
1878	0.00131009
1890	0.002511
1902	0.0029477
1914	0.00862475
1926	0.0110266
1938	0.00600457
1950	0.00240183
1962	0.00141926
1974	0.000655044
1986	0.000436696
1998	0.00054587
2010	0.00163761
2022	0.000764218
2034	0.000873392
2046	0.000982566
2058	0.000655044
2070	0.000655044
2082	0.000873392
2094	0.002511
2106	0.00633209
2118	0.00742383
2130	0.00240183
2142	0.00196513
2154	0.0029477
2166	0.00218348
2178	0.000764218
2190	0.000109174
2202	0.000327522
2214	0.000327522
2226	0.00054587
2238	0.000655044
2250	0.000327522
2262	0.000764218
2274	0.00152844
2286	0.00240183
2298	0.00174678
2310	0.00316605
2322	0.00425779
2334	0.002511
2346	0.00447613
2358	0.00327522
2370	0.00480366
2382	0.00414861
2394	0.00152844
2406	0.00131009
2418	0.00131009
2430	0.00174678
2442	0.00283852
2454	0.00393026
2466	0.00338439
2478	0.00655044
2490	0.00895227
2502	0.00393026
2514	0.000655044
2526	0.00131009
2538	0.000764218
2550	0.002511
2562	0.00272935
2574	0.00229265
2586	0.00283852
2598	0.00262018
2610	0.00120091
2622	0.00120091
2634	0.00152844
2646	0.00174678
2658	0.00218348
2670	0.00207431
2682	0.00272935
2694	0.00480366
2706	0.00469448
2718	0.00305687
2730	0.00283852
2742	0.00240183
2754	0.00163761
2766	0.00131009
2778	0.00109174
2790	0.000982566
2802	0.00141926
2814	0.00185596
2826	0.00218348
2838	0.00163761
2850	0.00131009
2862	0.00207431
2874	0.00196513
2886	0.00141926
2898	0.00131009
2910	0.000655044
2922	0.00054587
2934	0.000655044
2946	0.00120091
2958	0.00120091
2970	0.000655044
2982	0.000873392
2994	0.00163761
3006	0.00185596
3018	0.002511
3030	0.00622292
3042	0.0117908
3054	0.0127734
3066	0.0146293
3078	0.0327522
3090	0.0433421
3102	0.0243458
3114	0.00600457
3126	0.00152844
3138	0.000873392
3150	0.000764218
3162	0.000109174
3174	0.000655044
3186	0.00054587
3198	0.000655044
3210	0.000436696
3222	0.000436696
3234	0.00109174
3246	0.000982566
3258	0.000764218
3270	0.00120091
3282	0.00120091
3294	0.000764218
3306	0.000982566
3318	0.00141926
3330	0.00141926
3342	0.00109174
3354	0.000764218
3366	0.00131009
3378	0.00109174
3390	0.000655044
3402	0.000764218
3414	0.00109174
3426	0.000764218
3438	0.000982566
3450	0.00120091
3462	0.00054587
3474	0.00131009
3486	0.00109174
3498	0.00141926
3510	0.000873392
3522	0.00131009
3534	0.00152844
3546	0.00109174
3558	0.00152844
3570	0.00152844
3582	0.000873392
3594	0.00174678
3606	0.00163761
3618	0.00163761
3630	0.00120091
3642	0.00120091
3654	0.00120091
3666	0.00141926
3678	0.000873392
3690	0.00163761
3702	0.00196513
3714	0.00174678
3726	0.00229265
3738	0.002511
3750	0.00163761
3762	0.002511
3774	0.00218348
3786	0.002511
3798	0.00185596
3810	0.00185596
3822	0.000655044
3834	0.00109174
3846	0.00174678
3858	0.00152844
3870	0.00196513
3882	0.000982566
3894	0.00196513
3906	0.00141926
3918	0.00207431
3930	0.00109174
3942	0.00185596
3954	0.00131009
3966	0.00272935
