Infrared Spectrum: 2,4-Pentanediol
Formula: C 5 H 12 O 2
CAS: 625-69-4
Origin: Sadtler Research Labs Under US-EPA Contract
1/CM	ABSORBANCE
450	0.00162182
462	0.0268077
474	0.0105895
486	0.0212744
498	0.020225
510	0.0123067
522	0.021656
534	0.0165044
546	0.0169814
558	0.0231824
570	0.018317
582	0.0130699
594	0.0258537
606	0.020702
618	0.0224192
630	0.0291927
642	0.0170768
654	0.018317
666	0.0161228
678	0.0097309
690	0.0143102
702	0.0120205
714	0.00667807
726	0.0129745
738	0.0117343
750	0.0096355
762	0.0145964
774	0.0201296
786	0.0317685
798	0.038065
810	0.0556188
822	0.101984
834	0.128314
846	0.093493
858	0.0641095
870	0.0536154
882	0.0636325
894	0.0752714
906	0.113527
918	0.205875
930	0.220376
942	0.150734
954	0.131367
966	0.124117
978	0.0892953
990	0.0871965
1002	0.121541
1014	0.140049
1026	0.157889
1038	0.211313
1050	0.246135
1062	0.263021
1074	0.318258
1086	0.386469
1098	0.447717
1110	0.497039
1122	0.534532
1134	0.517264
1146	0.437032
1158	0.334476
1170	0.22238
1182	0.148349
1194	0.149589
1206	0.169718
1218	0.172199
1230	0.179735
1242	0.21055
1254	0.231729
1266	0.230298
1278	0.231061
1290	0.239743
1302	0.214175
1314	0.160178
1326	0.12965
1338	0.139285
1350	0.173248
1362	0.242796
1374	0.385706
1386	0.476719
1398	0.392957
1410	0.300895
1422	0.222284
1434	0.162754
1446	0.154073
1458	0.156362
1470	0.116294
1482	0.0678301
1494	0.033772
1506	0.0210836
1518	0.018794
1530	0.0160274
1542	0.0112573
1554	0.0112573
1566	0.0130699
1578	0.00734588
1590	0.0121159
1602	0.0116389
1614	0.00868149
1626	0.0127837
1638	0.00677347
1650	0.0115435
1662	0.0121159
1674	0.0104941
1686	0.00744128
1698	0.00887229
1710	0.0119251
1722	0.0115435
1734	0.0110665
1746	0.0139285
1758	0.0172676
1770	0.0143102
1782	0.0120205
1794	0.0124975
1806	0.0115435
1818	0.00887229
1830	0.00801368
1842	0.00725048
1854	0.00810909
1866	0.00801368
1878	0.00763208
1890	0.00763208
1902	0.00715508
1914	0.00601026
1926	0.00639187
1938	0.00601026
1950	0.00553326
1962	0.00648727
1974	0.00696427
1986	0.00572406
1998	0.00543786
2010	0.00410224
2022	0.00257583
2034	0.00238503
2046	0.00219422
2058	0.00152642
2070	0.00219422
2082	0.00324363
2094	0.00438845
2106	0.00486545
2118	0.00515165
2130	0.00524706
2142	0.00629647
2154	0.00572406
2166	0.00629647
2178	0.00648727
2190	0.00515165
2202	0.00553326
2214	0.00581946
2226	0.00534246
2238	0.00591486
2250	0.00572406
2262	0.00515165
2274	0.00534246
2286	0.00572406
2298	0.00610566
2310	0.00658267
2322	0.00515165
2334	0.00276663
2346	0.00715508
2358	0.00372064
2370	0.00782288
2382	0.0093493
2394	0.00696427
2406	0.00629647
2418	0.00677347
2430	0.00696427
2442	0.00629647
2454	0.00648727
2466	0.00591486
2478	0.00534246
2490	0.00505625
2502	0.00372064
2514	0.00362524
2526	0.00381604
2538	0.00410224
2550	0.00457925
2562	0.00620107
2574	0.00677347
2586	0.00801368
2598	0.0095401
2610	0.0119251
2622	0.0155504
2634	0.0200342
2646	0.0220376
2658	0.0260445
2670	0.0259491
2682	0.0223238
2694	0.0199388
2706	0.019748
2718	0.021179
2730	0.0236594
2742	0.0258537
2754	0.0264261
2766	0.0280479
2778	0.0308145
2790	0.0369202
2802	0.0451247
2814	0.0574314
2826	0.0741266
2838	0.0941608
2850	0.115721
2862	0.156362
2874	0.245562
2886	0.344398
2898	0.404309
2910	0.459547
2922	0.520508
2934	0.583473
2946	0.49971
2958	0.472903
2970	0.779426
2982	0.876258
2994	0.453823
3006	0.102556
3018	0.033772
3030	0.0203204
3042	0.0158366
3054	0.0109711
3066	0.0102079
3078	0.0109711
3090	0.0104941
3102	0.0093493
3114	0.0098263
3126	0.00734588
3138	0.00801368
3150	0.00887229
3162	0.00782288
3174	0.0101125
3186	0.0108757
3198	0.0130699
3210	0.0132607
3222	0.0108757
3234	0.00763208
3246	0.00620107
3258	0.00562866
3270	0.00610566
3282	0.00677347
3294	0.00505625
3306	0.00391144
3318	0.00429305
3330	0.00457925
3342	0.00457925
3354	0.00543786
3366	0.00696427
3378	0.00887229
3390	0.0145964
3402	0.0163136
3414	0.0161228
3426	0.016886
3438	0.0180308
3450	0.0199388
3462	0.0223238
3474	0.0184124
3486	0.0186986
3498	0.0175538
3510	0.018794
3522	0.0214652
3534	0.0268077
3546	0.0330087
3558	0.0445523
3570	0.0984538
3582	0.263784
3594	0.344684
3606	0.240697
3618	0.126979
3630	0.102938
3642	0.13566
3654	0.18088
3666	0.150734
3678	0.0634417
3690	0.0248043
3702	0.0167906
3714	0.015932
3726	0.017363
3738	0.0153596
3750	0.00868149
3762	0.00868149
3774	0.00782288
3786	0.00658267
3798	0.00381604
3810	0.00839529
3822	0.000667807
3834	0.00333904
3846	0.00419764
3858	0.000572406
3870	0.00171722
3882	0.0093493
3894	0.00725048
3906	0.00858609
3918	0.0095401
3930	0.00868149
3942	0.00686887
3954	0.00782288
3966	0.00257583
