Infrared Spectrum: 2-Heptanol, 2-methyl-
Formula: C 8 H 18 O
CAS: 625-25-2
Origin: Sadtler Research Labs Under US-EPA Contract
1/CM	ABSORBANCE
450	0.00225576
462	0.00329688
474	0.00266064
486	0.00306552
498	0.0011568
510	0.00242928
522	0.00023136
534	0.00011568
546	0.00399096
558	0.00428016
570	0.0026028
582	0.00185088
594	0.0017352
606	0.00219792
618	0.00271848
630	0.00300768
642	0.00294984
654	0.002892
666	0.00271848
678	0.00364392
690	0.00445368
702	0.00514776
714	0.00711432
726	0.0105847
738	0.0103534
750	0.0126091
762	0.0159638
774	0.0124356
786	0.00653592
798	0.00439584
810	0.0037596
822	0.00364392
834	0.00508992
846	0.00734568
858	0.00919656
870	0.0127826
882	0.0192607
894	0.0304817
906	0.0588811
918	0.0821906
930	0.0794143
942	0.0512462
954	0.0250447
966	0.0204754
978	0.0188558
990	0.014807
1002	0.0118572
1014	0.0101798
1026	0.0107004
1038	0.0147492
1050	0.0192029
1062	0.0279946
1074	0.0385214
1086	0.045925
1098	0.0519982
1110	0.0500894
1122	0.0646073
1134	0.0903461
1146	0.0932381
1158	0.0991956
1170	0.100526
1182	0.0770429
1194	0.0614261
1206	0.0665738
1218	0.0791251
1230	0.0743244
1242	0.0629299
1254	0.0508992
1266	0.0450574
1278	0.0456936
1290	0.0470239
1302	0.0484121
1314	0.0512462
1326	0.0525187
1338	0.0559313
1350	0.0541382
1362	0.0804554
1374	0.133437
1386	0.12453
1398	0.050263
1410	0.0211116
1422	0.0182196
1434	0.0230203
1446	0.0382901
1458	0.0690031
1470	0.0831739
1482	0.0484121
1494	0.0181618
1506	0.0106426
1518	0.00647808
1530	0.004338
1542	0.004338
1554	0.0037596
1566	0.0020244
1578	0.0023136
1590	0.00225576
1602	0.00248712
1614	0.00219792
1626	0.00185088
1638	0.0023136
1650	0.00208224
1662	0.00237144
1674	0.0023136
1686	0.002892
1698	0.00237144
1710	0.00196656
1722	0.00133032
1734	0.00219792
1746	0.00161952
1758	0.00133032
1770	0.00161952
1782	0.001446
1794	0.00190872
1806	0.0017352
1818	0.00179304
1830	0.00138816
1842	0.00092544
1854	0.00092544
1866	0.0011568
1878	0.00092544
1890	0.00069408
1902	0.0008676
1914	0.00080976
1926	0.00069408
1938	0.00075192
1950	0.00046272
1962	0.00040488
1974	0.00046272
1986	0.00040488
1998	0.00040488
2010	0.00098328
2022	0.00080976
2034	0.0008676
2046	0.00121464
2058	0.001446
2070	0.0008676
2082	0.0008676
2094	0.00092544
2106	0.00098328
2118	0.0008676
2130	0.0008676
2142	0.0008676
2154	0.00069408
2166	0.00040488
2178	0.0008676
2190	0.00080976
2202	0.0008676
2214	0.0011568
2226	0.00092544
2238	0.00092544
2250	0.00133032
2262	0.00121464
2274	0.00133032
2286	0.00190872
2298	0.00190872
2310	0.0026028
2322	0.0026028
2334	0.00167736
2346	0.00109896
2358	0.0026028
2370	0
2382	0.0002892
2394	0.0008676
2406	0.0008676
2418	0.00080976
2430	0.00080976
2442	0.0008676
2454	0.00080976
2466	0.00080976
2478	0.00040488
2490	0.00040488
2502	0.00040488
2514	0.00034704
2526	0.00127248
2538	0.00156168
2550	0.00127248
2562	0.0017352
2574	0.00167736
2586	0.0011568
2598	0.00150384
2610	0.00214008
2622	0.00225576
2634	0.00219792
2646	0.00237144
2658	0.00294984
2670	0.00358608
2682	0.0040488
2694	0.00399096
2706	0.00410664
2718	0.00503208
2730	0.00659376
2742	0.00798192
2754	0.0075192
2766	0.0069408
2778	0.00746136
2790	0.00994848
2802	0.0138816
2814	0.0199548
2826	0.0275897
2838	0.0446525
2850	0.0891893
2862	0.166926
2874	0.214818
2886	0.219618
2898	0.19226
2910	0.235177
2922	0.33819
2934	0.492045
2946	0.505232
2958	0.417316
2970	0.568162
2982	0.458382
2994	0.173636
3006	0.0526344
3018	0.0257388
3030	0.0185666
3042	0.0137081
3054	0.0102377
3066	0.00913872
3078	0.00775056
3090	0.00746136
3102	0.00676728
3114	0.00572616
3126	0.00532128
3138	0.00532128
3150	0.00474288
3162	0.00474288
3174	0.00566832
3186	0.00624672
3198	0.00630456
3210	0.00468504
3222	0.00416448
3234	0.00300768
3246	0.00196656
3258	0.00138816
3270	0.00069408
3282	0.00069408
3294	0.00034704
3306	0.00075192
3318	0.00063624
3330	0.00075192
3342	0.00075192
3354	0.00075192
3366	0.0005784
3378	0.0011568
3390	0.00109896
3402	0.00161952
3414	0.00185088
3426	0.00196656
3438	0.00161952
3450	0.00156168
3462	0.00214008
3474	0.00109896
3486	0.00092544
3498	0.00109896
3510	0.00092544
3522	0.00069408
3534	0.00040488
3546	0.00075192
3558	0.00040488
3570	0.00121464
3582	0.00121464
3594	0.0017352
3606	0.00294984
3618	0.00630456
3630	0.0175834
3642	0.0353981
3654	0.0224998
3666	0.00734568
3678	0.00323904
3690	0.00138816
3702	0.0011568
3714	0.00161952
3726	0.0020244
3738	0.00150384
3750	0.0002892
3762	0
3774	0.00017352
3786	0.0005784
3798	0.00161952
3810	0.00121464
3822	0.00161952
3834	0.00179304
3846	0.00179304
3858	0.00127248
3870	0.00179304
3882	0.00237144
3894	0.00225576
3906	0.0008676
3918	0.00040488
3930	0.00080976
3942	0.00167736
3954	0.0005784
3966	0.00092544
