Infrared Spectrum: 2-Pentanamine
Formula: C 5 H 13 N
CAS: 625-30-9
Origin: Sadtler Research Labs Under US-EPA Contract
1/CM	ABSORBANCE
450	0
462	0.00825558
474	0.0214227
486	0.0248712
498	0.0125401
510	0.00950959
522	0.00647906
534	0.00501605
546	0.00940509
558	0.00888259
570	0.0173472
582	0.0218407
594	0.0158842
606	0.0132716
618	0.0120176
630	0.0151526
642	0.0180787
654	0.0146301
666	0.0186012
678	0.0241397
690	0.0285288
702	0.0359483
714	0.0465029
726	0.0712697
738	0.0984399
750	0.140345
762	0.200746
774	0.314757
786	0.412883
798	0.349869
810	0.209107
822	0.115056
834	0.0820333
846	0.0653131
858	0.0462939
870	0.0350078
882	0.0326043
894	0.0305143
906	0.0241397
918	0.0140031
930	0.00930059
942	0.0107636
954	0.0130626
966	0.0122266
978	0.0106591
990	0.0121221
1002	0.0175562
1014	0.0268568
1026	0.0306188
1038	0.0297828
1050	0.0300963
1062	0.0312458
1074	0.0290513
1086	0.0247667
1098	0.0260207
1110	0.0388744
1122	0.0570575
1134	0.0705382
1146	0.0920654
1158	0.0939464
1170	0.0622826
1182	0.0280063
1194	0.0194372
1206	0.0203777
1218	0.0207957
1230	0.0214227
1242	0.0236172
1254	0.0228857
1266	0.0218407
1278	0.0196462
1290	0.0186012
1302	0.0192282
1314	0.0287378
1326	0.0462939
1338	0.0691797
1350	0.0823468
1362	0.111712
1374	0.152467
1386	0.148914
1398	0.0921699
1410	0.0416959
1422	0.0322908
1434	0.050474
1446	0.0880943
1458	0.132194
1470	0.122475
1482	0.0824513
1494	0.0456669
1506	0.0281108
1518	0.0220497
1530	0.0196462
1542	0.0167202
1554	0.0197507
1566	0.0217362
1578	0.0262298
1590	0.0422184
1602	0.0741957
1614	0.114847
1626	0.122162
1638	0.0833918
1650	0.0407554
1662	0.0239307
1674	0.0142121
1686	0.0113906
1698	0.00752407
1710	0.00877808
1722	0.00919609
1734	0.00877808
1746	0.00731507
1758	0.00783757
1770	0.00637456
1782	0.00794208
1794	0.00637456
1806	0.00731507
1818	0.00721057
1830	0.00627006
1842	0.00783757
1854	0.00595656
1866	0.00595656
1878	0.00553855
1890	0.00564305
1902	0.00491155
1914	0.00564305
1926	0.00491155
1938	0.00543405
1950	0.00543405
1962	0.00522505
1974	0.00522505
1986	0.00574755
1998	0.00637456
2010	0.00689707
2022	0.00825558
2034	0.00731507
2046	0.00794208
2058	0.00658356
2070	0.00627006
2082	0.00491155
2094	0.00512055
2106	0.00668806
2118	0.00721057
2130	0.00710607
2142	0.00700157
2154	0.00762857
2166	0.00804658
2178	0.00794208
2190	0.00846458
2202	0.00804658
2214	0.00825558
2226	0.00804658
2238	0.00794208
2250	0.00856908
2262	0.00888259
2274	0.00919609
2286	0.00773307
2298	0.00616556
2310	0.00418004
2322	0.00470254
2334	0.00721057
2346	0.00950959
2358	0.00532955
2370	0.0124356
2382	0.0129581
2394	0.0120176
2406	0.0115996
2418	0.0111816
2430	0.0113906
2442	0.0112861
2454	0.0114951
2466	0.0113906
2478	0.0110771
2490	0.0118086
2502	0.0123311
2514	0.0127491
2526	0.0128536
2538	0.0131671
2550	0.0142121
2562	0.0155706
2574	0.0174517
2586	0.0196462
2598	0.0215272
2610	0.0230947
2622	0.0241397
2634	0.0244532
2646	0.0270658
2658	0.0269613
2670	0.0254982
2682	0.0242442
2694	0.0240352
2706	0.0272748
2718	0.0310368
2730	0.0351123
2742	0.0384564
2754	0.0378294
2766	0.0354258
2778	0.0373069
2790	0.0422184
2802	0.053609
2814	0.0711652
2826	0.103978
2838	0.161036
2850	0.22823
2862	0.287273
2874	0.39052
2886	0.451235
2898	0.468687
2910	0.532537
2922	0.642054
2934	0.698903
2946	0.696186
2958	0.889304
2970	1.01439
2982	0.690961
2994	0.251847
3006	0.0885123
3018	0.052564
3030	0.0447264
3042	0.0399194
3054	0.0340673
3066	0.0304098
3078	0.0282153
3090	0.0268568
3102	0.0241397
3114	0.0221542
3126	0.0207957
3138	0.0212137
3150	0.0202732
3162	0.0213182
3174	0.0201687
3186	0.0187057
3198	0.0188102
3210	0.0169292
3222	0.0144211
3234	0.0129581
3246	0.0108681
3258	0.00867358
3270	0.0105546
3282	0.00825558
3294	0.00992759
3306	0.0123311
3318	0.0173472
3330	0.0223632
3342	0.0222587
3354	0.0164067
3366	0.0122266
3378	0.0120176
3390	0.0105546
3402	0.0111816
3414	0.00982309
3426	0.0100321
3438	0.00971859
3450	0.00825558
3462	0.00741957
3474	0.00721057
3486	0.00689707
3498	0.00522505
3510	0.00888259
3522	0.00689707
3534	0.00658356
3546	0.00992759
3558	0.00606106
3570	0.0107636
3582	0.00637456
3594	0.00595656
3606	0.00595656
3618	0.00815108
3630	0.0111816
3642	0.00700157
3654	0.00700157
3666	0.00752407
3678	0.00731507
3690	0.00418004
3702	0.00804658
3714	0.00846458
3726	0.0107636
3738	0.0130626
3750	0.00397104
3762	0.00668806
3774	0.00721057
3786	0.00647906
3798	0.00950959
3810	0.00459804
3822	0.00700157
3834	0.00438904
3846	0.00804658
3858	0.00679256
3870	0.00616556
3882	0.00627006
3894	0.00710607
3906	0.00992759
3918	0.00418004
3930	0.00428454
3942	0.00418004
3954	0.00564305
3966	0.00459804
