Infrared Spectrum: Furan, 2,5-dimethyl-
Formula: C 6 H 8 O
CAS: 625-86-5
Origin: Sadtler Research Labs Under US-EPA Contract
1/CM	ABSORBANCE
450	0.00315058
462	0.00623551
474	0.00144401
486	0.00393822
498	0.00269112
510	0.00367567
522	0.00945173
534	0.00892663
546	0.00735134
558	0.00676061
570	0.00800771
582	0.00971428
594	0.0109614
606	0.0149652
618	0.0137838
630	0.0108301
642	0.00912354
654	0.00846717
666	0.00662934
678	0.00964864
690	0.0127992
702	0.0105019
714	0.00722007
726	0.00813899
738	0.0134556
750	0.0646524
762	0.209119
774	0.367305
786	0.285521
798	0.165668
810	0.0302587
822	0.00886099
834	0.00722007
846	0.00689188
858	0.00669497
870	0.0078108
882	0.0129305
894	0.0278301
906	0.059664
918	0.0956987
930	0.102197
942	0.0783706
954	0.066359
966	0.0548069
978	0.039776
990	0.0569073
1002	0.138757
1014	0.289853
1026	0.191726
1038	0.136262
1050	0.0406293
1062	0.0147027
1074	0.009583
1086	0.00715443
1098	0.00649806
1110	0.00669497
1122	0.00662934
1134	0.00728571
1146	0.00925482
1158	0.0136525
1170	0.0170656
1182	0.0217258
1194	0.0502123
1206	0.146567
1218	0.256509
1230	0.336849
1242	0.32359
1254	0.180108
1266	0.049359
1278	0.0306525
1290	0.0277645
1302	0.0248108
1314	0.0271081
1326	0.0306525
1338	0.0454208
1350	0.0520501
1362	0.0563165
1374	0.0467992
1386	0.0552664
1398	0.0495559
1410	0.0319652
1422	0.0395791
1434	0.0655057
1446	0.0872972
1458	0.090776
1470	0.0935327
1482	0.0435173
1494	0.0229073
1506	0.0126679
1518	0.0250077
1530	0.0462741
1542	0.0775173
1554	0.138494
1566	0.209841
1578	0.184112
1590	0.129239
1602	0.0619613
1614	0.0847374
1626	0.111714
1638	0.0817181
1650	0.0592046
1662	0.0229073
1674	0.0135869
1686	0.00597297
1698	0.0137838
1710	0.0175251
1722	0.0132587
1734	0.0065637
1746	0.00997682
1758	0.00925482
1770	0.0132587
1782	0.0150309
1794	0.0122085
1806	0.0150309
1818	0.00820463
1830	0.00466023
1842	0.00420077
1854	0.00242857
1866	0.00315058
1878	0.00190347
1890	0.00190347
1902	0.00183784
1914	0.00308494
1926	0.00249421
1938	0.00255984
1950	0.00288803
1962	0.00374131
1974	0.00511969
1986	0.00623551
1998	0.00643243
2010	0.00498841
2022	0.00380695
2034	0.00275675
2046	0.00288803
2058	0.00262548
2070	0.00295366
2082	0.00295366
2094	0.00203475
2106	0.00111583
2118	0.000918918
2130	0.00150965
2142	0.00190347
2154	0.00203475
2166	0.00223166
2178	0.00262548
2190	0.0035444
2202	0.00400386
2214	0.00439768
2226	0.00794208
2238	0.00932045
2250	0.0065637
2262	0.00590733
2274	0.00413513
2286	0.00249421
2298	0.00426641
2310	0.00525096
2322	0.00472586
2334	0.00387258
2346	0.00374131
2358	0.00518532
2370	0.00420077
2382	0.00544787
2394	0.00485714
2406	0.00544787
2418	0.00649806
2430	0.00676061
2442	0.00630115
2454	0.00649806
2466	0.00616988
2478	0.00498841
2490	0.00347876
2502	0.00255984
2514	0.00223166
2526	0.00262548
2538	0.00269112
2550	0.00308494
2562	0.00295366
2574	0.00328185
2586	0.00413513
2598	0.0065637
2610	0.00623551
2622	0.00328185
2634	0.0017722
2646	0.0017722
2658	0.00118147
2670	0.00203475
2682	0.00334749
2694	0.00334749
2706	0.00308494
2718	0.00406949
2730	0.0060386
2742	0.0143745
2754	0.0195598
2766	0.0161467
2778	0.0108957
2790	0.011749
2802	0.0147683
2814	0.0175251
2826	0.0208726
2838	0.0272394
2850	0.042664
2862	0.0781737
2874	0.10712
2886	0.136788
2898	0.150243
2910	0.142432
2922	0.18339
2934	0.312695
2946	0.362382
2958	0.212139
2970	0.165996
2982	0.160089
2994	0.129174
3006	0.104494
3018	0.049359
3030	0.034
3042	0.0340656
3054	0.0382664
3066	0.0380695
3078	0.0344594
3090	0.0355753
3102	0.0676061
3114	0.0883474
3126	0.0678687
3138	0.0176564
3150	0.00925482
3162	0.00676061
3174	0.00577606
3186	0.00557914
3198	0.00420077
3210	0.00387258
3222	0.00367567
3234	0.00406949
3246	0.00446332
3258	0.00380695
3270	0.00380695
3282	0.00321621
3294	0.00328185
3306	0.00393822
3318	0.00380695
3330	0.00387258
3342	0.00459459
3354	0.00387258
3366	0.00452895
3378	0.00452895
3390	0.00511969
3402	0.00518532
3414	0.00564478
3426	0.00452895
3438	0.0053166
3450	0.00623551
3462	0.00518532
3474	0.00511969
3486	0.00584169
3498	0.00564478
3510	0.00590733
3522	0.00616988
3534	0.00597297
3546	0.00892663
3558	0.0101737
3570	0.0101737
3582	0.00905791
3594	0.00905791
3606	0.00840154
3618	0.00774517
3630	0.00269112
3642	0.00767953
3654	0.00853281
3666	0.0070888
3678	0.00210038
3690	0.00393822
3702	0.00649806
3714	0.00662934
3726	0.0111583
3738	0.00754825
3750	0.0078108
3762	0.0078108
3774	0.00794208
3786	0.00964864
3798	0.00945173
3810	0.0103706
3822	0.00636679
3834	0.00846717
3846	0.00951736
3858	0.00912354
3870	0.00676061
3882	0.0111583
3894	0.00800771
3906	0.0104363
3918	0.0101737
3930	0.00951736
3942	0.0106988
3954	0.0116177
3966	0.0116177
