Infrared Spectrum: 2-Pentanol, 2,4-dimethyl-
Formula: C 7 H 16 O
CAS: 625-06-9
Origin: Sadtler Research Labs Under US-EPA Contract
1/CM	ABSORBANCE
450	0.0267533
462	0.00889947
474	0.00637246
486	0.00730636
498	0.00653727
510	0.00346091
522	0.00681194
534	0.00692181
546	0.00730636
558	0.00889947
570	0.00401025
582	0.00379051
594	0.0032961
606	0.00461454
618	0.00423
630	0.00428493
642	0.00335104
654	0.00538363
666	0.00384545
678	0.00390039
690	0.00615272
702	0.00494415
714	0.00813038
726	0.00560337
738	0.00747116
750	0.011866
762	0.0165354
774	0.0098883
786	0.00604285
798	0.00472441
810	0.00488922
822	0.00714155
834	0.00818532
846	0.0100531
858	0.0153269
870	0.0187878
882	0.0222487
894	0.0453214
906	0.0554844
918	0.0352683
930	0.0358726
942	0.049881
954	0.0479033
966	0.0260392
978	0.0196667
990	0.0190624
1002	0.0127999
1014	0.0102179
1026	0.0117561
1038	0.0141732
1050	0.0196118
1062	0.0298297
1074	0.040542
1086	0.0453763
1098	0.0457609
1110	0.0431789
1122	0.0527925
1134	0.0769639
1146	0.0860831
1158	0.0918513
1170	0.121351
1182	0.124867
1194	0.0866325
1206	0.0553195
1218	0.0485076
1230	0.0503754
1242	0.0531771
1254	0.051529
1266	0.0461454
1278	0.0423
1290	0.0407068
1302	0.0408716
1314	0.0449918
1326	0.0477385
1338	0.0463651
1350	0.0570775
1362	0.107453
1374	0.145962
1386	0.118879
1398	0.0671306
1410	0.027083
1422	0.0198865
1434	0.0244461
1446	0.0356528
1458	0.0614173
1470	0.0791064
1482	0.0554294
1494	0.0232924
1506	0.0108771
1518	0.00609779
1530	0.00346091
1542	0.00379051
1554	0.00197766
1566	0.00258194
1578	0.00159311
1590	0.00340597
1602	0.0032961
1614	0.00483428
1626	0.00417506
1638	0.00324117
1650	0.00186779
1662	0.00395532
1674	0.00379051
1686	0.00466948
1698	0.00697675
1710	0.010987
1722	0.0102179
1734	0.00785571
1746	0.006757
1758	0.00626259
1770	0.0053287
1782	0.00516389
1794	0.00335104
1806	0.00384545
1818	0.00280168
1830	0.000933895
1842	0.00214247
1854	0.00148325
1866	0.00131844
1878	0.00164805
1890	0.000933895
1902	0.000933895
1914	0.000933895
1926	0.00087896
1938	0.000604285
1950	0.000824025
1962	0.000604285
1974	0.000824025
1986	0.000824025
1998	0.000494415
2010	0.000604285
2022	0.00032961
2034	0.00076909
2046	0.00076909
2058	0.000604285
2070	0.000604285
2082	0.00065922
2094	0.000604285
2106	0.00098883
2118	0.00126351
2130	0.00137338
2142	0.00131844
2154	0.0010987
2166	0.00104377
2178	0.00104377
2190	0.00137338
2202	0.00142831
2214	0.00137338
2226	0.00098883
2238	0.000933895
2250	0.00115364
2262	0.00126351
2274	0.00159311
2286	0.00203259
2298	0.0021974
2310	0.00208753
2322	0.00153818
2334	0.00137338
2346	0.00115364
2358	0.00280168
2370	0.00225234
2382	0.00192273
2394	0.00175792
2406	0.00186779
2418	0.00164805
2430	0.00126351
2442	0.00175792
2454	0.00186779
2466	0.00175792
2478	0.00181286
2490	0.00170298
2502	0.00159311
2514	0.00159311
2526	0.00131844
2538	0.00164805
2550	0.00208753
2562	0.00197766
2574	0.00269182
2586	0.0032961
2598	0.00346091
2610	0.00373558
2622	0.00373558
2634	0.00395532
2646	0.00373558
2658	0.00373558
2670	0.00362571
2682	0.00417506
2694	0.00417506
2706	0.0053287
2718	0.0075261
2730	0.0098883
2742	0.00966856
2754	0.00802051
2766	0.00867973
2778	0.00939389
2790	0.0104926
2802	0.0130196
2814	0.0177989
2826	0.0235671
2838	0.0336752
2850	0.0483428
2862	0.0686138
2874	0.134646
2886	0.178374
2898	0.174254
2910	0.219575
2922	0.260337
2934	0.266984
2946	0.283959
2958	0.411463
2970	0.54935
2982	0.418
2994	0.187878
3006	0.0621864
3018	0.0247757
3030	0.0138986
3042	0.00966856
3054	0.00829519
3066	0.00796558
3078	0.00763597
3090	0.00741623
3102	0.00653727
3114	0.00631753
3126	0.00615272
3138	0.00648233
3150	0.00708662
3162	0.00686688
3174	0.00725142
3186	0.00802051
3198	0.00780077
3210	0.0076909
3222	0.00620766
3234	0.00483428
3246	0.00428493
3258	0.00346091
3270	0.0032961
3282	0.00263688
3294	0.00236221
3306	0.00247208
3318	0.00258194
3330	0.00236221
3342	0.00241714
3354	0.00340597
3366	0.00357077
3378	0.00390039
3390	0.00406519
3402	0.00423
3414	0.00412013
3426	0.00373558
3438	0.00390039
3450	0.00401025
3462	0.00368065
3474	0.00357077
3486	0.00291156
3498	0.00346091
3510	0.00362571
3522	0.00346091
3534	0.00423
3546	0.00494415
3558	0.00472441
3570	0.00483428
3582	0.00527376
3594	0.00263688
3606	0.00477934
3618	0.00505402
3630	0.0164805
3642	0.0318623
3654	0.0198315
3666	0.0111518
3678	0.0010987
3690	0.00274675
3702	0.00280168
3714	0.00164805
3726	0.00208753
3738	0.000714155
3750	0.00269182
3762	0.0021974
3774	0.00225234
3786	0.00291156
3798	0.00170298
3810	0.00494415
3822	0.00230727
3834	0.00208753
3846	0.00346091
3858	0.00285662
3870	0.00263688
3882	0.00428493
3894	0.00192273
3906	0.00164805
3918	0.00351584
3930	0.00263688
3942	0.00247208
3954	0.0032961
3966	0.00258194
