Infrared Spectrum: Piperidine, 4-methyl-
Formula: C 6 H 13 N
CAS: 626-58-4
Origin: Sadtler Research Labs Under US-EPA Contract
1/CM	ABSORBANCE
450	0.0244469
462	0.00433236
474	0.00263036
486	0.00232091
498	0.00216618
510	0.0057249
522	0.00603435
534	0.02553
546	0.0841715
558	0.180412
570	0.135696
582	0.0617361
594	0.0193409
606	0.0151632
618	0.0156274
630	0.0103667
642	0.00634381
654	0.00789108
666	0.0159369
678	0.0289339
690	0.0433236
702	0.0733406
714	0.144979
726	0.285626
738	0.404456
750	0.405539
762	0.263345
774	0.13585
786	0.094074
798	0.0471917
810	0.0219712
822	0.0126876
834	0.0057249
846	0.00587963
858	0.0114498
870	0.0162463
882	0.0143896
894	0.00603435
906	0.00185672
918	0.00232091
930	0.00820053
942	0.0184125
954	0.0380628
966	0.0532261
978	0.0532261
990	0.0372892
1002	0.0377534
1014	0.0346588
1026	0.0134612
1038	0.0129971
1050	0.0148538
1062	0.0129971
1074	0.0196503
1086	0.0431688
1098	0.0622003
1110	0.0824695
1122	0.0764351
1134	0.080458
1146	0.129816
1158	0.169581
1170	0.11883
1182	0.0648306
1194	0.0224354
1206	0.0108309
1218	0.0100573
1230	0.0137707
1242	0.0247563
1254	0.0433236
1266	0.0484296
1278	0.030017
1290	0.0269225
1302	0.0564754
1314	0.153334
1326	0.147764
1338	0.103822
1350	0.0682346
1362	0.0713291
1374	0.0710197
1386	0.0772088
1398	0.0478106
1410	0.0230543
1422	0.0626644
1434	0.126567
1446	0.210119
1458	0.208881
1470	0.137398
1482	0.0663779
1494	0.0177936
1506	0.00526072
1518	0.00278509
1530	0.00108309
1542	0.00108309
1554	0.00216618
1566	0.00216618
1578	0.00293981
1590	0.00355872
1602	0.00526072
1614	0.00634381
1626	0.00541545
1638	0.00464181
1650	0.00417763
1662	0.00495126
1674	0.00448708
1686	0.00371345
1698	0.00278509
1710	0.00417763
1722	0.00293981
1734	0.00154727
1746	0.001702
1758	0.00185672
1770	0.00154727
1782	0.00247563
1794	0.001702
1806	0.00123782
1818	0.00108309
1830	0.00123782
1842	0.00201145
1854	0.00247563
1866	0.00247563
1878	0.00232091
1890	0.00278509
1902	0.00340399
1914	0.00309454
1926	0.00185672
1938	0.000773635
1950	0
1962	0
1974	0.000309454
1986	0.000154727
1998	0.000464181
2010	0.00123782
2022	0.00263036
2034	0.00201145
2046	0.000928362
2058	0
2070	0.000309454
2082	0.000309454
2094	0.000928362
2106	0.00139254
2118	0.00108309
2130	0.00108309
2142	0.000618908
2154	0.000464181
2166	0.000618908
2178	0.00108309
2190	0.00139254
2202	0.00108309
2214	0.000773635
2226	0.000928362
2238	0.00185672
2250	0.00247563
2262	0.00216618
2274	0.00216618
2286	0.00201145
2298	0.00278509
2310	0.00355872
2322	0.00324927
2334	0.00247563
2346	0.00293981
2358	0.001702
2370	0.00216618
2382	0.00201145
2394	0.00139254
2406	0.00293981
2418	0.00495126
2430	0.00618908
2442	0.00557017
2454	0.00541545
2466	0.00649853
2478	0.0057249
2490	0.0040229
2502	0.00293981
2514	0.00355872
2526	0.00433236
2538	0.00479654
2550	0.00510599
2562	0.00618908
2574	0.00943835
2586	0.0143896
2598	0.0199598
2610	0.0278509
2622	0.035123
2634	0.0408479
2646	0.0348136
2658	0.0331116
2670	0.0375987
2682	0.0512146
2694	0.058951
2706	0.0600341
2718	0.0993347
2730	0.182733
2742	0.228996
2754	0.161071
2766	0.142349
2778	0.194647
2790	0.289649
2802	0.395792
2814	0.468204
2826	0.335758
2838	0.280365
2850	0.359586
2862	0.433081
2874	0.50998
2886	0.48445
2898	0.547115
2910	0.964568
2922	1.43912
2934	1.54727
2946	1.4156
2958	1.37073
2970	0.742535
2982	0.189386
2994	0.033421
3006	0.0164011
3018	0.0123782
3030	0.011914
3042	0.0120687
3054	0.0116045
3066	0.0126876
3078	0.0126876
3090	0.0112951
3102	0.010212
3114	0.0108309
3126	0.0117593
3138	0.0117593
3150	0.0126876
3162	0.013616
3174	0.0143896
3186	0.0122234
3198	0.00789108
3210	0.00526072
3222	0.00386818
3234	0.00340399
3246	0.00417763
3258	0.00618908
3270	0.00727217
3282	0.00649853
3294	0.00417763
3306	0.00386818
3318	0.00526072
3330	0.00773635
3342	0.00727217
3354	0.0057249
3366	0.00557017
3378	0.00618908
3390	0.00510599
3402	0.00386818
3414	0.00324927
3426	0.00232091
3438	0.00185672
3450	0.00154727
3462	0.001702
3474	0.001702
3486	0.00324927
3498	0.00263036
3510	0.00216618
3522	0.00216618
3534	0.00185672
3546	0.00185672
3558	0.001702
3570	0.00154727
3582	0.00185672
3594	0.001702
3606	0.001702
3618	0.00139254
3630	0.000928362
3642	0.001702
3654	0.00216618
3666	0.00216618
3678	0.00154727
3690	0.00278509
3702	0.00247563
3714	0.00293981
3726	0.00293981
3738	0.00263036
3750	0.00232091
3762	0.00139254
3774	0.00216618
3786	0.00263036
3798	0.001702
3810	0.00201145
3822	0.00293981
3834	0.00309454
3846	0.00293981
3858	0.00278509
3870	0.00216618
3882	0.00185672
3894	0.00278509
3906	0.00216618
3918	0.00247563
3930	0.00309454
3942	0.00232091
3954	0.00263036
3966	0.00216618
