Infrared Spectrum: Phenol, 3-iodo-
Formula: C 6 H 5 I O
CAS: 626-02-8
Origin: Sadtler Research Labs Under US-EPA Contract
1/CM	ABSORBANCE
450	0
462	0.0447651
474	0.0344936
486	0.061322
498	0.0627017
510	0.0550365
522	0.0752728
534	0.0722067
546	0.0508973
558	0.0413924
570	0.0364866
582	0.0568762
594	0.073893
606	0.0424655
618	0.0426188
630	0.0410857
642	0.0568762
654	0.134602
666	0.190711
678	0.259392
690	0.133375
702	0.0614753
714	0.0461448
726	0.0478312
738	0.0627017
750	0.143187
762	0.352142
774	0.390928
786	0.167869
798	0.064848
810	0.0616286
822	0.0993416
834	0.212787
846	0.745522
858	0.714708
870	0.249121
882	0.0991883
894	0.0588691
906	0.0564162
918	0.0516638
930	0.0436919
942	0.0450717
954	0.0450717
966	0.0446118
978	0.061322
990	0.247434
1002	0.203129
1014	0.0464514
1026	0.0438452
1038	0.0551898
1050	0.133222
1062	0.166336
1074	0.129389
1086	0.124024
1098	0.0820182
1110	0.0843178
1122	0.0835512
1134	0.118198
1146	0.338957
1158	0.553738
1170	0.657372
1182	0.924429
1194	0.6123
1206	0.238083
1218	0.158517
1230	0.262458
1242	0.448877
1254	0.34463
1266	0.169709
1278	0.283154
1290	0.494255
1302	0.311516
1314	0.149626
1326	0.0942826
1338	0.0553431
1350	0.0462981
1362	0.0393994
1374	0.0447651
1386	0.0837045
1398	0.0932094
1410	0.148399
1422	0.250347
1434	0.346469
1446	0.284841
1458	0.247128
1470	0.626864
1482	0.493335
1494	0.158057
1506	0.104401
1518	0.101181
1530	0.081405
1542	0.0847777
1554	0.137208
1566	0.380196
1578	1.05428
1590	1.43064
1602	0.725899
1614	0.152385
1626	0.0524303
1638	0.045225
1650	0.0453783
1662	0.0435386
1674	0.041239
1686	0.0360267
1698	0.0358734
1710	0.0515105
1722	0.0541167
1734	0.0427721
1746	0.0393994
1758	0.0387862
1770	0.0381729
1782	0.0340337
1794	0.030661
1806	0.0367932
1818	0.0409324
1830	0.0404725
1842	0.0458382
1854	0.0384796
1866	0.0300478
1878	0.0315808
1890	0.0321941
1902	0.0403192
1914	0.0456849
1926	0.0418523
1938	0.0335738
1950	0.0309676
1962	0.0300478
1974	0.0298945
1986	0.030661
1998	0.0309676
2010	0.0334205
2022	0.0331139
2034	0.0344936
2046	0.0338804
2058	0.0323474
2070	0.0331139
2082	0.0370998
2094	0.0398593
2106	0.0375597
2118	0.0331139
2130	0.0325007
2142	0.0323474
2154	0.0317341
2166	0.0311209
2178	0.0302011
2190	0.0294346
2202	0.0294346
2214	0.0302011
2226	0.030661
2238	0.0303544
2250	0.0308143
2262	0.0302011
2274	0.0303544
2286	0.0302011
2298	0.0294346
2310	0.0315808
2322	0.0360267
2334	0.0367932
2346	0.0343403
2358	0.0314275
2370	0.0343403
2382	0.0352602
2394	0.0378663
2406	0.0418523
2418	0.0462981
2430	0.0495175
2442	0.0447651
2454	0.0389395
2466	0.0367932
2478	0.0380196
2490	0.037713
2502	0.0337271
2514	0.0309676
2526	0.0323474
2538	0.0335738
2550	0.032654
2562	0.0320407
2574	0.0321941
2586	0.0323474
2598	0.0320407
2610	0.0309676
2622	0.0320407
2634	0.0323474
2646	0.0309676
2658	0.0303544
2670	0.0298945
2682	0.0297412
2694	0.0295879
2706	0.0308143
2718	0.0325007
2730	0.032654
2742	0.0314275
2754	0.0308143
2766	0.0300478
2778	0.0282081
2790	0.0277482
2802	0.0272883
2814	0.0272883
2826	0.0282081
2838	0.028668
2850	0.0288213
2862	0.0302011
2874	0.0309676
2886	0.0297412
2898	0.0297412
2910	0.0300478
2922	0.0300478
2934	0.0314275
2946	0.0320407
2958	0.0312742
2970	0.0317341
2982	0.0321941
2994	0.0357201
3006	0.0472179
3018	0.0682207
3030	0.0757327
3042	0.0867706
3054	0.110226
3066	0.113292
3078	0.129083
3090	0.102561
3102	0.0594823
3114	0.0369465
3126	0.0321941
3138	0.0323474
3150	0.032654
3162	0.0332672
3174	0.0337271
3186	0.0334205
3198	0.0328073
3210	0.0335738
3222	0.0343403
3234	0.0348002
3246	0.034187
3258	0.0340337
3270	0.034187
3282	0.0344936
3294	0.0348002
3306	0.0358734
3318	0.0366399
3330	0.0395527
3342	0.0441518
3354	0.0429254
3366	0.0426188
3378	0.043232
3390	0.0406258
3402	0.0403192
3414	0.0404725
3426	0.0404725
3438	0.0393994
3450	0.0384796
3462	0.0370998
3474	0.0393994
3486	0.0364866
3498	0.0378663
3510	0.0378663
3522	0.0366399
3534	0.0367932
3546	0.0315808
3558	0.0340337
3570	0.0300478
3582	0.041239
3594	0.0390928
3606	0.0423122
3618	0.0501307
3630	0.109
3642	0.437839
3654	0.684813
3666	0.181973
3678	0.0456849
3690	0.0351068
3702	0.0393994
3714	0.0302011
3726	0.0325007
3738	0.0295879
3750	0.0300478
3762	0.0386329
3774	0.0410857
3786	0.0390928
3798	0.0363333
3810	0.0423122
3822	0.0374064
3834	0.0392461
3846	0.0421589
3858	0.0413924
3870	0.0389395
3882	0.0369465
3894	0.0407791
3906	0.03618
3918	0.041699
3930	0.0443051
3942	0.0438452
3954	0.0446118
3966	0.0446118
