Infrared Spectrum: Sulfurous acid, dibutyl ester
Formula: C 8 H 18 O 3 S
CAS: 626-85-7
Origin: Sadtler Research Labs Under US-EPA Contract
1/CM	ABSORBANCE
450	0
462	0.047909
474	0.064767
486	0.070531
498	0.0739398
510	0.0879468
522	0.0961899
534	0.0959419
546	0.067494
558	0.0805714
570	0.0531771
582	0.0541688
594	0.0608624
606	0.0472272
618	0.0430747
630	0.0464835
642	0.0493965
654	0.070345
666	0.111436
678	0.205023
690	0.356064
702	0.428082
714	0.370319
726	0.292598
738	0.258758
750	0.241714
762	0.201367
774	0.139884
786	0.0979872
798	0.081625
810	0.0808813
822	0.081563
834	0.0863354
846	0.145958
858	0.291792
870	0.251135
882	0.172857
894	0.143789
906	0.180604
918	0.229443
930	0.500162
942	0.564
954	0.416616
966	0.317575
978	0.249833
990	0.241652
1002	0.24909
1014	0.239421
1026	0.212647
1038	0.149305
1050	0.162878
1062	0.203846
1074	0.1692
1086	0.114473
1098	0.0862734
1110	0.0806334
1122	0.0936488
1134	0.118378
1146	0.105115
1158	0.0813771
1170	0.087265
1182	0.110507
1194	0.173538
1206	0.303878
1218	0.284851
1230	0.278467
1242	0.189219
1254	0.0837943
1266	0.0561521
1278	0.042331
1290	0.0352035
1302	0.0381165
1314	0.0383024
1326	0.0466694
1338	0.0638993
1350	0.067556
1362	0.0712127
1374	0.109267
1386	0.122654
1398	0.0725143
1410	0.0516277
1422	0.0486527
1434	0.0830505
1446	0.0709028
1458	0.0937727
1470	0.117572
1482	0.0949503
1494	0.0555943
1506	0.0452439
1518	0.0410294
1530	0.0386123
1542	0.0345837
1554	0.0354514
1566	0.0387362
1578	0.044934
1590	0.0492725
1602	0.0475991
1614	0.0472892
1626	0.042269
1638	0.0372488
1650	0.0348936
1662	0.0363811
1674	0.0360092
1686	0.0342738
1698	0.0343978
1710	0.0342119
1722	0.0327244
1734	0.033778
1746	0.0353894
1758	0.0364431
1770	0.0377446
1782	0.0379925
1794	0.0379305
1806	0.0376826
1818	0.0374967
1830	0.036629
1842	0.036505
1854	0.0362571
1866	0.0364431
1878	0.0372488
1890	0.0371248
1902	0.0371868
1914	0.036691
1926	0.0357613
1938	0.0360712
1950	0.036691
1962	0.036567
1974	0.036505
1986	0.0355134
1998	0.0356373
2010	0.0359472
2022	0.0360092
2034	0.0363811
2046	0.0360712
2058	0.0363191
2070	0.0361952
2082	0.0358233
2094	0.0356993
2106	0.0355134
2118	0.0350795
2130	0.0345837
2142	0.0345217
2154	0.0342738
2166	0.0339639
2178	0.0334061
2190	0.0335301
2202	0.0332822
2214	0.0330963
2226	0.0334681
2238	0.03384
2250	0.0345217
2262	0.0353894
2274	0.036567
2286	0.0373108
2298	0.0381165
2310	0.0389842
2322	0.0407195
2334	0.0431367
2346	0.0417732
2358	0.0453679
2370	0.0433226
2382	0.0430127
2394	0.0430127
2406	0.0431987
2418	0.0437565
2430	0.0439424
2442	0.0448101
2454	0.0458017
2466	0.0464215
2478	0.0473512
2490	0.0484048
2502	0.0496444
2514	0.0513178
2526	0.0513178
2538	0.0513798
2550	0.0531771
2562	0.0546646
2574	0.0553464
2586	0.0565859
2598	0.0576395
2610	0.0580114
2622	0.0570817
2634	0.0583213
2646	0.0593129
2658	0.0606145
2670	0.0622879
2682	0.0641472
2694	0.0649529
2706	0.0666264
2718	0.0679279
2730	0.0696633
2742	0.0727622
2754	0.0747455
2766	0.0738778
2778	0.0743116
2790	0.075923
2802	0.0785881
2814	0.0824927
2826	0.0893723
2838	0.102512
2850	0.127985
2862	0.162568
2874	0.23124
2886	0.323091
2898	0.287392
2910	0.279893
2922	0.320922
2934	0.380111
2946	0.48913
2958	0.498055
2970	0.61978
2982	0.440106
2994	0.210911
3006	0.129286
3018	0.102264
3030	0.0924712
3042	0.0888765
3054	0.0888145
3066	0.0826787
3078	0.0764809
3090	0.0699112
3102	0.0665644
3114	0.0640853
3126	0.061978
3138	0.0599947
3150	0.0580734
3162	0.0559661
3174	0.0542307
3186	0.0528672
3198	0.050636
3210	0.0480329
3222	0.0453679
3234	0.0434466
3246	0.0413393
3258	0.0404097
3270	0.0382404
3282	0.0369389
3294	0.0352655
3306	0.0350795
3318	0.0342119
3330	0.0340879
3342	0.0342738
3354	0.033778
3366	0.0343358
3378	0.0349556
3390	0.0346457
3402	0.0351415
3414	0.0350176
3426	0.0358853
3438	0.036691
3450	0.036753
3462	0.0362571
3474	0.036505
3486	0.036567
3498	0.0370009
3510	0.0360712
3522	0.0361952
3534	0.0361332
3546	0.0371248
3558	0.0368149
3570	0.0362571
3582	0.0370009
3594	0.0369389
3606	0.036691
3618	0.0380545
3630	0.039542
3642	0.0410294
3654	0.0452439
3666	0.0505121
3678	0.0499543
3690	0.0443762
3702	0.0388602
3714	0.036567
3726	0.0371248
3738	0.0368149
3750	0.0348316
3762	0.036753
3774	0.0357613
3786	0.0345217
3798	0.0358233
3810	0.0350176
3822	0.0355134
3834	0.0369389
3846	0.0355754
3858	0.0364431
3870	0.036691
3882	0.0373108
3894	0.0379925
3906	0.0356993
3918	0.0350176
3930	0.0378066
3942	0.0372488
3954	0.0327864
3966	0.0369389
