Infrared Spectrum: Pentanamide
Formula: C 5 H 11 N O
CAS: 626-97-1
Origin: Sadtler Research Labs Under US-EPA Contract
1/CM	ABSORBANCE
450	0.0102919
462	0.0107149
474	0.0146624
486	0.0255183
498	0.0351053
510	0.0458201
522	0.0506136
534	0.0413086
546	0.0321446
558	0.0365151
570	0.0476529
582	0.0630203
594	0.0734532
606	0.0781057
618	0.0680958
630	0.0396168
642	0.0179051
654	0.00408856
666	0.000422955
678	0.00056394
690	0.00761319
702	0.0236855
714	0.0494857
726	0.0840271
738	0.106585
750	0.106162
762	0.0923452
774	0.0778237
786	0.06584
798	0.0514595
810	0.0427185
822	0.0394758
834	0.0362331
846	0.0348233
858	0.0308757
870	0.0266462
882	0.0255183
894	0.0241084
906	0.0238265
918	0.0226986
930	0.0225576
942	0.0193149
954	0.0126886
966	0.0102919
978	0.00930501
990	0.00775417
1002	0.00634432
1014	0.0100099
1026	0.019033
1038	0.0336954
1050	0.0504726
1062	0.0507546
1074	0.0366561
1086	0.0258003
1098	0.0203018
1110	0.0204428
1122	0.0198789
1134	0.0172002
1146	0.0177641
1158	0.0228396
1170	0.0351053
1182	0.0455382
1194	0.056253
1206	0.0702105
1218	0.0827582
1230	0.104893
1242	0.126041
1254	0.161005
1266	0.226281
1278	0.264065
1290	0.235022
1302	0.195123
1314	0.17172
1326	0.196392
1338	0.265334
1350	0.306642
1362	0.323984
1374	0.331738
1386	0.267871
1398	0.152405
1410	0.0800795
1422	0.066263
1434	0.0802205
1446	0.0985485
1458	0.1173
1470	0.100381
1482	0.0617514
1494	0.0311577
1506	0.019174
1518	0.0142395
1530	0.0181871
1542	0.0317216
1554	0.066122
1566	0.147893
1578	0.361768
1590	0.483579
1602	0.340056
1614	0.166644
1626	0.0899484
1638	0.0602006
1650	0.0548432
1662	0.0579448
1674	0.0972796
1686	0.189907
1698	0.358102
1710	0.683918
1722	1.16327
1734	1.40379
1746	1.20317
1758	0.618219
1770	0.25053
1782	0.101227
1794	0.047371
1806	0.0263642
1818	0.0163543
1830	0.0118427
1842	0.00986895
1854	0.00775417
1866	0.00662629
1878	0.00408856
1890	0.00310167
1902	0.00197379
1914	0.0018328
1926	0.00084591
1938	0.0018328
1950	0.00169182
1962	0.00169182
1974	0.0018328
1986	0.00155083
1998	0.0018328
2010	0.00155083
2022	0.00140985
2034	0.00126886
2046	0.00126886
2058	0.000986895
2070	0.000986895
2082	0.00112788
2094	0.00112788
2106	0.00126886
2118	0.00126886
2130	0.00155083
2142	0.00155083
2154	0.00155083
2166	0.00211477
2178	0.00267871
2190	0.00239675
2202	0.0028197
2214	0.00267871
2226	0.0028197
2238	0.00310167
2250	0.00380659
2262	0.00380659
2274	0.00338364
2286	0.00394758
2298	0.00493447
2310	0.00535743
2322	0.00422955
2334	0.00352462
2346	0.00507546
2358	0.00394758
2370	0.00422955
2382	0.00493447
2394	0.00211477
2406	0.00211477
2418	0.00112788
2430	0.000986895
2442	0.00126886
2454	0.00056394
2466	0.00028197
2478	0.000140985
2490	0.00056394
2502	0.00028197
2514	0.00056394
2526	0.000422955
2538	0.00084591
2550	0.00084591
2562	0.00084591
2574	0.00140985
2586	0.00155083
2598	0.00140985
2610	0.00225576
2622	0.00296068
2634	0.00437054
2646	0.00507546
2658	0.00578038
2670	0.00733122
2682	0.0074722
2694	0.00761319
2706	0.0074722
2718	0.00789516
2730	0.00986895
2742	0.0126886
2754	0.0138165
2766	0.0129706
2778	0.0140985
2790	0.0179051
2802	0.0219937
2814	0.028479
2826	0.0398988
2838	0.0602006
2850	0.0991125
2862	0.167772
2874	0.249543
2886	0.283944
2898	0.267167
2910	0.295223
2922	0.405896
2934	0.524746
2946	0.588189
2958	0.6154
2970	0.640918
2982	0.443116
2994	0.181589
3006	0.0833221
3018	0.0479349
3030	0.0353872
3042	0.027774
3054	0.0231215
3066	0.018892
3078	0.0160723
3090	0.0139575
3102	0.0121247
3114	0.0102919
3126	0.00930501
3138	0.00986895
3150	0.0105739
3162	0.0105739
3174	0.0108558
3186	0.00958698
3198	0.00817713
3210	0.00549841
3222	0.00394758
3234	0.00267871
3246	0.00239675
3258	0.00169182
3270	0.00239675
3282	0.00267871
3294	0.00267871
3306	0.00394758
3318	0.00549841
3330	0.00648531
3342	0.00493447
3354	0.00535743
3366	0.00549841
3378	0.0100099
3390	0.0207248
3402	0.0424365
3414	0.0769778
3426	0.107995
3438	0.136051
3450	0.110391
3462	0.0448332
3474	0.0242494
3486	0.0198789
3498	0.0256593
3510	0.0382069
3522	0.0600596
3534	0.0706335
3546	0.085014
3558	0.125618
3570	0.107149
3582	0.0393348
3594	0.0128296
3606	0.00479349
3618	0.00394758
3630	0.00296068
3642	0.00084591
3654	0.00056394
3666	0.00056394
3678	0.00267871
3690	0.000704925
3702	0.00112788
3714	0.00084591
3726	0.00084591
3738	0.00112788
3750	0.000140985
3762	0.00028197
3774	0.000140985
3786	0.000986895
3798	0.000704925
3810	0.000140985
3822	0.00155083
3834	0.00225576
3846	0.000704925
3858	0.00197379
3870	0.000422955
3882	0.00169182
3894	0.00211477
3906	0.00126886
3918	0.0018328
3930	0.00225576
3942	0.00028197
3954	0.00253773
3966	0.00155083
