Infrared Spectrum: 1,3-Benzenedicarbonitrile
Formula: C 8 H 4 N 2
CAS: 626-17-5
Origin: Sadtler Research Labs Under US-EPA Contract
1/CM	ABSORBANCE
450	0.0190641
462	0.020583
474	0.0428943
486	0.11847
498	0.185037
510	0.0385996
522	0.01456
534	0.0129364
546	0.00319481
558	0.0054469
570	0.00130935
582	0.00418992
594	0.00508028
606	0.00309007
618	0.00717524
630	0.00654675
642	0.0140362
654	0.0270774
666	0.117684
678	0.352687
690	0.225261
702	0.0673006
714	0.0273392
726	0.0294342
738	0.0350906
750	0.0218923
762	0.0237254
774	0.0388091
786	0.197974
798	0.52374
810	0.276797
822	0.0434704
834	0.0118889
846	0.0388091
858	0.0490221
870	0.0241444
882	0.0526882
894	0.164821
906	0.232698
918	0.0912879
930	0.012046
942	0.00974156
954	0.0155551
966	0.00701812
978	0.0101082
990	0.0109462
1002	0.00864171
1014	0.00780373
1026	0.00549927
1038	0.0102653
1050	0.0178595
1062	0.0152408
1074	0.012046
1086	0.0279153
1098	0.0426848
1110	0.0248776
1122	0.00848459
1134	0.012884
1146	0.0175977
1158	0.00748948
1170	0.024092
1182	0.0222589
1194	0.00345668
1206	0.00319481
1218	0.00350906
1230	0.00487078
1242	0.00675625
1254	0.0157646
1266	0.0192736
1278	0.00858934
1290	0.00727999
1302	0.00597064
1314	0.0177548
1326	0.02493
1338	0.0169692
1350	0.0213686
1362	0.013722
1374	0.00727999
1386	0.00612776
1398	0.012465
1410	0.0488126
1422	0.0624822
1434	0.0296961
1446	0.00885121
1458	0.0134077
1470	0.10789
1482	0.220966
1494	0.0473461
1506	0.00597064
1518	0.00335194
1530	0.00508028
1542	0.00576114
1554	0.0109462
1566	0.033467
1578	0.0675625
1590	0.072119
1602	0.0443608
1614	0.0255061
1626	0.00837984
1638	0.00356143
1650	0.00209496
1662	0.00424229
1674	0.00350906
1686	0.0054469
1698	0.00602301
1710	0.0217352
1722	0.057559
1734	0.0367142
1746	0.0131459
1758	0.0114699
1770	0.0143505
1782	0.0129364
1794	0.0195879
1806	0.0284915
1818	0.018907
1830	0.00995106
1842	0.0175977
1854	0.0170739
1866	0.00738473
1878	0.00628488
1890	0.0131982
1902	0.0331004
1914	0.0202164
1926	0.00429467
1938	0.00492316
1950	0.0144552
1962	0.0223637
1974	0.0142981
1986	0.00272345
1998	0.00136172
2010	0.00078561
2022	0.000576114
2034	0.000890358
2046	0.00214733
2058	0.00288057
2070	0.00230446
2082	0.00214733
2094	0.0012046
2106	0.000628488
2118	0.00146647
2130	0.00130935
2142	0.000628488
2154	0.000680862
2166	0.000995106
2178	0.00104748
2190	0.00188546
2202	0.00162359
2214	0.0024092
2226	0.018069
2238	0.0660436
2250	0.0442037
2262	0.00335194
2274	0.00518503
2286	0.00309007
2298	0.00183309
2310	0.00115223
2322	0.00136172
2334	0.000418992
2346	0.00796085
2358	0.00827509
2370	0.00204259
2382	0.0038233
2394	0.0040328
2406	0.00481841
2418	0.0054469
2430	0.00434704
2442	0.00235683
2454	0.00267107
2466	0.00267107
2478	0.00204259
2490	0.000837984
2502	0.000576114
2514	0.000471366
2526	0.00052374
2538	5.2374e-05
2550	0.000733236
2562	0.0012046
2574	0.00225208
2586	0.00288057
2598	0.00366618
2610	0.00267107
2622	0.0014141
2634	0.000628488
2646	0.00078561
2658	0.000628488
2670	0.000837984
2682	0.00335194
2694	0.00591826
2706	0.00366618
2718	0.00214733
2730	0.0040328
2742	0.00408517
2754	0.00204259
2766	0.000733236
2778	0.000942732
2790	0.00199021
2802	0.00340431
2814	0.0052374
2826	0.0066515
2838	0.00628488
2850	0.00460891
2862	0.00193784
2874	0.00157122
2886	0.00157122
2898	0.00183309
2910	0.0014141
2922	0.00157122
2934	0.00267107
2946	0.00418992
2958	0.00366618
2970	0.00193784
2982	0.00125698
2994	0.00130935
3006	0.00146647
3018	0.00172834
3030	0.00303769
3042	0.00612776
3054	0.00759423
3066	0.0134077
3078	0.045094
3090	0.0473985
3102	0.0188023
3114	0.0118889
3126	0.00581351
3138	0.00398042
3150	0.00193784
3162	0.00188546
3174	0.00267107
3186	0.00246158
3198	0.00225208
3210	0.000890358
3222	0.000314244
3234	0.00078561
3246	0.00026187
3258	0.000104748
3270	0.000471366
3282	0
3294	0.000471366
3306	0.000471366
3318	0.000418992
3330	0.000471366
3342	0.000733236
3354	0.000680862
3366	0.00188546
3378	0.00377093
3390	0.00309007
3402	0.00219971
3414	0.00183309
3426	0.00246158
3438	0.00314244
3450	0.00256633
3462	0.0054469
3474	0.00843221
3486	0.00649438
3498	0.00199021
3510	0.00162359
3522	0.00277582
3534	0.00371855
3546	0.00319481
3558	0.00256633
3570	0.00183309
3582	0.00183309
3594	0.00162359
3606	0.00130935
3618	0.000733236
3630	0.00104748
3642	0.00125698
3654	0.00193784
3666	0.00162359
3678	0.00136172
3690	0.00136172
3702	0.00130935
3714	0.00225208
3726	0.00309007
3738	0.0028282
3750	0.00188546
3762	0.00219971
3774	0.00256633
3786	0.00335194
3798	0.00314244
3810	0.00434704
3822	0.00439942
3834	0.00340431
3846	0.00398042
3858	0.00335194
3870	0.0014141
3882	0.00167597
3894	0.00136172
3906	0.00157122
3918	0.0014141
3930	0.00267107
3942	0.00408517
3954	0.00293294
3966	0.0038233
