Infrared Spectrum: 2-Hexanol
Formula: C 6 H 14 O
CAS: 626-93-7
Origin: Sadtler Research Labs Under US-EPA Contract
1/CM	ABSORBANCE
450	0.0353943
462	0.00640469
474	0.0200006
486	0.0142701
498	0.0198883
510	0.015169
522	0.00595524
534	0.00573051
546	0.00617996
558	0.00101127
570	0.0129217
582	0.00887668
594	0.00662942
606	0.012697
618	0.00887668
630	0.0101127
642	0.0101127
654	0.0101127
666	0.0132588
678	0.0161803
690	0.0100003
702	0.0134836
714	0.0168544
726	0.0206748
738	0.0250569
750	0.0228097
762	0.0165174
774	0.0216861
786	0.0230344
798	0.0228097
810	0.0252817
822	0.0276413
834	0.0437092
846	0.0507881
858	0.0356191
870	0.0351696
882	0.041799
894	0.0407878
906	0.0505633
918	0.085733
930	0.127307
942	0.129892
954	0.0776428
966	0.0507881
978	0.0598895
990	0.075845
1002	0.104161
1014	0.148094
1026	0.176635
1038	0.186635
1050	0.187309
1062	0.179668
1074	0.187534
1086	0.213153
1098	0.197759
1110	0.166747
1122	0.180343
1134	0.203377
1146	0.197984
1158	0.138768
1170	0.0802272
1182	0.0623615
1194	0.0688785
1206	0.089778
1218	0.111127
1230	0.13124
1242	0.161241
1254	0.15978
1266	0.120004
1278	0.0879802
1290	0.0737101
1302	0.0691032
1314	0.0655076
1326	0.0688785
1338	0.0875308
1350	0.114161
1362	0.151016
1374	0.226187
1386	0.270121
1398	0.190118
1410	0.105958
1422	0.0676425
1434	0.0715752
1446	0.108767
1458	0.156859
1470	0.149218
1482	0.0878679
1494	0.0395518
1506	0.0204501
1518	0.0148319
1530	0.0120228
1542	0.0104498
1554	0.00921377
1566	0.00662942
1578	0.00640469
1590	0.0060676
1602	0.00561815
1614	0.00528106
1626	0.00550579
1638	0.00438216
1650	0.00348325
1662	0.00483161
1674	0.00438216
1686	0.00584288
1698	0.00483161
1710	0.00314616
1722	0.00460688
1734	0.00471925
1746	0.0030338
1758	0.00370798
1770	0.00269671
1782	0.00292144
1794	0.00280907
1806	0.00191017
1818	0.00202253
1830	0.00235962
1842	0.00235962
1854	0.00235962
1866	0.00258435
1878	0.00224726
1890	0.00235962
1902	0.00157308
1914	0.000898904
1926	0.00123599
1938	0.00101127
1950	0.00157308
1962	0.00123599
1974	0.00123599
1986	0.000786541
1998	0.00146072
2010	0.00101127
2022	0.00123599
2034	0.00168544
2046	0.00202253
2058	0.00134836
2070	0.00157308
2082	0.000561815
2094	0.000561815
2106	0.000898904
2118	0.000674178
2130	0.00101127
2142	0.00134836
2154	0.00168544
2166	0.00191017
2178	0.0021349
2190	0.00157308
2202	0.00179781
2214	0.00202253
2226	0.00157308
2238	0.00112363
2250	0.00101127
2262	0.00157308
2274	0.00134836
2286	0.00112363
2298	0.000224726
2310	0.000674178
2322	0.00247199
2334	0.00404507
2346	0.00404507
2358	0.00404507
2370	0.00483161
2382	0.00292144
2394	0.00337089
2406	0.00325853
2418	0.0030338
2430	0.00247199
2442	0.00202253
2454	0.00191017
2466	0.00157308
2478	0.00235962
2490	0.00191017
2502	0.00146072
2514	0.00235962
2526	0.00269671
2538	0.00325853
2550	0.0039327
2562	0.00471925
2574	0.00617996
2586	0.00831486
2598	0.00887668
2610	0.011461
2622	0.0131465
2634	0.0144948
2646	0.0165174
2658	0.017641
2670	0.0189893
2682	0.0185399
2694	0.017641
2706	0.0166297
2718	0.0184275
2730	0.0214613
2742	0.025394
2754	0.0276413
2766	0.025394
2778	0.0284278
2790	0.0337089
2802	0.0423609
2814	0.0534848
2826	0.072137
2838	0.113599
2850	0.208096
2862	0.367876
2874	0.533724
2886	0.573838
2898	0.482262
2910	0.5335
2922	0.795418
2934	1.05161
2946	1.0061
2958	0.902387
2970	1.12363
2982	0.852498
2994	0.335853
3006	0.103823
3018	0.0571928
3030	0.043035
3042	0.0335965
3054	0.0259559
3066	0.0203377
3078	0.0170792
3090	0.0160679
3102	0.0142701
3114	0.012697
3126	0.0132588
3138	0.0111239
3150	0.0100003
3162	0.00955085
3174	0.0112363
3186	0.0108992
3198	0.0101127
3210	0.00595524
3222	0.00505633
3234	0.000898904
3246	0.00101127
3258	0.000561815
3270	0.00123599
3282	0.00157308
3294	0.000337089
3306	0.00235962
3318	0.00550579
3330	0.00269671
3342	0.0039327
3354	0.0051687
3366	0.00415743
3378	0.00528106
3390	0.00438216
3402	0.00617996
3414	0.00595524
3426	0.00719123
3438	0.00483161
3450	0.00662942
3462	0.00505633
3474	0.00539342
3486	0.00494397
3498	0.00348325
3510	0.00337089
3522	0.00314616
3534	0.00573051
3546	0.00269671
3558	0.00179781
3570	0.00483161
3582	0.00539342
3594	0.00404507
3606	0.00988794
3618	0.0123599
3630	0.0300009
3642	0.0593277
3654	0.0943849
3666	0.0860701
3678	0.0313493
3690	0.0130341
3702	0.00932613
3714	0.00584288
3726	0.00505633
3738	0.0051687
3750	0.00247199
3762	0.00483161
3774	0.00573051
3786	0.00696651
3798	0.00404507
3810	0.00674178
3822	0.00573051
3834	0.00674178
3846	0.00719123
3858	0.00775305
3870	0.00617996
3882	0.00595524
3894	0.0051687
3906	0.00528106
3918	0.00460688
3930	0.00337089
3942	0.00269671
3954	0.00876431
3966	0.00112363
