Infrared Spectrum: Benzene, 1,3-bis(chloromethyl)-
Formula: C 8 H 8 Cl 2
CAS: 626-16-4
Origin: Sadtler Research Labs Under US-EPA Contract
1/CM	ABSORBANCE
450	0
462	0.0156238
474	0.00767483
486	0.0131568
498	0.0172684
510	0.0243036
522	0.0178166
534	0.0370036
546	0.0866159
558	0.0586576
570	0.0639569
582	0.0801289
594	0.0976713
606	0.0490641
618	0.0269533
630	0.0277756
642	0.0264964
654	0.0372777
666	0.0581094
678	0.146644
690	0.225768
702	0.482235
714	0.91367
726	0.534954
738	0.304252
750	0.228143
762	0.200002
774	0.159161
786	0.145639
798	0.104158
810	0.0414806
822	0.0257655
834	0.019918
846	0.0175425
858	0.0179993
870	0.0218367
882	0.0310648
894	0.0499777
906	0.0524447
918	0.0495209
930	0.0498864
942	0.0508001
954	0.0529015
966	0.0291461
978	0.0224763
990	0.0212885
1002	0.0197353
1014	0.0180907
1026	0.0142533
1038	0.0148928
1050	0.0125173
1062	0.0126086
1074	0.0235727
1086	0.0529929
1098	0.0374605
1110	0.0210144
1122	0.0249432
1134	0.0306993
1146	0.0521706
1158	0.126178
1170	0.0528101
1182	0.031613
1194	0.0224763
1206	0.0222022
1218	0.0279583
1230	0.039836
1242	0.0825958
1254	0.260213
1266	0.57817
1278	0.292923
1290	0.175516
1302	0.0943821
1314	0.0550943
1326	0.0332576
1338	0.0211971
1350	0.0151669
1362	0.013705
1374	0.0143446
1386	0.0162633
1398	0.0224763
1410	0.0286892
1422	0.040841
1434	0.0878037
1446	0.160623
1458	0.106351
1470	0.0543634
1482	0.0595713
1494	0.106625
1506	0.0332576
1518	0.0165374
1530	0.0133396
1542	0.0140705
1554	0.0149842
1566	0.0177252
1578	0.024395
1590	0.0410238
1602	0.0613073
1614	0.0847886
1626	0.0272274
1638	0.0148928
1650	0.0134309
1662	0.0127
1674	0.013705
1686	0.0166288
1698	0.0212885
1710	0.0225676
1722	0.0186389
1734	0.0149842
1746	0.0140705
1758	0.0167202
1770	0.0185475
1782	0.0175425
1794	0.0167202
1806	0.0158065
1818	0.0162633
1830	0.0166288
1842	0.0160806
1854	0.0155324
1866	0.0177252
1878	0.0221108
1890	0.0158979
1902	0.0110554
1914	0.0094108
1926	0.0127
1938	0.0217453
1950	0.0190043
1962	0.0085885
1974	0.00794893
1986	0.00749209
1998	0.00730936
2010	0.00749209
2022	0.00794893
2034	0.00922807
2046	0.010964
2058	0.0101417
2070	0.00922807
2082	0.0085885
2094	0.00849713
2106	0.00904533
2118	0.00931943
2130	0.00877123
2142	0.0083144
2154	0.0080403
2166	0.0085885
2178	0.00922807
2190	0.00895397
2202	0.00922807
2214	0.00904533
2226	0.00904533
2238	0.00931943
2250	0.00931943
2262	0.0100504
2274	0.0096849
2286	0.00977627
2298	0.0105072
2310	0.0102331
2322	0.0105986
2334	0.0127914
2346	0.015441
2358	0.0114209
2370	0.0128827
2382	0.0116036
2394	0.0108727
2406	0.0108727
2418	0.0094108
2430	0.0088626
2442	0.00877123
2454	0.00922807
2466	0.00895397
2478	0.00904533
2490	0.00849713
2502	0.00822303
2514	0.00794893
2526	0.0080403
2538	0.0083144
2550	0.00794893
2562	0.0080403
2574	0.00849713
2586	0.00904533
2598	0.00986764
2610	0.0107813
2622	0.00959354
2634	0.0085885
2646	0.00877123
2658	0.00931943
2670	0.0096849
2682	0.0117863
2694	0.013705
2706	0.0156238
2718	0.016172
2730	0.0148015
2742	0.0127
2754	0.0125173
2766	0.0108727
2778	0.0110554
2790	0.009959
2802	0.0110554
2814	0.0105072
2826	0.0119691
2838	0.0155324
2850	0.0211971
2862	0.0250346
2874	0.0346281
2886	0.0428511
2898	0.0310648
2910	0.0229331
2922	0.0236641
2934	0.0418461
2946	0.0720886
2958	0.114483
2970	0.198815
2982	0.121701
2994	0.0790325
3006	0.101143
3018	0.0861591
3030	0.120422
3042	0.143812
3054	0.113204
3066	0.142624
3078	0.130746
3090	0.054272
3102	0.0359072
3114	0.0368209
3126	0.0217453
3138	0.0121518
3150	0.0101417
3162	0.009959
3174	0.0100504
3186	0.0096849
3198	0.00986764
3210	0.0100504
3222	0.0085885
3234	0.0085885
3246	0.00895397
3258	0.0083144
3270	0.00867987
3282	0.0083144
3294	0.0080403
3306	0.00767483
3318	0.00849713
3330	0.00895397
3342	0.00877123
3354	0.00822303
3366	0.0083144
3378	0.0083144
3390	0.00849713
3402	0.00867987
3414	0.00849713
3426	0.00776619
3438	0.0085885
3450	0.00849713
3462	0.00849713
3474	0.00849713
3486	0.0085885
3498	0.00931943
3510	0.00895397
3522	0.00813166
3534	0.0091367
3546	0.00794893
3558	0.0091367
3570	0.00922807
3582	0.0091367
3594	0.00922807
3606	0.00922807
3618	0.0096849
3630	0.00977627
3642	0.00959354
3654	0.00922807
3666	0.0088626
3678	0.0088626
3690	0.00822303
3702	0.0096849
3714	0.00959354
3726	0.00922807
3738	0.00959354
3750	0.00959354
3762	0.00950217
3774	0.0088626
3786	0.009959
3798	0.00959354
3810	0.0108727
3822	0.0105072
3834	0.0094108
3846	0.00977627
3858	0.00977627
3870	0.0112381
3882	0.0110554
3894	0.0094108
3906	0.0115122
3918	0.00977627
3930	0.0102331
3942	0.0102331
3954	0.0107813
3966	0.009959
