Infrared Spectrum: 4-Heptanone, 2-methyl-
Formula: C 8 H 16 O
CAS: 626-33-5
Origin: Sadtler Research Labs Under US-EPA Contract
1/CM	ABSORBANCE
450	0.0113718
462	0.0121678
474	0.0151245
486	0.0103483
498	0.0158068
510	0.00955231
522	0.0208104
534	0.0203555
546	0.0267237
558	0.0108032
570	0.0168303
582	0.0114855
594	0.0210378
606	0.0171714
618	0.0231985
630	0.0244494
642	0.022971
654	0.0222887
666	0.0159205
678	0.00670936
690	0.0142147
702	0.00887
714	0.0122815
726	0.0171714
738	0.0142147
750	0.0234259
762	0.0181949
774	0.0271786
786	0.0186498
798	0.0162617
810	0.0147833
822	0.0105758
834	0.0137599
846	0.0128501
858	0.0127364
870	0.0164891
882	0.0225162
894	0.0284295
906	0.0297941
918	0.025018
930	0.0231985
942	0.0231985
954	0.0325233
966	0.0254728
978	0.0168303
990	0.0187635
1002	0.0350251
1014	0.0591334
1026	0.111785
1038	0.147265
1050	0.102346
1062	0.0687994
1074	0.0501496
1086	0.0534475
1098	0.0616352
1110	0.0869943
1122	0.114855
1134	0.129411
1146	0.168189
1158	0.176831
1170	0.188317
1182	0.117698
1194	0.0669799
1206	0.0542435
1218	0.0583373
1230	0.0618626
1242	0.0523103
1254	0.0485576
1266	0.0581099
1278	0.0892686
1290	0.120427
1302	0.105417
1314	0.0747127
1326	0.0756225
1338	0.116447
1350	0.183655
1362	0.299192
1374	0.269739
1386	0.163299
1398	0.114514
1410	0.100186
1422	0.10337
1434	0.0947271
1446	0.10246
1458	0.15079
1470	0.168075
1482	0.106326
1494	0.047193
1506	0.0285432
1518	0.0194458
1530	0.0135324
1542	0.0148971
1554	0.0123953
1566	0.0106895
1578	0.0109169
1590	0.00841513
1602	0.0103483
1614	0.0121678
1626	0.0137599
1638	0.0172851
1650	0.0199006
1662	0.0187635
1674	0.0311587
1686	0.05322
1698	0.107464
1710	0.294302
1722	0.624653
1734	0.546529
1746	0.208559
1758	0.0891549
1770	0.0724384
1782	0.060498
1794	0.0445775
1806	0.0262689
1818	0.0159205
1830	0.011713
1842	0.00932488
1854	0.00727795
1866	0.00670936
1878	0.00602705
1890	0.00591334
1902	0.00545846
1914	0.00557218
1926	0.00477616
1938	0.00398013
1950	0.00375269
1962	0.00363898
1974	0.00329782
1986	0.00341154
1998	0.00295667
2010	0.00329782
2022	0.0031841
2034	0.00329782
2046	0.00307039
2058	0.00363898
2070	0.00329782
2082	0.00363898
2094	0.00352526
2106	0.00329782
2118	0.00329782
2130	0.00284295
2142	0.00295667
2154	0.00329782
2166	0.00352526
2178	0.00398013
2190	0.00375269
2202	0.00329782
2214	0.0031841
2226	0.00272923
2238	0.00284295
2250	0.0025018
2262	0.0025018
2274	0.0025018
2286	0.00193321
2298	0.00113718
2310	0.0012509
2322	0.00193321
2334	0.00409385
2346	0.00352526
2358	0.00375269
2370	0.0025018
2382	0.00227436
2394	0.00329782
2406	0.00363898
2418	0.00363898
2430	0.00363898
2442	0.0031841
2454	0.00295667
2466	0.00329782
2478	0.00295667
2490	0.0031841
2502	0.00363898
2514	0.0031841
2526	0.00284295
2538	0.0031841
2550	0.00307039
2562	0.00329782
2574	0.00363898
2586	0.00409385
2598	0.00488987
2610	0.00511731
2622	0.00602705
2634	0.00625449
2646	0.00716423
2658	0.00761911
2670	0.0081877
2682	0.00887
2694	0.00887
2706	0.00989347
2718	0.0121678
2730	0.0170577
2742	0.0203555
2754	0.0192183
2766	0.0184223
2778	0.0202418
2790	0.0237671
2802	0.0303627
2814	0.038323
2826	0.0467381
2838	0.0591334
2850	0.0810809
2862	0.127592
2874	0.293051
2886	0.472726
2898	0.424054
2910	0.403585
2922	0.419392
2934	0.523103
2946	0.656267
2958	0.841627
2970	1.13718
2982	0.68879
2994	0.254956
3006	0.104052
3018	0.0569727
3030	0.0369584
3042	0.0276335
3054	0.0225162
3066	0.0192183
3078	0.0173989
3090	0.0166028
3102	0.0146696
3114	0.014101
3126	0.012509
3138	0.0137599
3150	0.012509
3162	0.013305
3174	0.0134187
3186	0.0131913
3198	0.0119404
3210	0.0101209
3222	0.00636821
3234	0.00466244
3246	0.00409385
3258	0.00409385
3270	0.00307039
3282	0.00272923
3294	0.00363898
3306	0.00352526
3318	0.00272923
3330	0.00398013
3342	0.00363898
3354	0.00477616
3366	0.00398013
3378	0.00398013
3390	0.00420757
3402	0.00602705
3414	0.00670936
3426	0.0110306
3438	0.0126227
3450	0.0081877
3462	0.00420757
3474	0.00193321
3486	0.00159205
3498	0.0012509
3510	0.00147833
3522	0.00159205
3534	0.00238808
3546	0.00261551
3558	0.00614077
3570	0.0146696
3582	0.0148971
3594	0.00739167
3606	0.00329782
3618	0.0025018
3630	0.00284295
3642	0.00204692
3654	0.00477616
3666	0.00363898
3678	0.00670936
3690	0.00466244
3702	0.00261551
3714	0.00386641
3726	0.00329782
3738	0.00398013
3750	0.00375269
3762	0.00329782
3774	0.00386641
3786	0.00386641
3798	0.00557218
3810	0.00534475
3822	0.0056859
3834	0.00727795
3846	0.00227436
3858	0.00523103
3870	0.00466244
3882	0.00284295
3894	0.004435
3906	0.00557218
3918	0.00420757
3930	0.00511731
3942	0.00523103
3954	0.00784654
3966	0.00466244
