Infrared Spectrum: Benzenamine, 3,5-dichloro-
Formula: C 6 H 5 Cl 2 N
CAS: 626-43-7
Origin: Sadtler Research Labs Under US-EPA Contract
1/CM	ABSORBANCE
450	0.112427
462	0.0190579
474	0.0103415
486	0.0298427
498	0.0292517
510	0.0533327
522	0.0344225
534	0.0330929
546	0.0358998
558	0.0217172
570	0.0296949
582	0.0358998
594	0.0260015
606	0.0183193
618	0.00590944
630	0.012853
642	0.0401842
654	0.182306
666	0.608229
678	0.563761
690	0.202398
702	0.142418
714	0.120257
726	0.0797774
738	0.0623446
750	0.0326497
762	0.0301381
774	0.0595376
786	0.199444
798	0.604536
810	0.488563
822	0.446458
834	0.566124
846	0.325019
858	0.107552
870	0.0489006
882	0.0283653
894	0.0251151
906	0.0332406
918	0.076084
930	0.26622
942	0.346589
954	0.0750499
966	0.0214217
978	0.0265925
990	0.0865733
1002	0.0573216
1014	0.00812548
1026	0.00915963
1038	0.0137394
1050	0.0385591
1062	0.0861301
1074	0.1207
1086	0.0800729
1098	0.159555
1110	0.302416
1122	0.151134
1134	0.0270357
1146	0.00871642
1158	0.00384114
1170	0.00192057
1182	0.00295472
1194	0.00590944
1206	0.00975058
1218	0.0125576
1230	0.0130008
1242	0.0252629
1254	0.0302859
1266	0.0444685
1278	0.10962
1290	0.182897
1302	0.10829
1314	0.0138872
1326	0.0118189
1338	0.0260015
1350	0.0376727
1362	0.0633787
1374	0.0595376
1386	0.0421048
1398	0.0858346
1410	0.198853
1422	0.184227
1434	0.354419
1446	0.673528
1458	0.493438
1470	0.123803
1482	0.0750499
1494	0.0740157
1506	0.0824367
1518	0.0635265
1530	0.109916
1542	0.184227
1554	0.202251
1566	0.616946
1578	1.25827
1590	1.19105
1602	1.19105
1614	0.752419
1626	0.923941
1638	0.548248
1650	0.251447
1662	0.100017
1674	0.078891
1686	0.0707655
1698	0.0685495
1710	0.0455027
1722	0.0239332
1734	0.0199444
1746	0.0132962
1758	0.0107847
1770	0.013444
1782	0.0122621
1794	0.0125576
1806	0.0104893
1818	0.0090119
1830	0.00915963
1842	0.00768227
1854	0.00709133
1866	0.00886416
1878	0.00590944
1890	0.00664812
1902	0.00694359
1914	0.00930737
1926	0.0109325
1938	0.0132962
1950	0.0138872
1962	0.0101938
1974	0.00886416
1986	0.00975058
1998	0.00960284
2010	0.00827322
2022	0.00679586
2034	0.00487529
2046	0.00650038
2058	0.00783001
2070	0.00650038
2082	0.00517076
2094	0.0053185
2106	0.00664812
2118	0.0073868
2130	0.00590944
2142	0.00457982
2154	0.00517076
2166	0.00561397
2178	0.00635265
2190	0.00561397
2202	0.00635265
2214	0.00827322
2226	0.00620491
2238	0.0036934
2250	0.00325019
2262	0.00398887
2274	0.00605718
2286	0.00561397
2298	0.00398887
2310	0.00280698
2322	0.00073868
2334	0.00118189
2346	0.00487529
2358	0.00413661
2370	0.00915963
2382	0.00856869
2394	0.00679586
2406	0.00664812
2418	0.00310246
2430	0.00265925
2442	0.00221604
2454	0.00103415
2466	0.00103415
2478	0.00132962
2490	0.00103415
2502	0.00236378
2514	0.00280698
2526	0.00398887
2538	0.0053185
2550	0.00694359
2562	0.00753454
2574	0.00472755
2586	0.00487529
2598	0.00339793
2610	0.00147736
2622	0.00118189
2634	0.00221604
2646	0.00325019
2658	0.00428434
2670	0.00797774
2682	0.0131485
2694	0.01566
2706	0.0125576
2718	0.010046
2730	0.0113757
2742	0.010046
2754	0.00650038
2766	0.00354566
2778	0.00265925
2790	0.00265925
2802	0.00132962
2814	0.00192057
2826	0.00251151
2838	0.00339793
2850	0.00679586
2862	0.00768227
2874	0.00546623
2886	0.00472755
2898	0.00546623
2910	0.0053185
2922	0.00251151
2934	0.00177283
2946	0.00221604
2958	0.00177283
2970	0.00280698
2982	0.00265925
2994	0.00265925
3006	0.00561397
3018	0.0090119
3030	0.00812548
3042	0.00768227
3054	0.0153645
3066	0.0426957
3078	0.0378204
3090	0.00827322
3102	0.00620491
3114	0.00310246
3126	0.00310246
3138	0.00546623
3150	0.00723906
3162	0.00413661
3174	0.00265925
3186	0.00339793
3198	0.00650038
3210	0.012853
3222	0.018467
3234	0.0138872
3246	0.00723906
3258	0.00517076
3270	0.00398887
3282	0.00265925
3294	0.00221604
3306	0.000886416
3318	0.00265925
3330	0.00132962
3342	0.00221604
3354	0.00177283
3366	0.00502302
3378	0.00960284
3390	0.0199444
3402	0.0586512
3414	0.110654
3426	0.128235
3438	0.111688
3450	0.0255583
3462	0.0094551
3474	0.0166942
3486	0.0416616
3498	0.0715042
3510	0.0577648
3522	0.0806639
3534	0.0517076
3546	0.0053185
3558	0.00709133
3570	0.00457982
3582	0.00339793
3594	0.00354566
3606	0.00221604
3618	0.0020683
3630	0.00310246
3642	0.00251151
3654	0.00384114
3666	0.000886416
3678	0.00398887
3690	0.00325019
3702	0.00325019
3714	0.00457982
3726	0.00502302
3738	0.00487529
3750	0.00590944
3762	0.00413661
3774	0.00443208
3786	0.00546623
3798	0.00443208
3810	0.00457982
3822	0.00679586
3834	0.00989831
3846	0.0153645
3858	0.0168419
3870	0.0115234
3882	0.0057617
3894	0.0073868
3906	0.00768227
3918	0.00413661
3930	0.00989831
3942	0.00960284
3954	0.00871642
3966	0.00856869
