Infrared Spectrum: Hexanoic acid, propyl ester
Formula: C 9 H 18 O 2
CAS: 626-77-7
Origin: Sadtler Research Labs Under US-EPA Contract
1/CM	ABSORBANCE
450	0.0668398
462	0.0297579
474	0.0152418
486	0.032859
498	0.0114809
510	0.0115469
522	0.0180791
534	0.0115469
546	0.022038
558	0.00481669
570	0.00956739
582	0.0137243
594	0.0151099
606	0.0193327
618	0.0198606
630	0.0189368
642	0.0181451
654	0.0121407
666	0.0193327
678	0.0112169
690	0.0128665
702	0.018409
714	0.0206524
726	0.0193987
738	0.0209163
750	0.0209823
762	0.0208503
774	0.0178151
786	0.0181451
798	0.0135263
810	0.014714
822	0.0141861
834	0.0174852
846	0.0230937
858	0.0223019
870	0.0266567
882	0.0269207
894	0.0348385
906	0.0461214
918	0.0430862
930	0.0379397
942	0.0385995
954	0.0451317
966	0.0774629
978	0.0963997
990	0.0890097
1002	0.0818837
1014	0.0612973
1026	0.0420305
1038	0.0552929
1050	0.062485
1062	0.0937604
1074	0.0907253
1086	0.105241
1098	0.158621
1110	0.171751
1122	0.136583
1134	0.11593
1146	0.170761
1158	0.33763
1170	0.563486
1182	0.442739
1194	0.237865
1206	0.201707
1218	0.229947
1230	0.263202
1242	0.284118
1254	0.225592
1266	0.167066
1278	0.144896
1290	0.134339
1302	0.119823
1314	0.11659
1326	0.0965317
1338	0.0958718
1350	0.113027
1362	0.107683
1374	0.080762
1386	0.0905933
1398	0.0738339
1410	0.0436801
1422	0.0461874
1434	0.0601756
1446	0.0719864
1458	0.102932
1470	0.113027
1482	0.0643324
1494	0.0316054
1506	0.0205864
1518	0.0155058
1530	0.0136583
1542	0.0116788
1554	0.0123386
1566	0.0138562
1578	0.0117448
1590	0.0136583
1602	0.0114809
1614	0.0105571
1626	0.0105571
1638	0.00969935
1650	0.00976534
1662	0.0119427
1674	0.0125366
1686	0.0163635
1698	0.0243474
1710	0.0410408
1722	0.0655201
1734	0.142983
1746	0.455276
1758	0.650583
1770	0.261157
1782	0.0776608
1794	0.0376757
1806	0.0226318
1818	0.0160336
1830	0.0122727
1842	0.00996328
1854	0.00811579
1866	0.00699409
1878	0.00712606
1890	0.00679615
1902	0.00620231
1914	0.00580642
1926	0.00646624
1938	0.00593838
1950	0.00534454
1962	0.00481669
1974	0.00448678
1986	0.00428883
1998	0.00448678
2010	0.00527856
2022	0.00613633
2034	0.00560847
2046	0.00560847
2058	0.00547651
2070	0.00547651
2082	0.0051466
2094	0.00442079
2106	0.00481669
2118	0.00409088
2130	0.00376097
2142	0.00323312
2154	0.00283723
2166	0.00270526
2178	0.00237535
2190	0.00191348
2202	0.00237535
2214	0.00224339
2226	0.00204544
2238	0.00178151
2250	0.00224339
2262	0.0025733
2274	0.00237535
2286	0.00303517
2298	0.0040249
2310	0.00501463
2322	0.00316714
2334	0.00158357
2346	0.00428883
2358	0.00211142
2370	0.00263928
2382	0.00310115
2394	0.00164955
2406	0.00178151
2418	0.00138562
2430	0.00098973
2442	0.00105571
2454	0.00065982
2466	0.000395892
2478	0.000263928
2490	0.000725802
2502	0.000923748
2514	0.000461874
2526	0.000593838
2538	0.000725802
2550	0.000923748
2562	0.000791784
2574	0.00118768
2586	0.00164955
2598	0.00164955
2610	0.00230937
2622	0.00343106
2634	0.00369499
2646	0.00356303
2658	0.00382696
2670	0.00488267
2682	0.00640025
2694	0.00633427
2706	0.00534454
2718	0.00646624
2730	0.00818177
2742	0.0100293
2754	0.00936944
2766	0.0080498
2778	0.0080498
2790	0.00870962
2802	0.010953
2814	0.0151759
2826	0.0199266
2838	0.0298239
2850	0.0517299
2862	0.112829
2874	0.176436
2886	0.205072
2898	0.178943
2910	0.177887
2922	0.246839
2934	0.383751
2946	0.44617
2958	0.418854
2970	0.530825
2982	0.418392
2994	0.165483
3006	0.0668398
3018	0.0372798
3030	0.025799
3042	0.0188709
3054	0.0152418
3066	0.0119427
3078	0.00996328
3090	0.0084457
3102	0.00765391
3114	0.00593838
3126	0.00541052
3138	0.00448678
3150	0.00409088
3162	0.00409088
3174	0.00409088
3186	0.00336508
3198	0.00224339
3210	0.0014516
3222	0.00112169
3234	0.00125366
3246	0.00191348
3258	0.00105571
3270	0.000197946
3282	0.00131964
3294	0.00171553
3306	0.00118768
3318	0.00105571
3330	0.000923748
3342	0.0018475
3354	0.00131964
3366	0.000593838
3378	0.00105571
3390	0.00178151
3402	0.000791784
3414	0.000923748
3426	0.00151759
3438	0.00118768
3450	0.000923748
3462	0.00171553
3474	0.00376097
3486	0.00666418
3498	0.00620231
3510	0.00270526
3522	0.00244133
3534	0.00217741
3546	0.0018475
3558	0.00171553
3570	0.00237535
3582	0.00237535
3594	0.0014516
3606	0.0025733
3618	0.00263928
3630	0
3642	0.00224339
3654	0.00105571
3666	0.00204544
3678	0.000725802
3690	0.000593838
3702	0.00237535
3714	0.00277124
3726	0.00230937
3738	0.000923748
3750	0.00263928
3762	0.00395892
3774	0.00389294
3786	0.00270526
3798	0.00217741
3810	0.00415687
3822	0.00316714
3834	0.0025733
3846	0.00455276
3858	0.00468472
3870	0.00356303
3882	0.00356303
3894	0.00448678
3906	0.00488267
3918	0.00567445
3930	0.00468472
3942	0.00461874
3954	0.0040249
3966	0.00468472
