Infrared Spectrum: Pyridine, 3-chloro-
Formula: C 5 H 4 Cl N
CAS: 626-60-8
Origin: Sadtler Research Labs Under US-EPA Contract
1/CM	ABSORBANCE
450	0
462	0.0438906
474	0.0633247
486	0.0366846
498	0.0450552
510	0.047166
522	0.0406879
534	0.0466565
546	0.0470204
558	0.0414158
570	0.0473843
582	0.0517516
594	0.0580112
606	0.103867
618	0.1102
630	0.0829044
642	0.0574289
654	0.0469476
666	0.055027
678	0.139969
690	0.281322
702	0.452371
714	0.232991
726	0.238159
738	0.25097
750	0.0637614
762	0.071404
774	0.161296
786	0.256793
798	0.280012
810	0.185461
822	0.0770086
834	0.0470204
846	0.0449824
858	0.0429443
870	0.0433811
882	0.0440361
894	0.0458558
906	0.0580112
918	0.0651444
930	0.0552453
942	0.0596126
954	0.0513876
966	0.0532801
978	0.0555365
990	0.0593214
1002	0.186262
1014	0.410883
1026	0.421291
1038	0.0748978
1050	0.0497863
1062	0.0487673
1074	0.0754073
1086	0.17891
1098	0.51788
1110	0.68085
1122	0.338532
1134	0.0839234
1146	0.103066
1158	0.127523
1170	0.0935313
1182	0.0799929
1194	0.0660178
1206	0.0492768
1218	0.0477483
1230	0.0473116
1242	0.0444001
1254	0.0446912
1266	0.0427988
1278	0.0412702
1290	0.0433083
1302	0.0558276
1314	0.0743883
1326	0.0733693
1338	0.049204
1350	0.0468748
1362	0.059467
1374	0.0719136
1386	0.117041
1398	0.182841
1410	0.459577
1422	0.404259
1434	0.10838
1446	0.0811575
1458	0.293768
1470	0.383369
1482	0.15853
1494	0.0414886
1506	0.0409063
1518	0.0462925
1530	0.0462925
1542	0.0592486
1554	0.123301
1566	0.187427
1578	0.178037
1590	0.0994998
1602	0.0543719
1614	0.0462925
1626	0.0419253
1638	0.0433083
1650	0.0390866
1662	0.0398873
1674	0.038286
1686	0.0396689
1698	0.0438906
1710	0.0481122
1722	0.0510237
1734	0.0489857
1746	0.0440361
1758	0.0404696
1770	0.0384315
1782	0.0374125
1794	0.0370486
1806	0.0400329
1818	0.044764
1830	0.0484761
1842	0.0544447
1854	0.052625
1866	0.0488401
1878	0.0542991
1890	0.0609955
1902	0.0587391
1914	0.0548814
1926	0.0537168
1938	0.045783
1950	0.0486217
1962	0.0454191
1974	0.0370486
1986	0.0366119
1998	0.0367574
2010	0.0370486
2022	0.0382132
2034	0.0384315
2046	0.0371214
2058	0.0364663
2070	0.0358112
2082	0.0357384
2094	0.0354473
2106	0.0352289
2118	0.0359568
2130	0.0366119
2142	0.0361024
2154	0.0360296
2166	0.0358112
2178	0.0357384
2190	0.0359568
2202	0.0359568
2214	0.0366846
2226	0.0382132
2238	0.037922
2250	0.0364663
2262	0.0353745
2274	0.0349378
2286	0.0350105
2298	0.0342827
2310	0.0333364
2322	0.0331909
2334	0.0350833
2346	0.0362479
2358	0.0337732
2370	0.0377765
2382	0.0375581
2394	0.0373397
2406	0.0383587
2418	0.0391594
2430	0.0410519
2442	0.0410519
2454	0.0377765
2466	0.0362479
2478	0.0361024
2490	0.035884
2502	0.0364663
2514	0.0369758
2526	0.035884
2538	0.0356656
2550	0.0353745
2562	0.0353745
2574	0.035884
2586	0.0366846
2598	0.0381404
2610	0.0375581
2622	0.0353745
2634	0.0354473
2646	0.035884
2658	0.0363207
2670	0.0367574
2682	0.0361751
2694	0.0347922
2706	0.0347922
2718	0.0344283
2730	0.0347922
2742	0.0347922
2754	0.0353745
2766	0.0346466
2778	0.0350105
2790	0.0361024
2802	0.0347194
2814	0.0339187
2826	0.034865
2838	0.0347194
2850	0.0337732
2862	0.0360296
2874	0.037922
2886	0.0368302
2898	0.0345738
2910	0.0353745
2922	0.0355201
2934	0.0360296
2946	0.0366119
2958	0.0394506
2970	0.0490584
2982	0.0510965
2994	0.0480394
3006	0.0548086
3018	0.0684198
3030	0.0718408
3042	0.121918
3054	0.229497
3066	0.268584
3078	0.217924
3090	0.154017
3102	0.0652172
3114	0.0430899
3126	0.042726
3138	0.0462197
3150	0.0425804
3162	0.0364663
3174	0.0353745
3186	0.0345738
3198	0.0347922
3210	0.034501
3222	0.0343555
3234	0.0350105
3246	0.0358112
3258	0.0350105
3270	0.034865
3282	0.0343555
3294	0.034865
3306	0.0347194
3318	0.0346466
3330	0.0351561
3342	0.0346466
3354	0.0342099
3366	0.0343555
3378	0.0346466
3390	0.0345738
3402	0.0350105
3414	0.0349378
3426	0.0342827
3438	0.0346466
3450	0.0351561
3462	0.0336276
3474	0.0333364
3486	0.0342099
3498	0.033846
3510	0.034865
3522	0.0350105
3534	0.0347922
3546	0.0349378
3558	0.034501
3570	0.0353017
3582	0.0345738
3594	0.0350105
3606	0.0341371
3618	0.0350833
3630	0.0349378
3642	0.0354473
3654	0.0352289
3666	0.0345738
3678	0.0375581
3690	0.0364663
3702	0.0363207
3714	0.0362479
3726	0.0354473
3738	0.0358112
3750	0.0363207
3762	0.0354473
3774	0.0351561
3786	0.0367574
3798	0.036903
3810	0.037922
3822	0.0383587
3834	0.0351561
3846	0.0359568
3858	0.0362479
3870	0.0353745
3882	0.0351561
3894	0.0352289
3906	0.0358112
3918	0.0346466
3930	0.0343555
3942	0.0355928
3954	0.0371214
3966	0.0346466
