Infrared Spectrum: Benzene, 1,3-diiodo-
Formula: C 6 H 4 I 2
CAS: 626-00-6
Origin: Sadtler Research Labs Under US-EPA Contract
1/CM	ABSORBANCE
450	0
462	0.0123421
474	0.00992939
486	0.0109502
498	0.00955819
510	0.0120637
522	0.0135485
534	0.00965099
546	0.0145693
558	0.0127133
570	0.00770223
582	0.0103934
594	0.0132701
606	0.0124349
618	0.016518
630	0.0234779
642	0.0193948
654	0.0332217
666	0.100222
678	0.11377
690	0.430583
702	0.19701
714	0.00751664
726	0.0144765
738	0.0225499
750	0.045935
762	0.220581
774	0.263268
786	0.0388824
798	0.0145693
810	0.0112286
822	0.0120637
834	0.018374
846	0.0133629
858	0.0162397
870	0.0440791
882	0.0365624
894	0.0164252
906	0.0144765
918	0.0118781
930	0.0149405
942	0.0121565
954	0.0161469
966	0.0216219
978	0.0321081
990	0.108295
1002	0.0949324
1014	0.0207868
1026	0.0184668
1038	0.0736816
1050	0.14393
1062	0.0616179
1074	0.187823
1086	0.0329433
1098	0.0136413
1110	0.0127133
1122	0.0130845
1134	0.016982
1146	0.0128061
1158	0.0129917
1170	0.0178172
1182	0.0195804
1194	0.0159613
1206	0.0131773
1218	0.0126205
1230	0.0137341
1242	0.0147549
1254	0.0140125
1266	0.0154973
1278	0.0218075
1290	0.0607827
1302	0.0215291
1314	0.0475126
1326	0.0309017
1338	0.0118781
1350	0.018374
1362	0.0433367
1374	0.0631954
1386	0.0870445
1398	0.114884
1410	0.0616179
1422	0.0157757
1434	0.0310873
1446	0.292685
1458	0.3363
1470	0.10347
1482	0.0232923
1494	0.0185596
1506	0.0102078
1518	0.0144765
1530	0.0369336
1542	0.173161
1554	0.808363
1566	0.359778
1578	0.0363768
1590	0.0193948
1602	0.0212507
1614	0.0189308
1626	0.0127133
1638	0.0146621
1650	0.00992939
1662	0.0330361
1674	0.0161469
1686	0.00686705
1698	0.0048255
1710	0.0176316
1722	0.0164252
1734	0.0114142
1746	0.0229211
1758	0.017446
1770	0.0161469
1782	0.02023
1794	0.0219931
1806	0.0208796
1818	0.0172604
1830	0.0135485
1842	0.0173532
1854	0.0269114
1866	0.0326649
1878	0.0182812
1890	0.0141981
1902	0.0159613
1914	0.0170748
1926	0.0240347
1938	0.0241275
1950	0.0177244
1962	0.0164252
1974	0.0159613
1986	0.0153117
1998	0.0146621
2010	0.0147549
2022	0.0140125
2034	0.0149405
2046	0.0142909
2058	0.0141053
2070	0.0143837
2082	0.0139197
2094	0.0132701
2106	0.0133629
2118	0.0133629
2130	0.0130845
2142	0.0135485
2154	0.0141053
2166	0.0132701
2178	0.0140125
2190	0.0128989
2202	0.0115998
2214	0.0116925
2226	0.0116925
2238	0.0119709
2250	0.0122493
2262	0.0109502
2274	0.0115998
2286	0.0116925
2298	0.0114142
2310	0.0118781
2322	0.0124349
2334	0.0131773
2346	0.0141053
2358	0.0145693
2370	0.0115998
2382	0.0111358
2394	0.0124349
2406	0.00974379
2418	0.0090942
2430	0.00863021
2442	0.00872301
2454	0.00965099
2466	0.00965099
2478	0.0093726
2490	0.00881581
2502	0.009187
2514	0.00825902
2526	0.00788783
2538	0.00816622
2550	0.00872301
2562	0.00872301
2574	0.00825902
2586	0.00825902
2598	0.0118781
2610	0.0094654
2622	0.00751664
2634	0.00733104
2646	0.00584627
2658	0.00547508
2670	0.00538228
2682	0.00417591
2694	0.0046399
2706	0.00501109
2718	0.00519669
2730	0.00566068
2742	0.00584627
2754	0.00519669
2766	0.00547508
2778	0.00593907
2790	0.00705265
2802	0.00649586
2814	0.00621747
2826	0.00677425
2838	0.00668146
2850	0.00603187
2862	0.00519669
2874	0.0047327
2886	0.0048255
2898	0.00603187
2910	0.00547508
2922	0.0048255
2934	0.00436151
2946	0.00528949
2958	0.00528949
2970	0.00593907
2982	0.00825902
2994	0.00788783
3006	0.00631026
3018	0.00621747
3030	0.00714545
3042	0.0145693
3054	0.0444502
3066	0.0584627
3078	0.0412023
3090	0.0180028
3102	0.0135485
3114	0.0178172
3126	0.0121565
3138	0.00575348
3150	0.00519669
3162	0.00501109
3174	0.00528949
3186	0.0046399
3198	0.00491829
3210	0.00528949
3222	0.00501109
3234	0.00510389
3246	0.00501109
3258	0.0048255
3270	0.00528949
3282	0.00519669
3294	0.00547508
3306	0.00501109
3318	0.0046399
3330	0.00538228
3342	0.00538228
3354	0.00538228
3366	0.00510389
3378	0.00519669
3390	0.00426871
3402	0.00538228
3414	0.0046399
3426	0.0048255
3438	0.00538228
3450	0.0044543
3462	0.00528949
3474	0.00519669
3486	0.0044543
3498	0.00538228
3510	0.00547508
3522	0.00538228
3534	0.0046399
3546	0.0048255
3558	0.00547508
3570	0.0048255
3582	0.0048255
3594	0.00510389
3606	0.0047327
3618	0.00603187
3630	0.00538228
3642	0.00528949
3654	0.00528949
3666	0.00491829
3678	0.00584627
3690	0.00501109
3702	0.00658866
3714	0.00733104
3726	0.00668146
3738	0.00658866
3750	0.00686705
3762	0.00640306
3774	0.00575348
3786	0.00575348
3798	0.00593907
3810	0.00621747
3822	0.00593907
3834	0.00426871
3846	0.00501109
3858	0.00491829
3870	0.00528949
3882	0.0046399
3894	0.00640306
3906	0.00631026
3918	0.00760944
3930	0.00528949
3942	0.00649586
3954	0.00742384
3966	0.00575348
