Infrared Spectrum: Benzenamine, 3-iodo-
Formula: C 6 H 6 I N
CAS: 626-01-7
Origin: Sadtler Research Labs Under US-EPA Contract
1/CM	ABSORBANCE
450	0.0868515
462	0.0457894
474	0.0675717
486	0.0824023
498	0.0820315
510	0.067201
522	0.0574684
534	0.0582099
546	0.0491262
558	0.041989
570	0.0528339
582	0.0499604
594	0.0334615
606	0.040506
618	0.0425452
630	0.0516289
642	0.116142
654	0.296519
666	0.653842
678	0.609073
690	0.305788
702	0.151272
714	0.106039
726	0.0732259
738	0.0675717
750	0.179079
762	0.427676
774	0.342308
786	0.154701
798	0.0915787
810	0.0795289
822	0.0702598
834	0.118274
846	0.347128
858	0.387912
870	0.138851
882	0.0295684
894	0.0199286
906	0.0167771
918	0.015294
930	0.00843488
942	0.0092691
954	0.0181674
966	0.0316076
978	0.0555219
990	0.245631
1002	0.0644202
1014	0.00176113
1026	0.00491262
1038	0.0115864
1050	0.0515362
1062	0.155814
1074	0.0694256
1086	0.0508874
1098	0.0669229
1110	0.0613614
1122	0.0243777
1134	0.00963986
1146	0.00676644
1158	0.0324419
1170	0.0569123
1182	0.0111229
1194	0.0092691
1206	0.0040784
1218	0.00611761
1230	0.0194651
1242	0.0898176
1254	0.234879
1266	0.230244
1278	0.150437
1290	0.137461
1302	0.105019
1314	0.130602
1326	0.104463
1338	0.0275292
1350	0.0206701
1362	0.00667375
1374	0.00806412
1386	0.035686
1398	0.0645129
1410	0.0388375
1422	0.0583953
1434	0.137368
1446	0.157204
1458	0.125318
1470	0.383463
1482	0.642534
1494	0.140798
1506	0.0887053
1518	0.0696109
1530	0.077397
1542	0.0845342
1554	0.0995501
1566	0.365666
1578	0.850162
1590	0.824301
1602	0.809749
1614	0.694534
1626	0.843673
1638	0.37855
1650	0.11299
1662	0.0638641
1674	0.0599711
1686	0.0657179
1698	0.0466236
1710	0.0298465
1722	0.02549
1734	0.0219678
1746	0.0139037
1758	0.00899103
1770	0.00843488
1782	0.00991794
1794	0.00973256
1806	0.0132548
1818	0.0204847
1830	0.0166844
1842	0.0152013
1854	0.0123279
1866	0.00676644
1878	0.0062103
1890	0.0112156
1902	0.0221531
1914	0.029105
1926	0.0212262
1938	0.012606
1950	0.00991794
1962	0.00787873
1974	0.00695183
1986	0.00787873
1998	0.00787873
2010	0.00815681
2022	0.00778604
2034	0.00685913
2046	0.00602491
2058	0.00389302
2070	0.00259535
2082	0.00491262
2094	0.00806412
2106	0.010196
2118	0.0100106
2130	0.00889834
2142	0.0082495
2154	0.00889834
2166	0.00852757
2178	0.00732259
2190	0.00769335
2202	0.00583953
2214	0.00546877
2226	0.00658106
2238	0.00611761
2250	0.00667375
2262	0.00741528
2274	0.00695183
2286	0.00565415
2298	0.00417109
2310	0.00342957
2322	0.00695183
2334	0.0115864
2346	0.00917641
2358	0.00862026
2370	0.00963986
2382	0.00806412
2394	0.00760066
2406	0.00611761
2418	0.00648837
2430	0.00797143
2442	0.00852757
2454	0.00815681
2466	0.00787873
2478	0.00713721
2490	0.00593222
2502	0.00611761
2514	0.00667375
2526	0.0072299
2538	0.00954717
2550	0.0107522
2562	0.00982525
2574	0.00787873
2586	0.00639568
2598	0.00760066
2610	0.0100106
2622	0.0108448
2634	0.0125133
2646	0.0104741
2658	0.0112156
2670	0.00945448
2682	0.00676644
2694	0.00556146
2706	0.00565415
2718	0.00741528
2730	0.00871295
2742	0.00732259
2754	0.00565415
2766	0.0040784
2778	0.00259535
2790	0.00166844
2802	0.00185382
2814	0.0030588
2826	0.00472724
2838	0.0051907
2850	0.00611761
2862	0.00639568
2874	0.00797143
2886	0.00815681
2898	0.00472724
2910	0.00500531
2922	0.00509801
2934	0.00435648
2946	0.00667375
2958	0.00639568
2970	0.0040784
2982	0.00583953
2994	0.0121425
3006	0.0301246
3018	0.0568196
3030	0.0645129
3042	0.0811046
3054	0.139315
3066	0.153589
3078	0.0912079
3090	0.0703525
3102	0.0304953
3114	0.00593222
3126	0.00324419
3138	0.00278073
3150	0.0030588
3162	0.00222458
3174	0.00268804
3186	0.00342957
3198	0.00704452
3210	0.0111229
3222	0.0148306
3234	0.0146452
3246	0.00695183
3258	0.00556146
3270	0.00444917
3282	0.00278073
3294	0.00324419
3306	0.00194651
3318	0.00194651
3330	0.00213189
3342	0.00185382
3354	0.00426379
3366	0.00787873
3378	0.0113083
3390	0.0270658
3402	0.0715575
3414	0.101126
3426	0.105668
3438	0.0559854
3450	0.012606
3462	0.0107522
3474	0.0230801
3486	0.0532973
3498	0.0658106
3510	0.0581173
3522	0.0608053
3534	0.0123279
3546	0.00194651
3558	0.000185382
3570	0.00185382
3582	0.00250266
3594	0.00185382
3606	0.0020392
3618	0.00120498
3630	0.0040784
3642	0.00278073
3654	0.000463455
3666	0.00315149
3678	0.00268804
3690	0.00324419
3702	0.00268804
3714	0.00389302
3726	0.00444917
3738	0.00556146
3750	0.00259535
3762	0.00129767
3774	0
3786	0
3798	0.00148306
3810	0.000834219
3822	0
3834	0.00528339
3846	0.0124206
3858	0.0110302
3870	0.00120498
3882	0.00240997
3894	0.00092691
3906	0.000834219
3918	0.000185382
3930	0.00546877
3942	0.00787873
3954	0.00240997
3966	0
