Infrared Spectrum: Benzene, 1,3,5-tribromo-
Formula: C 6 H 3 Br 3
CAS: 626-39-1
Origin: Sadtler Research Labs Under US-EPA Contract
1/CM	ABSORBANCE
450	0.00179179
462	0.00530072
474	0.00754046
486	0.011348
498	0.00843635
510	0
522	0.00925759
534	0.00447948
546	0.00485277
558	0.00276235
570	0.00642059
582	0.00694319
594	0.0150063
606	0.0083617
618	0.0120199
630	0.00164248
642	0.00866033
654	0.0647285
666	0.0335214
678	0.00634593
690	0.0138864
702	0.0144837
714	0.0183659
726	0.0510661
738	0.275264
750	0.227334
762	0.0269515
774	0.0197844
786	0.00963088
798	0.0100042
810	0.00679388
822	0.00776443
834	0.0151556
846	0.115944
858	0.046288
870	0.0060473
882	0.0153049
894	0.00813772
906	0.00679388
918	0.00910828
930	0.00716717
942	0.00754046
954	0.00739114
966	0.00716717
978	0.00918293
990	0.0083617
1002	0.00933225
1014	0.0134384
1026	0.00410619
1038	0.00739114
1050	0.00507674
1062	0.0060473
1074	0.0100788
1086	0.0321776
1098	0.0716717
1110	0.0123932
1122	0.00895896
1134	0.00724183
1146	0.00709251
1158	0.00716717
1170	0.00559935
1182	0.00709251
1194	0.00530072
1206	0.00492743
1218	0.00739114
1230	0.00686854
1242	0.00306098
1254	0.00559935
1266	0.00574867
1278	0.00574867
1290	0.00709251
1302	0.00567401
1314	0.00642059
1326	0.0074658
1338	0.0148569
1350	0.0436003
1362	0.0474825
1374	0.0729409
1386	0.0461386
1398	0.113406
1410	0.234874
1422	0.0166487
1434	0.0109747
1446	0.0108254
1458	0.0117213
1470	0.0103775
1482	0.0101535
1494	0.0114227
1506	0.0134384
1518	0.037105
1530	0.0353879
1542	0.110867
1554	0.599952
1566	0.25212
1578	0.0276981
1590	0.00918293
1602	0.00545003
1614	0.00522606
1626	0.0051514
1638	0.00537538
1650	0.00649525
1662	0.00537538
1674	0.00798841
1686	0.0083617
1698	0.00783909
1710	0.0106014
1722	0.0183659
1734	0.0138864
1746	0.0169474
1758	0.00612196
1770	0.00686854
1782	0.00567401
1794	0.00761512
1806	0.00507674
1818	0.00447948
1830	0.0051514
1842	0.00485277
1854	0.00335961
1866	0.0037329
1878	0.00358358
1890	0.0037329
1902	0.00350893
1914	0.00350893
1926	0.00276235
1938	0.00276235
1950	0.00238906
1962	0.00246371
1974	0.00335961
1986	0.00216508
1998	0.002837
2010	0.00223974
2022	0.00276235
2034	0.00261303
2046	0.00268769
2058	0.00261303
2070	0.00209042
2082	0.00291166
2094	0.00261303
2106	0.00179179
2118	0.0023144
2130	0.00186645
2142	0.0023144
2154	0.00261303
2166	0.00216508
2178	0.00298632
2190	0.00253837
2202	0.00179179
2214	0.00276235
2226	0.00186645
2238	0.00179179
2250	0.00186645
2262	0.0023144
2274	0.00268769
2286	0.00253837
2298	0.00403153
2310	0.0060473
2322	0.00649525
2334	0.00731648
2346	0.00821238
2358	0.0131398
2370	0.011572
2382	0.00485277
2394	0.00119453
2406	0.00111987
2418	0.00156782
2430	0.00134384
2442	0.00104521
2454	0.000970554
2466	0.000970554
2478	0.000447948
2490	0.00104521
2502	0.000821238
2514	0.00104521
2526	0.00149316
2538	0.00126919
2550	0.000970554
2562	0.000970554
2574	0.0014185
2586	0.0014185
2598	0.00179179
2610	0.00186645
2622	0.0023144
2634	0.002837
2646	0.00253837
2658	0.00186645
2670	0.00179179
2682	0.00179179
2694	0.000821238
2706	0.00074658
2718	0.000895896
2730	0.00186645
2742	0.000821238
2754	0.000970554
2766	0.000970554
2778	0.00134384
2790	0.00134384
2802	0.00179179
2814	0.00358358
2826	0.002837
2838	0.00126919
2850	0.000821238
2862	0.000821238
2874	0.000895896
2886	0.00074658
2898	0.000671922
2910	0.00156782
2922	0.00179179
2934	0.00104521
2946	0.00164248
2958	0.00216508
2970	0.0014185
2982	0.00179179
2994	0.000223974
3006	0.00119453
3018	0.000970554
3030	0.000821238
3042	0.00074658
3054	0.00156782
3066	0.00164248
3078	0.0023144
3090	0.00470345
3102	0.00306098
3114	0.00447948
3126	0.00328495
3138	0.00156782
3150	0.00156782
3162	0.00111987
3174	0.00111987
3186	0.00126919
3198	0.00164248
3210	0.000970554
3222	0.00149316
3234	0.00149316
3246	0.00134384
3258	0.00104521
3270	0.00104521
3282	0.00201577
3294	0.0014185
3306	0.00149316
3318	0.00149316
3330	0.00149316
3342	0.000821238
3354	0.00253837
3366	0.00164248
3378	0.0014185
3390	0.0014185
3402	0.000821238
3414	0.00134384
3426	0.00134384
3438	0.0014185
3450	0.00216508
3462	0.00164248
3474	0.00126919
3486	0.00276235
3498	0.00119453
3510	0.00201577
3522	0.00321029
3534	0.00201577
3546	0.00186645
3558	0.00171713
3570	0.00470345
3582	0.00306098
3594	0.00126919
3606	0.00276235
3618	0.00261303
3630	0.00492743
3642	0.00164248
3654	0.00306098
3666	0.00126919
3678	0.00306098
3690	0.00358358
3702	0.00306098
3714	0.00253837
3726	0.00313564
3738	0.00246371
3750	0.00335961
3762	0.00111987
3774	0.000970554
3786	0.00111987
3798	0.000671922
3810	0.000298632
3822	0.00156782
3834	0.00111987
3846	0.00111987
3858	0.000671922
3870	0.000671922
3882	0.00111987
3894	0.000821238
3906	0.000149316
3918	7.4658e-05
3930	0.000149316
3942	0.000149316
3954	7.4658e-05
3966	7.4658e-05
