Infrared Spectrum: 1-Pentanol, 4-methyl-
Formula: C 6 H 14 O
CAS: 626-89-1
Origin: Sadtler Research Labs Under US-EPA Contract
1/CM	ABSORBANCE
450	0
462	0.0240136
474	0.0143263
486	0.0240136
498	0.0341103
510	0.0294713
522	0.0316543
534	0.0200568
546	0.0200568
558	0.0203297
570	0.0214212
582	0.00941443
594	0.0181467
606	0.0154178
618	0.0195111
630	0.0192382
642	0.0186924
654	0.0177373
666	0.0188289
678	0.020739
690	0.0208755
702	0.0195111
714	0.0195111
726	0.0212848
738	0.0203297
750	0.027834
762	0.0230585
774	0.0197839
786	0.0210119
798	0.0184195
810	0.0241501
822	0.0249687
834	0.0259238
846	0.0291984
858	0.0345196
870	0.0391586
882	0.0541671
894	0.0732688
906	0.0720408
918	0.0579874
930	0.0551222
942	0.0611256
954	0.0598976
966	0.0592154
978	0.0729959
990	0.107788
1002	0.163456
1014	0.233996
1026	0.313951
1038	0.377259
1050	0.423513
1062	0.446026
1074	0.30017
1086	0.156634
1098	0.0989197
1110	0.0837748
1122	0.0708129
1134	0.0637179
1146	0.0593518
1158	0.0702671
1170	0.0892324
1182	0.0851392
1194	0.0768163
1206	0.0780443
1218	0.0803637
1230	0.0815917
1242	0.0821375
1254	0.0845934
1266	0.0871858
1278	0.0836383
1290	0.0768163
1302	0.0740875
1314	0.0740875
1326	0.079818
1338	0.0905968
1350	0.0930528
1362	0.1288
1374	0.192382
1386	0.240136
1398	0.181876
1410	0.0892324
1422	0.0594883
1434	0.0627629
1446	0.0929163
1458	0.145446
1470	0.179556
1482	0.138078
1494	0.0657646
1506	0.0305628
1518	0.0215577
1530	0.0176009
1542	0.0163729
1554	0.0158272
1566	0.013917
1578	0.0143263
1590	0.0133712
1602	0.0128255
1614	0.0129619
1626	0.0118704
1638	0.0118704
1650	0.0121432
1662	0.0120068
1674	0.0118704
1686	0.0115975
1698	0.0118704
1710	0.0115975
1722	0.0109153
1734	0.0103695
1746	0.0100966
1758	0.0100966
1770	0.00982375
1782	0.00996019
1794	0.00955087
1806	0.00982375
1818	0.00996019
1830	0.00941443
1842	0.00914155
1854	0.00968731
1866	0.00955087
1878	0.0100966
1890	0.00982375
1902	0.00927799
1914	0.00996019
1926	0.00996019
1938	0.0106424
1950	0.0109153
1962	0.010506
1974	0.00968731
1986	0.00982375
1998	0.00955087
2010	0.00968731
2022	0.0100966
2034	0.0103695
2046	0.0115975
2058	0.0122797
2070	0.0109153
2082	0.0102331
2094	0.00955087
2106	0.00941443
2118	0.00886866
2130	0.00900511
2142	0.00886866
2154	0.00859578
2166	0.00900511
2178	0.00886866
2190	0.00968731
2202	0.00968731
2214	0.00968731
2226	0.00941443
2238	0.00859578
2250	0.00873222
2262	0.00914155
2274	0.00927799
2286	0.0100966
2298	0.0113246
2310	0.0107788
2322	0.010506
2334	0.00982375
2346	0.00941443
2358	0.00914155
2370	0.012689
2382	0.0132348
2394	0.0118704
2406	0.0117339
2418	0.0113246
2430	0.0117339
2442	0.011461
2454	0.0111882
2466	0.0113246
2478	0.011461
2490	0.0113246
2502	0.0120068
2514	0.0115975
2526	0.0128255
2538	0.0133712
2550	0.0137805
2562	0.0147356
2574	0.0154178
2586	0.0163729
2598	0.0192382
2610	0.0203297
2622	0.0223763
2634	0.023195
2646	0.0242865
2658	0.023195
2670	0.0229221
2682	0.0240136
2694	0.0256509
2706	0.0279704
2718	0.0342467
2730	0.0412052
2742	0.0442069
2754	0.0440704
2766	0.0459806
2778	0.0506196
2790	0.0564866
2802	0.06249
2814	0.0727231
2826	0.0874587
2838	0.130847
2850	0.22772
2862	0.381216
2874	0.609618
2886	0.708402
2898	0.655463
2910	0.713177
2922	0.826832
2934	0.988515
2946	1.06601
2958	1.21132
2970	1.27313
2982	0.559681
2994	0.140671
3006	0.0682205
3018	0.0492552
3030	0.0390221
3042	0.0337009
3054	0.0308357
3066	0.0289255
3078	0.0272882
3090	0.0259238
3102	0.0251051
3114	0.0212848
3126	0.0238772
3138	0.0241501
3150	0.0222399
3162	0.0226492
3174	0.0251051
3186	0.0255145
3198	0.0222399
3210	0.0191017
3222	0.0162365
3234	0.0124161
3246	0.0133712
3258	0.00968731
3270	0.0117339
3282	0.0118704
3294	0.0113246
3306	0.0122797
3318	0.011461
3330	0.0155543
3342	0.0137805
3354	0.0148721
3366	0.0145992
3378	0.0152814
3390	0.0156907
3402	0.0155543
3414	0.0152814
3426	0.0150085
3438	0.0147356
3450	0.0169187
3462	0.0162365
3474	0.013917
3486	0.0159636
3498	0.0170551
3510	0.0147356
3522	0.0161
3534	0.0158272
3546	0.0150085
3558	0.0169187
3570	0.0125526
3582	0.0197839
3594	0.0162365
3606	0.0165094
3618	0.0197839
3630	0.0275611
3642	0.0407959
3654	0.0837748
3666	0.125935
3678	0.116657
3690	0.060034
3702	0.0261967
3714	0.0215577
3726	0.017328
3738	0.020739
3750	0.0177373
3762	0.0162365
3774	0.0176009
3786	0.0181467
3798	0.0196475
3810	0.0189653
3822	0.0184195
3834	0.0189653
3846	0.0211484
3858	0.0199204
3870	0.0184195
3882	0.0195111
3894	0.0223763
3906	0.0208755
3918	0.0171916
3930	0.0223763
3942	0.0158272
3954	0.0166458
3966	0.0177373
