Infrared Spectrum: Cyclohexane, iodo-
Formula: C 6 H 11 I
CAS: 626-62-0
Origin: Sadtler Research Labs Under US-EPA Contract
1/CM	ABSORBANCE
450	0.010764
462	0.00743568
474	0.0053112
486	0.0106224
498	0.0126761
510	0.0035408
522	0.00304509
534	0.00410733
546	0.00368243
558	0.00375325
570	0.00276182
582	0.00120387
594	0.00233693
606	0.00332835
618	0.0039657
630	0.00998506
642	0.0189079
654	0.0540326
666	0.0826423
678	0.00892282
690	0.00431978
702	0.00410733
714	0.0035408
726	0.00509875
738	0.00460304
750	0.00566528
762	0.00439059
774	0.00460304
786	0.00637344
798	0.0168542
810	0.0229444
822	0.00601936
834	0.00672752
846	0.0194744
858	0.0193328
870	0.0148005
882	0.0264852
894	0.0122512
906	0.0066567
918	0.00722323
930	0.0057361
942	0.00417814
954	0.00524038
966	0.00970179
978	0.0305217
990	0.05467
1002	0.0279723
1014	0.0203242
1026	0.0104808
1038	0.00693997
1050	0.0053112
1062	0.00467386
1074	0.00828547
1086	0.0249272
1098	0.0601228
1110	0.018483
1122	0.00616099
1134	0.00587773
1146	0.00835629
1158	0.026556
1170	0.129593
1182	0.0973012
1194	0.0126761
1206	0.00701078
1218	0.00998506
1230	0.00871037
1242	0.0555906
1254	0.107215
1266	0.0397986
1278	0.0146589
1290	0.0084271
1302	0.00863955
1314	0.00977261
1326	0.0119679
1338	0.0288929
1350	0.0269101
1362	0.0149422
1374	0.00339917
1386	0.00297427
1398	0.00325754
1410	0.00545283
1422	0.0102683
1434	0.027335
1446	0.0708868
1458	0.0907861
1470	0.0400819
1482	0.01041
1494	0.00368243
1506	0.00106224
1518	0.00247856
1530	0.00283264
1542	0.00127469
1554	0.0017704
1566	0.00332835
1578	0.00318672
1590	0.00276182
1602	0.00212448
1614	0.0017704
1626	0.0017704
1638	0.0013455
1650	0.00162877
1662	0.00127469
1674	0.0013455
1686	0.00184122
1698	0.0031159
1710	0.00439059
1722	0.00332835
1734	0.00141632
1746	0.00155795
1758	0.00141632
1770	0.00155795
1782	0.00148714
1794	0.00198285
1806	0.00198285
1818	0.00148714
1830	0.00162877
1842	0.00155795
1854	0.00148714
1866	0.00155795
1878	0.0021953
1890	0.0017704
1902	0.00155795
1914	0.00212448
1926	0.00205366
1938	0.00155795
1950	0.00162877
1962	0.00155795
1974	0.00155795
1986	0.00155795
1998	0.00141632
2010	0.00148714
2022	0.00120387
2034	0.000637344
2046	0.000920608
2058	0.00162877
2070	0.00169958
2082	0.0017704
2094	0.00226611
2106	0.00269101
2118	0.00332835
2130	0.00269101
2142	0.00233693
2154	0.00269101
2166	0.00191203
2178	0
2190	0.00141632
2202	0.00247856
2214	0.00233693
2226	0.00297427
2238	0.00297427
2250	0.00247856
2262	0.00262019
2274	0.00226611
2286	0.0021953
2298	0.00247856
2310	0.00120387
2322	0.000637344
2334	0.00297427
2346	0.00502794
2358	0.00113306
2370	0.008852
2382	0.00757731
2394	0.00439059
2406	0.00339917
2418	0.00346998
2430	0.00453222
2442	0.00403651
2454	0.00410733
2466	0.00424896
2478	0.00467386
2490	0.00524038
2502	0.00637344
2514	0.00743568
2526	0.00736486
2538	0.00630262
2550	0.00757731
2562	0.00460304
2574	0.00169958
2586	0.00446141
2598	0.0070816
2610	0.00686915
2622	0.00736486
2634	0.00757731
2646	0.00934771
2658	0.0118971
2670	0.011543
2682	0.0100559
2694	0.00878118
2706	0.00913526
2718	0.00934771
2730	0.00828547
2742	0.00878118
2754	0.00672752
2766	0.00566528
2778	0.00793139
2790	0.0120387
2802	0.0140924
2814	0.0154379
2826	0.0201826
2838	0.045818
2850	0.0861123
2862	0.193044
2874	0.180581
2886	0.0922732
2898	0.063522
2910	0.0709576
2922	0.167197
2934	0.426242
2946	0.70816
2958	0.368243
2970	0.126194
2982	0.0399402
2994	0.0136675
3006	0.00764813
3018	0.00878118
3030	0.00920608
3042	0.00956016
3054	0.00991424
3066	0.00587773
3078	0.00403651
3090	0.00502794
3102	0.0057361
3114	0.00672752
3126	0.00693997
3138	0.00446141
3150	0.00389488
3162	0.00346998
3174	0.00460304
3186	0.00524038
3198	0.00658589
3210	0.00630262
3222	0.00637344
3234	0.00658589
3246	0.0070816
3258	0.00658589
3270	0.00566528
3282	0.00509875
3294	0.00460304
3306	0.00495712
3318	0.00439059
3330	0.00439059
3342	0.00446141
3354	0.00453222
3366	0.00460304
3378	0.00424896
3390	0.0053112
3402	0.00495712
3414	0.00481549
3426	0.00446141
3438	0.00410733
3450	0.00516957
3462	0.00403651
3474	0.00601936
3486	0.00290346
3498	0.00346998
3510	0.00467386
3522	0.00410733
3534	0.0053112
3546	0.00410733
3558	0.000991424
3570	0.00403651
3582	0.00474467
3594	0.00509875
3606	0.00446141
3618	0.00417814
3630	0.00382406
3642	0.00417814
3654	0.00722323
3666	0.00297427
3678	0.00502794
3690	0.00375325
3702	0.00431978
3714	0.00524038
3726	0.00269101
3738	0.00601936
3750	0.00509875
3762	0.00863955
3774	0.00764813
3786	0.0070816
3798	0.00552365
3810	0.00821466
3822	0.00580691
3834	0.00247856
3846	0.00502794
3858	0.00509875
3870	0.00424896
3882	0.00297427
3894	0.00127469
3906	0.00516957
3918	0.00495712
3930	0.00722323
3942	0.00339917
3954	0
3966	0.0021953
