Infrared Spectrum: Benzenethiol, o-isopropyl-,
Formula: C 9 H 12 S
CAS: 6262-87-9
Origin: Sadtler Research Labs Under US-EPA Contract
1/CM	ABSORBANCE
450	0.0732963
462	0.0448733
474	0.0264762
486	0.00992858
498	0.0141142
510	0.000292017
522	0.0142115
534	0.0149902
546	0.0274496
558	0.0181051
570	0.0137248
582	0.01207
594	0.0108046
606	0.00408824
618	0.00506163
630	0.00330953
642	0.00710575
654	0.0136275
666	0.023264
678	0.0387409
690	0.022972
702	0.0224853
714	0.0666772
726	0.19351
738	0.263594
750	0.552788
762	0.240719
774	0.0296884
786	0.0112913
798	0.00778712
810	0.00963656
822	0.00720309
834	0.00895519
846	0.00992858
858	0.0144062
870	0.0105126
882	0.0222906
894	0.0219986
906	0.017229
918	0.02268
930	0.039909
942	0.0280336
954	0.011194
966	0.00778712
978	0.00632703
990	0.00759244
1002	0.0110966
1014	0.0215119
1026	0.0931534
1038	0.127514
1050	0.164892
1062	0.150681
1074	0.0463334
1086	0.0375729
1098	0.0308565
1110	0.0482801
1122	0.0505189
1134	0.02268
1146	0.0145035
1158	0.0188838
1170	0.0124594
1182	0.00914987
1194	0.0160609
1206	0.035042
1218	0.0312458
1230	0.0132381
1242	0.0148929
1254	0.0256002
1266	0.0469174
1278	0.0510056
1290	0.0182024
1302	0.017521
1314	0.0182997
1326	0.0183971
1338	0.0265735
1350	0.0439972
1362	0.0709601
1374	0.0839062
1386	0.0704734
1398	0.0544125
1410	0.0366968
1422	0.0540231
1434	0.12401
1446	0.17375
1458	0.145814
1470	0.289876
1482	0.271673
1494	0.0768005
1506	0.0333873
1518	0.0147955
1530	0.00720309
1542	0.00876051
1554	0.011778
1566	0.022096
1578	0.0392276
1590	0.0712521
1602	0.0464307
1614	0.0152822
1626	0.0092472
1638	0.00691107
1650	0.00700841
1662	0.00613236
1674	0.00992858
1686	0.0147955
1698	0.0155742
1710	0.00866317
1722	0.00691107
1734	0.0074951
1746	0.00545098
1758	0.00408824
1770	0.00603502
1782	0.0103179
1794	0.0145035
1806	0.00953922
1818	0.00944188
1830	0.0113887
1842	0.00632703
1854	0.00408824
1866	0.00632703
1878	0.0074951
1890	0.00953922
1902	0.017813
1914	0.0170343
1926	0.0097339
1938	0.0162556
1950	0.0119727
1962	0.00311485
1974	0.00107073
1986	0.000876051
1998	0.000681373
2010	0.000876051
2022	0.00126541
2034	0.00126541
2046	0.000778712
2058	0.000584034
2070	9.7339e-05
2082	0.000389356
2094	0.000292017
2106	0.000681373
2118	0.000778712
2130	0.000486695
2142	0.000292017
2154	0.000584034
2166	0.000486695
2178	0.000292017
2190	0.000389356
2202	0.000194678
2214	0.000389356
2226	0.00107073
2238	0.00214146
2250	0.00243348
2262	0.00272549
2274	0.00243348
2286	0.00243348
2298	0.00233614
2310	0.0039909
2322	0.0062297
2334	0.00652171
2346	0.00661905
2358	0.00876051
2370	0.00292017
2382	0.00321219
2394	0.00321219
2406	0.00243348
2418	0.00253081
2430	0.00360154
2442	0.00253081
2454	0.00253081
2466	0.00292017
2478	0.00330953
2490	0.00311485
2502	0.00340686
2514	0.00389356
2526	0.0039909
2538	0.00515897
2550	0.00564566
2562	0.00554832
2574	0.00691107
2586	0.0146982
2598	0.0182024
2610	0.0119727
2622	0.0074951
2634	0.00603502
2646	0.005743
2658	0.00535364
2670	0.00525631
2682	0.00584034
2694	0.00545098
2706	0.0062297
2718	0.00827382
2730	0.0122647
2742	0.011194
2754	0.00963656
2766	0.010902
2778	0.0110966
2790	0.0109993
2802	0.0131408
2814	0.017229
2826	0.0187864
2838	0.0219986
2850	0.0336793
2862	0.062881
2874	0.168981
2886	0.234587
2898	0.173263
2910	0.183873
2922	0.209766
2934	0.285301
2946	0.31314
2958	0.389356
2970	0.933286
2982	0.576052
2994	0.126249
3006	0.0767031
3018	0.110188
3030	0.0951002
3042	0.0490589
3054	0.0836142
3066	0.274009
3078	0.280434
3090	0.117196
3102	0.0448733
3114	0.0209279
3126	0.0192731
3138	0.0256975
3150	0.0199545
3162	0.0124594
3174	0.0115833
3186	0.0119727
3198	0.0107073
3210	0.00953922
3222	0.0079818
3234	0.00739776
3246	0.00603502
3258	0.00418558
3270	0.00321219
3282	0.00282283
3294	0.00262815
3306	0.00360154
3318	0.00194678
3330	0.0035042
3342	0.00272549
3354	0.00272549
3366	0.00214146
3378	0.00243348
3390	0.000876051
3402	0.00165476
3414	0.00107073
3426	0.00116807
3438	0.00253081
3450	0.00233614
3462	0.00262815
3474	0.00282283
3486	0.00389356
3498	0.00321219
3510	0.00301751
3522	0.00292017
3534	0.00243348
3546	0.00282283
3558	0.0022388
3570	0.00262815
3582	0.00165476
3594	0.00214146
3606	0.00204412
3618	0.00292017
3630	0.000486695
3642	0.00243348
3654	0.00214146
3666	0.0017521
3678	0.0039909
3690	0.00292017
3702	0.00136275
3714	0.00184944
3726	0.00272549
3738	0.00389356
3750	0.00428292
3762	0.00262815
3774	0.00204412
3786	0.00165476
3798	0.00379622
3810	0.00545098
3822	0.00593768
3834	0.00730043
3846	0.00194678
3858	0.00554832
3870	0.00379622
3882	0.00330953
3894	0.00204412
3906	0.00204412
3918	0.00214146
3930	0.00340686
3942	0.00194678
3954	0.00535364
3966	0.00136275
