Infrared Spectrum: Isonicotinaldehyde, O-propyloxime
Formula: C 9 H 12 N 2 O
CAS: 6267-21-6
Origin: Sadtler Research Labs Under US-EPA Contract
1/CM	ABSORBANCE
450	0.00182959
462	0.0135695
474	0.0166188
486	0.00564124
498	0.0458923
510	0.0446725
522	0.110462
534	0.172439
546	0.107717
558	0.0671613
570	0.0806545
582	0.0737173
594	0.040556
606	0.047112
618	0.149722
630	0.212385
642	0.134704
654	0.0447488
666	0.0234798
678	0.0173811
690	0.0108251
702	0.0167713
714	0.0141793
726	0.0122735
738	0.0120448
750	0.0085381
762	0.0224125
774	0.0416232
786	0.0533631
798	0.0999415
810	0.196757
822	0.119686
834	0.0587756
846	0.0532106
858	0.0427667
870	0.0362107
882	0.0432241
894	0.0727263
906	0.0968159
918	0.135009
930	0.295632
942	0.552842
954	0.483698
966	0.246919
978	0.271999
990	0.692196
1002	0.686249
1014	0.348461
1026	0.344954
1038	0.278022
1050	0.565725
1062	0.706832
1074	0.473407
1086	0.204381
1098	0.171219
1110	0.114121
1122	0.0721927
1134	0.0487129
1146	0.0430716
1158	0.0377353
1170	0.0282062
1182	0.0274439
1194	0.0307981
1206	0.0567174
1218	0.0882016
1230	0.127004
1242	0.0517622
1254	0.0496277
1266	0.0643407
1278	0.0419281
1290	0.035982
1302	0.0431479
1314	0.0576321
1326	0.0992554
1338	0.165883
1350	0.124107
1362	0.0735648
1374	0.147053
1386	0.212461
1398	0.132417
1410	0.14004
1422	0.0952912
1434	0.0468071
1446	0.0564124
1458	0.0770716
1470	0.0856097
1482	0.0903361
1494	0.0449012
1506	0.0296546
1518	0.0311031
1530	0.0389551
1542	0.0736411
1554	0.0920895
1566	0.0580895
1578	0.0817218
1590	0.33756
1602	0.407465
1614	0.175412
1626	0.0492465
1638	0.0159327
1650	0.0146367
1662	0.0189058
1674	0.0220313
1686	0.0176861
1698	0.0108251
1710	0.00983406
1722	0.0113587
1734	0.0134932
1746	0.0109013
1758	0.0112063
1770	0.0123497
1782	0.00998652
1794	0.00891926
1806	0.00838563
1818	0.0105964
1830	0.0133408
1842	0.0234035
1854	0.0230224
1866	0.0211165
1878	0.017991
1890	0.0201255
1902	0.0200493
1914	0.0230986
1926	0.0240896
1938	0.0275201
1950	0.019973
1962	0.0117399
1974	0.0085381
1986	0.00625111
1998	0.00533631
2010	0.00510761
2022	0.00487891
2034	0.00327802
2046	0.00426905
2058	0.00381165
2070	0.00343049
2082	0.00312555
2094	0.00243946
2106	0.00182959
2118	0.00236322
2130	0.00198206
2142	0.00373542
2154	0.00404035
2166	0.00350672
2178	0.00426905
2190	0.00449775
2202	0.00449775
2214	0.00419281
2226	0.00274439
2238	0.00198206
2250	0.00175336
2262	0.00182959
2274	0.00198206
2286	0.00289685
2298	0.00343049
2310	0.00251569
2322	0.00358295
2334	0.00373542
2346	0.00167713
2358	0.00297309
2370	0.00259192
2382	0.00129596
2394	0.00213452
2406	0.00358295
2418	0.00304932
2430	0.00312555
2442	0.00396412
2454	0.00221076
2466	0.000991029
2478	0.000152466
2490	0.000838563
2502	0.00137219
2514	0.000609864
2526	0.00106726
2538	0.00175336
2550	0.00373542
2562	0.00358295
2574	0.00266816
2586	0.00259192
2598	0.00373542
2610	0.00388788
2622	0.00350672
2634	0.00251569
2646	0.00251569
2658	0.00381165
2670	0.00495515
2682	0.00586994
2694	0.00465021
2706	0.00564124
2718	0.00838563
2730	0.0109776
2742	0.013417
2754	0.0125784
2766	0.0109776
2778	0.00991029
2790	0.0116636
2802	0.0132645
2814	0.0182959
2826	0.0240896
2838	0.0298071
2850	0.0445201
2862	0.0780626
2874	0.146367
2886	0.261479
2898	0.202932
2910	0.162834
2922	0.226336
2934	0.347927
2946	0.434223
2958	0.365156
2970	0.451528
2982	0.493456
2994	0.269636
3006	0.138897
3018	0.0982643
3030	0.136686
3042	0.145453
3054	0.140802
3066	0.154982
3078	0.130435
3090	0.0878966
3102	0.0374304
3114	0.0197443
3126	0.0113587
3138	0.00891926
3150	0.0087668
3162	0.0073946
3174	0.00655604
3186	0.00632734
3198	0.00556501
3210	0.00533631
3222	0.00381165
3234	0.00312555
3246	0.00404035
3258	0.00236322
3270	0.00251569
3282	0.00343049
3294	0.00259192
3306	0.00236322
3318	0.00243946
3330	0.00282062
3342	0.00190583
3354	0.00282062
3366	0.00160089
3378	0.00228699
3390	0.00274439
3402	0.00274439
3414	0.00327802
3426	0.00404035
3438	0.00289685
3450	0.00312555
3462	0.00373542
3474	0.00228699
3486	0.00243946
3498	0.00236322
3510	0.00228699
3522	0.00320179
3534	0.00205829
3546	0.00358295
3558	0.00381165
3570	0.00480268
3582	0.00449775
3594	0.00312555
3606	0.00381165
3618	0.00335425
3630	0.00259192
3642	0.00434528
3654	0.00327802
3666	0.00487891
3678	0.000381165
3690	0.00213452
3702	0.0067085
3714	0.00304932
3726	0.00617487
3738	0.00571747
3750	0.00167713
3762	0.00404035
3774	0.00419281
3786	0.00358295
3798	0.00327802
3810	0.00381165
3822	0.000914796
3834	0.00167713
3846	0.00426905
3858	0.00175336
3870	0.00175336
3882	0.00457398
3894	0.00365918
3906	0.00365918
3918	0.00251569
3930	0.00297309
3942	0.00663227
3954	0.00571747
3966	0.00579371
