Infrared Spectrum: Mercury, diethyl-
Formula: C 4 H 10 Hg
CAS: 627-44-1
Origin: Sadtler Research Labs Under US-EPA Contract
1/CM	ABSORBANCE
450	0
462	0.033918
474	0.0658724
486	0.111573
498	0.300621
510	0.80957
522	0.85045
534	0.227786
546	0.0976483
558	0.0374884
570	0.0323114
582	0.0191012
594	0.0264204
606	0.0294551
618	0.0415942
630	0.0574822
642	0.0937209
654	0.135851
666	0.183514
678	0.174589
690	0.122819
702	0.067479
714	0.0444505
726	0.0355247
738	0.0378454
750	0.0180301
762	0.0235641
774	0.0205293
786	0.016245
798	0.0137457
810	0.0126746
822	0.00821174
834	0.00821174
846	0.00660509
858	0.00499845
870	0.00428438
882	0.00731916
894	0.00803322
906	0.0101754
918	0.0133887
930	0.0196368
942	0.0303477
954	0.0421298
966	0.0453431
978	0.0451645
990	0.0712279
1002	0.132459
1014	0.193868
1026	0.151025
1038	0.0517696
1050	0.0258848
1062	0.0191012
1074	0.0148168
1086	0.011425
1098	0.00963986
1110	0.00981838
1122	0.0103539
1134	0.0160664
1146	0.0265989
1158	0.0492704
1170	0.121391
1182	0.369885
1194	0.605526
1206	0.404874
1218	0.10229
1230	0.0590888
1242	0.0439149
1254	0.0310618
1266	0.0207079
1278	0.0112465
1290	0.0099969
1302	0.0099969
1314	0.00839025
1326	0.0078547
1338	0.00910432
1350	0.0164235
1362	0.0473067
1374	0.227965
1386	0.238676
1398	0.0714064
1410	0.044986
1422	0.055697
1434	0.0669435
1446	0.0835455
1458	0.0912217
1470	0.118356
1482	0.106396
1494	0.0822959
1506	0.0549829
1518	0.0330255
1530	0.0187442
1542	0.0164235
1554	0.0155309
1566	0.0191012
1578	0.0223145
1590	0.0326684
1602	0.0321329
1614	0.0199938
1626	0.0144598
1638	0.0123176
1650	0.016602
1662	0.0187442
1674	0.0239211
1686	0.0208864
1698	0.0153524
1710	0.011425
1722	0.00910432
1734	0.00696212
1746	0.0078547
1758	0.00803322
1770	0.00910432
1782	0.00821174
1794	0.00839025
1806	0.00696212
1818	0.00517696
1830	0.00410587
1842	0.00517696
1854	0.0089258
1866	0.0124961
1878	0.0182086
1890	0.016602
1902	0.0139242
1914	0.011425
1926	0.00856877
1938	0.00803322
1950	0.00821174
1962	0.00678361
1974	0.00660509
1986	0.00696212
1998	0.00678361
2010	0.00606954
2022	0.005534
2034	0.00589103
2046	0.00535548
2058	0.00642658
2070	0.00606954
2082	0.00714064
2094	0.00821174
2106	0.011068
2118	0.0157094
2130	0.0239211
2142	0.033918
2154	0.0344536
2166	0.0287411
2178	0.0237426
2190	0.0185657
2202	0.0142813
2214	0.00963986
2226	0.00606954
2238	0.00535548
2250	0.00464142
2262	0.0044629
2274	0.00392735
2286	0.00428438
2298	0.00392735
2310	0.00374884
2322	0.00517696
2334	0.00731916
2346	0.00839025
2358	0.0112465
2370	0.0124961
2382	0.0142813
2394	0.0142813
2406	0.0151739
2418	0.0133887
2430	0.0112465
2442	0.00946135
2454	0.00946135
2466	0.0089258
2478	0.00731916
2490	0.00464142
2502	0.00410587
2514	0.00374884
2526	0.00410587
2538	0.00481993
2550	0.0089258
2562	0.0135672
2574	0.0141028
2586	0.011068
2598	0.0123176
2610	0.0189227
2622	0.0198153
2634	0.0153524
2646	0.0121391
2658	0.0124961
2670	0.0141028
2682	0.0176731
2694	0.0273129
2706	0.0344536
2718	0.0353462
2730	0.0524837
2742	0.0701568
2754	0.0587318
2766	0.0403446
2778	0.0407016
2790	0.0592673
2802	0.0974697
2814	0.15513
2826	0.266703
2838	0.342751
2850	0.315616
2862	0.475745
2874	1.42956
2886	1.58933
2898	1.10805
2910	1.55684
2922	1.62003
2934	1.59629
2946	1.77516
2958	1.58647
2970	1.11644
2982	0.752088
2994	0.412193
3006	0.212077
3018	0.13478
3030	0.108716
3042	0.104432
3054	0.0976483
3066	0.0872943
3078	0.073013
3090	0.0587318
3102	0.0512341
3114	0.0462356
3126	0.0437364
3138	0.0430224
3150	0.0433794
3162	0.039095
3174	0.0319544
3186	0.0251708
3198	0.0201723
3210	0.0148168
3222	0.0116035
3234	0.00981838
3246	0.0089258
3258	0.00839025
3270	0.0078547
3282	0.00749767
3294	0.00856877
3306	0.00821174
3318	0.00981838
3330	0.00946135
3342	0.0099969
3354	0.00821174
3366	0.00839025
3378	0.00928283
3390	0.00874728
3402	0.00928283
3414	0.0078547
3426	0.00714064
3438	0.00821174
3450	0.00856877
3462	0.00749767
3474	0.00839025
3486	0.00731916
3498	0.00839025
3510	0.00803322
3522	0.0089258
3534	0.0112465
3546	0.0119606
3558	0.0108895
3570	0.0116035
3582	0.0132102
3594	0.011068
3606	0.0112465
3618	0.0099969
3630	0.00803322
3642	0.0078547
3654	0.00624806
3666	0.00624806
3678	0.00481993
3690	0.00392735
3702	0.00410587
3714	0.0044629
3726	0.00374884
3738	0.00392735
3750	0.00374884
3762	0.00464142
3774	0.00517696
3786	0.005534
3798	0.00678361
3810	0.00714064
3822	0.00946135
3834	0.0130317
3846	0.0133887
3858	0.0099969
3870	0.0123176
3882	0.010711
3894	0.0103539
3906	0.00910432
3918	0.0101754
3930	0.00839025
3942	0.00678361
3954	0.00428438
3966	0.00660509
