Infrared Spectrum: 1-Hexanol, 5-methyl-
Formula: C 7 H 16 O
CAS: 627-98-5
Origin: Sadtler Research Labs Under US-EPA Contract
1/CM	ABSORBANCE
450	0.0342918
462	0.0144788
474	0.00853485
486	0.00975411
498	0.0105162
510	0.0135643
522	0.0121926
534	0.0111258
546	0.00457224
558	0.00853485
570	0.00609632
582	0.00868726
594	0.0105162
606	0.0100589
618	0.00792522
630	0.00594391
642	0.00655354
654	0.00899207
666	0.0121926
678	0.0144788
690	0.00990652
702	0.00929689
714	0.0094493
726	0.014936
738	0.0196606
750	0.0114306
762	0.0112782
774	0.0147836
786	0.0120402
798	0.0178317
810	0.0202703
822	0.0201179
834	0.022404
846	0.0246901
858	0.0239281
870	0.026519
882	0.0338346
894	0.0406929
906	0.0498374
918	0.0624873
930	0.0713269
942	0.0824527
954	0.08291
966	0.0768136
978	0.0794046
990	0.09937
1002	0.126499
1014	0.173593
1026	0.267324
1038	0.380868
1050	0.411959
1062	0.344747
1074	0.263209
1086	0.177098
1098	0.116135
1110	0.0963219
1122	0.0847388
1134	0.0745275
1146	0.0698029
1158	0.0765088
1170	0.0947978
1182	0.0787949
1194	0.0675167
1206	0.0717842
1218	0.0765088
1230	0.0784901
1242	0.0812335
1254	0.0789473
1266	0.0780329
1278	0.079557
1290	0.0800142
1302	0.083672
1314	0.0931213
1326	0.138844
1338	0.205903
1350	0.18228
1362	0.184718
1374	0.216724
1386	0.249492
1398	0.183499
1410	0.1076
1422	0.126194
1434	0.098608
1446	0.116897
1458	0.171459
1470	0.210628
1482	0.156675
1494	0.0737655
1506	0.0283479
1518	0.0178317
1530	0.010821
1542	0.0100589
1554	0.00868726
1566	0.00807762
1578	0.0094493
1590	0.00838244
1602	0.00716318
1614	0.00792522
1626	0.00533428
1638	0.00731558
1650	0.0038102
1662	0.00640114
1674	0.0056391
1686	0.00807762
1698	0.00685836
1710	0.00533428
1722	0.00624873
1734	0.00609632
1746	0.00502946
1758	0.00609632
1770	0.00426742
1782	0.00487706
1794	0.0038102
1806	0.00426742
1818	0.00365779
1830	0.0038102
1842	0.00441983
1854	0.00411502
1866	0.00487706
1878	0.00457224
1890	0.00457224
1902	0.00411502
1914	0.0038102
1926	0.00396261
1938	0.00426742
1950	0.00411502
1962	0.00457224
1974	0.00518187
1986	0.0057915
1998	0.00670595
2010	0.00716318
2022	0.00792522
2034	0.00975411
2046	0.010821
2058	0.00899207
2070	0.00853485
2082	0.00716318
2094	0.00624873
2106	0.00548669
2118	0.00457224
2130	0.00533428
2142	0.00548669
2154	0.00594391
2166	0.00609632
2178	0.00594391
2190	0.00609632
2202	0.0057915
2214	0.00670595
2226	0.0057915
2238	0.00640114
2250	0.00624873
2262	0.00685836
2274	0.00731558
2286	0.00685836
2298	0.00518187
2310	0.00213371
2322	0.000304816
2334	0.00121926
2346	0.00746799
2358	0.000304816
2370	0.0146312
2382	0.0150884
2394	0.00990652
2406	0.00975411
2418	0.0100589
2430	0.0103637
2442	0.0096017
2454	0.0106686
2466	0.00990652
2478	0.0103637
2490	0.0111258
2502	0.0112782
2514	0.011583
2526	0.0112782
2538	0.012345
2550	0.0126499
2562	0.0134119
2574	0.0147836
2586	0.0170697
2598	0.019051
2610	0.0208799
2622	0.0208799
2634	0.0213371
2646	0.0225564
2658	0.0214895
2670	0.0217943
2682	0.0240805
2694	0.025757
2706	0.0301768
2718	0.0352062
2730	0.0419122
2742	0.0435887
2754	0.0437411
2766	0.046332
2778	0.050447
2790	0.0560861
2802	0.0643162
2814	0.0752896
2826	0.0979983
2838	0.150427
2850	0.286832
2862	0.466368
2874	0.705649
2886	0.793893
2898	0.728967
2910	0.87025
2922	1.04994
2934	1.30873
2946	1.31406
2958	1.33829
2970	1.4337
2982	0.549278
2994	0.157895
3006	0.0772709
3018	0.0516663
3030	0.0387116
3042	0.031396
3054	0.027281
3066	0.0245377
3078	0.0211847
3090	0.0196606
3102	0.0179841
3114	0.0147836
3126	0.0155456
3138	0.014936
3150	0.0147836
3162	0.015698
3174	0.0160028
3186	0.0143264
3198	0.0120402
3210	0.00914448
3222	0.00548669
3234	0.00411502
3246	0.00274334
3258	0.00152408
3270	0.00106686
3282	0.0018289
3294	0.00213371
3306	0.00411502
3318	0.00243853
3330	0.00335298
3342	0.00518187
3354	0.00411502
3366	0.00411502
3378	0.00487706
3390	0.00243853
3402	0.0019813
3414	0.00457224
3426	0.00396261
3438	0.00518187
3450	0.00335298
3462	0.00426742
3474	0.0056391
3486	0.00472465
3498	0.0038102
3510	0.00243853
3522	0.00320057
3534	0.0019813
3546	0.00289575
3558	0.00274334
3570	0.00320057
3582	0.00335298
3594	0.00289575
3606	0.0056391
3618	0.00640114
3630	0.0143264
3642	0.0294147
3654	0.0717842
3666	0.111258
3678	0.0972363
3690	0.0411502
3702	0.0179841
3714	0.0106686
3726	0.00640114
3738	0.00807762
3750	0.00685836
3762	0.00274334
3774	0.00137167
3786	0.0038102
3798	0.00152408
3810	0.0018289
3822	0.0038102
3834	0.00167649
3846	0.00289575
3858	0.00274334
3870	0.0019813
3882	0.000304816
3894	0.00457224
3906	0.00426742
3918	0.00137167
3930	0.000304816
3942	0.000304816
3954	0.000609632
3966	0.0038102
