Infrared Spectrum: Undecanoic acid, ethyl ester
Formula: C 13 H 26 O 2
CAS: 627-90-7
Origin: Sadtler Research Labs Under US-EPA Contract
1/CM	ABSORBANCE
450	0.00922688
462	0.0107452
474	0.0028615
486	0.00484703
498	0.00689096
510	0.0107452
522	0.00794213
534	0.00805892
546	0.00601499
558	0.00689096
570	0.011154
582	0.0123804
594	0.0141323
606	0.0134315
618	0.0145995
630	0.0154755
642	0.0152419
654	0.0160011
666	0.00747494
678	0.0166434
690	0.0148915
702	0.0167602
714	0.023476
726	0.0217825
738	0.0157675
750	0.0219576
762	0.0185122
774	0.0133731
786	0.0214321
798	0.0196801
810	0.018045
822	0.018337
834	0.0170522
846	0.0205561
858	0.02406
870	0.0194465
882	0.0174026
894	0.0176362
906	0.0197969
918	0.0214321
930	0.0235344
942	0.0200889
954	0.0191545
966	0.0194465
978	0.0178114
990	0.0184538
1002	0.0225416
1014	0.0321189
1026	0.0599163
1038	0.0860203
1050	0.0806476
1062	0.0677417
1074	0.0560621
1086	0.056938
1098	0.0840347
1110	0.105525
1122	0.100211
1134	0.092444
1146	0.141732
1158	0.218934
1170	0.227285
1182	0.216073
1194	0.188509
1206	0.155397
1218	0.139688
1230	0.145586
1242	0.151543
1254	0.132855
1266	0.101262
1278	0.0781949
1290	0.0715959
1302	0.0741655
1314	0.0722383
1326	0.0619019
1338	0.0637706
1350	0.071304
1362	0.0610259
1374	0.087597
1386	0.0567629
1398	0.0344548
1410	0.030075
1422	0.030367
1434	0.0436817
1446	0.0544853
1458	0.0675081
1470	0.0750414
1482	0.0393019
1494	0.0217241
1506	0.00998606
1518	0.01057
1530	0.0104532
1542	0.00245272
1554	0.00794213
1566	0.00893489
1578	0.00636538
1590	0.0107452
1602	0.00975247
1614	0.00916849
1626	0.00805892
1638	0.00630698
1650	0.00759174
1662	0.0087597
1674	0.00969407
1686	0.00718295
1698	0.0127308
1710	0.0275055
1722	0.046076
1734	0.0969991
1746	0.254732
1758	0.347468
1770	0.145878
1782	0.0505727
1794	0.0227752
1806	0.0167602
1818	0.0130812
1830	0.00946048
1842	0.00922688
1854	0.00911009
1866	0.00811732
1878	0.00899329
1890	0.00770854
1902	0.00788373
1914	0.00788373
1926	0.00794213
1938	0.00776693
1950	0.00729975
1962	0.00765014
1974	0.00706616
1986	0.00718295
1998	0.00729975
2010	0.00741655
2022	0.00741655
2034	0.00776693
2046	0.00706616
2058	0.00729975
2070	0.00729975
2082	0.00759174
2094	0.00601499
2106	0.00607339
2118	0.00607339
2130	0.00548941
2142	0.00496383
2154	0.00560621
2166	0.005723
2178	0.00531422
2190	0.00519742
2202	0.00496383
2214	0.00508063
2226	0.00508063
2238	0.00502223
2250	0.00548941
2262	0.00496383
2274	0.00502223
2286	0.00513902
2298	0.00525582
2310	0.0058398
2322	0.00659897
2334	0.00554781
2346	0.00689096
2358	0.00718295
2370	0.00601499
2382	0.00543101
2394	0.00426305
2406	0.00420466
2418	0.00426305
2430	0.00467184
2442	0.00373747
2454	0.00402946
2466	0.00344548
2478	0.00350388
2490	0.00344548
2502	0.00379587
2514	0.00443825
2526	0.00408786
2538	0.00391267
2550	0.00408786
2562	0.00461344
2574	0.00467184
2586	0.00473024
2598	0.00554781
2610	0.0058398
2622	0.00689096
2634	0.00694936
2646	0.00689096
2658	0.00741655
2670	0.00800053
2682	0.00811732
2694	0.00858451
2706	0.00788373
2718	0.00823412
2730	0.00922688
2742	0.00986926
2754	0.0100445
2766	0.0113876
2778	0.0119716
2790	0.0139571
2802	0.0167018
2814	0.0199137
2826	0.0270967
2838	0.039769
2850	0.0786037
2862	0.209649
2874	0.190085
2886	0.140622
2898	0.126081
2910	0.19248
2922	0.351147
2934	0.58398
2946	0.433021
2958	0.260338
2970	0.257418
2982	0.170814
2994	0.116387
3006	0.0665737
3018	0.0389515
3030	0.0242936
3042	0.018629
3054	0.0150083
3066	0.0124388
3078	0.00951887
3090	0.00986926
3102	0.00928528
3114	0.0088765
3126	0.00852611
3138	0.00706616
3150	0.00648218
3162	0.00706616
3174	0.00811732
3186	0.00765014
3198	0.00665737
3210	0.00636538
3222	0.0059566
3234	0.00566461
3246	0.00543101
3258	0.00502223
3270	0.00613179
3282	0.00478864
3294	0.00560621
3306	0.00636538
3318	0.005723
3330	0.0058982
3342	0.0058982
3354	0.00543101
3366	0.00601499
3378	0.00654058
3390	0.00619019
3402	0.00607339
3414	0.00554781
3426	0.00619019
3438	0.00525582
3450	0.00654058
3462	0.00665737
3474	0.00683257
3486	0.00794213
3498	0.00846771
3510	0.0057814
3522	0.00607339
3534	0.00519742
3546	0.00525582
3558	0.00671577
3570	0.00437985
3582	0.00519742
3594	0.00607339
3606	0.00689096
3618	0.00490543
3630	0.00327029
3642	0.00671577
3654	0.00478864
3666	0.00636538
3678	0.00332869
3690	0.00531422
3702	0.00642378
3714	0.00607339
3726	0.00689096
3738	0.00508063
3750	0.00437985
3762	0.00619019
3774	0.00817572
3786	0.00829252
3798	0.00729975
3810	0.00683257
3822	0.00648218
3834	0.00677417
3846	0.00630698
3858	0.00729975
3870	0.00858451
3882	0.0086429
3894	0.00741655
3906	0.00840931
3918	0.0087597
3930	0.00893489
3942	0.0088765
3954	0
3966	0.000642378
