Infrared Spectrum: 1,5-Hexadiene, 2,5-dimethyl-
Formula: C 8 H 14
CAS: 627-58-7
Origin: Sadtler Research Labs Under US-EPA Contract
1/CM	ABSORBANCE
450	0
462	0.0357601
474	0.0331567
486	0.0383144
498	0.0414581
510	0.0538366
522	0.0674923
534	0.0617942
546	0.0434721
558	0.0535419
570	0.0480403
582	0.0399354
594	0.0360057
606	0.0339917
618	0.033304
630	0.033697
642	0.0328619
654	0.0336479
666	0.0359075
678	0.0342373
690	0.0346303
702	0.035711
714	0.0368407
726	0.0353671
738	0.0343847
750	0.0357601
762	0.038167
774	0.0379705
786	0.0392968
798	0.03856
810	0.0397389
822	0.0398863
834	0.0432265
846	0.0517735
858	0.0681799
870	0.13243
882	0.354015
894	0.479028
906	0.226153
918	0.0895476
930	0.0604188
942	0.0489736
954	0.0457808
966	0.0466158
978	0.0521665
990	0.0582575
1002	0.0555559
1014	0.0474509
1026	0.0448475
1038	0.0444545
1050	0.0469106
1062	0.0466649
1074	0.0439142
1086	0.0419985
1098	0.0402792
1110	0.0433738
1122	0.0453387
1134	0.0494648
1146	0.0584049
1158	0.0625802
1170	0.0566365
1182	0.0497596
1194	0.0489736
1206	0.0541805
1218	0.0582575
1230	0.0574224
1242	0.0561453
1254	0.058061
1266	0.0618925
1278	0.0648888
1290	0.0695062
1302	0.0688676
1314	0.0582575
1326	0.0506929
1338	0.0483351
1350	0.0540331
1362	0.0790848
1374	0.148591
1386	0.160822
1398	0.08606
1410	0.0736815
1422	0.0894985
1434	0.12629
1446	0.185481
1458	0.201396
1470	0.143237
1482	0.0780533
1494	0.0534928
1506	0.0451913
1518	0.0419493
1530	0.0412125
1542	0.0408687
1554	0.0419493
1566	0.0435703
1578	0.0452896
1590	0.0472053
1602	0.0510858
1614	0.0579628
1626	0.0791831
1638	0.147363
1650	0.224385
1662	0.16932
1674	0.0752534
1686	0.0467632
1698	0.0417529
1710	0.0409669
1722	0.03856
1734	0.0379705
1746	0.0413108
1758	0.0415564
1770	0.0448475
1782	0.0587487
1794	0.0598294
1806	0.0443071
1818	0.0362513
1830	0.0331076
1842	0.0318795
1854	0.0311918
1866	0.0306515
1878	0.030848
1890	0.0301603
1902	0.0303568
1914	0.0301112
1926	0.0296691
1938	0.0294726
1950	0.0297182
1962	0.0299147
1974	0.0295217
1986	0.0300621
1998	0.0299638
2010	0.030848
2022	0.0311427
2034	0.0317322
2046	0.0322234
2058	0.0327637
2070	0.0319778
2082	0.0307006
2094	0.0303077
2106	0.0303568
2118	0.0299638
2130	0.0299638
2142	0.0297673
2154	0.0298656
2166	0.0297673
2178	0.0301603
2190	0.0305533
2202	0.030455
2214	0.0300129
2226	0.0305041
2238	0.0301603
2250	0.0305041
2262	0.0299638
2274	0.0302094
2286	0.0301603
2298	0.0295217
2310	0.0294235
2322	0.0289323
2334	0.0314374
2346	0.0327637
2358	0.0298656
2370	0.033304
2382	0.031683
2394	0.0307989
2406	0.0307497
2418	0.0306024
2430	0.0308971
2442	0.0307989
2454	0.031241
2466	0.0313883
2478	0.0309462
2490	0.0310445
2502	0.0310936
2514	0.0312901
2526	0.0318304
2538	0.0314866
2550	0.0316339
2562	0.0322234
2574	0.0323216
2586	0.0329111
2598	0.0328619
2610	0.0328619
2622	0.0323707
2634	0.0319778
2646	0.0328619
2658	0.0335988
2670	0.0331076
2682	0.035318
2694	0.037332
2706	0.0379705
2718	0.0392477
2730	0.0428826
2742	0.0452896
2754	0.0415072
2766	0.0404266
2778	0.0421458
2790	0.0455352
2802	0.0499561
2814	0.0558506
2826	0.0677379
2838	0.0958351
2850	0.145005
2862	0.193144
2874	0.203017
2886	0.207094
2898	0.256461
2910	0.331223
2922	0.393852
2934	0.439486
2946	0.463751
2958	0.360794
2970	0.374351
2982	0.447689
2994	0.257541
3006	0.153798
3018	0.103007
3030	0.0810005
3042	0.0735341
3054	0.0795269
3066	0.122753
3078	0.274783
3090	0.26825
3102	0.108557
3114	0.055605
3126	0.0451913
3138	0.0405248
3150	0.0366443
3162	0.0345321
3174	0.0332549
3186	0.0326163
3198	0.0314866
3210	0.0314374
3222	0.0313392
3234	0.0301112
3246	0.0308971
3258	0.0308971
3270	0.0307989
3282	0.0309954
3294	0.0326163
3306	0.032469
3318	0.0331076
3330	0.033697
3342	0.0343847
3354	0.033697
3366	0.032076
3378	0.0318795
3390	0.0339426
3402	0.0343356
3414	0.0334023
3426	0.0348268
3438	0.0317813
3450	0.0337952
3462	0.0343847
3474	0.0330093
3486	0.0331567
3498	0.0333532
3510	0.0324199
3522	0.0330093
3534	0.0339426
3546	0.0321251
3558	0.0334023
3570	0.0320269
3582	0.0325181
3594	0.0318795
3606	0.0316339
3618	0.0324199
3630	0.0335496
3642	0.0324199
3654	0.0300129
3666	0.0298164
3678	0.0331076
3690	0.0292761
3702	0.0309954
3714	0.0316339
3726	0.0313392
3738	0.0329602
3750	0.032469
3762	0.0314866
3774	0.0335988
3786	0.0322725
3798	0.0311427
3810	0.0315848
3822	0.033697
3834	0.0321743
3846	0.0331567
3858	0.0331567
3870	0.0334023
3882	0.0338444
3894	0.0339426
3906	0.0354654
3918	0.0348759
3930	0.033697
3942	0.033304
3954	0.0376758
3966	0.0332549
