Infrared Spectrum: Acetic acid, ethoxy-
Formula: C 4 H 8 O 3
CAS: 627-03-2
Origin: Sadtler Research Labs Under US-EPA Contract
1/CM	ABSORBANCE
450	0.0029448
462	0.0188467
474	0.0181989
486	0.0334529
498	0.0274455
510	0.0259731
522	0.0273277
534	0.034572
546	0.0378112
558	0.0425229
570	0.0426996
582	0.0482358
594	0.0673181
606	0.0896986
618	0.101654
630	0.103421
642	0.0937035
654	0.080982
666	0.0661402
678	0.0474702
690	0.0284468
702	0.0224983
714	0.0134872
726	0.011308
738	0.00671414
750	0.00506506
762	0.00253253
774	0.00106013
786	0.00159019
798	0.00170798
810	0.00359266
822	0.00689083
834	0.0163731
846	0.0318627
858	0.0445843
870	0.0386358
882	0.0232639
894	0.0174332
906	0.0123682
918	0.00765648
930	0.00506506
942	0.00406382
954	0.00518285
966	0.00771538
978	0.012486
990	0.0205547
1002	0.0308026
1014	0.0394014
1026	0.0446432
1038	0.0453499
1050	0.0483536
1062	0.0627242
1074	0.0919367
1086	0.143176
1098	0.318627
1110	0.542903
1122	0.54467
1134	0.387653
1146	0.265915
1158	0.225689
1170	0.192178
1182	0.137169
1194	0.0911121
1206	0.0669648
1218	0.0574236
1230	0.0533009
1242	0.0495904
1254	0.0527708
1266	0.0644911
1278	0.0644911
1290	0.057777
1302	0.0637255
1314	0.0786262
1326	0.118086
1338	0.164261
1350	0.186818
1362	0.194239
1374	0.173684
1386	0.129336
1398	0.0933502
1410	0.0666114
1422	0.0478236
1434	0.0387536
1446	0.0373401
1458	0.0302725
1470	0.0199068
1482	0.0166676
1494	0.012486
1506	0.00718531
1518	0.00406382
1530	0.00194357
1542	0.00182578
1554	0.000647856
1566	0.000647856
1578	0.000471168
1590	0.000530064
1602	0.000353376
1614	0.00058896
1626	0.00088344
1638	0.00135461
1650	0.00206136
1662	0.00259142
1674	0.00400493
1686	0.00565402
1698	0.00901109
1710	0.0118381
1722	0.0183756
1734	0.0301548
1746	0.0546555
1758	0.0920544
1770	0.195299
1782	0.307614
1794	0.377759
1806	0.448552
1818	0.390716
1830	0.192237
1842	0.057777
1854	0.0253842
1866	0.0143117
1878	0.00924667
1890	0.00577181
1902	0.00371045
1914	0.00265032
1926	0.00194357
1938	0.00188467
1950	0.00188467
1962	0.00188467
1974	0.00200246
1986	0.00182578
1998	0.00217915
2010	0.00247363
2022	0.00229694
2034	0.00159019
2046	0.000942336
2058	0.000235584
2070	0.000353376
2082	0.000117792
2094	0.00029448
2106	0.00058896
2118	0.000765648
2130	0.00100123
2142	0.00117792
2154	0.0014724
2166	0.0015313
2178	0.00217915
2190	0.00200246
2202	0.00188467
2214	0.00176688
2226	0.00129571
2238	0.0015313
2250	0.0015313
2262	0.00194357
2274	0.00200246
2286	0.00188467
2298	0.00259142
2310	0.0029448
2322	0.0015313
2334	0.00088344
2346	0.00100123
2358	0.000412272
2370	0.000942336
2382	0.00188467
2394	0.00106013
2406	0.00129571
2418	0.00088344
2430	0.00029448
2442	0.000412272
2454	0.00058896
2466	0.000942336
2478	0.000942336
2490	0.00129571
2502	0.000824544
2514	0.000706752
2526	0.000412272
2538	0.000471168
2550	0.00029448
2562	5.8896e-05
2574	0.000471168
2586	0.000412272
2598	0.00058896
2610	0.00111902
2622	0.0014724
2634	0.0015313
2646	0.00135461
2658	0.00170798
2670	0.0015313
2682	0.00235584
2694	0.00235584
2706	0.00265032
2718	0.00376934
2730	0.00482947
2742	0.00624298
2754	0.00753869
2766	0.0088933
2778	0.0102479
2790	0.0115436
2802	0.0129571
2814	0.0154308
2826	0.0197302
2838	0.0279756
2850	0.0425818
2862	0.062842
2874	0.0874606
2886	0.105424
2898	0.103068
2910	0.0953526
2922	0.0865182
2934	0.084398
2946	0.0853403
2958	0.0803341
2970	0.0842213
2982	0.118145
2994	0.11579
3006	0.0606629
3018	0.0265621
3030	0.014135
3042	0.00983563
3054	0.00753869
3066	0.00541843
3078	0.00406382
3090	0.00382824
3102	0.00353376
3114	0.0028859
3126	0.00259142
3138	0.00282701
3150	0.00276811
3162	0.00265032
3174	0.00247363
3186	0.00212026
3198	0.00270922
3210	0.00241474
3222	0.00223805
3234	0.00200246
3246	0.0014135
3258	0.00176688
3270	0.00106013
3282	0.00123682
3294	0.000824544
3306	0.00100123
3318	0.0015313
3330	0.0014135
3342	0.0014724
3354	0.0014135
3366	0.00217915
3378	0.00235584
3390	0.00276811
3402	0.00282701
3414	0.00318038
3426	0.00365155
3438	0.00500616
3450	0.00665525
3462	0.0138995
3474	0.0367511
3486	0.0768004
3498	0.101124
3510	0.0706163
3522	0.0275044
3534	0.0128982
3546	0.0124271
3558	0.0246185
3570	0.0928201
3582	0.12645
3594	0.0588371
3606	0.0114258
3618	0.00459389
3630	0.00347486
3642	0.00117792
3654	0.00088344
3666	0.00164909
3678	0.00088344
3690	0
3702	0.000117792
3714	0.00058896
3726	0.000647856
3738	0.0014135
3750	0.00170798
3762	0.00111902
3774	0.00100123
3786	0.00106013
3798	0.000530064
3810	0.000706752
3822	0.000706752
3834	0.00117792
3846	0.00164909
3858	0.00117792
3870	0
3882	0.000530064
3894	0.00058896
3906	0.00135461
3918	0.00029448
3930	0.0015313
3942	0.00111902
3954	0.00123682
3966	0.000647856
