Infrared Spectrum: Hexanedioic acid, dimethyl ester
Formula: C 8 H 14 O 4
CAS: 627-93-0
Origin: Sadtler Research Labs Under US-EPA Contract
1/CM	ABSORBANCE
450	0.0093847
462	0.0103902
474	0.0031841
486	0.0073737
498	0.0142446
510	0.00184342
522	0.0113957
534	0.0083792
546	0.0157529
558	0.0137419
570	0.0117309
582	0.016926
594	0.0253052
606	0.0231266
618	0.0211156
630	0.0154177
642	0.0137419
654	0.00921712
666	0.00636819
678	0.0051951
690	0.00921712
702	0.0113957
714	0.0117309
726	0.0134067
738	0.0197749
750	0.0219535
762	0.0313382
774	0.0281541
786	0.0315058
798	0.0296624
810	0.0333492
822	0.0517835
834	0.0566434
846	0.0532917
858	0.0489345
870	0.0480966
882	0.0423988
894	0.0350251
906	0.0276514
918	0.0204452
930	0.0144122
942	0.0142446
954	0.0150826
966	0.0263107
978	0.0452477
990	0.0610006
1002	0.105243
1014	0.146301
1026	0.143284
1038	0.116136
1050	0.121666
1062	0.148982
1074	0.16373
1086	0.157194
1098	0.12485
1110	0.123174
1122	0.189705
1134	0.35863
1146	0.630116
1158	0.771389
1170	0.863058
1182	0.806079
1194	0.728152
1206	0.731001
1218	0.674861
1230	0.637154
1242	0.630451
1254	0.58822
1266	0.462699
1278	0.335
1290	0.27886
1302	0.229087
1314	0.210318
1326	0.183002
1338	0.186186
1350	0.234115
1362	0.294948
1374	0.227579
1386	0.115801
1398	0.0653578
1410	0.058822
1422	0.0963608
1434	0.257744
1446	0.329638
1458	0.186353
1470	0.126358
1482	0.0655253
1494	0.0393822
1506	0.0311706
1518	0.0266459
1530	0.0237969
1542	0.0261431
1554	0.0221211
1566	0.0204452
1578	0.0191046
1590	0.0167584
1602	0.0145798
1614	0.0124012
1626	0.0139095
1638	0.0145798
1650	0.0164232
1662	0.0140771
1674	0.0201101
1686	0.0259755
1698	0.0397174
1710	0.0712232
1722	0.146301
1734	0.329805
1746	0.773568
1758	1.52317
1770	1.22085
1782	0.508617
1794	0.168757
1806	0.058822
1818	0.0259755
1830	0.0164232
1842	0.0110605
1854	0.00871437
1866	0.00955229
1878	0.00754128
1890	0.00703853
1902	0.00670336
1914	0.00653578
1926	0.00653578
1938	0.00687094
1950	0.0073737
1962	0.00871437
1974	0.0102226
1986	0.0117309
1998	0.0144122
2010	0.0160881
2022	0.0182667
2034	0.0179315
2046	0.0175963
2058	0.0155853
2070	0.0139095
2082	0.00971987
2094	0.00787645
2106	0.00720611
2118	0.00586544
2130	0.00402202
2142	0.00368685
2154	0.00284893
2166	0.00268134
2178	0.00284893
2190	0.00184342
2202	0.00184342
2214	0.00117309
2226	0.00083792
2238	0.000670336
2250	0.00134067
2262	0.00083792
2274	0.00134067
2286	0.00201101
2298	0.00184342
2310	0.00083792
2322	0
2334	0.00150826
2346	0.00385443
2358	0
2370	0.0130716
2382	0.00770886
2394	0.00368685
2406	0.00201101
2418	0.00268134
2430	0.00167584
2442	0.00217859
2454	0.00167584
2466	0.00150826
2478	0.00184342
2490	0.00167584
2502	0.00201101
2514	0.00167584
2526	0.00184342
2538	0.00134067
2550	0.00150826
2562	0.00150826
2574	0.00184342
2586	0.00351926
2598	0.00485994
2610	0.00536269
2622	0.00351926
2634	0.00351926
2646	0.00435718
2658	0.00251376
2670	0.00083792
2682	0
2694	0.00134067
2706	0.0051951
2718	0.00452477
2730	0.00368685
2742	0.0041896
2754	0.00351926
2766	0.00553027
2778	0.00586544
2790	0.00720611
2802	0.00871437
2814	0.0115633
2826	0.0174287
2838	0.0341871
2850	0.0812782
2862	0.0727315
2874	0.0884844
2886	0.0921712
2898	0.0874788
2910	0.107086
2922	0.161383
2934	0.222719
2946	0.300143
2958	0.512639
2970	0.401364
2982	0.192722
2994	0.146636
3006	0.128705
3018	0.100886
3030	0.0923388
3042	0.0625088
3054	0.0380416
3066	0.0279865
3078	0.0232942
3090	0.0216183
3102	0.0191046
3114	0.0154177
3126	0.0127364
3138	0.00955229
3150	0.00821162
3162	0.00620061
3174	0.00553027
3186	0.00485994
3198	0.00435718
3210	0.00586544
3222	0.00385443
3234	0.0031841
3246	0.00402202
3258	0.00167584
3270	0.00351926
3282	0.00402202
3294	0.00368685
3306	0.00452477
3318	0.00351926
3330	0.00301651
3342	0.00117309
3354	0.00368685
3366	0.00301651
3378	0.00268134
3390	0.00201101
3402	0.00284893
3414	0.00351926
3426	0.0031841
3438	0.00435718
3450	0.00284893
3462	0.00502752
3474	0.00636819
3486	0.0124012
3498	0.0182667
3510	0.0152501
3522	0.0093847
3534	0.00435718
3546	0.00452477
3558	0.00385443
3570	0.00553027
3582	0.00435718
3594	0.00536269
3606	0.00385443
3618	0.00335168
3630	0.000502752
3642	0.00284893
3654	0.00251376
3666	0.00469235
3678	0.00284893
3690	0.00553027
3702	0.00167584
3714	0.00485994
3726	0.00485994
3738	0.00569786
3750	0.00402202
3762	0.0041896
3774	0.00553027
3786	0.00603302
3798	0.00268134
3810	0.00368685
3822	0.00502752
3834	0.00569786
3846	0.0051951
3858	0.00469235
3870	0.00469235
3882	0.00502752
3894	0.00335168
3906	0.00402202
3918	0.00485994
3930	0.00553027
3942	0.00553027
3954	0.00636819
3966	0.00402202
