Infrared Spectrum: Butanoic acid, 4-chloro-
Formula: C 4 H 7 Cl O 2
CAS: 627-00-9
Origin: Sadtler Research Labs Under US-EPA Contract
1/CM	ABSORBANCE
450	0.00407373
462	0.00886216
474	0.00500283
486	0.00979125
498	7.1469e-05
510	0.00664662
522	0.00521724
534	0.00171526
546	0.00478842
558	0.00786159
570	0.0150085
582	0.0131503
594	0.0153658
606	0.0159376
618	0.0200113
630	0.0227271
642	0.0289449
654	0.0373783
666	0.0416664
678	0.0250856
690	0.0127215
702	0.0116494
714	0.00986272
726	0.0134362
738	0.026515
750	0.02773
762	0.017224
774	0.0170096
786	0.0242995
798	0.0398082
810	0.0435246
822	0.0310175
834	0.0334475
846	0.0389506
858	0.0533873
870	0.0794735
882	0.0821179
894	0.0497424
906	0.0298026
918	0.024228
930	0.0243709
942	0.0283017
954	0.0303743
966	0.039165
978	0.0591049
990	0.0803312
1002	0.0948394
1014	0.0916233
1026	0.0869778
1038	0.0976981
1050	0.0984843
1062	0.0885501
1074	0.0448111
1086	0.0335904
1098	0.0309461
1110	0.0571037
1122	0.128644
1134	0.231345
1146	0.379357
1158	0.423168
1170	0.420095
1182	0.397868
1194	0.367208
1206	0.446038
1218	0.444752
1230	0.323469
1242	0.281231
1254	0.232203
1266	0.183818
1278	0.156874
1290	0.14694
1302	0.168881
1314	0.185176
1326	0.15373
1338	0.103559
1350	0.108776
1362	0.154945
1374	0.160162
1386	0.0924809
1398	0.0455258
1410	0.0417379
1422	0.0659659
1434	0.147226
1446	0.213835
1458	0.114493
1470	0.0631786
1482	0.0355916
1494	0.0220839
1506	0.0185105
1518	0.0156517
1530	0.0124356
1542	0.0146511
1554	0.01265
1566	0.0122212
1578	0.0120783
1590	0.0107204
1602	0.00936244
1614	0.00914803
1626	0.00800453
1638	0.00893363
1650	0.00793306
1662	0.0107204
1674	0.0156517
1686	0.0180817
1698	0.0235133
1710	0.0378786
1722	0.0708258
1734	0.162663
1746	0.39601
1758	0.681243
1770	0.625282
1782	0.328972
1794	0.1761
1806	0.172741
1818	0.181102
1830	0.141294
1842	0.0551741
1854	0.018439
1866	0.0105059
1878	0.00764718
1890	0.00607487
1902	0.00350198
1914	0.00357345
1926	0.00378786
1938	0.00371639
1950	0.00421667
1962	0.00428814
1974	0.00521724
1986	0.00614633
1998	0.00678956
2010	0.00771865
2022	0.00779012
2034	0.0060034
2046	0.00650368
2058	0.00693249
2070	0.00628927
2082	0.00693249
2094	0.0060034
2106	0.00485989
2118	0.00335904
2130	0.00242995
2142	0.00214407
2154	0.00200113
2166	0.00221554
2178	0.0020726
2190	0.00235848
2202	0.0020726
2214	0.00250141
2226	0.00214407
2238	0.00285876
2250	0.00221554
2262	0.00178673
2274	0.00271582
2286	0.00343051
2298	0.00385933
2310	0.00393079
2322	0.00264435
2334	0.00157232
2346	0.00164379
2358	0.00100057
2370	0.000857628
2382	0.00185819
2394	0.00200113
2406	0.00185819
2418	0.00192966
2430	0.00192966
2442	0.00192966
2454	0.00121497
2466	0.000357345
2478	0.000571752
2490	0.00100057
2502	0.000500283
2514	0.00157232
2526	0.00107204
2538	0.000428814
2550	0.00100057
2562	0.000428814
2574	0.000428814
2586	0.000857628
2598	0.00242995
2610	0.00278729
2622	0.00364492
2634	0.00285876
2646	0.00221554
2658	0.00393079
2670	0.00421667
2682	0.00178673
2694	0.00235848
2706	0.00257288
2718	0.00335904
2730	0.00307317
2742	0.00335904
2754	0.00378786
2766	0.00357345
2778	0.00450255
2790	0.00435961
2802	0.00543164
2814	0.00636074
2826	0.0082904
2838	0.0150085
2850	0.0339478
2862	0.0358774
2874	0.0304458
2886	0.0390935
2898	0.0492421
2910	0.0631786
2922	0.0794021
2934	0.0956255
2946	0.117638
2958	0.228844
2970	0.240493
2982	0.147012
2994	0.127215
3006	0.112278
3018	0.0786874
3030	0.0526012
3042	0.0337334
3054	0.0206545
3066	0.016152
3078	0.01265
3090	0.0111492
3102	0.00850481
3114	0.00821894
3126	0.00721837
3138	0.00586046
3150	0.00314464
3162	0.00357345
3174	0.00271582
3186	0.00271582
3198	0.00157232
3210	0.000285876
3222	0.00457402
3234	0.00657515
3246	0.00314464
3258	0.00464549
3270	0.00343051
3282	0.00521724
3294	0.00500283
3306	0.00514577
3318	0.00728984
3330	0.00886216
3342	0.008076
3354	0.00736131
3366	0.0108633
3378	0.0110777
3390	0.0117209
3402	0.0117209
3414	0.0128644
3426	0.0123641
3438	0.0132932
3450	0.012793
3462	0.0142938
3474	0.0157232
3486	0.0197254
3498	0.019511
3510	0.018439
3522	0.0153658
3534	0.0175099
3546	0.0132932
3558	0.0170811
3570	0.0300884
3582	0.033376
3594	0.018439
3606	0.0170096
3618	0.0140794
3630	0.0145797
3642	0.0142938
3654	0.0154373
3666	0.0139365
3678	0.0152229
3690	0.0143653
3702	0.0158661
3714	0.0160805
3726	0.0152229
3738	0.0181531
3750	0.0142938
3762	0.0162949
3774	0.0188678
3786	0.0190108
3798	0.0182961
3810	0.020726
3822	0.0165808
3834	0.0180817
3846	0.0181531
3858	0.0200113
3870	0.0227986
3882	0.0214407
3894	0.0237277
3906	0.0250142
3918	0.0220125
3930	0.0255859
3942	0.0214407
3954	0.0175814
3966	0.0223698
