Infrared Spectrum: Phenol, 2-(phenylmethoxy)-
Formula: C 13 H 12 O 2
CAS: 6272-38-4
Origin: Sadtler Research Labs Under US-EPA Contract
1/CM	ABSORBANCE
450	0.0448781
462	0.0385087
474	0.0372231
486	0.0269385
498	0.0132647
510	0.0183486
522	0.00444106
534	0.026062
546	0.0220884
558	0.024718
570	0.0205107
582	0.023374
594	0.0191667
606	0.0222053
618	0.030094
630	0.0231987
642	0.0139075
654	0.0142581
666	0.0175889
678	0.0388593
690	0.0922689
702	0.105534
714	0.0882953
726	0.157307
738	0.289779
750	0.236603
762	0.138023
774	0.0797638
786	0.0388008
798	0.0309121
810	0.0315549
822	0.0379243
834	0.044469
846	0.043125
858	0.0384502
870	0.0343598
882	0.0292175
894	0.0325483
906	0.0472155
918	0.0411967
930	0.0233156
942	0.0261789
954	0.0315549
966	0.0460468
978	0.0760239
990	0.0981708
1002	0.12283
1014	0.145445
1026	0.158651
1038	0.133816
1050	0.0604218
1062	0.0334248
1074	0.0324314
1086	0.049436
1098	0.0989305
1110	0.124759
1122	0.0438847
1134	0.0325483
1146	0.0478583
1158	0.0761992
1170	0.127914
1182	0.231753
1194	0.272833
1206	0.292
1218	0.396189
1230	0.311984
1242	0.200432
1254	0.400221
1266	0.530298
1278	0.182434
1290	0.0902236
1302	0.0685443
1314	0.0575585
1326	0.0499619
1338	0.0626423
1350	0.124992
1362	0.140302
1374	0.0888796
1386	0.0694208
1398	0.0361128
1410	0.0234324
1422	0.0222053
1434	0.0281072
1446	0.0451118
1458	0.0730438
1470	0.105183
1482	0.139484
1494	0.439782
1506	0.453631
1518	0.136095
1530	0.0576753
1542	0.0286916
1554	0.0212703
1566	0.028341
1578	0.0466896
1590	0.0758486
1602	0.113831
1614	0.0864838
1626	0.0308537
1638	0.018407
1650	0.019342
1662	0.00672003
1674	0.0142581
1686	0.0135569
1698	0.0146088
1710	0.0160696
1722	0.0236662
1734	0.0292759
1746	0.0250102
1758	0.0224975
1770	0.0195757
1782	0.0129726
1794	0.0158359
1806	0.0124467
1818	0.00765498
1830	0.0093496
1842	0.00642785
1854	0.00777186
1866	0.013031
1878	0.0109858
1890	0.00841464
1902	0.00707063
1914	0.0101093
1926	0.0071875
1938	0.00853151
1950	0.00917429
1962	0.00858994
1974	0.00508385
1986	0.00438263
1998	0.00473323
2010	0.00502541
2022	0.0056682
2034	0.00654472
2046	0.00625254
2058	0.00502541
2070	0.00455793
2082	0.00397358
2094	0.00391515
2106	0.00280488
2118	0.00210366
2130	0.0023374
2142	0.00105183
2154	0.00128557
2166	0.00111027
2178	0.00140244
2190	0.00163618
2202	0.00146087
2214	0.00169462
2226	0.0021621
2238	0.00257114
2250	0.00268801
2262	0.00321392
2274	0.00373984
2286	0.00490854
2298	0.00853151
2310	0.012096
2322	0.00975864
2334	0.00654472
2346	0.0147841
2358	0.00537602
2370	0.0081809
2382	0.00829777
2394	0.00356453
2406	0.00385671
2418	0.00461636
2430	0.00438263
2442	0.00455793
2454	0.00403201
2466	0.0044995
2478	0.00473323
2490	0.00525915
2502	0.00596037
2514	0.00742124
2526	0.00683689
2538	0.00461636
2550	0.00420732
2562	0.00444106
2574	0.00362297
2586	0.00309706
2598	0.00315549
2610	0.00338923
2622	0.0035061
2634	0.00373984
2646	0.00362297
2658	0.00303862
2670	0.00362297
2682	0.00385671
2694	0.0046748
2706	0.00502541
2718	0.00648628
2730	0.00695376
2742	0.00625254
2754	0.00578506
2766	0.00514228
2778	0.00531758
2790	0.0060188
2802	0.00724594
2814	0.00823934
2826	0.00876525
2838	0.00999238
2850	0.0126804
2862	0.0172968
2874	0.0277566
2886	0.0382749
2898	0.0332495
2910	0.0298018
2922	0.0336586
2934	0.0399111
2946	0.043125
2958	0.0407292
2970	0.0293344
2982	0.0180564
2994	0.0119792
3006	0.0137907
3018	0.024718
3030	0.0581428
3042	0.0933791
3054	0.0974696
3066	0.115526
3078	0.120785
3090	0.0716997
3102	0.0457546
3114	0.0268217
3126	0.0122714
3138	0.0058435
3150	0.0044995
3162	0.00391515
3174	0.00444106
3186	0.0035061
3198	0.00262957
3210	0.00356453
3222	0.0033308
3234	0.00368141
3246	0.00327236
3258	0.00403201
3270	0.00338923
3282	0.00356453
3294	0.00344766
3306	0.00344766
3318	0.00239583
3330	0.00286331
3342	0.00321392
3354	0.00251271
3366	0.00251271
3378	0.00298018
3390	0.00315549
3402	0.00327236
3414	0.00444106
3426	0.00298018
3438	0.00315549
3450	0.00245427
3462	0.00373984
3474	0.00327236
3486	0.00280488
3498	0.00321392
3510	0.00251271
3522	0.00689533
3534	0.0109858
3546	0.0204522
3558	0.0437094
3570	0.13703
3582	0.217086
3594	0.136679
3606	0.0499035
3618	0.0242505
3630	0.013966
3642	0.0101677
3654	0.0234909
3666	0.0184655
3678	0.00660315
3690	0.00572663
3702	0.00520071
3714	0.0058435
3726	0.000876525
3738	0.00105183
3750	0.0136738
3762	0.00186992
3774	0.00391515
3786	0.00438263
3798	0.00841464
3810	0.00572663
3822	0.0070122
3834	0.00683689
3846	0.0081809
3858	0.00222053
3870	0.00309706
3882	0.00841464
3894	0.00514228
3906	0.00794716
3918	0.010752
3930	0.0056682
3942	0.0056682
3954	0.00800559
3966	0.00800559
