Infrared Spectrum: Acetic acid, pentyl ester
Formula: C 7 H 14 O 2
CAS: 628-63-7
Origin: Sadtler Research Labs Under US-EPA Contract
1/CM	ABSORBANCE
450	0
462	0.0260577
474	0.0276992
486	0.0318027
498	0.0242111
510	0.0250318
522	0.0295458
534	0.0311872
546	0.0254422
558	0.0291354
570	0.027494
582	0.0318027
594	0.0430876
606	0.0558087
618	0.0580657
630	0.0750955
642	0.0564242
654	0.0424721
666	0.029751
678	0.0301613
690	0.0260577
702	0.0268784
714	0.0303665
726	0.0381633
738	0.0414462
750	0.0369322
762	0.035496
774	0.0365219
786	0.033239
798	0.0350856
810	0.0383685
822	0.046986
834	0.0519103
846	0.0512948
858	0.0521155
870	0.0551932
882	0.052731
894	0.052731
906	0.0541673
918	0.0508844
930	0.0506792
942	0.0535517
954	0.0500637
966	0.069966
978	0.088227
990	0.0851493
1002	0.123518
1014	0.190816
1026	0.266528
1038	0.352087
1050	0.39497
1062	0.298535
1074	0.23452
1086	0.19533
1098	0.120235
1110	0.0828923
1122	0.0660676
1134	0.0547828
1146	0.0488326
1158	0.0506792
1170	0.0566294
1182	0.0736593
1194	0.117362
1206	0.252986
1218	0.669704
1230	1.72432
1242	1.9176
1254	0.845953
1266	0.414051
1278	0.231032
1290	0.162297
1302	0.121261
1314	0.0896632
1326	0.07448
1338	0.0675039
1350	0.0898684
1362	0.267964
1374	0.383685
1386	0.233083
1398	0.190816
1410	0.0945875
1422	0.07448
1434	0.0843286
1446	0.106283
1458	0.142189
1470	0.154295
1482	0.111002
1494	0.068735
1506	0.0541673
1518	0.049243
1530	0.0455497
1542	0.0430876
1554	0.0391892
1566	0.0361115
1578	0.0344701
1590	0.0326235
1602	0.0322131
1614	0.0328286
1626	0.0328286
1638	0.0342649
1650	0.0373426
1662	0.0383685
1674	0.041241
1686	0.0449342
1698	0.0535517
1710	0.0740696
1722	0.117773
1734	0.212976
1746	0.489762
1758	1.14941
1770	1.06344
1782	0.393123
1794	0.152038
1806	0.083713
1818	0.0560139
1830	0.0434979
1842	0.0361115
1854	0.033239
1866	0.0340597
1878	0.0318027
1890	0.030982
1902	0.0295458
1914	0.0283147
1926	0.027494
1938	0.0270836
1950	0.0260577
1962	0.0264681
1974	0.0258526
1986	0.0262629
1998	0.027494
2010	0.0279043
2022	0.0266733
2034	0.0258526
2046	0.0262629
2058	0.0272888
2070	0.0272888
2082	0.0287251
2094	0.0299561
2106	0.0299561
2118	0.0291354
2130	0.0272888
2142	0.0262629
2154	0.0254422
2166	0.0254422
2178	0.0254422
2190	0.0254422
2202	0.0254422
2214	0.025237
2226	0.0246215
2238	0.0244163
2250	0.0244163
2262	0.0242111
2274	0.0244163
2286	0.0242111
2298	0.0244163
2310	0.0248267
2322	0.0254422
2334	0.0256474
2346	0.0256474
2358	0.0233904
2370	0.0244163
2382	0.0240059
2394	0.0231852
2406	0.0235956
2418	0.0238008
2430	0.0233904
2442	0.0244163
2454	0.0246215
2466	0.0254422
2478	0.0248267
2490	0.0238008
2502	0.0221593
2514	0.0223645
2526	0.0215438
2538	0.0219542
2550	0.0215438
2562	0.0225697
2574	0.0225697
2586	0.02298
2598	0.0246215
2610	0.0254422
2622	0.0254422
2634	0.0258526
2646	0.0264681
2658	0.0270836
2670	0.0285199
2682	0.0279043
2694	0.027494
2706	0.0272888
2718	0.0262629
2730	0.0281095
2742	0.0313924
2754	0.0315976
2766	0.029751
2778	0.0305717
2790	0.0322131
2802	0.0361115
2814	0.0395995
2826	0.0463705
2838	0.0592967
2850	0.0947927
2862	0.17789
2874	0.258731
2886	0.271657
2898	0.224466
2910	0.251549
2922	0.352703
2934	0.523617
2946	0.615947
2958	0.583119
2970	0.700481
2982	0.428824
2994	0.178095
3006	0.0978704
3018	0.0697609
3030	0.0621692
3042	0.0543724
3054	0.0480119
3066	0.0437031
3078	0.0410358
3090	0.0363167
3102	0.0328286
3114	0.0301613
3126	0.0291354
3138	0.027494
3150	0.0260577
3162	0.025237
3174	0.0262629
3186	0.0258526
3198	0.0254422
3210	0.0248267
3222	0.02298
3234	0.02298
3246	0.0225697
3258	0.021749
3270	0.0221593
3282	0.0225697
3294	0.0221593
3306	0.0223645
3318	0.0219542
3330	0.021749
3342	0.0209283
3354	0.0215438
3366	0.0227749
3378	0.0221593
3390	0.021749
3402	0.0221593
3414	0.0211334
3426	0.0223645
3438	0.0219542
3450	0.0231852
3462	0.0244163
3474	0.0248267
3486	0.0268784
3498	0.0318027
3510	0.0344701
3522	0.0283147
3534	0.0227749
3546	0.0231852
3558	0.02298
3570	0.0225697
3582	0.0235956
3594	0.0242111
3606	0.0242111
3618	0.0238008
3630	0.0254422
3642	0.0244163
3654	0.0256474
3666	0.0246215
3678	0.0262629
3690	0.0223645
3702	0.0248267
3714	0.0244163
3726	0.0244163
3738	0.0242111
3750	0.0254422
3762	0.0254422
3774	0.0258526
3786	0.0256474
3798	0.0268784
3810	0.0238008
3822	0.0254422
3834	0.0258526
3846	0.0270836
3858	0.0242111
3870	0.027494
3882	0.027494
3894	0.0246215
3906	0.0262629
3918	0.0254422
3930	0.0301613
3942	0.0242111
3954	0.0231852
3966	0.0240059
