Infrared Spectrum: Ethanol, 2,2'-oxybis-, diacetate
Formula: C 8 H 14 O 5
CAS: 628-68-2
Origin: Sadtler Research Labs Under US-EPA Contract
1/CM	ABSORBANCE
450	0.000343752
462	0.00300783
474	0.00730473
486	0.0085938
498	0.00558597
510	0.00085938
522	0.00335158
534	0.00747661
546	0.00782036
558	0.0049844
570	0.00352346
582	0.00584378
594	0.0156407
606	0.0273283
618	0.0178751
630	0.0204532
642	0.0227736
654	0.0129766
666	0.00584378
678	0.0036094
690	0.00335158
702	0.00335158
714	0.00455471
726	0.00472659
738	0.00575785
750	0.00326564
762	0.00601566
774	0.00661723
786	0.0104844
798	0.0123751
810	0.015211
822	0.0192501
834	0.0228595
846	0.0288752
858	0.029133
870	0.0245783
882	0.0198517
894	0.0213126
906	0.0238908
918	0.029047
930	0.0361799
942	0.0446878
954	0.0525941
966	0.0501019
978	0.0408206
990	0.0418518
1002	0.0510472
1014	0.0482972
1026	0.0682348
1038	0.112837
1050	0.166376
1062	0.229884
1074	0.188376
1086	0.121001
1098	0.085938
1110	0.0717582
1122	0.0865396
1134	0.159329
1146	0.249736
1158	0.140165
1170	0.0640238
1182	0.0519066
1194	0.0660863
1206	0.134579
1218	0.36919
1230	0.851044
1242	0.678996
1254	0.342635
1266	0.188978
1278	0.130196
1290	0.0913521
1302	0.0608441
1314	0.0355783
1326	0.0260392
1338	0.0246642
1350	0.0409065
1362	0.103126
1374	0.170415
1386	0.134063
1398	0.0881724
1410	0.0403049
1422	0.030508
1434	0.0367815
1446	0.0470081
1458	0.0482112
1470	0.0367815
1482	0.0238048
1494	0.0191642
1506	0.0140938
1518	0.0109141
1530	0.0114298
1542	0.0110001
1554	0.00902349
1566	0.00816411
1578	0.0079063
1590	0.00842192
1602	0.0067891
1614	0.00756254
1626	0.00687504
1638	0.00627347
1650	0.00739067
1662	0.00996881
1674	0.00945318
1686	0.00953912
1698	0.0137501
1710	0.0229454
1722	0.0408206
1734	0.0723598
1746	0.170587
1758	0.463807
1770	0.586613
1782	0.243806
1794	0.0975396
1806	0.0432268
1818	0.020797
1830	0.0132345
1842	0.00885161
1854	0.00747661
1866	0.00644535
1878	0.00627347
1890	0.00670316
1902	0.00558597
1914	0.00524222
1926	0.00438284
1938	0.00386721
1950	0.00515628
1962	0.0042969
1974	0.00378127
1986	0.0036094
1998	0.00326564
2010	0.00507034
2022	0.00507034
2034	0.00515628
2046	0.00455471
2058	0.00455471
2070	0.00558597
2082	0.0061016
2094	0.00541409
2106	0.00446878
2118	0.00335158
2130	0.00335158
2142	0.00283595
2154	0.00240626
2166	0.00189064
2178	0.00189064
2190	0.00275002
2202	0.00223439
2214	0.00137501
2226	0.00128907
2238	0.000687504
2250	0.00120313
2262	0.00128907
2274	0.000601566
2286	0.000687504
2298	8.5938e-05
2310	0.000171876
2322	0
2334	0
2346	0
2358	0
2370	0.000515628
2382	0.00154688
2394	0.000515628
2406	0.00042969
2418	0.000515628
2430	0.000515628
2442	0.00120313
2454	0.00120313
2466	0.000773442
2478	0.00128907
2490	0.00137501
2502	0.00137501
2514	0.00085938
2526	0.00103126
2538	0.00103126
2550	0.00154688
2562	0.00120313
2574	0.00137501
2586	0.00137501
2598	0.00163282
2610	0.00197657
2622	0.00206251
2634	0.00163282
2646	0.00163282
2658	0.00171876
2670	0.00232033
2682	0.00240626
2694	0.00283595
2706	0.00378127
2718	0.00592972
2730	0.00721879
2742	0.00730473
2754	0.0067891
2766	0.00635941
2778	0.00687504
2790	0.0079063
2802	0.00902349
2814	0.00979693
2826	0.0127188
2838	0.0163282
2850	0.0262111
2862	0.0493284
2874	0.0657426
2886	0.0646254
2898	0.0618754
2910	0.0550003
2922	0.0478675
2934	0.0452893
2946	0.0658285
2958	0.0995162
2970	0.080438
2982	0.05818
2994	0.0449456
3006	0.0281877
3018	0.0164142
3030	0.0129766
3042	0.0115157
3054	0.00833599
3066	0.00876568
3078	0.00842192
3090	0.00756254
3102	0.00550003
3114	0.00403909
3126	0.00412502
3138	0.00386721
3150	0.00421096
3162	0.00266408
3174	0.00214845
3186	0.0018047
3198	0.00240626
3210	0.00240626
3222	0.000945318
3234	0.00103126
3246	0.00120313
3258	0.0024922
3270	0.00326564
3282	0.00283595
3294	0.00103126
3306	0.00214845
3318	0.00403909
3330	0.0036094
3342	0.00257814
3354	0.000515628
3366	0.00163282
3378	0.00335158
3390	0.00232033
3402	0.00128907
3414	0
3426	0.000515628
3438	0.00206251
3450	0.00266408
3462	0.00283595
3474	0.00120313
3486	0.00352346
3498	0.00661723
3510	0.00842192
3522	0.00644535
3534	0.00223439
3546	0.00214845
3558	0.00386721
3570	0.00171876
3582	0.00223439
3594	0.00085938
3606	0.00103126
3618	0.00171876
3630	0.00214845
3642	0.00266408
3654	0.00128907
3666	0.00326564
3678	0.00455471
3690	0.00446878
3702	0.00403909
3714	0.00300783
3726	0.00464065
3738	0.00524222
3750	0.00592972
3762	0.00524222
3774	0.00592972
3786	0.00524222
3798	0.00713285
3810	0.00747661
3822	0.0061016
3834	0.00592972
3846	0.00773442
3858	0.0101407
3870	0.0114298
3882	0.00833599
3894	0.0079063
3906	0.00936724
3918	0.0127188
3930	0.0122032
3942	0.0101407
3954	0.00128907
3966	0.0018047
