Infrared Spectrum: 1,4-Butanediol, diacetate
Formula: C 8 H 14 O 4
CAS: 628-67-1
Origin: Sadtler Research Labs Under US-EPA Contract
1/CM	ABSORBANCE
450	0.0194218
462	0.0107717
474	0.00293774
486	0
498	0.00244812
510	0.00701794
522	0.00865002
534	0.0146887
546	0.00554907
558	0.0141991
570	0.0146887
582	0.020401
594	0.0300303
606	0.0448822
618	0.0350897
630	0.0522266
642	0.05647
654	0.040802
666	0.0166472
678	0.0122406
690	0.00865002
702	0.00767078
714	0.0040802
726	0.00767078
738	0.0081604
750	0.00865002
762	0.00881323
774	0.00750757
786	0.0122406
798	0.015668
810	0.0186057
822	0.0186057
834	0.0213802
846	0.0223595
858	0.0238284
870	0.0217067
882	0.0208906
894	0.0223595
906	0.0248076
918	0.0275822
930	0.029051
942	0.0385171
954	0.0522266
966	0.0567964
978	0.0608766
990	0.0616926
1002	0.0891116
1014	0.143949
1026	0.224248
1038	0.293448
1050	0.338983
1062	0.227675
1074	0.174306
1086	0.135952
1098	0.0881323
1110	0.0527162
1122	0.0354161
1134	0.0308463
1146	0.0381907
1158	0.0527162
1170	0.072954
1182	0.093355
1194	0.131709
1206	0.270436
1218	0.77687
1230	1.63208
1242	1.10884
1254	0.576287
1266	0.311074
1278	0.168431
1290	0.106901
1302	0.0740964
1314	0.0540218
1326	0.0430869
1338	0.0354161
1350	0.0504313
1362	0.181324
1374	0.299487
1386	0.162718
1398	0.141175
1410	0.0618558
1422	0.0429237
1434	0.0504313
1446	0.0638143
1458	0.0709955
1470	0.064304
1482	0.0487992
1494	0.0298671
1506	0.0248076
1518	0.0220331
1530	0.0181161
1542	0.0173
1554	0.0145255
1566	0.0124038
1578	0.0110981
1590	0.0104453
1602	0.00979248
1614	0.00979248
1626	0.0104453
1638	0.0114246
1650	0.0137095
1662	0.0141991
1674	0.0174633
1686	0.0213802
1698	0.0277454
1710	0.0430869
1722	0.0770342
1734	0.144276
1746	0.333271
1758	0.875611
1770	0.961295
1782	0.385171
1794	0.191769
1806	0.127139
1818	0.05647
1830	0.0264397
1842	0.0166472
1854	0.012567
1866	0.0120774
1878	0.00946606
1890	0.00848682
1902	0.00767078
1914	0.00669153
1926	0.00554907
1938	0.00587549
1950	0.00489624
1962	0.00473303
1974	0.00489624
1986	0.00505945
1998	0.00636511
2010	0.0062019
2022	0.00685474
2034	0.00783398
2046	0.00767078
2058	0.00701794
2070	0.00832361
2082	0.00913965
2094	0.00734436
2106	0.00587549
2118	0.00489624
2130	0.00456982
2142	0.00473303
2154	0.00391699
2166	0.00359058
2178	0.00359058
2190	0.00228491
2202	0.00261133
2214	0.00179529
2226	0.00146887
2238	0.0021217
2250	0.0021217
2262	0.00179529
2274	0.00244812
2286	0.00261133
2298	0.00310095
2310	0.00375378
2322	0.00293774
2334	0.00146887
2346	0.00342737
2358	0.00081604
2370	0.00228491
2382	0.00310095
2394	0.0019585
2406	0.00228491
2418	0.00261133
2430	0.00261133
2442	0.00359058
2454	0.00473303
2466	0.00473303
2478	0.00473303
2490	0.00342737
2502	0.00293774
2514	0.0021217
2526	0.00179529
2538	0.00146887
2550	0.00179529
2562	0.0021217
2574	0.0021217
2586	0.00228491
2598	0.00179529
2610	0.00114246
2622	0.00146887
2634	0.00179529
2646	0.000979248
2658	0.00114246
2670	0.00456982
2682	0.00440662
2694	0.00456982
2706	0.00505945
2718	0.00440662
2730	0.00505945
2742	0.00505945
2754	0.00505945
2766	0.00538586
2778	0.00456982
2790	0.00538586
2802	0.00571228
2814	0.00538586
2826	0.00783398
2838	0.00995569
2850	0.0169736
2862	0.0318256
2874	0.0339473
2886	0.0390067
2898	0.0509209
2910	0.0649568
2922	0.0793191
2934	0.093355
2946	0.128934
2958	0.174306
2970	0.188179
2982	0.130077
2994	0.0693634
3006	0.0352529
3018	0.0233387
3030	0.0215435
3042	0.0200746
3054	0.0174633
3066	0.0155048
3078	0.0140359
3090	0.0112614
3102	0.00946606
3114	0.00734436
3126	0.00571228
3138	0.00538586
3150	0.00440662
3162	0.00310095
3174	0.00228491
3186	0.00261133
3198	0.00310095
3210	0.00261133
3222	0.00261133
3234	0.00228491
3246	0.00228491
3258	0.0021217
3270	0.00293774
3282	0.00261133
3294	0.00326416
3306	0.00310095
3318	0.00326416
3330	0.0021217
3342	0.00244812
3354	0.00244812
3366	0.00261133
3378	0.0021217
3390	0.00261133
3402	0.00244812
3414	0.00261133
3426	0.00228491
3438	0.00326416
3450	0.00244812
3462	0.00326416
3474	0.00424341
3486	0.00473303
3498	0.00946606
3510	0.0122406
3522	0.00685474
3534	0.00293774
3546	0.00440662
3558	0.0119142
3570	0.0159944
3582	0.0221963
3594	0.0145255
3606	0.00946606
3618	0.00359058
3630	0.00554907
3642	0.00244812
3654	0.00424341
3666	0.00342737
3678	0.00228491
3690	0.00228491
3702	0.00114246
3714	0.00179529
3726	0.00163208
3738	0.0021217
3750	0.000326416
3762	0.0021217
3774	0.00228491
3786	0.00261133
3798	0.00179529
3810	0.000326416
3822	0.00277454
3834	0.000326416
3846	0.00081604
3858	0.00179529
3870	0.00114246
3882	0.000489624
3894	0.000326416
3906	0.00326416
3918	0.00179529
3930	0.00489624
3942	0.00326416
3954	0.00310095
3966	0.00456982
