Infrared Spectrum: 2-Nonanol
Formula: C 9 H 20 O
CAS: 628-99-9
Origin: Sadtler Research Labs Under US-EPA Contract
1/CM	ABSORBANCE
450	0.0099792
462	0.0108108
474	0.00989604
486	0.0121414
498	0.00931392
510	0.00640332
522	0.0070686
534	0.00690228
546	0.00382536
558	0.00648648
570	0.00307692
582	0.0033264
594	0.00548856
606	0.00474012
618	0.00723492
630	0.00432432
642	0.0037422
654	0.00573804
666	0.00490644
678	0.00490644
690	0.00723492
702	0.00864864
714	0.0137214
726	0.0165488
738	0.0120582
750	0.0103118
762	0.00839916
774	0.0102287
786	0.00864864
798	0.00964656
810	0.0118919
822	0.0149688
834	0.0165488
846	0.02079
858	0.0179626
870	0.0143035
882	0.0170478
894	0.0207068
906	0.0237838
918	0.0350104
930	0.043659
942	0.044158
954	0.0345946
966	0.0282744
978	0.0331808
990	0.043659
1002	0.0471517
1014	0.0444074
1026	0.0448232
1038	0.0518087
1050	0.064948
1062	0.0693554
1074	0.072266
1086	0.0801662
1098	0.0854885
1110	0.071185
1122	0.0704365
1134	0.0780872
1146	0.0674428
1158	0.0419126
1170	0.0315176
1182	0.0335135
1194	0.0338461
1206	0.0360914
1218	0.04158
1230	0.0511434
1242	0.0663617
1254	0.0614552
1266	0.045239
1278	0.0370894
1290	0.0330977
1302	0.0321829
1314	0.0320998
1326	0.0314345
1338	0.0407484
1350	0.0532224
1362	0.0640332
1374	0.0922244
1386	0.106861
1398	0.0677754
1410	0.0404158
1422	0.0285239
1434	0.0329314
1446	0.0532224
1458	0.0832432
1470	0.0807484
1482	0.037422
1494	0.0162162
1506	0.0108108
1518	0.00881496
1530	0.00715176
1542	0.00532224
1554	0.0049896
1566	0.00424116
1578	0.00390852
1590	0.00390852
1602	0.00407484
1614	0.00432432
1626	0.00365904
1638	0.00257796
1650	0.004158
1662	0.00340956
1674	0.00382536
1686	0.00316008
1698	0.00357588
1710	0.0033264
1722	0.0033264
1734	0.0024948
1746	0.00340956
1758	0.00266112
1770	0.00307692
1782	0.00282744
1794	0.00224532
1806	0.00274428
1818	0.00174636
1830	0.0024948
1842	0.00274428
1854	0.002079
1866	0.00257796
1878	0.00216216
1890	0.00174636
1902	0.0024948
1914	0.00191268
1926	0.00224532
1938	0.00241164
1950	0.0016632
1962	0.0016632
1974	0.002079
1986	0.00116424
1998	0.00216216
2010	0.00149688
2022	0.002079
2034	0.00232848
2046	0.0024948
2058	0.00199584
2070	0.00182952
2082	0.00182952
2094	0.0016632
2106	0.00149688
2118	0.0012474
2130	0.002079
2142	0.0016632
2154	0.00182952
2166	0.00241164
2178	0.00191268
2190	0.00182952
2202	0.00182952
2214	0.00182952
2226	0.00182952
2238	0.00174636
2250	0.0016632
2262	0.00174636
2274	0.00141372
2286	0.0016632
2298	0.00216216
2310	0.00216216
2322	0.00224532
2334	0.00191268
2346	0.00108108
2358	0.00116424
2370	0.0004158
2382	0.00099792
2394	0.0016632
2406	0.00158004
2418	0.00158004
2430	0.0016632
2442	0.00099792
2454	0.00133056
2466	0.00141372
2478	0.0008316
2490	0.00141372
2502	0.00066528
2514	0.00074844
2526	0.00133056
2538	0.00116424
2550	0.00182952
2562	0.00224532
2574	0.00232848
2586	0.00365904
2598	0.00390852
2610	0.00482328
2622	0.00632016
2634	0.00698544
2646	0.00814968
2658	0.0091476
2670	0.00972972
2682	0.0107276
2694	0.0099792
2706	0.00898128
2718	0.00939708
2730	0.0108108
2742	0.0122245
2754	0.0123077
2766	0.0120582
2778	0.0138046
2790	0.0169646
2802	0.0218711
2814	0.0291892
2826	0.0396673
2838	0.0624532
2850	0.138545
2862	0.299875
2874	0.325072
2886	0.270021
2898	0.223867
2910	0.308607
2922	0.543035
2934	0.8316
2946	0.622037
2958	0.39027
2970	0.472349
2982	0.299625
2994	0.110353
3006	0.0459043
3018	0.0297713
3030	0.0198752
3042	0.0151351
3054	0.011975
3066	0.00989604
3078	0.00906444
3090	0.00740124
3102	0.0066528
3114	0.00607068
3126	0.00490644
3138	0.00532224
3150	0.0049896
3162	0.00465696
3174	0.00548856
3186	0.00465696
3198	0.00432432
3210	0.0045738
3222	0.00216216
3234	0.00274428
3246	0.00141372
3258	0.00116424
3270	0.0016632
3282	0.0008316
3294	0.00133056
3306	0.0016632
3318	0.00058212
3330	0.00108108
3342	0.00241164
3354	0.00099792
3366	0.00174636
3378	0.002079
3390	0.002079
3402	0.00224532
3414	0.00257796
3426	0.0033264
3438	0.0045738
3450	0.00324324
3462	0.00316008
3474	0.00241164
3486	0.0012474
3498	0.00241164
3510	0.00182952
3522	0.00158004
3534	0.00224532
3546	0.00182952
3558	0.00274428
3570	0.00324324
3582	0.00232848
3594	0.00266112
3606	0.00424116
3618	0.00698544
3630	0.0131393
3642	0.0222037
3654	0.0386694
3666	0.031185
3678	0.0113098
3690	0.00557172
3702	0.00449064
3714	0.00382536
3726	0.004158
3738	0.00307692
3750	0.00307692
3762	0.00357588
3774	0.00340956
3786	0.00407484
3798	0.00482328
3810	0.00432432
3822	0.00490644
3834	0.00523908
3846	0.00523908
3858	0.00632016
3870	0.00598752
3882	0.00640332
3894	0.0058212
3906	0.00640332
3918	0.0058212
3930	0.00523908
3942	0.00565488
3954	0.00690228
3966	0.0066528
