Infrared Spectrum: 2-Octanol, 2-methyl-
Formula: C 9 H 20 O
CAS: 628-44-4
Origin: Sadtler Research Labs Under US-EPA Contract
1/CM	ABSORBANCE
450	0.0235008
462	0.013856
474	0.0126334
486	0.00230933
498	0.00543372
510	0.0127692
522	0.00584125
534	0.0130409
546	0.0116825
558	0.0108674
570	0.00692799
582	0.00624878
594	0.0131768
606	0.00760721
618	0.00760721
630	0.00896564
642	0.00733552
654	0.00652046
666	0.000271686
678	0.0100524
690	0.00828642
702	0.00991654
714	0.0183388
726	0.0262177
738	0.0217349
750	0.0245876
762	0.0287987
774	0.0222783
786	0.0124976
798	0.0104599
810	0.00937317
822	0.00828642
834	0.00882979
846	0.0110033
858	0.0153503
870	0.0222783
882	0.0418396
894	0.0830001
906	0.136522
918	0.119949
930	0.10066
942	0.103648
954	0.0725402
966	0.0387153
978	0.0316514
990	0.0271686
1002	0.0235008
1014	0.0247234
1026	0.0243159
1038	0.0236367
1050	0.0309722
1062	0.0461866
1074	0.0738986
1086	0.094275
1098	0.107044
1110	0.111391
1122	0.124976
1134	0.171298
1146	0.177547
1158	0.188822
1170	0.174422
1182	0.130817
1194	0.121172
1206	0.144809
1218	0.160431
1230	0.144809
1242	0.116825
1254	0.0983503
1266	0.0956335
1278	0.0946826
1290	0.0944109
1302	0.0950901
1314	0.0991654
1326	0.104327
1338	0.111255
1350	0.106637
1362	0.158121
1374	0.267203
1386	0.246691
1398	0.0964485
1410	0.0430622
1422	0.0389869
1434	0.0463225
1446	0.0785173
1458	0.146303
1470	0.1804
1482	0.097807
1494	0.0366776
1506	0.0191539
1518	0.0129051
1530	0.00828642
1542	0.00733552
1554	0.00489035
1566	0.0038036
1578	0.0038036
1590	0.00353192
1602	0.0028527
1614	0.00461866
1626	0.00353192
1638	0.00597709
1650	0.00393945
1662	0.00353192
1674	0.00461866
1686	0.00448282
1698	0.00407529
1710	0.00258102
1722	0.00230933
1734	0.00271686
1746	0.000815058
1758	0.00149427
1770	0.00108674
1782	0.00108674
1794	0.00176596
1806	0.00217349
1818	0.0019018
1830	0.00163012
1842	0.00163012
1854	0.00149427
1866	0.00135843
1878	0.000815058
1890	0.000950901
1902	0.000679215
1914	0.000815058
1926	0.000135843
1938	0.000271686
1950	0.000135843
1962	0.000407529
1974	0
1986	0.000679215
1998	0.00163012
2010	0.00122259
2022	0.00176596
2034	0.00108674
2046	0.00163012
2058	0.00176596
2070	0.000135843
2082	0.000815058
2094	0.00217349
2106	0.00135843
2118	0.00203764
2130	0.00176596
2142	0.0019018
2154	0.00163012
2166	0.0019018
2178	0.00122259
2190	0.00163012
2202	0.00163012
2214	0.00135843
2226	0.00163012
2238	0.00163012
2250	0.00163012
2262	0.00203764
2274	0.00217349
2286	0.00244517
2298	0.00271686
2310	0.0019018
2322	0
2334	0.000135843
2346	0.00298855
2358	0
2370	0.00448282
2382	0.00434698
2394	0.00217349
2406	0.00163012
2418	0.00108674
2430	0.00244517
2442	0.00258102
2454	0.0019018
2466	0.00149427
2478	0.00203764
2490	0.00258102
2502	0.00244517
2514	0.00258102
2526	0.00407529
2538	0.00489035
2550	0.00434698
2562	0.00448282
2574	0.00475451
2586	0.00665631
2598	0.00774305
2610	0.00910148
2622	0.00991654
2634	0.0108674
2646	0.0118183
2658	0.0119542
2670	0.0134485
2682	0.0134485
2694	0.01209
2706	0.0122259
2718	0.0145352
2730	0.018203
2742	0.0218707
2754	0.0205123
2766	0.0202406
2778	0.0214632
2790	0.0263535
2802	0.0345041
2814	0.0479526
2826	0.0646613
2838	0.101067
2850	0.212866
2862	0.43592
2874	0.517018
2886	0.475722
2898	0.412012
2910	0.542149
2922	0.838151
2934	1.29825
2946	1.21634
2958	0.856083
2970	1.19107
2982	0.950493
2994	0.347622
3006	0.116417
3018	0.0630312
3030	0.0425189
3042	0.0332815
3054	0.0258102
3066	0.0221424
3078	0.0205123
3090	0.0176596
3102	0.0176596
3114	0.0154861
3126	0.0133126
3138	0.0129051
3150	0.0127692
3162	0.0124976
3174	0.011275
3186	0.0115467
3198	0.0118183
3210	0.0105958
3222	0.00910148
3234	0.00706384
3246	0.00516203
3258	0.00461866
3270	0.00258102
3282	0.00203764
3294	0.0019018
3306	0.00298855
3318	0.00448282
3330	0.00366776
3342	0.00448282
3354	0.00611293
3366	0.00570541
3378	0.00529788
3390	0.00719968
3402	0.00774305
3414	0.00733552
3426	0.00801474
3438	0.00760721
3450	0.00652046
3462	0.00448282
3474	0.00652046
3486	0.00556956
3498	0.00461866
3510	0.00719968
3522	0.00353192
3534	0.00516203
3546	0.00556956
3558	0.00516203
3570	0.00733552
3582	0.00543372
3594	0.00719968
3606	0.00910148
3618	0.0131768
3630	0.0383077
3642	0.0819133
3654	0.0512128
3666	0.019018
3678	0.0130409
3690	0.0101882
3702	0.00855811
3714	0.0123617
3726	0.00815058
3738	0.00937317
3750	0.00624878
3762	0.00529788
3774	0.00665631
3786	0.00692799
3798	0.00801474
3810	0.00774305
3822	0.00842227
3834	0.00706384
3846	0.00719968
3858	0.011275
3870	0.00910148
3882	0.00882979
3894	0.0124976
3906	0.00855811
3918	0.00760721
3930	0.00543372
3942	0.00692799
3954	0.00271686
3966	0.00760721
