Infrared Spectrum: Hexadecanoic acid, ethyl ester
Formula: C 18 H 36 O 2
CAS: 628-97-7
Origin: Sadtler Research Labs Under US-EPA Contract
1/CM	ABSORBANCE
450	0.0149888
462	0.0110481
474	0.0191406
486	0.0110481
498	0.00534812
510	0.0130185
522	0.00689626
534	0.00682589
546	0.0117518
558	0.00028148
570	0.00724811
582	0.0131592
594	0.00682589
606	0.0104148
618	0.0116111
630	0.00724811
642	0.00935921
654	0.00858514
666	0.00675552
678	0.00942958
690	0.0098518
702	0.012174
714	0.0184369
726	0.0164666
738	0.0133703
750	0.0143555
762	0.0119629
774	0.0144259
786	0.0132999
798	0.00964069
810	0.0107666
822	0.0107666
834	0.00928884
846	0.0126666
858	0.0151296
870	0.0132296
882	0.0122444
894	0.0122444
906	0.0118925
918	0.0141444
930	0.0140036
942	0.0124555
954	0.0123851
966	0.0109074
978	0.0114703
990	0.0125962
1002	0.0141444
1014	0.0225184
1026	0.0418702
1038	0.0591812
1050	0.0546775
1062	0.0446146
1074	0.0403924
1086	0.0461627
1098	0.0635441
1110	0.0655848
1122	0.0724107
1134	0.0748737
1146	0.106399
1158	0.147425
1170	0.16171
1182	0.147636
1194	0.122514
1206	0.103936
1218	0.0980958
1230	0.100629
1242	0.10267
1254	0.0903551
1266	0.0687515
1278	0.054396
1290	0.0508775
1302	0.0529182
1314	0.0512997
1326	0.0445442
1338	0.0465146
1350	0.0534108
1362	0.0481331
1374	0.0619256
1386	0.0370146
1398	0.0249814
1410	0.0199851
1422	0.0223073
1434	0.0322998
1446	0.0443331
1458	0.0647404
1470	0.0618552
1482	0.027585
1494	0.0145666
1506	0.010837
1518	0.00823329
1530	0.00675552
1542	0.00710737
1554	0.00654441
1566	0.00527775
1578	0.00640367
1590	0.00478516
1602	0.00513701
1614	0.00577034
1626	0.00365924
1638	0.00577034
1650	0.00471479
1662	0.00478516
1674	0.00696663
1686	0.00872588
1698	0.0115407
1710	0.0207592
1722	0.0353257
1734	0.0795885
1746	0.189577
1758	0.225114
1770	0.0983773
1782	0.0346924
1794	0.0154814
1806	0.00942958
1818	0.00675552
1830	0.00499627
1842	0.00457405
1854	0.0042222
1866	0.00408146
1878	0.00387035
1890	0.00408146
1902	0.0035185
1914	0.00330739
1926	0.00295554
1938	0.00337776
1950	0.00344813
1962	0.00379998
1974	0.0035185
1986	0.00358887
1998	0.00344813
2010	0.00344813
2022	0.00330739
2034	0.00260369
2046	0.00302591
2058	0.00267406
2070	0.00119629
2082	0.00189999
2094	0.0035185
2106	0.00274443
2118	0.0028148
2130	0.0028148
2142	0.0021111
2154	0.00232221
2166	0.00267406
2178	0.0021111
2190	0.00239258
2202	0.0021111
2214	0.00204073
2226	0.0028148
2238	0.00218147
2250	0.00182962
2262	0.00175925
2274	0.00260369
2286	0.00260369
2298	0.00344813
2310	0.00464442
2322	0.00457405
2334	0.00379998
2346	0.00218147
2358	0.00619256
2370	0.00091481
2382	0.0014074
2394	0.00161851
2406	0.00147777
2418	0.00133703
2430	0.0014074
2442	0.00063333
2454	0.00049259
2466	0.00077407
2478	0.00105555
2490	0.00056296
2502	0.0007037
2514	0.00112592
2526	0.00098518
2538	0.00175925
2550	0.00168888
2562	0.0014074
2574	0.00154814
2586	0.0021111
2598	0.00246295
2610	0.00365924
2622	0.00387035
2634	0.00387035
2646	0.00485553
2658	0.00605182
2670	0.0056296
2682	0.0056296
2694	0.00541849
2706	0.00534812
2718	0.00485553
2730	0.00555923
2742	0.00577034
2754	0.00682589
2766	0.00752959
2778	0.00942958
2790	0.0113296
2802	0.0147073
2814	0.0190703
2826	0.0261073
2838	0.0394072
2850	0.0897921
2862	0.252347
2874	0.186903
2886	0.129481
2898	0.128285
2910	0.211954
2922	0.399209
2934	0.7037
2946	0.434324
2958	0.224973
2970	0.191829
2982	0.12554
2994	0.083107
3006	0.0481331
3018	0.0282887
3030	0.0181555
3042	0.0118222
3054	0.00900736
3066	0.00717774
3078	0.00541849
3090	0.00506664
3102	0.00464442
3114	0.00379998
3126	0.00316665
3138	0.00365924
3150	0.00330739
3162	0.00372961
3174	0.00253332
3186	0.00274443
3198	0.0021111
3210	0.00253332
3222	0.0021111
3234	0.00189999
3246	0.00197036
3258	0.00204073
3270	0.00239258
3282	0.00182962
3294	0.00063333
3306	0.0021111
3318	0.00105555
3330	0.00161851
3342	0.00161851
3354	0.00246295
3366	0.00119629
3378	0.00168888
3390	0.00295554
3402	0.00161851
3414	0.0021111
3426	0.00161851
3438	0.00197036
3450	0.00295554
3462	0.00154814
3474	0.0042222
3486	0.00387035
3498	0.00330739
3510	0.00260369
3522	0.00119629
3534	0.00084444
3546	0.00197036
3558	0.00288517
3570	0.00295554
3582	0.00309628
3594	0.00295554
3606	0.00189999
3618	0.00443331
3630	0.00295554
3642	0.00197036
3654	0.00288517
3666	0.0028148
3678	0.00197036
3690	0.00457405
3702	0.00464442
3714	0.0042222
3726	0.00323702
3738	0.00260369
3750	0.00225184
3762	0.00302591
3774	0.00288517
3786	0.00401109
3798	0.00288517
3810	0.00260369
3822	0.00450368
3834	0.00429257
3846	0.00457405
3858	0.00182962
3870	0.0014074
3882	0.00316665
3894	0.00767033
3906	0.00365924
3918	0.00379998
3930	0.00436294
3942	0.0014074
3954	0.00365924
3966	0.00372961
