Infrared Spectrum: Heptane, 1-chloro-
Formula: C 7 H 15 Cl
CAS: 629-06-1
Origin: Sadtler Research Labs Under US-EPA Contract
1/CM	ABSORBANCE
450	0
462	0.0301419
474	0.0529321
486	0.0536673
498	0.0444777
510	0.0517068
522	0.050359
534	0.0514618
546	0.0520744
558	0.0586909
570	0.0553827
582	0.0461931
594	0.0496238
606	0.0495013
618	0.0517068
630	0.0536673
642	0.0667778
654	0.0956944
666	0.119832
678	0.0762124
690	0.0615091
702	0.0675129
714	0.0905482
726	0.121058
738	0.149239
750	0.129635
762	0.0967971
774	0.0752322
786	0.0758448
798	0.0691058
810	0.0755998
822	0.0619992
834	0.0676355
846	0.0624893
858	0.0586909
870	0.0613865
882	0.0611415
894	0.063592
906	0.0644497
918	0.0605288
930	0.0595486
942	0.0594261
954	0.063592
966	0.0597937
978	0.0644497
990	0.0665327
1002	0.0671453
1014	0.0689833
1026	0.0746196
1038	0.0823388
1050	0.0880976
1062	0.0884652
1074	0.0829515
1086	0.0841767
1098	0.08773
1110	0.0976548
1122	0.0954493
1134	0.0849119
1146	0.0653074
1158	0.0582008
1170	0.0579557
1182	0.0555052
1194	0.0574656
1206	0.0577107
1218	0.0582008
1230	0.0600387
1242	0.0683706
1254	0.085157
1266	0.0950817
1278	0.106722
1290	0.139192
1302	0.138457
1314	0.124121
1326	0.102433
1338	0.0863822
1350	0.089813
1362	0.0888328
1374	0.0879751
1386	0.0933663
1398	0.0705761
1410	0.0602838
1422	0.0631019
1434	0.0845443
1446	0.135884
1458	0.189428
1470	0.170559
1482	0.102433
1494	0.0619992
1506	0.050114
1518	0.0457029
1530	0.0430073
1542	0.0422722
1554	0.0399441
1566	0.0395765
1578	0.039454
1590	0.0393315
1602	0.0382287
1614	0.0385963
1626	0.0381062
1638	0.0385963
1650	0.0368809
1662	0.0378612
1674	0.037371
1686	0.0383513
1698	0.0378612
1710	0.0370035
1722	0.0378612
1734	0.0384738
1746	0.0412919
1758	0.0414145
1770	0.0389639
1782	0.0374936
1794	0.0359007
1806	0.035043
1818	0.0333276
1830	0.0344304
1842	0.0330826
1854	0.0339403
1866	0.0338177
1878	0.0341853
1890	0.0345529
1902	0.0345529
1914	0.0341853
1926	0.0339403
1938	0.0335727
1950	0.0333276
1962	0.0335727
1974	0.0330826
1986	0.03296
1998	0.0332051
2010	0.0332051
2022	0.0336952
2034	0.0339403
2046	0.0340628
2058	0.0338177
2070	0.032715
2082	0.0323474
2094	0.0322249
2106	0.0321023
2118	0.0322249
2130	0.0321023
2142	0.0318573
2154	0.0324699
2166	0.032715
2178	0.032715
2190	0.032715
2202	0.0321023
2214	0.0322249
2226	0.0313672
2238	0.0314897
2250	0.0309996
2262	0.0308771
2274	0.0308771
2286	0.0301419
2298	0.0292842
2310	0.0278139
2322	0.0273237
2334	0.0276913
2346	0.0301419
2358	0.0286716
2370	0.0365133
2382	0.0339403
2394	0.0308771
2406	0.0309996
2418	0.030632
2430	0.0302644
2442	0.030632
2454	0.0305095
2466	0.0305095
2478	0.0309996
2490	0.0303869
2502	0.0303869
2514	0.0305095
2526	0.030632
2538	0.0311221
2550	0.0314897
2562	0.0322249
2574	0.032715
2586	0.0336952
2598	0.0336952
2610	0.034798
2622	0.0355331
2634	0.0356556
2646	0.0370035
2658	0.0384738
2670	0.0408018
2682	0.0416595
2694	0.04362
2706	0.0427623
2718	0.0426397
2730	0.0444777
2742	0.0477859
2754	0.0470508
2766	0.045948
2778	0.048031
2790	0.0539123
2802	0.0602838
2814	0.0675129
2826	0.083074
2838	0.119465
2850	0.237582
2862	0.476021
2874	0.545495
2886	0.464381
2898	0.363541
2910	0.474551
2922	0.788958
2934	1.18092
2946	1.09025
2958	0.81089
2970	0.86272
2982	0.436812
2994	0.229127
3006	0.167373
3018	0.0916509
3030	0.0686157
3042	0.0582008
3054	0.0504815
3066	0.0465606
3078	0.0428848
3090	0.0404342
3102	0.0388414
3114	0.0368809
3126	0.0362683
3138	0.0356556
3150	0.0349205
3162	0.0355331
3174	0.0355331
3186	0.0352881
3198	0.0344304
3210	0.0333276
3222	0.0317348
3234	0.0317348
3246	0.0311221
3258	0.0313672
3270	0.030632
3282	0.0300194
3294	0.0302644
3306	0.0296518
3318	0.0284265
3330	0.0287941
3342	0.0286716
3354	0.0284265
3366	0.0294067
3378	0.0289166
3390	0.0286716
3402	0.0287941
3414	0.028304
3426	0.0305095
3438	0.0298968
3450	0.0291617
3462	0.0301419
3474	0.0300194
3486	0.0296518
3498	0.0301419
3510	0.0290391
3522	0.0286716
3534	0.028304
3546	0.0286716
3558	0.0286716
3570	0.028304
3582	0.0280589
3594	0.0281814
3606	0.0290391
3618	0.0286716
3630	0.0316122
3642	0.0317348
3654	0.0341853
3666	0.0360232
3678	0.0374936
3690	0.0330826
3702	0.0332051
3714	0.0301419
3726	0.0301419
3738	0.0339403
3750	0.0308771
3762	0.0323474
3774	0.0323474
3786	0.0308771
3798	0.0324699
3810	0.0321023
3822	0.0324699
3834	0.0323474
3846	0.0311221
3858	0.0323474
3870	0.0328375
3882	0.0300194
3894	0.030632
3906	0.0323474
3918	0.0280589
3930	0.0319798
3942	0.030632
3954	0.0301419
3966	0.0335727
