Infrared Spectrum: Tetradecanenitrile
Formula: C 14 H 27 N
CAS: 629-63-0
Origin: Sadtler Research Labs Under US-EPA Contract
1/CM	ABSORBANCE
450	0.0204128
462	0.00372395
474	0.0285503
486	0.0117235
498	0.0319984
510	0.0150337
522	0.00579281
534	0.0028964
546	0.00813752
558	0.0155854
570	0.0129649
582	0.0068962
594	0
606	0.0117235
618	0.00675828
630	0.00924091
642	0.00717205
654	0.00593073
666	0.00565488
678	0.0100685
690	0.0122752
702	0.0179301
714	0.0262056
726	0.0313087
738	0.0270331
750	0.0394463
762	0.0165509
774	0.0133786
786	0.0159992
798	0.00786167
810	0.00372395
822	0.0117235
834	0.00813752
846	0.0124132
858	0.018068
870	0.00951676
882	0.00662035
894	0.00441357
906	0.0119994
918	0.00579281
930	0.0133786
942	0.00924091
954	0.00868921
966	0.0110339
978	0.00882714
990	0.00730997
1002	0.00813752
1014	0.00772374
1026	0.0107581
1038	0.00841336
1050	0.0103443
1062	0.00896506
1074	0.0104822
1086	0.0103443
1098	0.00758582
1110	0.00910298
1122	0.0074479
1134	0.00717205
1146	0.00758582
1158	0.00855129
1170	0.00951676
1182	0.00924091
1194	0.00868921
1206	0.00827544
1218	0.00882714
1230	0.00841336
1242	0.0136545
1254	0.00951676
1266	0.014482
1278	0.0184818
1290	0.0220678
1302	0.0248263
1314	0.0278606
1326	0.0278606
1338	0.0342052
1350	0.0459287
1362	0.0441357
1374	0.0355844
1386	0.0288261
1398	0.0190335
1410	0.0195852
1422	0.0251022
1434	0.0553075
1446	0.0777891
1458	0.115029
1470	0.0995811
1482	0.0419289
1494	0.0202748
1506	0.0115856
1518	0.00937883
1530	0.0063445
1542	0.00758582
1554	0.0063445
1566	0.00675828
1578	0.00730997
1590	0.00331018
1602	0.00468942
1614	0.00551696
1626	0.00358602
1638	0.00317225
1650	0.00206886
1662	0.00537904
1674	0.00303433
1686	0.00331018
1698	0.00275848
1710	0.00537904
1722	0.00593073
1734	0.00703412
1746	0.00551696
1758	0.00441357
1770	0.00303433
1782	0.00427564
1794	0.00262056
1806	0.00193094
1818	0.00262056
1830	0.00248263
1842	0.00262056
1854	0.00248263
1866	0.0028964
1878	0.00262056
1890	0.00234471
1902	0.00248263
1914	0.00262056
1926	0.00179301
1938	0.00248263
1950	0.00275848
1962	0.00220678
1974	0.00137924
1986	0.00248263
1998	0.00262056
2010	0.0034481
2022	0.00358602
2034	0.00303433
2046	0.00317225
2058	0.00317225
2070	0.00303433
2082	0.00206886
2094	0.00248263
2106	0.00220678
2118	0.00248263
2130	0.00206886
2142	0.00248263
2154	0.0028964
2166	0.00220678
2178	0.00248263
2190	0.00262056
2202	0.00206886
2214	0.0028964
2226	0.00303433
2238	0.00524111
2250	0.010896
2262	0.00758582
2274	0.0034481
2286	0.00262056
2298	0.00179301
2310	0.000827544
2322	0.00179301
2334	0.00151716
2346	0.000965468
2358	0.000965468
2370	0.00124132
2382	0.00151716
2394	0.00234471
2406	0.00234471
2418	0.00206886
2430	0.00248263
2442	0.00179301
2454	0.00193094
2466	0.00206886
2478	0.00193094
2490	0.00179301
2502	0.00248263
2514	0.00248263
2526	0.0034481
2538	0.00358602
2550	0.00372395
2562	0.0039998
2574	0.00496526
2586	0.00510319
2598	0.00662035
2610	0.00717205
2622	0.00758582
2634	0.00855129
2646	0.00937883
2658	0.0103443
2670	0.0113098
2682	0.0131028
2694	0.0131028
2706	0.010896
2718	0.0104822
2730	0.0115856
2742	0.0136545
2754	0.0142062
2766	0.0155854
2778	0.0175163
2790	0.0223437
2802	0.0293778
2814	0.0390325
2826	0.0551696
2838	0.085375
2850	0.187301
2862	0.484803
2874	0.42053
2886	0.283434
2898	0.260401
2910	0.405221
2922	0.784098
2934	1.37924
2946	0.957882
2958	0.539421
2970	0.415703
2982	0.178198
2994	0.0850991
3006	0.0522732
3018	0.0371016
3030	0.0274469
3042	0.0213782
3054	0.016275
3066	0.0135166
3078	0.0113098
3090	0.00993053
3102	0.00924091
3114	0.00841336
3126	0.00730997
3138	0.0074479
3150	0.00662035
3162	0.0063445
3174	0.00620658
3186	0.00510319
3198	0.00524111
3210	0.00496526
3222	0.00372395
3234	0.00317225
3246	0.00358602
3258	0.00275848
3270	0.00303433
3282	0.00248263
3294	0.00234471
3306	0.00179301
3318	0.00303433
3330	0.00234471
3342	0.00262056
3354	0.00248263
3366	0.00303433
3378	0.00248263
3390	0.00179301
3402	0.00179301
3414	0.00372395
3426	0.00262056
3438	0.00275848
3450	0.00413772
3462	0.00165509
3474	0.00151716
3486	0.00179301
3498	0.0028964
3510	0.00206886
3522	0.00262056
3534	0.00165509
3546	0.000827544
3558	0.00206886
3570	0.00234471
3582	0.00358602
3594	0.00317225
3606	0.0034481
3618	0.00303433
3630	0.00413772
3642	0.00386187
3654	0.00413772
3666	0.0039998
3678	0.00317225
3690	0.00234471
3702	0.00386187
3714	0.0034481
3726	0.00193094
3738	0.00262056
3750	0.00124132
3762	0.00124132
3774	0.00248263
3786	0.00248263
3798	0.00358602
3810	0.00303433
3822	0.00179301
3834	0.000551696
3846	0.00413772
3858	0.00262056
3870	0.000551696
3882	0.00358602
3894	0.0034481
3906	0.000551696
3918	0.000551696
3930	0.00220678
3942	0.00372395
3954	0.00124132
3966	0.000551696
