Infrared Spectrum: Pentadecane
Formula: C 15 H 32
CAS: 629-62-9
Origin: Sadtler Research Labs Under US-EPA Contract
1/CM	ABSORBANCE
450	0
462	0.0138433
474	0.0131273
486	0.0100245
498	0.0119339
510	0.00930844
522	0.014798
534	0.0128886
546	0.0112179
558	0.0159914
570	0.00739902
582	0.0126499
594	0.0138433
606	0.0126499
618	0.0124113
630	0.0124113
642	0.0114565
654	0.0100245
666	0.0124113
678	0.0157527
690	0.0152754
702	0.0250612
714	0.0424847
726	0.0434394
738	0.0381885
750	0.028164
762	0.0250612
774	0.0217197
786	0.0202876
798	0.0162301
810	0.0167075
822	0.0162301
834	0.0152754
846	0.0155141
858	0.0164688
870	0.0155141
882	0.0162301
894	0.0181395
906	0.0169461
918	0.0169461
930	0.0162301
942	0.0155141
954	0.0159914
966	0.0152754
978	0.0145594
990	0.0143207
1002	0.0150367
1014	0.0155141
1026	0.0150367
1038	0.0157527
1050	0.0162301
1062	0.0162301
1074	0.0167075
1086	0.0155141
1098	0.0152754
1110	0.0150367
1122	0.0145594
1134	0.014082
1146	0.0138433
1158	0.013366
1170	0.0143207
1182	0.0152754
1194	0.0124113
1206	0.0131273
1218	0.0155141
1230	0.0171848
1242	0.0193329
1254	0.0212423
1266	0.0229131
1278	0.0272093
1290	0.0322215
1302	0.0396205
1314	0.0391432
1326	0.0343696
1338	0.0460649
1350	0.0632497
1362	0.0608629
1374	0.0553733
1386	0.0611016
1398	0.0336536
1410	0.0286414
1422	0.0305508
1434	0.0446328
1446	0.0940391
1458	0.166359
1470	0.171848
1482	0.071126
1494	0.034847
1506	0.0241065
1518	0.0190942
1530	0.0159914
1542	0.0143207
1554	0.0136046
1566	0.0121726
1578	0.0124113
1590	0.0114565
1602	0.0107405
1614	0.0107405
1626	0.0097858
1638	0.0102632
1650	0.0100245
1662	0.00954712
1674	0.0100245
1686	0.0097858
1698	0.0097858
1710	0.00883109
1722	0.00906976
1734	0.00883109
1746	0.00883109
1758	0.00835373
1770	0.00835373
1782	0.00835373
1794	0.00835373
1806	0.00811505
1818	0.00811505
1830	0.0076377
1842	0.00787637
1854	0.00787637
1866	0.00787637
1878	0.0076377
1890	0.00835373
1902	0.0076377
1914	0.00811505
1926	0.00739902
1938	0.00787637
1950	0.0076377
1962	0.0076377
1974	0.00739902
1986	0.0076377
1998	0.00692166
2010	0.00787637
2022	0.00859241
2034	0.00906976
2046	0.00930844
2058	0.00906976
2070	0.00883109
2082	0.00906976
2094	0.00906976
2106	0.00811505
2118	0.00835373
2130	0.00835373
2142	0.00835373
2154	0.00835373
2166	0.00811505
2178	0.00859241
2190	0.00835373
2202	0.00835373
2214	0.00835373
2226	0.0076377
2238	0.0076377
2250	0.00811505
2262	0.00811505
2274	0.0076377
2286	0.00859241
2298	0.0100245
2310	0.0116952
2322	0.0116952
2334	0.0107405
2346	0.00787637
2358	0.013366
2370	0.00835373
2382	0.00739902
2394	0.00811505
2406	0.00811505
2418	0.00787637
2430	0.00716034
2442	0.00692166
2454	0.00668298
2466	0.00668298
2478	0.00644431
2490	0.00716034
2502	0.00739902
2514	0.00787637
2526	0.00835373
2538	0.0100245
2550	0.0102632
2562	0.0109792
2574	0.0121726
2586	0.013366
2598	0.0138433
2610	0.0152754
2622	0.0167075
2634	0.0188556
2646	0.0205263
2658	0.0238678
2670	0.027448
2682	0.0291187
2694	0.027448
2706	0.0243452
2718	0.0236291
2730	0.0257772
2742	0.0293574
2754	0.02888
2766	0.0307895
2778	0.0338923
2790	0.042246
2802	0.0534639
2814	0.0687393
2826	0.0949938
2838	0.145594
2850	0.334388
2862	0.946836
2874	0.705771
2886	0.516022
2898	0.472344
2910	0.753029
2922	1.44042
2934	2.38678
2946	1.39102
2958	0.762338
2970	0.841579
2982	0.332717
2994	0.154186
3006	0.0964259
3018	0.0701713
3030	0.0537026
3042	0.0427234
3054	0.0331762
3066	0.0284027
3078	0.0255385
3090	0.0233904
3102	0.0205263
3114	0.0190942
3126	0.0176622
3138	0.0167075
3150	0.0159914
3162	0.0155141
3174	0.0138433
3186	0.0155141
3198	0.0138433
3210	0.0121726
3222	0.0102632
3234	0.00954712
3246	0.0105018
3258	0.00930844
3270	0.0100245
3282	0.00954712
3294	0.00954712
3306	0.0102632
3318	0.0102632
3330	0.0105018
3342	0.0100245
3354	0.0100245
3366	0.0102632
3378	0.0105018
3390	0.0105018
3402	0.0102632
3414	0.0109792
3426	0.0112179
3438	0.0105018
3450	0.0102632
3462	0.00930844
3474	0.0114565
3486	0.00930844
3498	0.0105018
3510	0.00811505
3522	0.0109792
3534	0.00811505
3546	0.00906976
3558	0.0100245
3570	0.00811505
3582	0.00954712
3594	0.0107405
3606	0.0102632
3618	0.0107405
3630	0.00954712
3642	0.0109792
3654	0.0107405
3666	0.013366
3678	0.014798
3690	0.0128886
3702	0.0114565
3714	0.0124113
3726	0.013366
3738	0.00906976
3750	0.013366
3762	0.00930844
3774	0.014082
3786	0.0124113
3798	0.0119339
3810	0.0114565
3822	0.014082
3834	0.0119339
3846	0.0126499
3858	0.0126499
3870	0.0112179
3882	0.0121726
3894	0.0105018
3906	0.0102632
3918	0.0105018
3930	0.0119339
3942	0.0124113
3954	0.0159914
3966	0.0155141
