Infrared Spectrum: Heptane, 1-bromo-
Formula: C 7 H 15 Br
CAS: 629-04-9
Origin: Sadtler Research Labs Under US-EPA Contract
1/CM	ABSORBANCE
450	0
462	0.00442431
474	0.00965794
486	0.0053955
498	0.0100896
510	0.00442431
522	0.0112766
534	0.00895653
546	0.0145679
558	0.0181289
570	0.04311
582	0.0129492
594	0.0110608
606	0.00458618
618	0.00938817
630	0.0103054
642	0.0271933
654	0.0380922
666	0.0158628
678	0.00857884
690	0.0112766
702	0.0103054
714	0.0199634
726	0.0236323
738	0.0246574
750	0.0159167
762	0.0183447
774	0.0124096
786	0.0151614
798	0.0104673
810	0.0128952
822	0.00798534
834	0.0129492
846	0.00933421
858	0.0113305
870	0.00701415
882	0.0133269
894	0.0104673
906	0.0125176
918	0.00787743
930	0.0135427
942	0.00884862
954	0.0112226
966	0.00847094
978	0.0116543
990	0.00836302
1002	0.0113305
1014	0.00809325
1026	0.0109529
1038	0.00739184
1050	0.0121938
1062	0.0103594
1074	0.010791
1086	0.00793139
1098	0.010845
1110	0.0086328
1122	0.00852489
1134	0.00631273
1146	0.00841698
1158	0.00841698
1170	0.0100896
1182	0.0117622
1194	0.0176433
1206	0.0264919
1218	0.0321572
1230	0.0530917
1242	0.0581095
1254	0.0595663
1266	0.0618324
1278	0.0544406
1290	0.0396569
1302	0.0348549
1314	0.0256286
1326	0.0181828
1338	0.0210964
1350	0.0234704
1362	0.0229848
1374	0.0206648
1386	0.0261682
1398	0.0163484
1410	0.013219
1422	0.0173196
1434	0.0328046
1446	0.055196
1458	0.0697638
1470	0.0616706
1482	0.032319
1494	0.0134888
1506	0.0149455
1518	0.00992772
1530	0.00857884
1542	0.0100896
1554	0.00809325
1566	0.00534155
1578	0.00879467
1590	0.00550341
1602	0.00728393
1614	0.00534155
1626	0.00728393
1638	0.00642064
1650	0.00679833
1662	0.00507177
1674	0.00663647
1686	0.00895653
1698	0.00987376
1710	0.00598901
1722	0.00631273
1734	0.0081472
1746	0.00696019
1758	0.00642064
1770	0.00690624
1782	0.00577319
1794	0.00669042
1806	0.00496386
1818	0.00442431
1830	0.00496386
1842	0.00469408
1854	0.00393871
1866	0.00453222
1878	0.00453222
1890	0.00469408
1902	0.00458618
1914	0.00453222
1926	0.00485595
1938	0.00447827
1950	0.00437036
1962	0.00485595
1974	0.00447827
1986	0.00469408
1998	0.00393871
2010	0.00485595
2022	0.00453222
2034	0.00501782
2046	0.00485595
2058	0.00512573
2070	0.00453222
2082	0.00501782
2094	0.00442431
2106	0.00507177
2118	0.00399267
2130	0.00496386
2142	0.00399267
2154	0.00507177
2166	0.00420849
2178	0.00496386
2190	0.00399267
2202	0.00485595
2214	0.00377685
2226	0.00555736
2238	0.00399267
2250	0.00544945
2262	0.0043164
2274	0.00571923
2286	0.00447827
2298	0.00496386
2310	0.00372289
2322	0.00399267
2334	0.00361499
2346	0.00507177
2358	0.00312939
2370	0.0117622
2382	0.00615087
2394	0.00474804
2406	0.00420849
2418	0.00496386
2430	0.0043164
2442	0.00485595
2454	0.00517968
2466	0.00566527
2478	0.00485595
2490	0.00496386
2502	0.00469408
2514	0.00480199
2526	0.00442431
2538	0.00550341
2550	0.0053955
2562	0.00544945
2574	0.0053955
2586	0.00625878
2598	0.00625878
2610	0.0064746
2622	0.0064746
2634	0.00722997
2646	0.00766161
2658	0.00879467
2670	0.00895653
2682	0.00998168
2694	0.00928026
2706	0.00938817
2718	0.00809325
2730	0.00906444
2742	0.00992772
2754	0.0111147
2766	0.00933421
2778	0.0115464
2790	0.0125715
2802	0.016834
2814	0.0190461
2826	0.0268696
2838	0.0415454
2850	0.091076
2862	0.185929
2874	0.216521
2886	0.180048
2898	0.147783
2910	0.183447
2922	0.326374
2934	0.503778
2946	0.479498
2958	0.308569
2970	0.378872
2982	0.186522
2994	0.0720839
3006	0.0528219
3018	0.0536313
3030	0.0269775
3042	0.0187763
3054	0.0130571
3066	0.0117622
3078	0.00965794
3090	0.0103054
3102	0.0080393
3114	0.0081472
3126	0.00809325
3138	0.0080393
3150	0.00712206
3162	0.00776952
3174	0.00652856
3186	0.00663647
3198	0.00598901
3210	0.00669042
3222	0.00544945
3234	0.00609692
3246	0.00517968
3258	0.00571923
3270	0.00507177
3282	0.00550341
3294	0.00555736
3306	0.00544945
3318	0.00512573
3330	0.00615087
3342	0.00496386
3354	0.00566527
3366	0.00442431
3378	0.00517968
3390	0.00377685
3402	0.00544945
3414	0.00404662
3426	0.00620482
3438	0.00480199
3450	0.00615087
3462	0.00426245
3474	0.0058811
3486	0.00383081
3498	0.00642064
3510	0.00426245
3522	0.00609692
3534	0.00442431
3546	0.00636669
3558	0.00296752
3570	0.0064746
3582	0.00404662
3594	0.00609692
3606	0.00420849
3618	0.00658251
3630	0.0064746
3642	0.00620482
3654	0.00469408
3666	0.00652856
3678	0.0053955
3690	0.00615087
3702	0.00415453
3714	0.00609692
3726	0.00377685
3738	0.00669042
3750	0.00615087
3762	0.00528759
3774	0.00334521
3786	0.00474804
3798	0.00404662
3810	0.00507177
3822	0.00399267
3834	0.00528759
3846	0.00307544
3858	0.00361499
3870	0.00307544
3882	0.00404662
3894	0.00307544
3906	0.00420849
3918	0.00307544
3930	0.00307544
3942	0.00307544
3954	0.00302148
3966	0.00307544
