Infrared Spectrum: 1-Hexadecene
Formula: C 16 H 32
CAS: 629-73-2
Origin: Sadtler Research Labs Under US-EPA Contract
1/CM	ABSORBANCE
450	0
462	0.0568458
474	0.0371281
486	0.0457283
498	0.0339816
510	0.0325133
522	0.0520212
534	0.0434209
546	0.04426
558	0.0585239
570	0.0390159
582	0.0388062
594	0.0427917
606	0.0383866
618	0.0463576
630	0.0549579
642	0.040694
654	0.0404843
666	0.0411135
678	0.0333523
690	0.0427917
702	0.0465674
714	0.0564262
726	0.0633484
738	0.056636
750	0.0467771
762	0.0474064
774	0.0438405
786	0.0427917
798	0.040694
810	0.0383866
822	0.0419526
834	0.0438405
846	0.0419526
858	0.0440502
870	0.05307
882	0.055797
894	0.0774025
906	0.117467
918	0.139283
930	0.0748854
942	0.0587336
954	0.0528603
966	0.0543286
978	0.0587336
990	0.0807588
1002	0.0721585
1014	0.0534896
1026	0.0476162
1038	0.0457283
1050	0.0419526
1062	0.0417428
1074	0.0434209
1086	0.0392257
1098	0.0394354
1110	0.0413233
1122	0.0364988
1134	0.0390159
1146	0.0394354
1158	0.0364988
1170	0.0381769
1182	0.0385964
1194	0.0314644
1206	0.0469869
1218	0.0425819
1230	0.039855
1242	0.0436307
1254	0.0434209
1266	0.045099
1278	0.0499236
1290	0.0543286
1302	0.0606215
1314	0.060202
1326	0.0555872
1338	0.0635582
1350	0.0807588
1362	0.076144
1374	0.068173
1386	0.0639777
1398	0.0501334
1410	0.0524407
1422	0.0581044
1434	0.0692218
1446	0.117677
1458	0.160049
1470	0.148093
1482	0.0732073
1494	0.0492943
1506	0.0427917
1518	0.0400647
1530	0.0375476
1542	0.0373378
1554	0.0373378
1566	0.0348207
1578	0.0354499
1590	0.0360792
1602	0.0367085
1614	0.040694
1626	0.048665
1638	0.076983
1650	0.0685925
1662	0.0419526
1674	0.036289
1686	0.0354499
1698	0.0344011
1710	0.0323035
1722	0.0331426
1734	0.0337718
1746	0.0323035
1758	0.0325133
1770	0.032723
1782	0.0323035
1794	0.0337718
1806	0.0333523
1818	0.0364988
1830	0.0425819
1842	0.0354499
1854	0.032723
1866	0.0329328
1878	0.0312547
1890	0.0312547
1902	0.0306254
1914	0.0308352
1926	0.0310449
1938	0.0314644
1950	0.0308352
1962	0.0316742
1974	0.0323035
1986	0.0316742
1998	0.0320937
2010	0.0320937
2022	0.0329328
2034	0.0339816
2046	0.0331426
2058	0.0331426
2070	0.0335621
2082	0.0323035
2094	0.0316742
2106	0.031884
2118	0.0310449
2130	0.0310449
2142	0.0314644
2154	0.0312547
2166	0.0308352
2178	0.0314644
2190	0.0299961
2202	0.0308352
2214	0.0306254
2226	0.0304156
2238	0.0312547
2250	0.031884
2262	0.0316742
2274	0.031884
2286	0.0314644
2298	0.0310449
2310	0.0302059
2322	0.0297863
2334	0.0304156
2346	0.032723
2358	0.0293668
2370	0.0323035
2382	0.0335621
2394	0.0316742
2406	0.0320937
2418	0.0320937
2430	0.0323035
2442	0.0320937
2454	0.0333523
2466	0.032723
2478	0.0331426
2490	0.0339816
2502	0.0337718
2514	0.0348207
2526	0.0352402
2538	0.0358695
2550	0.0358695
2562	0.0360792
2574	0.0358695
2586	0.0375476
2598	0.0377573
2610	0.0381769
2622	0.0396452
2634	0.0404843
2646	0.0413233
2658	0.0434209
2670	0.0461479
2682	0.0476162
2694	0.0476162
2706	0.0440502
2718	0.0444698
2730	0.0459381
2742	0.0474064
2754	0.0488748
2766	0.0501334
2778	0.0511822
2790	0.0576848
2802	0.0671242
2814	0.0784514
2826	0.100476
2838	0.1418
2850	0.291151
2862	0.774025
2874	0.547272
2886	0.367295
2898	0.37212
2910	0.6016
2922	1.12391
2934	2.09763
2946	1.12433
2958	0.518954
2970	0.48665
2982	0.252974
2994	0.161308
3006	0.130682
3018	0.0981691
3030	0.0774025
3042	0.069012
3054	0.0656558
3066	0.0732073
3078	0.0950226
3090	0.117258
3102	0.0618801
3114	0.0497138
3126	0.045099
3138	0.0432112
3150	0.0415331
3162	0.0413233
3174	0.0411135
3186	0.0379671
3198	0.0364988
3210	0.0371281
3222	0.0360792
3234	0.0344011
3246	0.0354499
3258	0.0344011
3270	0.0335621
3282	0.0354499
3294	0.0335621
3306	0.0337718
3318	0.0344011
3330	0.0333523
3342	0.0323035
3354	0.0335621
3366	0.0346109
3378	0.0350304
3390	0.0346109
3402	0.0344011
3414	0.0344011
3426	0.0346109
3438	0.0335621
3450	0.032723
3462	0.0352402
3474	0.0325133
3486	0.032723
3498	0.0344011
3510	0.0344011
3522	0.0346109
3534	0.0314644
3546	0.0337718
3558	0.0333523
3570	0.0320937
3582	0.0312547
3594	0.0360792
3606	0.0304156
3618	0.0323035
3630	0.0385964
3642	0.0358695
3654	0.0373378
3666	0.0346109
3678	0.0350304
3690	0.0385964
3702	0.0390159
3714	0.0367085
3726	0.0352402
3738	0.039855
3750	0.0373378
3762	0.0388062
3774	0.0400647
3786	0.0373378
3798	0.0436307
3810	0.039855
3822	0.0402745
3834	0.0388062
3846	0.0371281
3858	0.0392257
3870	0.0388062
3882	0.0375476
3894	0.0400647
3906	0.0425819
3918	0.0354499
3930	0.0388062
3942	0.0404843
3954	0.0377573
3966	0.0409038
