Infrared Spectrum: Hexane, 1,6-dibromo-
Formula: C 6 H 12 Br 2
CAS: 629-03-8
Origin: Sadtler Research Labs Under US-EPA Contract
1/CM	ABSORBANCE
450	0.00199241
462	0.000784888
474	0.00241504
486	0.0027773
498	0.00374331
510	0.00422632
522	0.00464895
534	0.0045282
546	0.0116526
558	0.0408142
570	0.12365
582	0.0547007
594	0.00990166
606	0.0032603
618	0.00633948
630	0.0138865
642	0.0469122
654	0.114171
666	0.0536139
678	0.0114714
690	0.00440745
702	0.00652061
714	0.0201052
726	0.0511385
738	0.0465499
750	0.0238485
762	0.014611
774	0.0149732
786	0.0128601
798	0.0139469
810	0.0173883
822	0.0124978
834	0.00652061
846	0.00851302
858	0.00772813
870	0.0100224
882	0.00996204
894	0.0155166
906	0.0195618
918	0.0137657
930	0.0112299
942	0.00899602
954	0.00796963
966	0.00809038
978	0.00561497
990	0.00404519
1002	0.00271692
1014	0.00724512
1026	0.0129205
1038	0.019743
1050	0.0153355
1062	0.0143091
1074	0.0125582
1086	0.0108073
1098	0.0102639
1110	0.0119544
1122	0.0135846
1134	0.0100224
1146	0.00899602
1158	0.00947903
1170	0.0134638
1182	0.0156978
1194	0.0283767
1206	0.0641193
1218	0.140555
1230	0.097145
1242	0.154864
1254	0.31957
1266	0.230395
1278	0.122503
1290	0.118035
1302	0.0936432
1314	0.0706399
1326	0.0355615
1338	0.0297654
1350	0.0438934
1362	0.0405123
1374	0.0269277
1386	0.0138261
1398	0.00899602
1410	0.00966016
1422	0.0212524
1434	0.074504
1446	0.144782
1458	0.111816
1470	0.0688286
1482	0.0215542
1494	0.00827151
1506	0.00531309
1518	0.00332068
1530	0.00247542
1542	0.00211316
1554	0.0017509
1566	0.00132827
1578	0.00187166
1590	0.00120752
1602	0.00090564
1614	0.00144902
1626	0.00163015
1638	0.00169053
1650	0.00187166
1662	0.00144902
1674	0.00060376
1686	0.00132827
1698	0.00187166
1710	0.00144902
1722	0.00144902
1734	0.00187166
1746	0.00187166
1758	0.00350181
1770	0.00217354
1782	0.00187166
1794	0.000966016
1806	0.000966016
1818	0.000664136
1830	0.00108677
1842	0.000845264
1854	0.00030188
1866	0.00030188
1878	0.000120752
1890	0.000422632
1902	0.00030188
1914	0.000422632
1926	0.000241504
1938	0.000241504
1950	0.000664136
1962	6.0376e-05
1974	0.000483008
1986	0.00030188
1998	0.000724512
2010	0.00138865
2022	0.00271692
2034	0.00362256
2046	0.00398482
2058	0.00386406
2070	0.00398482
2082	0.00368294
2094	0.00169053
2106	0.000845264
2118	0.000422632
2130	0
2142	6.0376e-05
2154	0.000664136
2166	0.000784888
2178	0.00090564
2190	0.00114714
2202	0.000724512
2214	0.000966016
2226	0.000966016
2238	0.00114714
2250	0.0017509
2262	0.00132827
2274	0.0015094
2286	0.00211316
2298	0.0030188
2310	0.00422632
2322	0.00332068
2334	0.0017509
2346	0.00253579
2358	0.00434707
2370	0.000784888
2382	0.00217354
2394	0.00271692
2406	0.0027773
2418	0.0027773
2430	0.00229429
2442	0.0027773
2454	0.00259617
2466	0.00253579
2478	0.00283767
2490	0.00313955
2502	0.0030188
2514	0.00307918
2526	0.00332068
2538	0.00392444
2550	0.00398482
2562	0.0047697
2574	0.00470933
2586	0.00501121
2598	0.00386406
2610	0.00374331
2622	0.00374331
2634	0.00483008
2646	0.00591685
2658	0.00875452
2670	0.0106262
2682	0.0123167
2694	0.0140676
2706	0.0124978
2718	0.0106262
2730	0.0103243
2742	0.0101432
2754	0.00972054
2766	0.00984129
2778	0.0111696
2790	0.0134638
2802	0.0159996
2814	0.0193203
2826	0.0267466
2838	0.0513196
2850	0.11725
2862	0.190547
2874	0.224357
2886	0.156253
2898	0.167966
2910	0.194954
2922	0.237398
2934	0.396489
2946	0.60376
2958	0.372158
2970	0.31957
2982	0.200629
2994	0.0783077
3006	0.0900206
3018	0.138503
3030	0.0396067
3042	0.0212524
3054	0.0157581
3066	0.013162
3078	0.00990166
3090	0.0102035
3102	0.00863377
3114	0.0073055
3126	0.0073055
3138	0.00712437
3150	0.00501121
3162	0.0057961
3174	0.00712437
3186	0.00507158
3198	0.00483008
3210	0.00319993
3222	0.00193203
3234	0.000362256
3246	0.0015094
3258	0.00223391
3270	0.00374331
3282	0.00573572
3294	0.00464895
3306	0.00633948
3318	0.00531309
3330	0.00682249
3342	0.0077885
3354	0.00652061
3366	0.00555459
3378	0.00658098
3390	0.00633948
3402	0.00507158
3414	0.0057961
3426	0.00845264
3438	0.00670174
3450	0.0057961
3462	0.00531309
3474	0.0045282
3486	0.0045282
3498	0.0027773
3510	0.00483008
3522	0.00422632
3534	0.00416594
3546	0.00422632
3558	0.00247542
3570	0.00537346
3582	0.00549422
3594	0.00470933
3606	0.00410557
3618	0.00344143
3630	0.0062791
3642	0.00537346
3654	0.00543384
3666	0.00851302
3678	0.00519234
3690	0.00404519
3702	0.00815076
3714	0.0062791
3726	0.00712437
3738	0.0103243
3750	0.00265654
3762	0.00966016
3774	0.00984129
3786	0.00670174
3798	0.0110488
3810	0.00766775
3822	0.00978091
3834	0.007547
3846	0.00495083
3858	0.00652061
3870	0.00996204
3882	0.0129808
3894	0.00706399
3906	0.00706399
3918	0.0109884
3930	0.00525271
3942	0.00609798
3954	0.00736587
3966	0.00591685
