Infrared Spectrum: Pentacosane
Formula: C 25 H 52
CAS: 629-99-2
Origin: Sadtler Research Labs Under US-EPA Contract
1/CM	ABSORBANCE
450	0.0344188
462	0.0318394
474	0.0246654
486	0.02128
498	0.0250685
510	0.0238594
522	0.0230533
534	0.0311139
546	0.0170885
558	0.0335321
570	0.01862
582	0.0233757
594	0.0261969
606	0.0200709
618	0.020877
630	0.0215218
642	0.027406
654	0.0259551
666	0.0213606
678	0.0276479
690	0.0261969
702	0.0307915
714	0.0432854
726	0.0312751
738	0.0303885
750	0.0272448
762	0.0253103
774	0.0198291
786	0.0127357
798	0.00660969
810	0.0504594
822	0.0462678
834	0.0301466
846	0.0303885
858	0.0303079
870	0.030066
882	0.0281315
894	0.0331291
906	0.0294212
918	0.0295824
930	0.0295824
942	0.0315976
954	0.0277285
966	0.0284539
978	0.027406
990	0.0248266
1002	0.0290182
1014	0.0324036
1026	0.0344994
1038	0.0225697
1050	0.0238594
1062	0.0253909
1074	0.0298242
1086	0.0306303
1098	0.040706
1110	0.0365145
1122	0.0245848
1134	0.0241012
1146	0.0228921
1158	0.0260357
1170	0.0263582
1182	0.0256327
1194	0.0258745
1206	0.0269224
1218	0.0267612
1230	0.0269224
1242	0.0275673
1254	0.0276479
1266	0.0224085
1278	0.0266806
1290	0.0315169
1302	0.0326454
1314	0.0344994
1326	0.0325648
1338	0.0357085
1350	0.0423988
1362	0.0397388
1374	0.0362727
1386	0.0353054
1398	0.0287763
1410	0.027003
1422	0.0304691
1434	0.0381266
1446	0.0598097
1458	0.0915684
1470	0.0723842
1482	0.0340157
1494	0.0253103
1506	0.0211188
1518	0.0188618
1530	0.0199903
1542	0.019023
1554	0.0166048
1566	0.0180557
1578	0.0175721
1590	0.0165242
1602	0.0161212
1614	0.0165242
1626	0.0157988
1638	0.0154764
1650	0.0125745
1662	0.0145897
1674	0.0133806
1686	0.0150733
1698	0.0145091
1710	0.0157182
1722	0.0180557
1734	0.016766
1746	0.0144285
1758	0.0130582
1770	0.0124133
1782	0.0108818
1794	0.00967272
1806	0.0103176
1818	0.0094309
1830	0.00967272
1842	0.00894727
1854	0.00886666
1866	0.00781878
1878	0.00822181
1890	0.00741575
1902	0.00757696
1914	0.00733515
1926	0.00693212
1938	0.00717393
1950	0.00701272
1962	0.00685151
1974	0.00636787
1986	0.0067709
1998	0.00564242
2010	0.00346606
2022	0.00523939
2034	0.00435272
2046	0.00467515
2058	0.00467515
2070	0.00459454
2082	0.00427212
2094	0.00370788
2106	0.00346606
2118	0.00346606
2130	0.00378848
2142	0.00233757
2154	0.00177333
2166	0.000886666
2178	0.00161212
2190	0.00080606
2202	0.000967272
2214	0.00201515
2226	0.00120909
2238	0.0012897
2250	0.00080606
2262	0.00185394
2274	0.000886666
2286	0.0013703
2298	0.0013703
2310	0.0027406
2322	0.00322424
2334	0.00588424
2346	0.00781878
2358	0.000564242
2370	0.0116073
2382	0.00685151
2394	0.00354666
2406	0.00209576
2418	0.00314363
2430	0.00338545
2442	0.00330485
2454	0.00338545
2466	0.00241818
2478	0.00443333
2490	0.0040303
2502	0.00507818
2514	0.00620666
2526	0.00660969
2538	0.00685151
2550	0.00532
2562	0.00338545
2574	0.00451394
2586	0.00612606
2598	0.00644848
2610	0.00701272
2622	0.0067709
2634	0.00830242
2646	0.00967272
2658	0.010237
2670	0.0125745
2682	0.0100757
2694	0.00894727
2706	0.00959211
2718	0.00918908
2730	0.00983393
2742	0.00894727
2754	0.00660969
2766	0.00902787
2778	0.0136224
2790	0.0170885
2802	0.0250685
2814	0.0351442
2826	0.0481218
2838	0.0787521
2850	0.204417
2862	0.343623
2874	0.210382
2886	0.161131
2898	0.19958
2910	0.31396
2922	0.585441
2934	0.793082
2946	0.391826
2958	0.211268
2970	0.158068
2982	0.0739157
2994	0.0389327
3006	0.0261969
3018	0.0189424
3030	0.01596
3042	0.0108012
3054	0.00685151
3066	0.00620666
3078	0.00717393
3090	0.0066903
3102	0.0067709
3114	0.00354666
3126	0.00266
3138	0.00290182
3150	0.0027406
3162	0.000886666
3174	0.00185394
3186	0.00104788
3198	0.00112848
3210	0.00201515
3222	0.00112848
3234	0.0013703
3246	0.00120909
3258	0.00201515
3270	0.0013703
3282	0
3294	0.00145091
3306	0.00185394
3318	0.00169273
3330	0.00201515
3342	0.00177333
3354	0.00185394
3366	0.00185394
3378	0.00330485
3390	0.00330485
3402	0.00322424
3414	0.00322424
3426	0.00322424
3438	0.00572303
3450	0.00564242
3462	0.0066903
3474	0.00548121
3486	0.00588424
3498	0.00660969
3510	0.00967272
3522	0.00846363
3534	0.0103982
3546	0.00959211
3558	0.011043
3570	0.0104788
3582	0.0104788
3594	0.0120909
3606	0.0111236
3618	0.0120103
3630	0.0138642
3642	0.0130582
3654	0.0125745
3666	0.0104788
3678	0.0109624
3690	0.0109624
3702	0.011043
3714	0.00926969
3726	0.00854424
3738	0.00894727
3750	0.00838302
3762	0.00918908
3774	0.0093503
3786	0.00959211
3798	0.0093503
3810	0.0136224
3822	0.0133806
3834	0.0132194
3846	0.0153957
3858	0.0197485
3870	0.0209576
3882	0.0228115
3894	0.0241818
3906	0.029663
3918	0.0315169
3930	0.0310333
3942	0.0315169
3954	0.0322424
3966	0.0309527
