Infrared Spectrum: 1-Hexadecanol, acetate
Formula: C 18 H 36 O 2
CAS: 629-70-9
Origin: Sadtler Research Labs Under US-EPA Contract
1/CM	ABSORBANCE
450	0.0100224
462	0.0225505
474	0.00379882
486	0.0506779
498	0.0514862
510	0.0418679
522	0.0661965
534	0.00937582
546	0.00881003
558	0.0168926
570	0.0273192
582	0.0309564
594	0.0225505
606	0.0295823
618	0.031118
630	0.0307947
642	0.0331387
654	0.0239245
666	0.0277233
678	0.0276425
690	0.0285316
702	0.0235204
714	0.0322496
726	0.034836
738	0.0314413
750	0.0151145
762	0.0198024
774	0.0170543
786	0.0252985
798	0.013013
810	0.0142254
822	0.0208531
834	0.0144679
846	0.0198024
858	0.021823
870	0.0207723
882	0.0324112
894	0.0269151
906	0.0349168
918	0.0472024
930	0.051082
942	0.0443735
954	0.0412213
966	0.0372608
978	0.0336236
990	0.0249752
1002	0.022308
1014	0.0283699
1026	0.0425145
1038	0.0526177
1050	0.0520519
1062	0.0368567
1074	0.0431611
1086	0.0460708
1098	0.0318454
1110	0.0245711
1122	0.0274
1134	0.0303906
1146	0.038554
1158	0.0288549
1170	0.0310372
1182	0.0282891
1194	0.0386348
1206	0.0891511
1218	0.220736
1230	0.443896
1242	0.371961
1254	0.176766
1266	0.108549
1278	0.0741983
1290	0.0486573
1302	0.0383115
1314	0.040898
1326	0.0346744
1338	0.038069
1350	0.0476065
1362	0.0758148
1374	0.0904443
1386	0.0590838
1398	0.0490614
1410	0.0333003
1422	0.0280466
1434	0.0301481
1446	0.0476065
1458	0.0700761
1470	0.0657924
1482	0.0398472
1494	0.0236012
1506	0.0151145
1518	0.0132555
1530	0.0194791
1542	0.0195599
1554	0.0242478
1566	0.0244095
1578	0.0265109
1590	0.0239245
1602	0.0128513
1614	0.0113965
1626	0.0252985
1638	0.0164885
1650	0.0119622
1662	0.0189133
1674	0.00969912
1686	0.0115581
1698	0.0180242
1710	0.0144679
1722	0.0210148
1734	0.0505971
1746	0.113076
1758	0.24854
1770	0.187193
1782	0.0839782
1794	0.039039
1806	0.0232779
1818	0.014872
1830	0.00897169
1842	0.0107499
1854	0.00864838
1866	0.00695104
1878	0.00719351
1890	0.00719351
1902	0.00687021
1914	0.00727434
1926	0.0062236
1938	0.00630443
1950	0.00646608
1962	0.00606195
1974	0.0059003
1986	0.00581947
1998	0.0062236
2010	0.00614278
2022	0.00670856
2034	0.00646608
2046	0.00630443
2058	0.0059003
2070	0.00598112
2082	0.0062236
2094	0.00573865
2106	0.00565782
2118	0.00484956
2130	0.00493039
2142	0.00452626
2154	0.0043646
2166	0.00379882
2178	0.00387965
2190	0.00396047
2202	0.00387965
2214	0.00347552
2226	0.00363717
2238	0.00282891
2250	0.00242478
2262	0.00250561
2274	0.00274808
2286	0.00282891
2298	0.00266726
2310	0.0021823
2322	0.00137404
2334	0.000484956
2346	0.00040413
2358	0.00080826
2370	8.0826e-05
2382	0.000727434
2394	0.000969912
2406	0.000889086
2418	0.000161652
2430	0.000323304
2442	0.000889086
2454	0.000889086
2466	0.00113156
2478	0.000565782
2490	0.000242478
2502	0.000323304
2514	0.00040413
2526	0.00105074
2538	0.000727434
2550	0.00113156
2562	0.000484956
2574	0.00137404
2586	0.00105074
2598	0.00113156
2610	0.00121239
2622	0.00137404
2634	0.001859
2646	0.00266726
2658	0.00226313
2670	0.00282891
2682	0.00307139
2694	0.00274808
2706	0.00258643
2718	0.00193982
2730	0.00274808
2742	0.00226313
2754	0.00323304
2766	0.00290974
2778	0.0040413
2790	0.00517286
2802	0.00816343
2814	0.0123664
2826	0.0210148
2838	0.0361292
2850	0.0939198
2862	0.288226
2874	0.199398
2886	0.123825
2898	0.131261
2910	0.224535
2922	0.437188
2934	0.80826
2946	0.466043
2958	0.221948
2970	0.186708
2982	0.0889894
2994	0.0435652
3006	0.0227929
3018	0.0139829
3030	0.0084059
3042	0.00565782
3054	0.00250561
3066	0.00242478
3078	0.00315221
3090	0.00242478
3102	0.00307139
3114	0.00129322
3126	0.00177817
3138	0.00202065
3150	0.00177817
3162	0.00210148
3174	0.00274808
3186	0.00299056
3198	0.00258643
3210	0.00153569
3222	0.00145487
3234	0.000969912
3246	0.000889086
3258	0.000969912
3270	0.00129322
3282	0.00113156
3294	0.000889086
3306	0.000565782
3318	0.00226313
3330	0.00266726
3342	0.00242478
3354	0.00274808
3366	0.00355634
3378	0.00290974
3390	0.00299056
3402	0.00299056
3414	0.00428378
3426	0.00315221
3438	0.00501121
3450	0.00557699
3462	0.00363717
3474	0.00153569
3486	0.00315221
3498	0.00323304
3510	0.00484956
3522	0.00347552
3534	0.00355634
3546	0.003718
3558	0.00509204
3570	0.00476873
3582	0.00541534
3594	0.00517286
3606	0.00606195
3618	0.00484956
3630	0.00331387
3642	0.00743599
3654	0.00363717
3666	0.00695104
3678	0.00533452
3690	0.00695104
3702	0.00493039
3714	0.00468791
3726	0.00913334
3738	0.0062236
3750	0.00137404
3762	0.00670856
3774	0.00598112
3786	0.00711269
3798	0.00598112
3810	0.00379882
3822	0.00193982
3834	0.00315221
3846	0.00420295
3858	0.00323304
3870	0.0043646
3882	0.00606195
3894	0.00444543
3906	0.00299056
3918	0.00444543
3930	0.00347552
3942	0.00493039
3954	0.00355634
3966	0.0040413
