Infrared Spectrum: Hexane, 1,6-diiodo-
Formula: C 6 H 12 I 2
CAS: 629-09-4
Origin: Sadtler Research Labs Under US-EPA Contract
1/CM	ABSORBANCE
450	0
462	0.0642643
474	0.0582414
486	0.0698656
498	0.0705884
510	0.0882957
522	0.0750453
534	0.066553
546	0.0569766
558	0.0652882
570	0.0624575
582	0.0728771
594	0.103714
606	0.107449
618	0.0676372
630	0.0620359
642	0.059446
654	0.0607711
666	0.0598676
678	0.0539652
690	0.0603495
702	0.0706486
714	0.0882957
726	0.100823
738	0.0870309
750	0.0778159
762	0.0767317
774	0.0758885
786	0.0737203
798	0.0719737
810	0.0668542
822	0.0669746
834	0.0690224
846	0.0679985
858	0.0653485
870	0.0658303
882	0.0675769
894	0.0737805
906	0.0727566
918	0.0673963
930	0.0648064
942	0.0635416
954	0.0622166
966	0.0621563
978	0.0609517
990	0.061554
1002	0.0640234
1014	0.066553
1026	0.066011
1038	0.0634211
1050	0.0646859
1062	0.0645655
1074	0.0650473
1086	0.0647462
1098	0.063903
1110	0.0739612
1122	0.0769124
1134	0.083116
1146	0.0944391
1158	0.117386
1170	0.18153
1182	0.310782
1194	0.211946
1206	0.169605
1218	0.31024
1230	0.288557
1242	0.196889
1254	0.156716
1266	0.124072
1278	0.130275
1290	0.126601
1302	0.112628
1314	0.095222
1326	0.077575
1338	0.0831762
1350	0.109677
1362	0.0932345
1374	0.0825137
1386	0.0661917
1398	0.0629995
1410	0.0663724
1422	0.0846217
1434	0.147862
1446	0.141056
1458	0.147983
1470	0.102811
1482	0.0692634
1494	0.0587233
1506	0.0554107
1518	0.0549891
1530	0.053664
1542	0.0523992
1554	0.0528208
1566	0.0527004
1578	0.0510742
1590	0.0521583
1602	0.0519174
1614	0.0509537
1626	0.0524595
1638	0.0505321
1650	0.0522788
1662	0.0525197
1674	0.0513151
1686	0.0501105
1698	0.0509537
1710	0.0519174
1722	0.0513753
1734	0.0511947
1746	0.0523992
1758	0.053905
1770	0.0520379
1782	0.0519174
1794	0.0520379
1806	0.051014
1818	0.0514356
1830	0.0513753
1842	0.050773
1854	0.0511947
1866	0.0513151
1878	0.0511947
1890	0.0513753
1902	0.051556
1914	0.0511947
1926	0.0514356
1938	0.0513753
1950	0.0510742
1962	0.0511947
1974	0.0516163
1986	0.0516163
1998	0.0519174
2010	0.0519174
2022	0.0520981
2034	0.0536038
2046	0.0537845
2058	0.0535436
2070	0.0527004
2082	0.0532424
2094	0.0526401
2106	0.0518572
2118	0.0516163
2130	0.0517367
2142	0.0527606
2154	0.0525799
2166	0.0532424
2178	0.0533629
2190	0.0529413
2202	0.0527606
2214	0.0527004
2226	0.0519776
2238	0.0522788
2250	0.0521583
2262	0.0517367
2274	0.0519174
2286	0.0522185
2298	0.0525799
2310	0.0534834
2322	0.0534231
2334	0.0513753
2346	0.0528811
2358	0.0522185
2370	0.0511344
2382	0.0521583
2394	0.0518572
2406	0.0517969
2418	0.0516765
2430	0.0514356
2442	0.0505321
2454	0.0510742
2466	0.0502912
2478	0.0507128
2490	0.050773
2502	0.0501708
2514	0.0499901
2526	0.0502912
2538	0.0499298
2550	0.0499901
2562	0.0513753
2574	0.0519776
2586	0.0520981
2598	0.0524595
2610	0.0522788
2622	0.053664
2634	0.0534231
2646	0.0525799
2658	0.0550493
2670	0.0549288
2682	0.0550493
2694	0.0561937
2706	0.0551095
2718	0.0545675
2730	0.0552902
2742	0.0555311
2754	0.0553505
2766	0.0560732
2778	0.0569766
2790	0.0592653
2802	0.0610722
2814	0.0643848
2826	0.072335
2838	0.102811
2850	0.166172
2862	0.217547
2874	0.210561
2886	0.170569
2898	0.182735
2910	0.183819
2922	0.258443
2934	0.460089
2946	0.563442
2958	0.27874
2970	0.258563
2982	0.168039
2994	0.095463
3006	0.0978721
3018	0.135636
3030	0.0748044
3042	0.0618552
3054	0.0569766
3066	0.0551698
3078	0.0552902
3090	0.0533027
3102	0.0532424
3114	0.0533027
3126	0.0522185
3138	0.0516163
3150	0.0514356
3162	0.0513151
3174	0.0514958
3186	0.0513753
3198	0.0505321
3210	0.0504117
3222	0.0504117
3234	0.0496287
3246	0.0513151
3258	0.0504719
3270	0.0519174
3282	0.0534231
3294	0.051556
3306	0.0513151
3318	0.052339
3330	0.0526401
3342	0.0519776
3354	0.0528208
3366	0.0531822
3378	0.0511947
3390	0.0524595
3402	0.0527004
3414	0.0512549
3426	0.0528208
3438	0.0527606
3450	0.0525799
3462	0.0526401
3474	0.0519174
3486	0.0511947
3498	0.0518572
3510	0.0511344
3522	0.0517367
3534	0.0530617
3546	0.0512549
3558	0.0542663
3570	0.0517969
3582	0.0510742
3594	0.0508333
3606	0.0505321
3618	0.0507128
3630	0.0504719
3642	0.0517367
3654	0.0496287
3666	0.0523992
3678	0.051556
3690	0.050773
3702	0.052339
3714	0.0497492
3726	0.0530015
3738	0.0526401
3750	0.0522185
3762	0.0503514
3774	0.0523992
3786	0.050773
3798	0.0532424
3810	0.0539652
3822	0.0520981
3834	0.0519776
3846	0.0527004
3858	0.0508333
3870	0.0536038
3882	0.0523992
3894	0.0516163
3906	0.0511344
3918	0.0520379
3930	0.0505321
3942	0.0522788
3954	0.0559527
3966	0.0546879
