Infrared Spectrum: Heptadecane
Formula: C 17 H 36
CAS: 629-78-7
Origin: Sadtler Research Labs Under US-EPA Contract
1/CM	ABSORBANCE
450	0
462	0.0452359
474	0.0425972
486	0.0514559
498	0.049948
510	0.0367542
522	0.0471208
534	0.0409008
546	0.0467438
558	0.0465553
570	0.0435396
582	0.0431626
594	0.0490056
606	0.044859
618	0.0480632
630	0.0507019
642	0.0473092
654	0.0463668
666	0.0471208
678	0.0505134
690	0.0507019
702	0.0597491
714	0.0682308
726	0.0691733
738	0.0631418
750	0.0591837
762	0.055414
774	0.0525868
786	0.0518328
798	0.050325
810	0.049948
822	0.0491941
834	0.0493825
846	0.0480632
858	0.0488171
870	0.0486286
882	0.0490056
894	0.0497595
906	0.050325
918	0.0473092
930	0.0480632
942	0.0476862
954	0.0473092
966	0.0471208
978	0.0469323
990	0.0469323
1002	0.0473092
1014	0.0474977
1026	0.0476862
1038	0.0478747
1050	0.0476862
1062	0.0484401
1074	0.0490056
1086	0.0478747
1098	0.0467438
1110	0.0465553
1122	0.0463668
1134	0.0461783
1146	0.0461783
1158	0.0467438
1170	0.0471208
1182	0.0476862
1194	0.0476862
1206	0.0484401
1218	0.0482516
1230	0.0490056
1242	0.0505134
1254	0.0522098
1266	0.0533407
1278	0.055791
1290	0.0597491
1302	0.0654036
1314	0.0654036
1326	0.0623879
1338	0.0712466
1350	0.0850058
1362	0.0810477
1374	0.0744508
1386	0.0752047
1398	0.0595606
1410	0.0563564
1422	0.0588067
1434	0.0687963
1446	0.106116
1458	0.157195
1470	0.151163
1482	0.083498
1494	0.0591837
1506	0.0520213
1518	0.0482516
1530	0.0456129
1542	0.044482
1554	0.0437281
1566	0.0431626
1578	0.0431626
1590	0.0427856
1602	0.0433511
1614	0.0418432
1626	0.0410893
1638	0.0410893
1650	0.0405238
1662	0.0403354
1674	0.0395814
1686	0.0403354
1698	0.0401469
1710	0.0392045
1722	0.0392045
1734	0.039016
1746	0.0388275
1758	0.0392045
1770	0.0393929
1782	0.0392045
1794	0.039016
1806	0.038639
1818	0.0384505
1830	0.0380736
1842	0.0380736
1854	0.0380736
1866	0.0375081
1878	0.0367542
1890	0.0367542
1902	0.0369427
1914	0.0365657
1926	0.0365657
1938	0.0361887
1950	0.0365657
1962	0.0369427
1974	0.0361887
1986	0.0363772
1998	0.0369427
2010	0.0375081
2022	0.0397699
2034	0.0410893
2046	0.0420317
2058	0.0416547
2070	0.0420317
2082	0.0397699
2094	0.0367542
2106	0.0365657
2118	0.0367542
2130	0.0363772
2142	0.0367542
2154	0.0367542
2166	0.0365657
2178	0.0361887
2190	0.0363772
2202	0.0369427
2214	0.0361887
2226	0.0367542
2238	0.0369427
2250	0.0373196
2262	0.0371312
2274	0.038262
2286	0.0393929
2298	0.0403354
2310	0.0405238
2322	0.038262
2334	0.038262
2346	0.0427856
2358	0.0363772
2370	0.0459899
2382	0.0458014
2394	0.0397699
2406	0.038639
2418	0.0388275
2430	0.0393929
2442	0.0393929
2454	0.0395814
2466	0.0393929
2478	0.0401469
2490	0.0405238
2502	0.0409008
2514	0.0416547
2526	0.0427856
2538	0.0433511
2550	0.0442935
2562	0.0442935
2574	0.0450474
2586	0.0458014
2598	0.0463668
2610	0.0456129
2622	0.0458014
2634	0.0463668
2646	0.0482516
2658	0.0497595
2670	0.0533407
2682	0.0567334
2694	0.0561679
2706	0.0546601
2718	0.0539061
2730	0.0552255
2742	0.0569219
2754	0.0580528
2766	0.0591837
2778	0.0623879
2790	0.0691733
2802	0.0785974
2814	0.0906603
2826	0.110828
2838	0.150598
2850	0.29573
2862	0.710015
2874	0.534161
2886	0.399395
2898	0.390725
2910	0.602769
2922	1.1226
2934	1.88483
2946	1.07115
2958	0.579585
2970	0.567145
2982	0.266703
2994	0.150409
3006	0.108943
3018	0.0891525
3030	0.077655
3042	0.0701157
3054	0.0644612
3066	0.0591837
3078	0.0574873
3090	0.0544716
3102	0.0533407
3114	0.0508904
3126	0.049948
3138	0.0469323
3150	0.0459899
3162	0.0467438
3174	0.0450474
3186	0.044482
3198	0.044105
3210	0.0414663
3222	0.0405238
3234	0.0407123
3246	0.0392045
3258	0.0401469
3270	0.0403354
3282	0.0424087
3294	0.0420317
3306	0.0424087
3318	0.0397699
3330	0.0412778
3342	0.0410893
3354	0.0414663
3366	0.0403354
3378	0.0410893
3390	0.0412778
3402	0.0407123
3414	0.0403354
3426	0.0384505
3438	0.0392045
3450	0.0393929
3462	0.038639
3474	0.0378851
3486	0.0378851
3498	0.038262
3510	0.0376966
3522	0.0384505
3534	0.0380736
3546	0.0369427
3558	0.0393929
3570	0.0376966
3582	0.0373196
3594	0.0388275
3606	0.0397699
3618	0.0392045
3630	0.0392045
3642	0.039016
3654	0.0418432
3666	0.0399584
3678	0.0405238
3690	0.0399584
3702	0.0405238
3714	0.0431626
3726	0.0420317
3738	0.0425972
3750	0.0409008
3762	0.0405238
3774	0.0422202
3786	0.0403354
3798	0.0418432
3810	0.0405238
3822	0.0429741
3834	0.0427856
3846	0.0416547
3858	0.0433511
3870	0.0397699
3882	0.0435396
3894	0.0420317
3906	0.0418432
3918	0.0409008
3930	0.0401469
3942	0.0401469
3954	0.0407123
3966	0.0407123
