Infrared Spectrum: Ethane, 1,2-diethoxy-
Formula: C 6 H 14 O 2
CAS: 629-14-1
Origin: Sadtler Research Labs Under US-EPA Contract
1/CM	ABSORBANCE
450	0.00478
462	0.00386952
474	0.00250381
486	0.000910476
498	0.000834603
510	0.00455238
522	0.00819428
534	0.00637333
546	0.00637333
558	0.00432476
570	0.00295905
582	0.00318667
594	0.00227619
606	0.00106222
618	0.00113809
630	0.00326254
642	0.00189682
654	0.0019727
666	0.00113809
678	0.00144159
690	0.00341428
702	0.00250381
714	0.00166921
726	0.00257968
738	0.00220032
750	0.00288317
762	0.00349016
774	0.00546286
786	0.00857365
798	0.0122156
810	0.0142641
822	0.0166162
834	0.0237482
846	0.0313355
858	0.0291352
870	0.0217756
882	0.0166162
894	0.0172232
906	0.0226102
918	0.028073
930	0.034674
942	0.0387711
954	0.029287
966	0.0186648
978	0.0202581
990	0.0272384
1002	0.0349775
1014	0.0468895
1026	0.0639609
1038	0.0782251
1050	0.0798943
1062	0.088392
1074	0.114492
1086	0.139455
1098	0.220942
1110	0.432552
1122	0.720338
1134	0.701825
1146	0.434297
1158	0.243021
1170	0.163355
1182	0.115555
1194	0.0669959
1206	0.0443098
1218	0.0387711
1230	0.0421095
1242	0.0472689
1254	0.0471171
1266	0.0450686
1278	0.0518971
1290	0.0632781
1302	0.05736
1314	0.0459032
1326	0.0500003
1338	0.0542492
1350	0.0924892
1362	0.0798943
1374	0.0877092
1386	0.099166
1398	0.0878609
1410	0.0575876
1422	0.0355844
1434	0.0336876
1446	0.0444616
1458	0.0525041
1470	0.0411232
1482	0.0332324
1494	0.0235965
1506	0.0145676
1518	0.00827016
1530	0.00485587
1542	0.00432476
1554	0.0036419
1566	0.00273143
1578	0.00273143
1590	0.00257968
1602	0.00265555
1614	0.00257968
1626	0.00273143
1638	0.00265555
1650	0.00265555
1662	0.00227619
1674	0.00204857
1686	0.00265555
1698	0.00257968
1710	0.00295905
1722	0.00409714
1734	0.00720793
1746	0.0111533
1758	0.0132019
1770	0.00910476
1782	0.00515936
1794	0.0039454
1806	0.00227619
1818	0.00166921
1830	0.00128984
1842	0.000986349
1854	0.00113809
1866	0.00159333
1878	0.00182095
1890	0.00257968
1902	0.00303492
1914	0.00386952
1926	0.00538698
1938	0.00637333
1950	0.00728381
1962	0.00819428
1974	0.00880127
1986	0.0087254
1998	0.00690444
2010	0.00478
2022	0.00371778
2034	0.00257968
2046	0.00220032
2058	0.00166921
2070	0.00159333
2082	0.00204857
2094	0.00250381
2106	0.00242794
2118	0.00250381
2130	0.00242794
2142	0.00288317
2154	0.00341428
2166	0.00303492
2178	0.0028073
2190	0.00227619
2202	0.00220032
2214	0.00227619
2226	0.00227619
2238	0.00265555
2250	0.00257968
2262	0.00257968
2274	0.00250381
2286	0.00235206
2298	0.00144159
2310	0.000455238
2322	0.000379365
2334	0
2346	0
2358	0
2370	0.000379365
2382	0
2394	0.000379365
2406	0.00128984
2418	0.00121397
2430	0.00121397
2442	0.000682857
2454	0.000227619
2466	0.000227619
2478	0.000531111
2490	0.000606984
2502	0.000682857
2514	0.000606984
2526	0.000606984
2538	0.000986349
2550	0.00121397
2562	0.00113809
2574	0.00128984
2586	0.00250381
2598	0.00371778
2610	0.00462825
2622	0.00478
2634	0.00478
2646	0.00478
2658	0.00523524
2670	0.00622159
2682	0.00887714
2694	0.0123673
2706	0.0164644
2718	0.0194994
2730	0.022686
2742	0.0251898
2754	0.0272384
2766	0.0307286
2778	0.0368743
2790	0.0449927
2802	0.0558425
2814	0.068134
2826	0.0815635
2838	0.116237
2850	0.198029
2862	0.322233
2874	0.404782
2886	0.35941
2898	0.274964
2910	0.235434
2922	0.219652
2934	0.241504
2946	0.248105
2958	0.199622
2970	0.224053
2982	0.305009
2994	0.218514
3006	0.0946895
3018	0.0462825
3030	0.0291352
3042	0.0209409
3054	0.01434
3066	0.0103187
3078	0.00743555
3090	0.0064492
3102	0.00500762
3114	0.00493174
3126	0.00447651
3138	0.00356603
3150	0.00318667
3162	0.00356603
3174	0.00318667
3186	0.00341428
3198	0.00311079
3210	0.00311079
3222	0.00318667
3234	0.00166921
3246	0.00136571
3258	0.000910476
3270	0.000834603
3282	0.00136571
3294	0.000910476
3306	0.00075873
3318	0.000379365
3330	0.000455238
3342	0.000303492
3354	0.000986349
3366	7.5873e-05
3378	0.000986349
3390	0.000834603
3402	0.00075873
3414	0.00106222
3426	0.000606984
3438	0.000531111
3450	0.00113809
3462	0.000606984
3474	0.000682857
3486	7.5873e-05
3498	0.00106222
3510	0.000986349
3522	0.000834603
3534	0.000986349
3546	0.00166921
3558	0.00075873
3570	0.00151746
3582	0.00235206
3594	0.00212444
3606	0.00220032
3618	0.00341428
3630	0.00409714
3642	0.00257968
3654	0.00318667
3666	0.00235206
3678	0.00356603
3690	0.00318667
3702	0.0028073
3714	0.0036419
3726	0.0036419
3738	0.00303492
3750	0.00288317
3762	0.00356603
3774	0.00295905
3786	0.00295905
3798	0.00288317
3810	0.00265555
3822	0.00288317
3834	0.00227619
3846	0.00250381
3858	0.00295905
3870	0.00326254
3882	0.00295905
3894	0.00250381
3906	0.00265555
3918	0.00303492
3930	0.00326254
3942	0.00220032
3954	0.00432476
3966	0.00440063
