Infrared Spectrum: 1-Eicosanol
Formula: C 20 H 42 O
CAS: 629-96-9
Origin: Sadtler Research Labs Under US-EPA Contract
1/CM	ABSORBANCE
450	0.00724998
462	0.000575395
474	0.00794045
486	0.00598411
498	0.00598411
510	0.00356745
522	0.00609919
534	0.00471824
546	0.0049484
558	0.00379761
570	0.00736506
582	0.00609919
594	0.00609919
606	0.00506348
618	0.00644442
630	0.00552379
642	0.00609919
654	0.00678966
666	0.00690474
678	0.00621427
690	0.010127
702	0.0125436
714	0.0230158
726	0.023361
738	0.0170317
750	0.0130039
762	0.0119682
774	0.0107023
786	0.00920632
798	0.00586903
810	0.0021865
822	0.00575395
834	0.00851585
846	0.00863092
858	0.00920632
870	0.00978171
882	0.0113928
894	0.0115079
906	0.0121984
918	0.0136944
930	0.0142698
942	0.0154206
954	0.0170317
966	0.0195634
978	0.0222102
990	0.0265832
1002	0.0337181
1014	0.0425792
1026	0.0515554
1038	0.0591506
1050	0.0606466
1062	0.0470673
1074	0.031992
1086	0.0239364
1098	0.0179523
1110	0.0148452
1122	0.0153055
1134	0.0149603
1146	0.0154206
1158	0.0157658
1170	0.0168015
1182	0.0169166
1194	0.017492
1206	0.0177222
1218	0.0182976
1230	0.0186428
1242	0.0197936
1254	0.0194484
1266	0.0128888
1278	0.0195634
1290	0.023246
1302	0.0273888
1314	0.0273888
1326	0.0252023
1338	0.0311864
1350	0.0423491
1362	0.0418888
1374	0.0387816
1386	0.0377459
1398	0.0270436
1410	0.0209444
1422	0.0207142
1434	0.0296904
1446	0.0544324
1458	0.0894164
1470	0.0759521
1482	0.030611
1494	0.0155357
1506	0.0105873
1518	0.0065595
1530	0.0049484
1542	0.00517855
1554	0.00471824
1566	0.00425792
1578	0.00644442
1590	0.00414284
1602	0.004373
1614	0.00414284
1626	0.00333729
1638	0.0021865
1650	0.000575395
1662	0
1674	0.00172619
1686	0.00483332
1698	0.00609919
1710	0.00851585
1722	0.0107023
1734	0.00989679
1746	0.00805553
1758	0.00609919
1770	0.00552379
1782	0.00471824
1794	0.00322221
1806	0.00264682
1818	0.00172619
1830	0.00149603
1842	0.00115079
1854	0.00115079
1866	0.000690474
1878	0.000805553
1890	0.00103571
1902	0.000690474
1914	0.000460316
1926	0.000690474
1938	0.000690474
1950	0.00103571
1962	0.000920632
1974	0.000920632
1986	0.00103571
1998	0.00126587
2010	0.00138095
2022	0.00207142
2034	0.0021865
2046	0.00241666
2058	0.0021865
2070	0.00230158
2082	0.00195634
2094	0.00184126
2106	0.00161111
2118	0.00149603
2130	0.00184126
2142	0.00161111
2154	0.00149603
2166	0.00161111
2178	0.00184126
2190	0.00149603
2202	0.00149603
2214	0.00172619
2226	0.00115079
2238	0.00138095
2250	0.00172619
2262	0.00172619
2274	0.00207142
2286	0.00483332
2298	0.00851585
2310	0.0124285
2322	0.00978171
2334	0.00540871
2346	0.00897616
2358	0.00644442
2370	0.00632935
2382	0.00817061
2394	0.0021865
2406	0.00230158
2418	0.00195634
2430	0.0021865
2442	0.0021865
2454	0.00207142
2466	0.00230158
2478	0.00241666
2490	0.00253174
2502	0.00310713
2514	0.00333729
2526	0.00402776
2538	0.00483332
2550	0.00483332
2562	0.00506348
2574	0.00540871
2586	0.00644442
2598	0.00724998
2610	0.00782537
2622	0.008746
2634	0.00955156
2646	0.0105873
2658	0.0120833
2670	0.0135793
2682	0.0151904
2694	0.0151904
2706	0.0148452
2718	0.0149603
2730	0.0151904
2742	0.0170317
2754	0.0177222
2766	0.0192182
2778	0.0220952
2790	0.0270436
2802	0.0336031
2814	0.0433848
2826	0.0594958
2838	0.0933291
2850	0.214392
2862	0.464344
2874	0.323602
2886	0.239019
2898	0.258928
2910	0.402776
2922	0.71418
2934	1.15079
2946	0.645018
2958	0.316928
2970	0.239479
2982	0.112547
2994	0.061222
3006	0.0405078
3018	0.0295753
3030	0.0227856
3042	0.0176071
3054	0.0141547
3066	0.0118531
3078	0.010127
3090	0.00851585
3102	0.00759521
3114	0.00678966
3126	0.00644442
3138	0.00552379
3150	0.00540871
3162	0.00517855
3174	0.004373
3186	0.00391269
3198	0.00333729
3210	0.00287697
3222	0.00310713
3234	0.00207142
3246	0.00161111
3258	0.00138095
3270	0.00126587
3282	0.00138095
3294	0.00138095
3306	0.00172619
3318	0.00149603
3330	0.0021865
3342	0.00195634
3354	0.00253174
3366	0.00310713
3378	0.00287697
3390	0.00379761
3402	0.00368253
3414	0.00448808
3426	0.00356745
3438	0.00425792
3450	0.00529363
3462	0.00575395
3474	0.00609919
3486	0.00609919
3498	0.00748013
3510	0.0071349
3522	0.00782537
3534	0.00840077
3546	0.00897616
3558	0.00897616
3570	0.00782537
3582	0.00759521
3594	0.00759521
3606	0.00771029
3618	0.00863092
3630	0.0104722
3642	0.0139246
3654	0.0173769
3666	0.017492
3678	0.0165714
3690	0.0093214
3702	0.0049484
3714	0.004373
3726	0.00287697
3738	0.00379761
3750	0.00264682
3762	0.00287697
3774	0.00345237
3786	0.00253174
3798	0.00425792
3810	0.00230158
3822	0.00379761
3834	0.00402776
3846	0.00414284
3858	0.00379761
3870	0.004373
3882	0.00425792
3894	0.00552379
3906	0.00356745
3918	0.00517855
3930	0.004373
3942	0.00540871
3954	0.00529363
3966	0.00540871
