Infrared Spectrum: Octadecane, 1-iodo-
Formula: C 18 H 37 I
CAS: 629-93-6
Origin: Sadtler Research Labs Under US-EPA Contract
1/CM	ABSORBANCE
450	0.00671717
462	0.00959595
474	0.0106926
486	0.00973304
498	0.00808802
510	0.0082251
522	0.0102814
534	0.00589466
546	0.00795093
558	0.00740259
570	0.00740259
582	0.00699134
594	0.0116522
606	0.00767676
618	0.00424963
630	0.00452381
642	0.00479798
654	0.00479798
666	0.00562049
678	0.00740259
690	0.00795093
702	0.0135714
714	0.0230303
726	0.0248124
738	0.0204257
750	0.0146681
762	0.0141198
774	0.0130231
786	0.0109668
798	0.00918469
810	0.00959595
822	0.00987012
834	0.0082251
846	0.00891053
858	0.00904761
870	0.00808802
882	0.00904761
894	0.0105555
906	0.00863636
918	0.00863636
930	0.00849927
942	0.00918469
954	0.0119264
966	0.0179581
978	0.0117893
990	0.00781384
1002	0.00767676
1014	0.00795093
1026	0.00863636
1038	0.00891053
1050	0.00603174
1062	0.00767676
1074	0.00781384
1086	0.0082251
1098	0.00712842
1110	0.00383838
1122	0.00383838
1134	0.00753968
1146	0.0109668
1158	0.0156277
1170	0.0235786
1182	0.0249495
1194	0.0267316
1206	0.0259091
1218	0.0224819
1230	0.0200144
1242	0.0185065
1254	0.0180952
1266	0.0186436
1278	0.0191919
1290	0.0202886
1302	0.024127
1314	0.0227561
1326	0.0230303
1338	0.0312554
1350	0.0426334
1362	0.0424964
1374	0.0464718
1386	0.046746
1398	0.0204257
1410	0.0153535
1422	0.0185065
1434	0.0352308
1446	0.0688167
1458	0.114877
1470	0.101717
1482	0.0367388
1494	0.0149423
1506	0.00973304
1518	0.00493506
1530	0.00397547
1542	0.00287879
1554	0.00246753
1566	0.00246753
1578	0.0017821
1590	0.00246753
1602	0.00329004
1614	0.00383838
1626	0.00438672
1638	0.00534631
1650	0.00616883
1662	0.00424963
1674	0.00191919
1686	0.000137085
1698	0.000411255
1710	0.00123376
1722	0.00246753
1734	0.00342713
1746	0.00424963
1758	0.00520923
1770	0.00534631
1782	0.00397547
1794	0.00287879
1806	0.0027417
1818	0.00191919
1830	0.00164502
1842	0.00137085
1854	0.00137085
1866	0.00109668
1878	0.00123376
1890	0.00123376
1902	0.00123376
1914	0.00082251
1926	0.000685425
1938	0.00054834
1950	0.000959595
1962	0.00082251
1974	0.000959595
1986	0.000685425
1998	0.000959595
2010	0.00109668
2022	0.00137085
2034	0.00150794
2046	0.00191919
2058	0.0017821
2070	0.0017821
2082	0.00164502
2094	0.00164502
2106	0.00123376
2118	0.00164502
2130	0.00137085
2142	0.00123376
2154	0.0017821
2166	0.00191919
2178	0.00219336
2190	0.00164502
2202	0.0017821
2214	0.00191919
2226	0.00233044
2238	0.00191919
2250	0.00260462
2262	0.00301587
2274	0.00329004
2286	0.00411255
2298	0.00534631
2310	0.00562049
2322	0.00644299
2334	0.00383838
2346	0.00342713
2358	0.00520923
2370	0.00452381
2382	0.00562049
2394	0.00397547
2406	0.00424963
2418	0.00411255
2430	0.00397547
2442	0.00452381
2454	0.00452381
2466	0.00479798
2478	0.00493506
2490	0.0054834
2502	0.00493506
2514	0.00603174
2526	0.00685425
2538	0.00712842
2550	0.00753968
2562	0.00767676
2574	0.00891053
2586	0.00973304
2598	0.0106926
2610	0.0119264
2622	0.0123377
2634	0.0134343
2646	0.0142568
2658	0.0157648
2670	0.0165873
2682	0.0178211
2694	0.017684
2706	0.017684
2718	0.0178211
2730	0.0200144
2742	0.0222078
2754	0.0224819
2766	0.0230303
2778	0.0268687
2790	0.0330375
2802	0.0405772
2814	0.0511327
2826	0.0705988
2838	0.111176
2850	0.242778
2862	0.532027
2874	0.416464
2886	0.339285
2898	0.339285
2910	0.515851
2922	0.887214
2934	1.37085
2946	0.815656
2958	0.51119
2970	0.536139
2982	0.225368
2994	0.105281
3006	0.069365
3018	0.0574386
3030	0.0413997
3042	0.0312554
3054	0.024264
3066	0.0200144
3078	0.0182323
3090	0.0156277
3102	0.0132972
3114	0.0115151
3126	0.0105555
3138	0.00973304
3150	0.00918469
3162	0.00863636
3174	0.0082251
3186	0.00781384
3198	0.00658008
3210	0.00603174
3222	0.00479798
3234	0.00397547
3246	0.00397547
3258	0.00329004
3270	0.0027417
3282	0.00383838
3294	0.00356421
3306	0.00260462
3318	0.00329004
3330	0.00329004
3342	0.0027417
3354	0.00301587
3366	0.00383838
3378	0.00246753
3390	0.0027417
3402	0.00329004
3414	0.0037013
3426	0.0027417
3438	0.00260462
3450	0.00246753
3462	0.00246753
3474	0.00356421
3486	0.00301587
3498	0.00233044
3510	0.00233044
3522	0.0027417
3534	0.00233044
3546	0.00246753
3558	0.00315296
3570	0.00233044
3582	0.00315296
3594	0.00301587
3606	0.0027417
3618	0.00356421
3630	0.0037013
3642	0.00466089
3654	0.00397547
3666	0.00424963
3678	0.00466089
3690	0.00466089
3702	0.00466089
3714	0.00411255
3726	0.00424963
3738	0.00356421
3750	0.00383838
3762	0.00424963
3774	0.00411255
3786	0.00329004
3798	0.00424963
3810	0.00383838
3822	0.0037013
3834	0.00383838
3846	0.00411255
3858	0.0037013
3870	0.00329004
3882	0.00452381
3894	0.00260462
3906	0.00438672
3918	0.00383838
3930	0.00287879
3942	0.00466089
3954	0.00603174
3966	0.0037013
