Infrared Spectrum: Disulfide, dipropyl
Formula: C 6 H 14 S 2
CAS: 629-19-6
Origin: Sadtler Research Labs Under US-EPA Contract
1/CM	ABSORBANCE
450	0.0107781
462	0.0116701
474	0.0127851
486	0.00936583
498	0.00616956
510	0.0127108
522	0.00981182
534	0.0115215
546	0.0106295
558	0.00773053
570	0.00646688
582	0.0074332
594	0.0154611
606	0.0101092
618	0.0107781
630	0.0117445
642	0.00869684
654	0.0104808
666	0.0090685
678	0.0107781
690	0.0103321
702	0.0135284
714	0.0169477
726	0.0217793
738	0.0227456
750	0.0147921
762	0.0164274
774	0.0308478
786	0.0498024
798	0.0287665
810	0.01613
822	0.01836
834	0.019921
846	0.0173194
858	0.0128594
870	0.0125621
882	0.0231173
894	0.0350847
906	0.02059
918	0.0105551
930	0.00884551
942	0.00877118
954	0.00899417
966	0.00891984
978	0.00847385
990	0.00758186
1002	0.00854818
1014	0.0101835
1026	0.0144204
1038	0.0200696
1050	0.0275772
1062	0.0257189
1074	0.0232659
1086	0.0300301
1098	0.0220766
1110	0.0115215
1122	0.0092915
1134	0.00839952
1146	0.00944016
1158	0.00996049
1170	0.00958883
1182	0.0124878
1194	0.0177653
1206	0.0268339
1218	0.0613982
1230	0.144204
1242	0.0795352
1254	0.0310708
1266	0.0256445
1278	0.0507688
1290	0.122648
1302	0.073886
1314	0.0251242
1326	0.0280975
1338	0.0450452
1350	0.0295098
1362	0.0209616
1374	0.0423692
1386	0.0796839
1398	0.0445249
1410	0.0428896
1422	0.054188
1434	0.0631079
1446	0.0883064
1458	0.120641
1470	0.107261
1482	0.0567153
1494	0.0278002
1506	0.0219279
1518	0.01613
1530	0.0117445
1542	0.0120418
1554	0.0109268
1566	0.00891984
1578	0.0107781
1590	0.0092915
1602	0.00958883
1614	0.0101092
1626	0.00773053
1638	0.00854818
1650	0.00780486
1662	0.00869684
1674	0.00713587
1686	0.00891984
1698	0.0095145
1710	0.00817652
1722	0.00483158
1734	0.00706154
1746	0.0053519
1758	0.00602089
1770	0.00609522
1782	0.00527757
1794	0.00542624
1806	0.00483158
1818	0.00512891
1830	0.00550057
1842	0.00468292
1854	0.00505458
1866	0.00483158
1878	0.00512891
1890	0.00475725
1902	0.00423692
1914	0.00445992
1926	0.00490591
1938	0.00453425
1950	0.00475725
1962	0.00468292
1974	0.00401393
1986	0.00364227
1998	0.00386526
2010	0.00505458
2022	0.00616956
2034	0.00639255
2046	0.00602089
2058	0.00527757
2070	0.00468292
2082	0.00505458
2094	0.00512891
2106	0.00550057
2118	0.00587223
2130	0.00490591
2142	0.00379093
2154	0.00438559
2166	0.00319628
2178	0.0037166
2190	0.00356794
2202	0.00386526
2214	0.00423692
2226	0.00438559
2238	0.00483158
2250	0.00468292
2262	0.00408826
2274	0.00431126
2286	0.00386526
2298	0.0037166
2310	0.00341927
2322	0.00445992
2334	0.00438559
2346	0.00312194
2358	0.00423692
2370	0.00141231
2382	0.00141231
2394	0.00312194
2406	0.00460858
2418	0.0039396
2430	0.0034936
2442	0.00252729
2454	0.00282462
2466	0.00237862
2478	0.00275028
2490	0.00289895
2502	0.00304761
2514	0.0034936
2526	0.00386526
2538	0.00401393
2550	0.00282462
2562	0.00178397
2574	0.000891984
2586	0.00126364
2598	0.00148664
2610	0.00170964
2622	0.00215563
2634	0.00297328
2646	0.00520324
2658	0.00639255
2670	0.00587223
2682	0.00490591
2694	0.00275028
2706	0.00341927
2718	0.00438559
2730	0.00498024
2742	0.0095145
2754	0.00988616
2766	0.00899417
2778	0.0112985
2790	0.0160557
2802	0.0213333
2814	0.0314424
2826	0.036274
2838	0.0401393
2850	0.0581276
2862	0.107707
2874	0.185607
2886	0.27146
2898	0.233179
2910	0.280232
2922	0.328027
2934	0.396636
2946	0.464426
2958	0.448073
2970	0.698795
2982	0.564403
2994	0.171781
3006	0.0752983
3018	0.0474981
3030	0.0364227
3042	0.0284692
3054	0.0213333
3066	0.0182113
3078	0.0158327
3090	0.0154611
3102	0.0134541
3114	0.0124878
3126	0.0121161
3138	0.0110755
3150	0.0112985
3162	0.0110755
3174	0.0106295
3186	0.0105551
3198	0.0095145
3210	0.00773053
3222	0.00616956
3234	0.00483158
3246	0.00468292
3258	0.00483158
3270	0.00289895
3282	0.00408826
3294	0.00304761
3306	0.00304761
3318	0.00289895
3330	0.00356794
3342	0.00401393
3354	0.00379093
3366	0.00230429
3378	0.00312194
3390	0.00356794
3402	0.00133798
3414	0.0016353
3426	0.00364227
3438	0.00267595
3450	0.00230429
3462	0.00148664
3474	0.00200696
3486	0.00386526
3498	0.0016353
3510	0.00260162
3522	0.00237862
3534	0.000966316
3546	0.00237862
3558	0.00118931
3570	0.00267595
3582	0.00222996
3594	0.0039396
3606	0.00297328
3618	0.00334494
3630	0.00401393
3642	0.00379093
3654	0.00237862
3666	0.00386526
3678	0.00460858
3690	0.00527757
3702	0.00438559
3714	0.00483158
3726	0.00542624
3738	0.00676421
3750	0.00527757
3762	0.00654122
3774	0.00572356
3786	0.00587223
3798	0.00773053
3810	0.00825085
3822	0.00832518
3834	0.00869684
3846	0.00884551
3858	0.00758186
3870	0.00810219
3882	0.00713587
3894	0.00832518
3906	0.00750753
3918	0.00773053
3930	0.00936583
3942	0.00787919
3954	0.0076562
3966	0.00914284
