Infrared Spectrum: Tridecane
Formula: C 13 H 28
CAS: 629-50-5
Origin: Sadtler Research Labs Under US-EPA Contract
1/CM	ABSORBANCE
450	0.0027732
462	0.00251523
474	0.00245073
486	0.00064493
498	0.00232175
510	0.00206378
522	0.00503045
534	0.00335364
546	0.00341813
558	0.00399857
570	0.00122537
582	0.00625582
594	0.00264421
606	0.00374059
618	0.00399857
630	0.00425654
642	0.00322465
654	0.0027732
666	0.00199928
678	0.00296668
690	0.00386958
702	0.00612683
714	0.0101254
726	0.00915801
738	0.00793264
750	0.00567538
762	0.00515944
774	0.00522393
786	0.00573988
798	0.00374059
810	0.00296668
822	0.0036761
834	0.0036761
846	0.00309566
858	0.00393407
870	0.00361161
882	0.00354711
894	0.0046435
906	0.00380509
918	0.00354711
930	0.00406306
942	0.00348262
954	0.00335364
966	0.00290218
978	0.00251523
990	0.00348262
1002	0.00296668
1014	0.00290218
1026	0.00322465
1038	0.00335364
1050	0.00341813
1062	0.00328914
1074	0.00328914
1086	0.00328914
1098	0.00328914
1110	0.0027732
1122	0.0027732
1134	0.00303117
1146	0.00316016
1158	0.00322465
1170	0.00316016
1182	0.00348262
1194	0.00322465
1206	0.00316016
1218	0.0036761
1230	0.00399857
1242	0.00432103
1254	0.004579
1266	0.00509495
1278	0.00593336
1290	0.00728771
1302	0.00883554
1314	0.00909351
1326	0.00741669
1338	0.0103834
1350	0.014253
1362	0.0145109
1374	0.013995
1386	0.0171551
1398	0.00806162
1410	0.00638481
1422	0.00651379
1434	0.0103834
1446	0.0221211
1458	0.0405016
1470	0.045661
1482	0.0183805
1494	0.0073522
1506	0.00419204
1518	0.00303117
1530	0.00290218
1542	0.00154783
1554	0.00167682
1566	0.00128986
1578	0.00135435
1590	0.00174131
1602	0.00116087
1614	0.00122537
1626	0.00154783
1638	0.00103189
1650	0.00148334
1662	0.00122537
1674	0.00109638
1686	0.000773916
1698	0.00103189
1710	0.00122537
1722	0.00135435
1734	0.00116087
1746	0.00103189
1758	0.00128986
1770	0.000709423
1782	0.00116087
1794	0.000709423
1806	0.000967395
1818	0.000838409
1830	0.000515944
1842	0.000773916
1854	0.000773916
1866	0.000386958
1878	0.000709423
1890	0.000838409
1902	0.000709423
1914	0.000773916
1926	0.000709423
1938	0.000580437
1950	0.000386958
1962	0.000515944
1974	0.000128986
1986	0.000451451
1998	0.000580437
2010	0.000451451
2022	0.00154783
2034	0.00135435
2046	0.00109638
2058	0.00141885
2070	0.000838409
2082	0.000451451
2094	0.000451451
2106	0.000386958
2118	0.000322465
2130	0.000257972
2142	0.000451451
2154	0.000773916
2166	0.000386958
2178	0.000322465
2190	0.000193479
2202	0.000709423
2214	0.00064493
2226	0.000257972
2238	0.000709423
2250	0.000193479
2262	0.00064493
2274	0.000386958
2286	0.000580437
2298	0.000580437
2310	0.000515944
2322	0.000515944
2334	0.000580437
2346	0.00154783
2358	0.000515944
2370	0.00225725
2382	0.00232175
2394	0.00167682
2406	0.00116087
2418	0.00116087
2430	0.00122537
2442	0.00161232
2454	0.00122537
2466	0.00128986
2478	0.00128986
2490	0.00148334
2502	0.00174131
2514	0.0018058
2526	0.00174131
2538	0.00225725
2550	0.00309566
2562	0.00328914
2574	0.00328914
2586	0.00361161
2598	0.00419204
2610	0.00419204
2622	0.00470799
2634	0.00477248
2646	0.00522393
2658	0.00528843
2670	0.00580437
2682	0.00773916
2694	0.00690075
2706	0.00683626
2718	0.00670727
2730	0.00722322
2742	0.0082551
2754	0.00799713
2766	0.00812612
2778	0.0082551
2790	0.0103834
2802	0.0134145
2814	0.0168327
2826	0.022766
2838	0.0332784
2850	0.0770691
2862	0.230756
2874	0.190706
2886	0.138015
2898	0.116281
2910	0.175679
2922	0.344651
2934	0.64493
2946	0.376252
2958	0.200315
2970	0.251845
2982	0.0973844
2994	0.041211
3006	0.0249588
3018	0.0170262
3030	0.013866
3042	0.0105769
3054	0.00793264
3066	0.0064493
3078	0.00528843
3090	0.00477248
3102	0.004579
3114	0.00412755
3126	0.00328914
3138	0.00316016
3150	0.00270871
3162	0.00212827
3174	0.00219276
3186	0.00212827
3198	0.0027732
3210	0.00174131
3222	0.000773916
3234	0.000838409
3246	0.00109638
3258	0.000838409
3270	0.000838409
3282	0.00128986
3294	0.00109638
3306	0.000902902
3318	0.00128986
3330	0.0018058
3342	0.00122537
3354	0.00109638
3366	0.000773916
3378	0.00135435
3390	0.000902902
3402	0.0018058
3414	0.00109638
3426	0.000902902
3438	0.000902902
3450	0.00128986
3462	0.000902902
3474	0.00103189
3486	0.00103189
3498	0.00064493
3510	0.00103189
3522	0.000967395
3534	0.000967395
3546	0.000257972
3558	0.00103189
3570	0.000257972
3582	0.000967395
3594	0.00109638
3606	0.00154783
3618	0.00116087
3630	0.00116087
3642	0.00161232
3654	0.00270871
3666	0.00161232
3678	0.00199928
3690	0.00206378
3702	0.00309566
3714	0.00335364
3726	0.00225725
3738	0.00303117
3750	0.00322465
3762	0.00380509
3774	0.00406306
3786	0.00380509
3798	0.00406306
3810	0.00419204
3822	0.00406306
3834	0.00399857
3846	0.00328914
3858	0.00509495
3870	0.00496596
3882	0.00386958
3894	0.00316016
3906	0.00451451
3918	0.004579
3930	0.00425654
3942	0.00393407
3954	0.00374059
3966	0.00406306
