Infrared Spectrum: 3-Tetradecanone
Formula: C 14 H 28 O
CAS: 629-23-2
Origin: Sadtler Research Labs Under US-EPA Contract
1/CM	ABSORBANCE
450	0
462	0.00666963
474	0.0110687
486	0.0103592
498	0.00737916
510	0.0116364
522	0.0133393
534	0.0139069
546	0.0102173
558	0.00780489
570	0.006102
582	0.00666963
594	0.00638582
606	0.00666963
618	0.00908205
630	0.00894014
642	0.00652772
654	0.00539247
666	0.00468293
678	0.00681154
690	0.00780489
702	0.0139069
714	0.0234147
726	0.0249756
738	0.0201508
750	0.016745
762	0.0158936
774	0.015326
786	0.0157517
798	0.0139069
810	0.0156098
822	0.0144745
834	0.0141907
846	0.0134812
858	0.0129135
870	0.0126297
882	0.0134812
894	0.0156098
906	0.0166031
918	0.019867
930	0.0254014
942	0.0341996
954	0.0395921
966	0.0376054
978	0.0340577
990	0.0296586
1002	0.0276719
1014	0.0357606
1026	0.0447007
1038	0.0428559
1050	0.0374634
1062	0.0357606
1074	0.0363282
1086	0.0418626
1098	0.0603105
1110	0.0842928
1122	0.0725145
1134	0.0698182
1146	0.0669801
1158	0.0651353
1170	0.06102
1182	0.0540666
1194	0.0466874
1206	0.0407273
1218	0.0332062
1230	0.0293747
1242	0.03051
1254	0.0349091
1266	0.038173
1278	0.0395921
1290	0.0408692
1302	0.045836
1314	0.0530732
1326	0.0600267
1338	0.0882662
1350	0.124027
1362	0.120337
1374	0.0884081
1386	0.0735078
1398	0.0495255
1410	0.0527894
1422	0.0681154
1434	0.0729402
1446	0.097632
1458	0.147016
1470	0.136089
1482	0.0539247
1494	0.0256852
1506	0.018306
1518	0.0136231
1530	0.00993349
1542	0.00879823
1554	0.00766298
1566	0.006102
1578	0.00425721
1590	0.00539247
1602	0.00681154
1614	0.00766298
1626	0.00837251
1638	0.00865633
1650	0.0103592
1662	0.012204
1674	0.0204346
1686	0.0374634
1698	0.0720888
1710	0.160639
1722	0.33263
1734	0.357464
1746	0.153543
1758	0.0659868
1770	0.0353348
1782	0.0212861
1794	0.0144745
1806	0.0105011
1818	0.00780489
1830	0.00624391
1842	0.00525056
1854	0.00454102
1866	0.00425721
1878	0.00368958
1890	0.00383149
1902	0.00368958
1914	0.00354768
1926	0.00340577
1938	0.00326386
1950	0.00354768
1962	0.00354768
1974	0.00326386
1986	0.00326386
1998	0.00340577
2010	0.00383149
2022	0.00439912
2034	0.00496675
2046	0.00468293
2058	0.00496675
2070	0.00468293
2082	0.00454102
2094	0.00425721
2106	0.00439912
2118	0.00439912
2130	0.00454102
2142	0.00425721
2154	0.00468293
2166	0.00510865
2178	0.00510865
2190	0.00496675
2202	0.00496675
2214	0.00425721
2226	0.0041153
2238	0.00383149
2250	0.00368958
2262	0.0039734
2274	0.00425721
2286	0.00482484
2298	0.00567628
2310	0.00624391
2322	0.00652772
2334	0.00596009
2346	0.00652772
2358	0.00652772
2370	0.006102
2382	0.00624391
2394	0.00539247
2406	0.00525056
2418	0.00482484
2430	0.00496675
2442	0.00510865
2454	0.00482484
2466	0.00496675
2478	0.00510865
2490	0.00496675
2502	0.00567628
2514	0.00581819
2526	0.00652772
2538	0.00681154
2550	0.00681154
2562	0.00723726
2574	0.00766298
2586	0.0080887
2598	0.00879823
2610	0.00964968
2622	0.0107849
2634	0.0119202
2646	0.0130554
2658	0.0144745
2670	0.0161774
2682	0.018306
2694	0.018306
2706	0.0178803
2718	0.0178803
2730	0.0194413
2742	0.021428
2754	0.0222794
2766	0.0232727
2778	0.025969
2790	0.0327805
2802	0.0417207
2814	0.0544923
2826	0.0719468
2838	0.10345
2850	0.214847
2862	0.528036
2874	0.452116
2886	0.356754
2898	0.377898
2910	0.544355
2922	0.917145
2934	1.41907
2946	1.02471
2958	0.617012
2970	0.536408
2982	0.32667
2994	0.192994
3006	0.10714
3018	0.0698182
3030	0.0495255
3042	0.0368958
3054	0.0283814
3066	0.0234147
3078	0.0207184
3090	0.0184479
3102	0.0166031
3114	0.0154679
3126	0.0139069
3138	0.0127716
3150	0.0117783
3162	0.0114945
3174	0.0109268
3186	0.00993349
3198	0.00879823
3210	0.00737916
3222	0.00666963
3234	0.00596009
3246	0.00581819
3258	0.00510865
3270	0.00496675
3282	0.00496675
3294	0.00482484
3306	0.00468293
3318	0.00468293
3330	0.00510865
3342	0.00567628
3354	0.00553437
3366	0.00539247
3378	0.00596009
3390	0.00709535
3402	0.00709535
3414	0.00851442
3426	0.0103592
3438	0.0109268
3450	0.00922396
3462	0.00737916
3474	0.00510865
3486	0.00510865
3498	0.00468293
3510	0.00439912
3522	0.00482484
3534	0.00454102
3546	0.00482484
3558	0.00496675
3570	0.00553437
3582	0.00581819
3594	0.00567628
3606	0.00425721
3618	0.00496675
3630	0.00681154
3642	0.00596009
3654	0.00539247
3666	0.00567628
3678	0.006102
3690	0.00567628
3702	0.00510865
3714	0.00510865
3726	0.00624391
3738	0.00482484
3750	0.00510865
3762	0.00482484
3774	0.00581819
3786	0.00482484
3798	0.00439912
3810	0.00510865
3822	0.00482484
3834	0.00596009
3846	0.00510865
3858	0.00553437
3870	0.00510865
3882	0.00468293
3894	0.00439912
3906	0.00482484
3918	0.00581819
3930	0.00581819
3942	0.00581819
3954	0.00539247
3966	0.00638582
