Infrared Spectrum: Docosane
Formula: C 22 H 46
CAS: 629-97-0
Origin: Sadtler Research Labs Under US-EPA Contract
1/CM	ABSORBANCE
450	0.000573952
462	0.00695917
474	0.0042329
486	0.00430464
498	0.00272627
510	0.00308499
522	0.00330022
534	0.00401766
546	0.0017936
558	0.00502208
570	0.00272627
582	0.00150662
594	0.00322848
606	0.00344371
618	0.00344371
630	0.00344371
642	0.00330022
654	0.00272627
666	0.00308499
678	0.00437638
690	0.00466336
702	0.00738963
714	0.0114073
726	0.0113356
738	0.008968
750	0.00760486
762	0.00595475
774	0.00502208
786	0.00466336
798	0.00516557
810	0.00480685
822	0.00416115
834	0.00401766
846	0.00401766
858	0.00387418
870	0.00380243
882	0.00459162
894	0.00437638
906	0.00373069
918	0.00365894
930	0.00365894
942	0.00373069
954	0.00344371
966	0.00315674
978	0.00394592
990	0.00330022
1002	0.00373069
1014	0.00430464
1026	0.00444813
1038	0.00416115
1050	0.00444813
1062	0.00459162
1074	0.00502208
1086	0.00495034
1098	0.00509382
1110	0.00509382
1122	0.00444813
1134	0.00444813
1146	0.0042329
1158	0.00430464
1170	0.00416115
1182	0.00380243
1194	0.00387418
1206	0.00401766
1218	0.0042329
1230	0.00451987
1242	0.0047351
1254	0.00581126
1266	0.00624173
1278	0.0071744
1290	0.00846579
1302	0.0109051
1314	0.0109768
1326	0.00954195
1338	0.0124117
1350	0.0180077
1362	0.0175773
1374	0.0141336
1386	0.0126987
1398	0.00810707
1410	0.00710266
1422	0.00774835
1434	0.011766
1446	0.0251104
1458	0.0435486
1470	0.0401766
1482	0.015425
1494	0.00738963
1506	0.0047351
1518	0.00408941
1530	0.00301325
1542	0.00236755
1554	0.0024393
1566	0.00229581
1578	0.00143488
1590	0.00193709
1602	0.00172186
1614	0.00165011
1626	0.0017936
1638	0.00136314
1650	0.00157837
1662	0.00193709
1674	0.00165011
1686	0.00121965
1698	0.0017936
1710	0.00322848
1722	0.0042329
1734	0.00545254
1746	0.00559603
1758	0.00437638
1770	0.00387418
1782	0.00308499
1794	0.00236755
1806	0.00208058
1818	0.00172186
1830	0.00143488
1842	0.0011479
1854	0.0011479
1866	0.0011479
1878	0.00100442
1890	0.0011479
1902	0.00107616
1914	0.00107616
1926	0.0011479
1938	0.00071744
1950	0.00071744
1962	0.0011479
1974	0.000860928
1986	0.00071744
1998	0.000860928
2010	0.00107616
2022	0.00143488
2034	0.00136314
2046	0.00165011
2058	0.00129139
2070	0.00150662
2082	0.00121965
2094	0.00129139
2106	0.0011479
2118	0.0011479
2130	0.00129139
2142	0.0011479
2154	0.0011479
2166	0.00129139
2178	0.00136314
2190	0.00136314
2202	0.0011479
2214	0.00121965
2226	0.00100442
2238	0.00121965
2250	0.000789184
2262	0.00121965
2274	0.00121965
2286	0.00150662
2298	0.00251104
2310	0.0029415
2322	0.00279802
2334	0.00236755
2346	0.00308499
2358	0.0024393
2370	0.00330022
2382	0.00308499
2394	0.00121965
2406	0.00100442
2418	0.000932672
2430	0.00071744
2442	0.000573952
2454	0.000789184
2466	0.00071744
2478	0.0011479
2490	0.000789184
2502	0.00100442
2514	0.00143488
2526	0.00165011
2538	0.00215232
2550	0.00215232
2562	0.00222406
2574	0.0024393
2586	0.00251104
2598	0.00286976
2610	0.00330022
2622	0.00344371
2634	0.0042329
2646	0.00466336
2658	0.00509382
2670	0.00581126
2682	0.00688742
2694	0.00660045
2706	0.00660045
2718	0.00631347
2730	0.0065287
2742	0.00746138
2754	0.00738963
2766	0.00731789
2778	0.00889626
2790	0.0109768
2802	0.0147793
2814	0.0186534
2826	0.0258996
2838	0.0394592
2850	0.0911149
2862	0.264018
2874	0.174553
2886	0.120315
2898	0.122252
2910	0.203466
2922	0.393444
2934	0.71744
2946	0.372997
2958	0.177136
2970	0.166518
2982	0.0727484
2994	0.0360872
3006	0.0229581
3018	0.0165011
3030	0.0126987
3042	0.0100442
3054	0.00789184
3066	0.00624173
3078	0.0053808
3090	0.00495034
3102	0.00408941
3114	0.00373069
3126	0.00322848
3138	0.00322848
3150	0.00286976
3162	0.00258278
3174	0.00272627
3186	0.00200883
3198	0.00208058
3210	0.00186534
3222	0.00136314
3234	0.00157837
3246	0.0011479
3258	0.00121965
3270	0.000932672
3282	0.00107616
3294	0.0011479
3306	0.00129139
3318	0.000789184
3330	0.00136314
3342	0.00100442
3354	0.00143488
3366	0.00136314
3378	0.00121965
3390	0.00121965
3402	0.00150662
3414	0.00200883
3426	0.000860928
3438	0.00172186
3450	0.00150662
3462	0.00143488
3474	0.00157837
3486	0.00107616
3498	0.000789184
3510	0.00136314
3522	0.000573952
3534	0.000932672
3546	0.00143488
3558	0.00136314
3570	0.00236755
3582	0.00157837
3594	0.00165011
3606	0.00165011
3618	0.00186534
3630	0.000932672
3642	0.00186534
3654	0.00258278
3666	0.00136314
3678	0.000932672
3690	0.00121965
3702	0.00165011
3714	0.00165011
3726	0.00193709
3738	0.00251104
3750	0.000932672
3762	0.00165011
3774	0.00165011
3786	0.00172186
3798	0.00100442
3810	0.00121965
3822	0.0011479
3834	0.00100442
3846	0.00157837
3858	0.00143488
3870	0.000573952
3882	0.00186534
3894	0.00165011
3906	0.00222406
3918	0.00200883
3930	0.00107616
3942	0.00208058
3954	0.00186534
3966	0.00222406
