Infrared Spectrum: Tetradecane
Formula: C 14 H 30
CAS: 629-59-4
Origin: Sadtler Research Labs Under US-EPA Contract
1/CM	ABSORBANCE
450	0.00378248
462	0.00450295
474	0.0169311
486	0.00414271
498	0.00684448
510	0.012248
522	0.00684448
534	0.0104468
546	0.0109872
558	0.00720472
570	0.00918602
582	0.00522342
594	0.00288189
606	0.0102667
618	0.00756496
630	0.00648425
642	0.00774507
654	0.00594389
666	0.00522342
678	0.00864566
690	0.00918602
702	0.01531
714	0.0288189
726	0.0279183
738	0.0219744
750	0.0181919
762	0.0147697
774	0.0133287
786	0.0127884
798	0.00918602
810	0.00846555
822	0.00810531
834	0.00774507
846	0.00954625
858	0.00882578
870	0.00936614
882	0.010627
894	0.0117077
906	0.0109872
918	0.0104468
930	0.00864566
942	0.00936614
954	0.00882578
966	0.00864566
978	0.00882578
990	0.00918602
1002	0.00828543
1014	0.00864566
1026	0.00936614
1038	0.00954625
1050	0.0104468
1062	0.010627
1074	0.010627
1086	0.0111673
1098	0.00972637
1110	0.00846555
1122	0.0090059
1134	0.0090059
1146	0.00864566
1158	0.00846555
1170	0.00882578
1182	0.0090059
1194	0.0090059
1206	0.00828543
1218	0.00918602
1230	0.0100866
1242	0.0108071
1254	0.0126083
1266	0.0140492
1278	0.0160305
1290	0.0196329
1302	0.0252165
1314	0.024496
1326	0.0207136
1338	0.0273779
1350	0.0414271
1362	0.041247
1374	0.038185
1386	0.0464704
1398	0.0210738
1410	0.0165709
1422	0.0180118
1434	0.0282785
1446	0.0619606
1458	0.116536
1470	0.132567
1482	0.0525945
1494	0.0207136
1506	0.0126083
1518	0.00864566
1530	0.00792519
1542	0.00666437
1554	0.00576378
1566	0.00576378
1578	0.00540354
1590	0.00486319
1602	0.00432283
1614	0.00360236
1626	0.00468307
1638	0.00306201
1650	0.00522342
1662	0.00324212
1674	0.00306201
1686	0.00234153
1698	0.00252165
1710	0.00324212
1722	0.00288189
1734	0.00306201
1746	0.00324212
1758	0.00378248
1770	0.00378248
1782	0.00306201
1794	0.00342224
1806	0.00252165
1818	0.00216142
1830	0.0019813
1842	0.00126083
1854	0.00216142
1866	0.00180118
1878	0.00216142
1890	0.0019813
1902	0.00216142
1914	0.00144094
1926	0.0019813
1938	0.00144094
1950	0.00144094
1962	0.00180118
1974	0.00162106
1986	0.00162106
1998	0.00180118
2010	0.00252165
2022	0.00270177
2034	0.00342224
2046	0.00324212
2058	0.00270177
2070	0.00270177
2082	0.00252165
2094	0.00216142
2106	0.00216142
2118	0.0019813
2130	0.0019813
2142	0.00216142
2154	0.00216142
2166	0.00252165
2178	0.00234153
2190	0.0019813
2202	0.00216142
2214	0.00162106
2226	0.0019813
2238	0.0019813
2250	0.0019813
2262	0.00180118
2274	0.0019813
2286	0.00180118
2298	0.00144094
2310	0.00090059
2322	0.000360236
2334	0.00126083
2346	0.000360236
2358	0.000180118
2370	0.00126083
2382	0.00216142
2394	0.00234153
2406	0.00252165
2418	0.00252165
2430	0.00234153
2442	0.00234153
2454	0.00216142
2466	0.00234153
2478	0.00216142
2490	0.00216142
2502	0.00234153
2514	0.00288189
2526	0.00378248
2538	0.00450295
2550	0.00468307
2562	0.00468307
2574	0.00522342
2586	0.00594389
2598	0.0070246
2610	0.00792519
2622	0.0090059
2634	0.00954625
2646	0.0111673
2658	0.012248
2670	0.0144094
2682	0.0163907
2694	0.0154901
2706	0.0135088
2718	0.0135088
2730	0.0145896
2742	0.0178317
2754	0.0172913
2766	0.0171112
2778	0.0190925
2790	0.0253966
2802	0.0338622
2814	0.0434084
2826	0.06106
2838	0.094562
2850	0.219023
2862	0.70228
2874	0.542696
2886	0.387434
2898	0.329796
2910	0.518199
2922	0.991009
2934	1.80118
2946	1.07044
2958	0.553142
2970	0.699939
2982	0.25901
2994	0.111133
3006	0.0682647
3018	0.047371
3030	0.0354832
3042	0.0273779
3054	0.021434
3066	0.0174714
3078	0.0151299
3090	0.0138691
3102	0.0118878
3114	0.0102667
3126	0.00918602
3138	0.00882578
3150	0.00882578
3162	0.00810531
3174	0.00756496
3186	0.00756496
3198	0.00630413
3210	0.00522342
3222	0.00378248
3234	0.00342224
3246	0.00342224
3258	0.00288189
3270	0.00252165
3282	0.00180118
3294	0.00216142
3306	0.00216142
3318	0.00144094
3330	0.00162106
3342	0.00144094
3354	0.0019813
3366	0.0019813
3378	0.00144094
3390	0.00180118
3402	0.00216142
3414	0.00270177
3426	0.0019813
3438	0.0019813
3450	0.0019813
3462	0.0019813
3474	0.00126083
3486	0.00108071
3498	0.00090059
3510	0.00144094
3522	0.00162106
3534	0.00144094
3546	0.00108071
3558	0.00126083
3570	0.00234153
3582	0.00216142
3594	0.00252165
3606	0.00252165
3618	0.00360236
3630	0.00522342
3642	0.00378248
3654	0.00342224
3666	0.00288189
3678	0.00540354
3690	0.00234153
3702	0.00324212
3714	0.00360236
3726	0.00360236
3738	0.00360236
3750	0.00486319
3762	0.00288189
3774	0.00252165
3786	0.00126083
3798	0.000720472
3810	0.00306201
3822	0.00306201
3834	0.00270177
3846	0.00414271
3858	0.00522342
3870	0.00378248
3882	0.0019813
3894	0.00216142
3906	0.00306201
3918	0.00180118
3930	0.00126083
3942	0.00252165
3954	0.00216142
3966	0.00270177
