Infrared Spectrum: Nonadecane
Formula: C 19 H 40
CAS: 629-92-5
Origin: Sadtler Research Labs Under US-EPA Contract
1/CM	ABSORBANCE
450	0.0141165
462	0.0401888
474	0.0361555
486	0.0247759
498	0.015557
510	0.0210307
522	0.0113796
534	0.00734635
546	0.0205986
558	0.0120999
570	0.0144046
582	0.0184379
594	0.0223271
606	0.0149808
618	0.0172855
630	0.0145486
642	0.00893085
654	0.00993917
666	0.0145486
678	0.0128201
690	0.0216069
702	0.0224712
714	0.0266485
726	0.0295294
738	0.0210307
750	0.0168534
762	0.0211748
774	0.0229033
786	0.0267926
798	0.0358675
810	0.0370198
822	0.0254961
834	0.0191581
846	0.0128201
858	0.0145486
870	0.0144046
882	0.0149808
894	0.0135403
906	0.0144046
918	0.0112356
930	0.0110915
942	0.012388
954	0.0138284
966	0.0144046
978	0.015557
990	0.0178617
1002	0.0273687
1014	0.0361555
1026	0.037452
1038	0.0352913
1050	0.0325544
1062	0.0298175
1074	0.0341389
1086	0.0348591
1098	0.0326984
1110	0.0279449
1122	0.022039
1134	0.0177177
1146	0.0149808
1158	0.012532
1170	0.012676
1182	0.0118118
1194	0.0119558
1206	0.0109475
1218	0.0110915
1230	0.0131082
1242	0.0148367
1254	0.0231914
1266	0.0334187
1278	0.0184379
1290	0.0204545
1302	0.0247759
1314	0.0260723
1326	0.0223271
1338	0.0285211
1350	0.0401888
1362	0.0390365
1374	0.0331306
1386	0.0306818
1398	0.0205986
1410	0.0193022
1422	0.0201664
1434	0.0263604
1446	0.056466
1458	0.0950704
1470	0.090893
1482	0.0378841
1494	0.01887
1506	0.0145486
1518	0.012676
1530	0.00950704
1542	0.0103713
1554	0.00936299
1566	0.00878681
1578	0.0102273
1590	0.00777848
1602	0.00749039
1614	0.00763444
1626	0.00806658
1638	0.00878681
1650	0.00936299
1662	0.00777848
1674	0.00792253
1686	0.00763444
1698	0.00849871
1710	0.00921894
1722	0.0113796
1734	0.012388
1746	0.012532
1758	0.00936299
1770	0.0102273
1782	0.00878681
1794	0.00763444
1806	0.00763444
1818	0.00648207
1830	0.00547375
1842	0.00633802
1854	0.00590589
1866	0.00633802
1878	0.00590589
1890	0.0053297
1902	0.00633802
1914	0.00619398
1926	0.00518566
1938	0.0053297
1950	0.0053297
1962	0.00518566
1974	0.00475352
1986	0.0053297
1998	0.00446543
2010	0.00460947
2022	0.00633802
2034	0.0072023
2046	0.00576184
2058	0.00561779
2070	0.00633802
2082	0.00547375
2094	0.00518566
2106	0.0053297
2118	0.00504161
2130	0.00403329
2142	0.00504161
2154	0.0037452
2166	0.00446543
2178	0.00460947
2190	0.00475352
2202	0.00489756
2214	0.00432138
2226	0.00489756
2238	0.00446543
2250	0.00432138
2262	0.00460947
2274	0.00417733
2286	0.00446543
2298	0.00518566
2310	0.00561779
2322	0.00576184
2334	0.00648207
2346	0.00604993
2358	0.00504161
2370	0.00259283
2382	0.0034571
2394	0.00230474
2406	0.00259283
2418	0.0034571
2430	0.00273687
2442	0.00273687
2454	0.00244878
2466	0.00259283
2478	0.00244878
2490	0.00158451
2502	0.00259283
2514	0.0034571
2526	0.0037452
2538	0.00460947
2550	0.00518566
2562	0.00403329
2574	0.00446543
2586	0.00460947
2598	0.00561779
2610	0.00604993
2622	0.00677016
2634	0.00633802
2646	0.00734635
2658	0.00835467
2670	0.00849871
2682	0.00417733
2694	0.00417733
2706	0.00561779
2718	0.00633802
2730	0.00576184
2742	0.00403329
2754	0.00072023
2766	0.00216069
2778	0.00705825
2790	0.0135403
2802	0.0224712
2814	0.0339949
2826	0.0507042
2838	0.0790813
2850	0.179193
2862	0.520438
2874	0.382874
2886	0.263604
2898	0.254529
2910	0.408082
2922	0.769638
2934	1.44046
2946	0.820198
2958	0.396703
2970	0.384891
2982	0.170839
2994	0.0812419
3006	0.0495518
3018	0.0367317
3030	0.0322663
3042	0.0272247
3054	0.01887
3066	0.0154129
3078	0.0151248
3090	0.0172855
3102	0.01887
3114	0.0168534
3126	0.012532
3138	0.0110915
3150	0.0112356
3162	0.00604993
3174	0.00648207
3186	0.00475352
3198	0.0034571
3210	0.0034571
3222	0.00331306
3234	0.00201664
3246	0.00259283
3258	0.00158451
3270	0.00201664
3282	0.00201664
3294	0.00201664
3306	0.00216069
3318	0.0018726
3330	0.00259283
3342	0.00115237
3354	0.00273687
3366	0.00288092
3378	0.00230474
3390	0.00259283
3402	0.00259283
3414	0.00244878
3426	0.00216069
3438	0.00172855
3450	0.00331306
3462	0.00316901
3474	0.00244878
3486	0.00172855
3498	0.00158451
3510	0.00259283
3522	0.00216069
3534	0.00158451
3546	0.00100832
3558	0.000432138
3570	0.00331306
3582	0.00172855
3594	0.00216069
3606	0.00144046
3618	0.00273687
3630	0.00201664
3642	0.00259283
3654	0.00259283
3666	0.00201664
3678	0.00172855
3690	0.00331306
3702	0.0034571
3714	0.00331306
3726	0.00590589
3738	0.00417733
3750	0.0018726
3762	0.00446543
3774	0.00288092
3786	0.0018726
3798	0.00504161
3810	0.00288092
3822	0.00446543
3834	0.00403329
3846	0.00388924
3858	0.00403329
3870	0.00388924
3882	0.0034571
3894	0.00417733
3906	0.00432138
3918	0.000432138
3930	0.00619398
3942	0.00489756
3954	0.00072023
3966	0.0102273
