Infrared Spectrum: 2-Nonadecanone
Formula: C 19 H 38 O
CAS: 629-66-3
Origin: Sadtler Research Labs Under US-EPA Contract
1/CM	ABSORBANCE
450	0
462	0.0163966
474	0.0135857
486	0.0173335
498	0.0170212
510	0.020769
522	0.0249853
534	0.0209252
546	0.0204567
558	0.0160843
570	0.014835
582	0.0192074
594	0.0229552
606	0.018739
618	0.012805
630	0.0112434
642	0.0121803
654	0.0120242
666	0.0120242
678	0.0112434
690	0.0146789
702	0.0232675
714	0.0377902
726	0.0366971
738	0.026703
750	0.0212375
762	0.018739
774	0.0182705
786	0.0181143
798	0.0170212
810	0.0154596
822	0.0154596
834	0.0146789
846	0.015772
858	0.0163966
870	0.0168651
882	0.0181143
894	0.0190513
906	0.0201444
918	0.021706
930	0.0242045
942	0.0273276
954	0.0287331
966	0.0273276
978	0.0265469
990	0.0245168
1002	0.0232675
1014	0.0229552
1026	0.0232675
1038	0.0227991
1050	0.0249853
1062	0.0279523
1074	0.0290454
1086	0.0307631
1098	0.030607
1110	0.0310754
1122	0.0332617
1134	0.0418503
1146	0.0644933
1158	0.100097
1170	0.0927579
1182	0.0627755
1194	0.0516883
1206	0.0521568
1218	0.0565292
1230	0.0532499
1242	0.0466912
1254	0.0432558
1266	0.044505
1278	0.0451297
1290	0.0482528
1302	0.0530937
1314	0.0541868
1326	0.0560607
1338	0.075112
1350	0.12602
1362	0.17396
1374	0.113995
1386	0.0688657
1398	0.0488775
1410	0.0546553
1422	0.0612139
1434	0.0660548
1446	0.0949441
1458	0.137107
1470	0.114308
1482	0.0470036
1494	0.0281084
1506	0.0231114
1518	0.018739
1530	0.0181143
1542	0.0171774
1554	0.0171774
1566	0.0174897
1578	0.0184266
1590	0.0192074
1602	0.0203005
1614	0.0204567
1626	0.0192074
1638	0.0179582
1650	0.0182705
1662	0.0201444
1674	0.0271715
1686	0.0404449
1698	0.068241
1710	0.132578
1722	0.239546
1734	0.28655
1746	0.155221
1758	0.0791721
1770	0.0460666
1782	0.0304508
1794	0.0220183
1806	0.0190513
1818	0.015772
1830	0.011868
1842	0.0115557
1854	0.0112434
1866	0.0104626
1878	0.0106187
1890	0.0101503
1902	0.0101503
1914	0.00999411
1926	0.00999411
1938	0.00999411
1950	0.00983795
1962	0.0096818
1974	0.00936948
1986	0.00952564
1998	0.00952564
2010	0.00999411
2022	0.0106187
2034	0.0115557
2046	0.0113995
2058	0.0112434
2070	0.0115557
2082	0.0113995
2094	0.0112434
2106	0.0110872
2118	0.0113995
2130	0.0109311
2142	0.0109311
2154	0.0112434
2166	0.0112434
2178	0.0112434
2190	0.0112434
2202	0.0107749
2214	0.0106187
2226	0.0104626
2238	0.0104626
2250	0.0103064
2262	0.0106187
2274	0.0109311
2286	0.0115557
2298	0.0132734
2310	0.0135857
2322	0.0115557
2334	0.00921332
2346	0.0107749
2358	0.00999411
2370	0.00921332
2382	0.0131173
2394	0.0112434
2406	0.0107749
2418	0.0112434
2430	0.0110872
2442	0.0109311
2454	0.0110872
2466	0.0110872
2478	0.0110872
2490	0.0112434
2502	0.0120242
2514	0.0126488
2526	0.0131173
2538	0.0135857
2550	0.0138981
2562	0.0140542
2574	0.0140542
2586	0.0151473
2598	0.0159281
2610	0.0168651
2622	0.017802
2634	0.0190513
2646	0.0206129
2658	0.0220183
2670	0.0240483
2682	0.0260784
2694	0.0262345
2706	0.0251414
2718	0.0254538
2730	0.0252976
2742	0.0262345
2754	0.0271715
2766	0.0285769
2778	0.0318562
2790	0.0377902
2802	0.0476282
2814	0.0601208
2826	0.0787036
2838	0.114932
2850	0.255318
2862	0.624632
2874	0.426467
2886	0.299355
2898	0.335271
2910	0.523285
2922	0.940071
2934	1.56158
2946	0.915398
2958	0.46254
2970	0.357758
2982	0.169588
2994	0.0974426
3006	0.0740189
3018	0.0601208
3030	0.0451297
3042	0.0371656
3054	0.0324809
3066	0.0293577
3078	0.026703
3090	0.0234237
3102	0.021706
3114	0.0198321
3126	0.0184266
3138	0.0168651
3150	0.0163966
3162	0.015772
3174	0.0149912
3186	0.014835
3198	0.0143665
3210	0.0135857
3222	0.0131173
3234	0.012805
3246	0.0123365
3258	0.0123365
3270	0.0121803
3282	0.0123365
3294	0.0120242
3306	0.0123365
3318	0.0120242
3330	0.0121803
3342	0.0121803
3354	0.0121803
3366	0.012805
3378	0.0131173
3390	0.012805
3402	0.0132734
3414	0.0135857
3426	0.0146789
3438	0.0156158
3450	0.0149912
3462	0.0134296
3474	0.0121803
3486	0.0117118
3498	0.0112434
3510	0.0112434
3522	0.0112434
3534	0.0107749
3546	0.0109311
3558	0.0117118
3570	0.012805
3582	0.0124926
3594	0.0123365
3606	0.011868
3618	0.0121803
3630	0.0134296
3642	0.0120242
3654	0.0123365
3666	0.0135857
3678	0.0115557
3690	0.0120242
3702	0.0123365
3714	0.0117118
3726	0.0126488
3738	0.011868
3750	0.0115557
3762	0.0115557
3774	0.012805
3786	0.0126488
3798	0.0117118
3810	0.0121803
3822	0.011868
3834	0.0124926
3846	0.0120242
3858	0.0120242
3870	0.0121803
3882	0.0126488
3894	0.0124926
3906	0.0124926
3918	0.0131173
3930	0.0126488
3942	0.0129611
3954	0.0134296
3966	0.0131173
