Infrared Spectrum: Octane, 1,1'-oxybis-
Formula: C 16 H 34 O
CAS: 629-82-3
Origin: Sadtler Research Labs Under US-EPA Contract
1/CM	ABSORBANCE
450	0.00367958
462	0.026447
474	0.0170181
486	0.00160982
498	0.0110388
510	0.0172481
522	0.0105788
534	0.0144884
546	0.0133385
558	0.0183979
570	0.00954392
582	0.0108088
594	0.00758914
606	0.00919896
618	0.00919896
630	0.00862403
642	0.00977389
654	0.00770413
666	0.0102338
678	0.0120736
690	0.0148333
702	0.0129935
714	0.0212726
726	0.0225375
738	0.008854
750	0.0169031
762	0.0155232
774	0.0104638
786	0.0148333
798	0.0144884
810	0.00747416
822	0.00701421
834	0.00988888
846	0.0128785
858	0.017708
870	0.0162132
882	0.0147183
894	0.0156382
906	0.0151783
918	0.0102338
930	0.0116137
942	0.0166731
954	0.0186279
966	0.0249522
978	0.0233424
990	0.0249522
1002	0.0257571
1014	0.0282868
1026	0.0341511
1038	0.0399005
1050	0.0433501
1062	0.0546188
1074	0.061748
1086	0.0900348
1098	0.173515
1110	0.280568
1122	0.291837
1134	0.227674
1146	0.117057
1158	0.0844005
1170	0.0715219
1182	0.0568036
1194	0.0494444
1206	0.04404
1218	0.0409354
1230	0.0415103
1242	0.0486395
1254	0.0476046
1266	0.0430051
1278	0.0428902
1290	0.0430051
1302	0.0419703
1314	0.0394405
1326	0.0346111
1338	0.0458798
1350	0.0716369
1362	0.0898048
1374	0.0918746
1386	0.0609431
1398	0.035646
1410	0.0317364
1422	0.0272519
1434	0.0416253
1446	0.0702571
1458	0.102223
1470	0.107053
1482	0.0574935
1494	0.0270219
1506	0.0157532
1518	0.0131085
1530	0.0140284
1542	0.00839405
1554	0.00931395
1566	0.0109238
1578	0.0137984
1590	0.00988888
1602	0.0104638
1614	0.0112687
1626	0.0134535
1638	0.0123036
1650	0.00816408
1662	0.0129935
1674	0.00977389
1686	0.0052894
1698	0.00758914
1710	0.0121886
1722	0.0132235
1734	0.0206977
1746	0.0522041
1758	0.0608281
1770	0.0344961
1782	0.0304716
1794	0.0200077
1806	0.0119586
1818	0.00873901
1830	0.00724418
1842	0.00862403
1854	0.00689922
1866	0.00632428
1878	0.00781912
1890	0.00701421
1902	0.00712919
1914	0.00678423
1926	0.00712919
1938	0.00689922
1950	0.00724418
1962	0.00735917
1974	0.00701421
1986	0.00701421
1998	0.00747416
2010	0.00701421
2022	0.00770413
2034	0.00735917
2046	0.00770413
2058	0.00724418
2070	0.00689922
2082	0.00689922
2094	0.00655426
2106	0.00643927
2118	0.00609431
2130	0.00563436
2142	0.00540439
2154	0.00551938
2166	0.00540439
2178	0.00505943
2190	0.00505943
2202	0.00459948
2214	0.00436951
2226	0.00402455
2238	0.00413953
2250	0.00413953
2262	0.00333462
2274	0.00344961
2286	0.00298966
2298	0.00333462
2310	0.00333462
2322	0.00540439
2334	0.00471447
2346	0.00827906
2358	0.00505943
2370	0.00551938
2382	0.00344961
2394	0.00252971
2406	0.00206977
2418	0.00218475
2430	0.00229974
2442	0.00183979
2454	0.00103488
2466	0.00160982
2478	0.00126486
2490	0.00183979
2502	0.00206977
2514	0.00252971
2526	0.00275969
2538	0.00333462
2550	0.00413953
2562	0.00413953
2574	0.00459948
2586	0.00540439
2598	0.00643927
2610	0.00643927
2622	0.00689922
2634	0.00816408
2646	0.00919896
2658	0.0106938
2670	0.0128785
2682	0.0143734
2694	0.0162132
2706	0.017938
2718	0.0192028
2730	0.0221925
2742	0.0247222
2754	0.0240323
2766	0.0251822
2778	0.0305865
2790	0.0435801
2802	0.0509392
2814	0.0538139
2826	0.0722118
2838	0.119701
2850	0.264355
2862	0.593218
2874	0.545498
2886	0.368303
2898	0.298161
2910	0.437181
2922	0.722693
2934	1.14987
2946	0.926565
2958	0.551018
2970	0.525031
2982	0.215141
2994	0.0957842
3006	0.0574935
3018	0.0393256
3030	0.0301266
3042	0.0225375
3054	0.0190878
3066	0.0147183
3078	0.0131085
3090	0.0124186
3102	0.0105788
3114	0.00931395
3126	0.00896899
3138	0.00827906
3150	0.00804909
3162	0.00839405
3174	0.00781912
3186	0.00816408
3198	0.00678423
3210	0.00666925
3222	0.00574935
3234	0.00540439
3246	0.00574935
3258	0.00563436
3270	0.00563436
3282	0.00586434
3294	0.00574935
3306	0.00574935
3318	0.00597932
3330	0.00666925
3342	0.0062093
3354	0.00655426
3366	0.0062093
3378	0.00770413
3390	0.00632428
3402	0.00724418
3414	0.00724418
3426	0.00701421
3438	0.00712919
3450	0.00609431
3462	0.00678423
3474	0.00666925
3486	0.00678423
3498	0.00666925
3510	0.0062093
3522	0.00655426
3534	0.0062093
3546	0.00758914
3558	0.00781912
3570	0.0124186
3582	0.0150633
3594	0.00724418
3606	0.00977389
3618	0.00678423
3630	0.00471447
3642	0.008854
3654	0.00275969
3666	0.0114987
3678	0.00333462
3690	0.00333462
3702	0.00965891
3714	0.00563436
3726	0.0110388
3738	0.00586434
3750	0.00402455
3762	0.00977389
3774	0.00965891
3786	0.00977389
3798	0.00862403
3810	0.0131085
3822	0.00252971
3834	0.00770413
3846	0.0110388
3858	0.00172481
3870	0.00551938
3882	0.0106938
3894	0.00735917
3906	0.00747416
3918	0.00919896
3930	0.00770413
3942	0.0116137
3954	0.00482945
3966	0.00471447
