Infrared Spectrum: 2-Penten-4-one, 2-hydroxy-5-methoxy-,
Formula: C 6 H 10 O 3
CAS: 6290-50-2
Origin: Sadtler Research Labs Under US-EPA Contract
1/CM	ABSORBANCE
450	0.013357
462	0.00667852
474	0.0331357
486	0.0454653
498	0.0711519
510	0.0773167
522	0.094013
534	0.083353
546	0.0548409
558	0.028769
570	0.0233748
582	0.0138708
594	0.0120727
606	0.0177238
618	0.0145129
630	0.0128433
642	0.0142561
654	0.0178522
666	0.0211914
678	0.00436672
690	0.00372456
702	0.000128433
714	0.00346769
726	0.00770598
738	0.00963248
750	0.0238885
762	0.0422545
774	0.0878482
786	0.151808
798	0.129846
810	0.0423829
822	0.00796285
834	0.00937561
846	0.0132286
858	0.0264572
870	0.0330073
882	0.0612625
894	0.0879766
906	0.125607
918	0.176467
930	0.217566
942	0.192906
954	0.140763
966	0.119828
978	0.136011
990	0.148083
1002	0.126763
1014	0.0927286
1026	0.0730784
1038	0.0705097
1050	0.0684548
1062	0.0819403
1074	0.110581
1086	0.168633
1098	0.314147
1110	0.61057
1122	0.83109
1134	0.618919
1146	0.382602
1158	0.363594
1170	0.313762
1182	0.310423
1194	0.457478
1206	0.524264
1218	0.41638
1230	0.414453
1242	0.416508
1254	0.355631
1266	0.28769
1278	0.271764
1290	0.276259
1302	0.283452
1314	0.272535
1326	0.246848
1338	0.268553
1350	0.334568
1362	0.391078
1374	0.335724
1386	0.252499
1398	0.245435
1410	0.269581
1422	0.308496
1434	0.347797
1446	0.344072
1458	0.32866
1470	0.261104
1482	0.209217
1494	0.174027
1506	0.162981
1518	0.167477
1530	0.180834
1542	0.20241
1554	0.246463
1566	0.330715
1578	0.462487
1590	0.67376
1602	0.977118
1614	1.22641
1626	1.2178
1638	0.967614
1650	0.712546
1662	0.498834
1674	0.344329
1686	0.253912
1698	0.221547
1710	0.273819
1722	0.41227
1734	0.475074
1746	0.391335
1758	0.244023
1770	0.133313
1782	0.0915727
1794	0.0666567
1806	0.0495751
1818	0.0305671
1830	0.0183659
1842	0.0120727
1854	0.0102746
1866	0.00873344
1878	0.00809128
1890	0.00642165
1902	0.00603635
1914	0.00565105
1926	0.00603635
1938	0.00500889
1950	0.00346769
1962	0.00256866
1974	0.00256866
1986	0.00256866
1998	0.00282553
2010	0.00231179
2022	0.00231179
2034	0.00295396
2046	0.00410986
2058	0.00462359
2070	0.00475202
2082	0.00552262
2094	0.00706382
2106	0.00744911
2118	0.00744911
2130	0.00565105
2142	0.00410986
2154	0.00385299
2166	0.00372456
2178	0.00308239
2190	0.00231179
2202	0.00102746
2214	0.000899031
2226	0.00179806
2238	0.00231179
2250	0.00282553
2262	0.00269709
2274	0.00359612
2286	0.00552262
2298	0.00706382
2310	0.00706382
2322	0.00719225
2334	0.00706382
2346	0.00732068
2358	0.0101462
2370	0.00976091
2382	0.00976091
2394	0.00873344
2406	0.00860501
2418	0.00834815
2430	0.00834815
2442	0.00783441
2454	0.00821971
2466	0.00899031
2478	0.00988934
2490	0.0105315
2502	0.011559
2514	0.0131002
2526	0.0145129
2538	0.0155404
2550	0.0155404
2562	0.015412
2574	0.0157973
2586	0.016311
2598	0.0183659
2610	0.019265
2622	0.019265
2634	0.020164
2646	0.0214483
2658	0.0236317
2670	0.0259435
2682	0.02787
2694	0.0286406
2706	0.0310808
2718	0.031723
2730	0.0336494
2742	0.0351906
2754	0.0376309
2766	0.0419976
2778	0.0481624
2790	0.0594645
2802	0.0773167
2814	0.117388
2826	0.228868
2838	0.287561
2850	0.205236
2862	0.175439
2874	0.192264
2886	0.239784
2898	0.266884
2910	0.277158
2922	0.315303
2934	0.360383
2946	0.338549
2958	0.220648
2970	0.161569
2982	0.155147
2994	0.206135
3006	0.205621
3018	0.121626
3030	0.0821971
3042	0.0672989
3054	0.0590792
3066	0.0532997
3078	0.0490614
3090	0.0443094
3102	0.0393005
3114	0.0349338
3126	0.028769
3138	0.0236317
3150	0.0206777
3162	0.0188797
3174	0.0170816
3186	0.0164394
3198	0.0156688
3210	0.015412
3222	0.0150267
3234	0.0147698
3246	0.0143845
3258	0.013357
3270	0.0120727
3282	0.0120727
3294	0.0111737
3306	0.0109168
3318	0.00924718
3330	0.00757755
3342	0.00706382
3354	0.00616478
3366	0.00603635
3378	0.00488045
3390	0.00642165
3402	0.00513732
3414	0.00680695
3426	0.00770598
3438	0.0100178
3450	0.0113021
3462	0.011559
3474	0.00860501
3486	0.00783441
3498	0.00616478
3510	0.00462359
3522	0.00500889
3534	0.00436672
3546	0.00552262
3558	0.00616478
3570	0.00937561
3582	0.0100178
3594	0.00770598
3606	0.00629322
3618	0.00500889
3630	0.00410986
3642	0.00372456
3654	0.00346769
3666	0.00462359
3678	0.00410986
3690	0.0019265
3702	0.00359612
3714	0.00449516
3726	0.00475202
3738	0.00642165
3750	0.00539419
3762	0.00616478
3774	0.00462359
3786	0.00462359
3798	0.00475202
3810	0.00719225
3822	0.00552262
3834	0.00809128
3846	0.00834815
3858	0.00770598
3870	0.00757755
3882	0.00834815
3894	0.00911874
3906	0.00809128
3918	0.00886188
3930	0.00719225
3942	0.00834815
3954	0.00590792
3966	0.0105315
