Infrared Spectrum: 1-Propanamine, 3-ethoxy-
Formula: C 5 H 13 N O
CAS: 6291-85-6
Origin: Sadtler Research Labs Under US-EPA Contract
1/CM	ABSORBANCE
450	0
462	0.00771512
474	0.0144659
486	0.0106083
498	0.018227
510	0.0203486
522	0.0205415
534	0.0185163
546	0.0231454
558	0.0219881
570	0.0161053
582	0.0115727
594	0.0126335
606	0.0164911
618	0.0201558
630	0.0172626
642	0.0194807
654	0.0235311
666	0.0284495
678	0.0329821
690	0.0356824
702	0.0412759
714	0.063264
726	0.0950889
738	0.151602
750	0.203004
762	0.239072
774	0.239554
786	0.219592
798	0.170215
810	0.119102
822	0.0803337
834	0.063264
846	0.058442
858	0.0644213
870	0.0673144
882	0.05931
894	0.045037
906	0.0322106
918	0.035586
930	0.0376112
942	0.0357789
954	0.0297032
966	0.0266172
978	0.0302818
990	0.0351038
1002	0.0455192
1014	0.0589242
1026	0.0792729
1038	0.0997179
1050	0.115727
1062	0.147166
1074	0.200497
1086	0.260096
1098	0.375051
1110	0.59146
1122	0.903344
1134	0.921378
1146	0.498204
1158	0.236758
1170	0.168382
1182	0.122381
1194	0.0826482
1206	0.0549702
1218	0.0452299
1230	0.0443619
1242	0.0414688
1254	0.0378041
1266	0.0405044
1278	0.0448441
1290	0.0531379
1302	0.0554524
1314	0.0461943
1326	0.0366468
1338	0.0658678
1350	0.129807
1362	0.152663
1374	0.186609
1386	0.21612
1398	0.113605
1410	0.0707862
1422	0.0627818
1434	0.0683753
1446	0.0669287
1458	0.0707862
1470	0.0792729
1482	0.0705933
1494	0.0500518
1506	0.0367433
1518	0.0267136
1530	0.0179377
1542	0.0131157
1554	0.0143694
1566	0.0127299
1578	0.0159124
1590	0.0236276
1602	0.0370326
1614	0.063264
1626	0.0758975
1638	0.0580563
1650	0.0329821
1662	0.0234347
1674	0.0166839
1686	0.0137908
1698	0.0196736
1710	0.0251706
1722	0.0274851
1734	0.0264243
1746	0.0192878
1758	0.0114762
1770	0.0113798
1782	0.0127299
1794	0.00916171
1806	0.0119584
1818	0.0104154
1830	0.0120549
1842	0.0119584
1854	0.00839019
1866	0.0119584
1878	0.010319
1890	0.010994
1902	0.0113798
1914	0.0116691
1926	0.0105119
1938	0.0108976
1950	0.0114762
1962	0.0115727
1974	0.0121513
1986	0.0130193
1998	0.013405
2010	0.0115727
2022	0.00906527
2034	0.00732936
2046	0.00675073
2058	0.0061721
2070	0.00646141
2082	0.00636497
2094	0.00626854
2106	0.00684717
2118	0.00771512
2130	0.00761868
2142	0.00704005
2154	0.00665429
2166	0.00704005
2178	0.00636497
2190	0.00597922
2202	0.00530415
2214	0.00511127
2226	0.00540058
2238	0.00607566
2250	0.00588278
2262	0.0061721
2274	0.00607566
2286	0.00665429
2298	0.0105119
2310	0.0140801
2322	0.0172626
2334	0.0140801
2346	0.0145623
2358	0.018227
2370	0.0111869
2382	0.0108012
2394	0.00376112
2406	0.00298961
2418	0.00366468
2430	0.00385756
2442	0.00366468
2454	0.00318249
2466	0.0034718
2478	0.00298961
2490	0.00270029
2502	0.00308605
2514	0.00308605
2526	0.00308605
2538	0.00337536
2550	0.00433975
2562	0.0056899
2574	0.00597922
2586	0.00771512
2598	0.00896883
2610	0.0120549
2622	0.0125371
2634	0.0129228
2646	0.0135015
2658	0.0145623
2670	0.0178412
2682	0.0229525
2694	0.0299925
2706	0.0363575
2718	0.0406008
2730	0.0471587
2742	0.053813
2754	0.0611423
2766	0.0676037
2778	0.0774405
2790	0.0936423
2802	0.112641
2814	0.132797
2826	0.165875
2838	0.259614
2850	0.434458
2862	0.655785
2874	0.742387
2886	0.593486
2898	0.416327
2910	0.379005
2922	0.450563
2934	0.583167
2946	0.613063
2958	0.477662
2970	0.398293
2982	0.40813
2994	0.275816
3006	0.123249
3018	0.0606601
3030	0.0385756
3042	0.0291246
3054	0.0223738
3066	0.015816
3078	0.0128264
3090	0.0108976
3102	0.0100297
3114	0.00887239
3126	0.00867951
3138	0.00829375
3150	0.00713649
3162	0.00713649
3174	0.00646141
3186	0.00684717
3198	0.0061721
3210	0.00723293
3222	0.00588278
3234	0.00530415
3246	0.00453263
3258	0.00376112
3270	0.00327893
3282	0.00298961
3294	0.00308605
3306	0.00298961
3318	0.00376112
3330	0.00675073
3342	0.0117656
3354	0.0125371
3366	0.00925814
3378	0.00559346
3390	0.00607566
3402	0.00800444
3414	0.0139837
3426	0.0125371
3438	0.007908
3450	0.00752224
3462	0.00694361
3474	0.00491839
3486	0.00491839
3498	0.00327893
3510	0.00588278
3522	0.00443619
3534	0.00453263
3546	0.00559346
3558	0.00491839
3570	0.00781156
3582	0.00520771
3594	0.00405044
3606	0.0056899
3618	0.0061721
3630	0.00665429
3642	0.00694361
3654	0.00462907
3666	0.00665429
3678	0.00588278
3690	0.00540058
3702	0.0061721
3714	0.0061721
3726	0.00588278
3738	0.00646141
3750	0.00482195
3762	0.00356824
3774	0.00231454
3786	0.003954
3798	0.00540058
3810	0.00453263
3822	0.00279673
3834	0.00424332
3846	0.00945102
3858	0.00482195
3870	0.00298961
3882	0.0100297
3894	0.00327893
3906	0.00443619
3918	0.00491839
3930	0.00424332
3942	0.00636497
3954	0.00626854
3966	0.00732936
