Infrared Spectrum: Cyclohexanol, 4-sec-butyl-
Formula: C 10 H 20 O
CAS: 6292-20-2
Origin: Sadtler Research Labs Under US-EPA Contract
1/CM	ABSORBANCE
450	0.00402725
462	0.011644
474	0.00481519
486	0.0111187
498	0.00893
510	0.00542804
522	0.0138327
534	0.00639108
546	0.00236382
558	0.00971794
570	0.00928019
582	0.00542804
594	0.0166343
606	0.00735412
618	0.00271402
630	0.00358951
642	0.00805451
654	0.00831715
666	0.00551559
678	0.0118191
690	0.00306421
702	0.00787941
714	0.00525294
726	0.00682882
738	0.00849225
750	0.00639108
762	0.00814206
774	0.0140078
786	0.0138327
798	0.0140954
810	0.0108561
822	0.0123444
834	0.0108561
846	0.011644
858	0.0108561
870	0.0134825
882	0.0112063
894	0.0252141
906	0.0233756
918	0.019611
930	0.0227627
942	0.0314301
954	0.0710898
966	0.0703018
978	0.0470138
990	0.0404476
1002	0.0513913
1014	0.0590956
1026	0.0704769
1038	0.110749
1050	0.201188
1062	0.262997
1074	0.159777
1086	0.088512
1098	0.0510411
1110	0.0352822
1122	0.0393095
1134	0.0498154
1146	0.0432492
1158	0.0329184
1170	0.0300293
1182	0.0316927
1194	0.0437745
1206	0.0440371
1218	0.0507784
1230	0.0604964
1242	0.0523543
1254	0.0519166
1266	0.0501656
1278	0.0385216
1290	0.0328309
1302	0.0302044
1314	0.0304671
1326	0.031255
1338	0.036683
1350	0.0447375
1362	0.069689
1374	0.0942903
1386	0.115127
1398	0.060759
1410	0.0268775
1422	0.0239009
1434	0.0353698
1446	0.0823836
1458	0.129573
1470	0.0943778
1482	0.0395721
1494	0.0158464
1506	0.0154962
1518	0.0119067
1530	0.00752921
1542	0.0135701
1554	0.00779186
1566	0.00507784
1578	0.00779186
1590	0.00437745
1602	0.004465
1614	0.0041148
1626	0.00560314
1638	0.00752921
1650	0.00595333
1662	0.00455255
1674	0.00481519
1686	0.00989304
1698	0.0084047
1710	0.00542804
1722	0.0112938
1734	0.0256519
1746	0.0111187
1758	0.00516539
1770	0.00499029
1782	0.00376461
1794	0.00420235
1806	0.00218872
1818	0.00166343
1830	0.00280157
1842	0.00201363
1854	0.00157588
1866	0.00148833
1878	0.000787941
1890	0.00183853
1902	0.000963039
1914	0.00131324
1926	0.00166343
1938	0.00122569
1950	0.00105059
1962	0.00113814
1974	0.000612843
1986	0.000612843
1998	0.000787941
2010	0.00087549
2022	0.00105059
2034	0.00140078
2046	0.000963039
2058	0.00105059
2070	0.00122569
2082	0.000350196
2094	0.000700392
2106	0.00113814
2118	0.00148833
2130	0.000525294
2142	0.000963039
2154	0.000963039
2166	0.00087549
2178	0.000525294
2190	0.00087549
2202	0.00087549
2214	0.000700392
2226	0.00140078
2238	0.00140078
2250	0.00140078
2262	0.00201363
2274	0.00236382
2286	0.00236382
2298	0.00271402
2310	0.004465
2322	0.00577823
2334	0.00621598
2346	0.00717902
2358	0.00569069
2370	0.00674127
2382	0.00323931
2394	0.00245137
2406	0.00175098
2418	0.00245137
2430	0.00306421
2442	0.00332686
2454	0.00332686
2466	0.00280157
2478	0.00297667
2490	0.00271402
2502	0.00280157
2514	0.00385216
2526	0.00323931
2538	0.00402725
2550	0.00420235
2562	0.00525294
2574	0.00674127
2586	0.00752921
2598	0.00849225
2610	0.00954284
2622	0.0105934
2634	0.0111187
2646	0.0118191
2658	0.0126946
2670	0.0145331
2682	0.0146207
2694	0.0144456
2706	0.0137452
2718	0.0140954
2730	0.0145331
2742	0.0161966
2754	0.016109
2766	0.0159339
2778	0.0169845
2790	0.019611
2802	0.0225001
2814	0.0279281
2826	0.0373834
2838	0.0612843
2850	0.152861
2862	0.358513
2874	0.440722
2886	0.386179
2898	0.279281
2910	0.331898
2922	0.559
2934	0.831453
2946	0.787503
2958	0.50113
2970	0.571432
2982	0.325332
2994	0.0868486
3006	0.0350196
3018	0.0236382
3030	0.0179475
3042	0.0162841
3054	0.0126946
3066	0.0112063
3078	0.00919264
3090	0.0091051
3102	0.00822961
3114	0.00770431
3126	0.00744167
3138	0.00779186
3150	0.00893
3162	0.00779186
3174	0.00674127
3186	0.00525294
3198	0.00437745
3210	0.0039397
3222	0.00271402
3234	0.00183853
3246	0.00192608
3258	0.00183853
3270	0.00175098
3282	0.00227627
3294	0.00201363
3306	0.00245137
3318	0.00166343
3330	0.00245137
3342	0.00236382
3354	0.00218872
3366	0.00210118
3378	0.00227627
3390	0.00271402
3402	0.00192608
3414	0.00288912
3426	0.00131324
3438	0.00236382
3450	0.00253892
3462	0.00218872
3474	0.00201363
3486	0.00175098
3498	0.00175098
3510	0.00166343
3522	0.000612843
3534	0.00131324
3546	0.00183853
3558	0.00122569
3570	0.00481519
3582	0.00192608
3594	0.00315176
3606	0.00350196
3618	0.00499029
3630	0.0126946
3642	0.028541
3654	0.0612843
3666	0.0261772
3678	0.0112938
3690	0.00761676
3702	0.00472765
3714	0.00612843
3726	0.00612843
3738	0.00814206
3750	0.00998059
3762	0.00569069
3774	0.00499029
3786	0.0041148
3798	0.00700392
3810	0.0087549
3822	0.0087549
3834	0.00954284
3846	0.00787941
3858	0.00945529
3870	0.00963039
3882	0.00814206
3894	0.00752921
3906	0.00770431
3918	0.00630353
3930	0.00376461
3942	0.00280157
3954	0
3966	0.000350196
