Infrared Spectrum: Hexane, 1-bromo-6-chloro-
Formula: C 6 H 12 Br Cl
CAS: 6294-17-3
Origin: Sadtler Research Labs Under US-EPA Contract
1/CM	ABSORBANCE
450	0.0036372
462	0.00521332
474	0.00751688
486	0.0072744
498	0.00193984
510	0.00745626
522	0.00715316
534	0.00691068
546	0.0130333
558	0.0337047
570	0.0599532
582	0.0206714
594	0.00369782
606	0.00369782
618	0.0075775
630	0.0212776
642	0.0517695
654	0.113784
666	0.105903
678	0.032068
690	0.0167311
702	0.0232175
714	0.0463743
726	0.0917181
738	0.135364
750	0.102872
762	0.0535275
774	0.0275821
786	0.0231568
798	0.0226719
810	0.0257029
822	0.0244299
834	0.0187316
846	0.019459
858	0.0202471
870	0.0190347
882	0.0179435
894	0.0230962
906	0.029037
918	0.026006
930	0.0226113
942	0.0220051
954	0.0212776
966	0.0213382
978	0.0201865
990	0.0201258
1002	0.0207927
1014	0.0244299
1026	0.0321286
1038	0.0433433
1050	0.042434
1062	0.0361901
1074	0.0280671
1086	0.0219444
1098	0.016428
1110	0.0195803
1122	0.0244299
1134	0.0176404
1146	0.012609
1158	0.0131545
1170	0.0152156
1182	0.0167917
1194	0.0212776
1206	0.0385543
1218	0.0694099
1230	0.0772299
1242	0.0855348
1254	0.144761
1266	0.169675
1278	0.134576
1290	0.137486
1302	0.13197
1314	0.114147
1326	0.0764418
1338	0.0447376
1350	0.0486779
1362	0.0475867
1374	0.0331591
1386	0.0216413
1398	0.0147307
1410	0.0148519
1422	0.0226113
1434	0.0640753
1446	0.125362
1458	0.13003
1470	0.078806
1482	0.0283095
1494	0.012124
1506	0.00903238
1518	0.0057589
1530	0.00375844
1542	0.0036372
1554	0.00460712
1566	0.00218232
1578	0.0012124
1590	0.00193984
1602	0.0018186
1614	0.00266728
1626	0.00169736
1638	0.00109116
1650	0.00260666
1662	0.00206108
1674	0.00260666
1686	0.00218232
1698	0.0033341
1710	0.00248542
1722	0.0024248
1734	0.00412216
1746	0.00472836
1758	0.00406154
1770	0.003031
1782	0.00200046
1794	0.00072744
1806	0.0015155
1818	0.00163674
1830	0.00127302
1842	0.00127302
1854	0.00139426
1866	0.0015155
1878	0.00072744
1890	0.00163674
1902	0.0012124
1914	0.00169736
1926	0.00127302
1938	0.00127302
1950	0.00163674
1962	0.00200046
1974	0.00157612
1986	0.00206108
1998	0.00163674
2010	0.00187922
2022	0.00236418
2034	0.00278852
2046	0.0027279
2058	0.00254604
2070	0.0027279
2082	0.00309162
2094	0.00309162
2106	0.00266728
2118	0.00193984
2130	0.00187922
2142	0.00200046
2154	0.0018186
2166	0.00260666
2178	0.0027279
2190	0.00266728
2202	0.00260666
2214	0.0027279
2226	0.00218232
2238	0.00248542
2250	0.00193984
2262	0.0018186
2274	0.00224294
2286	0.00187922
2298	0.0024248
2310	0.00357658
2322	0.00351596
2334	0.00224294
2346	0.00096992
2358	0.003031
2370	0
2382	6.062e-05
2394	0.0015155
2406	0.00187922
2418	0.00163674
2430	0.0015155
2442	0.00175798
2454	0.00157612
2466	0.0006062
2478	0.00066682
2490	0.00133364
2502	0.00103054
2514	0.00133364
2526	0.00175798
2538	0.00103054
2550	0.00103054
2562	0.0006062
2574	0.00054558
2586	0.00018186
2598	0.00054558
2610	0.0006062
2622	0.0015155
2634	0.00254604
2646	0.00248542
2658	0.00448588
2670	0.0054558
2682	0.00642572
2694	0.00806246
2706	0.00751688
2718	0.0069713
2730	0.00648634
2742	0.00739564
2754	0.00745626
2766	0.00794122
2778	0.00854742
2790	0.0115178
2802	0.0137607
2814	0.0173373
2826	0.0253998
2838	0.0463137
2850	0.108813
2862	0.194833
2874	0.244238
2886	0.189316
2898	0.169797
2910	0.2112
2922	0.270365
2934	0.421491
2946	0.6062
2958	0.46544
2970	0.359416
2982	0.194166
2994	0.135607
3006	0.132455
3018	0.0817764
3030	0.0281277
3042	0.0143063
3054	0.0104873
3066	0.00691068
3078	0.00472836
3090	0.00497084
3102	0.00309162
3114	0.003031
3126	0.00236418
3138	0.00230356
3150	0.0021217
3162	0.00157612
3174	0.00096992
3186	0.0015155
3198	0.00175798
3210	0.00103054
3222	0.00145488
3234	0.0018186
3246	0.0009093
3258	0.00024248
3270	0.00096992
3282	0.0006062
3294	0.00084868
3306	0.00133364
3318	0.00096992
3330	0.00193984
3342	0.00133364
3354	0.00193984
3366	0.00157612
3378	0.00236418
3390	0.00175798
3402	0.00224294
3414	0.00200046
3426	0.00187922
3438	0.00230356
3450	0.0009093
3462	0.0024248
3474	0.00357658
3486	0.0012124
3498	0.00315224
3510	0.00236418
3522	0.00254604
3534	0.00290976
3546	0.00290976
3558	0.00157612
3570	0.00096992
3582	0.00430402
3594	0.00478898
3606	0.00533456
3618	0.0057589
3630	0.00521332
3642	0.00624386
3654	0.0075775
3666	0.0135789
3678	0.0110935
3690	0.00903238
3702	0.00763812
3714	0.00672882
3726	0.00860804
3738	0.00672882
3750	0.00685006
3762	0.00497084
3774	0.00612262
3786	0.006062
3798	0.00824432
3810	0.00763812
3822	0.00775936
3834	0.00812308
3846	0.0075775
3858	0.00781998
3870	0.00685006
3882	0.00678944
3894	0.00769874
3906	0.00800184
3918	0.00945672
3930	0.0087899
3942	0.0106085
3954	0.00957796
3966	0.0081837
