Infrared Spectrum: 3-Amino-2-chloropyridine
Formula: C 5 H 5 Cl N 2
CAS: 6298-19-7
Origin: Sadtler Research Labs Under US-EPA Contract
1/CM	ABSORBANCE
450	0.0423231
462	0.0683131
474	0.0690284
486	0.0383888
498	0.0244401
510	0.0213404
522	0.0164524
534	0.0263476
546	0.0538874
558	0.073678
570	0.0541259
582	0.0251554
594	0.0187175
606	0.0218173
618	0.0363621
630	0.0460189
642	0.0588947
654	0.083454
666	0.143779
678	0.300673
690	0.312118
702	0.167027
714	0.187533
726	0.225683
738	0.179545
750	0.128638
762	0.102768
774	0.20327
786	0.411309
798	0.26598
810	0.128162
822	0.047688
834	0.05961
846	0.0727242
858	0.0423231
870	0.018956
882	0.0110875
894	0.00786852
906	0.00846462
918	0.00822618
930	0.00703398
942	0.0083454
954	0.0100145
966	0.00631866
978	0.00703398
990	0.0100145
1002	0.00786852
1014	0.00441114
1026	0.0220557
1038	0.107298
1050	0.171915
1062	0.136865
1074	0.123393
1086	0.231406
1098	0.501439
1110	0.78411
1122	0.633297
1134	0.244163
1146	0.159874
1158	0.0656902
1170	0.0420847
1182	0.0362429
1194	0.0183599
1206	0.027659
1218	0.126135
1230	0.202912
1242	0.133169
1254	0.0445883
1266	0.0323086
1278	0.0212212
1290	0.0621136
1302	0.233075
1314	0.291135
1326	0.153078
1338	0.0250362
1350	0.00810696
1362	0.00548412
1374	0.0011922
1386	0.0053649
1398	0.0265861
1410	0.129831
1422	0.822856
1434	1.1922
1446	0.771949
1458	0.500724
1470	0.342638
1482	0.0685515
1494	0.0391042
1506	0.0439922
1518	0.0381504
1530	0.0335008
1542	0.0554373
1554	0.156774
1566	0.268722
1578	0.256085
1590	0.200647
1602	0.388061
1614	0.692907
1626	0.652133
1638	0.262403
1650	0.0895342
1662	0.0422039
1674	0.0340969
1686	0.0355276
1698	0.0281359
1710	0.0163331
1722	0.0138295
1734	0.0144256
1746	0.0122797
1758	0.0115643
1770	0.011922
1782	0.0181214
1794	0.0255131
1806	0.018956
1818	0.00870306
1830	0.00822618
1842	0.0145448
1854	0.017883
1866	0.0143064
1878	0.00560334
1890	0.0071532
1902	0.0197905
1914	0.021698
1926	0.00727242
1938	0.00095376
1950	0.00166908
1962	0.00286128
1974	0.00393426
1986	0.00429192
1998	0.00381504
2010	0.00274206
2022	0.00262284
2034	0.00202674
2046	0.00214596
2058	0.0023844
2070	0.00214596
2082	0.00190752
2094	0.00333816
2106	0.0065571
2118	0.00798774
2130	0.00643788
2142	0.00548412
2154	0.00488802
2166	0.00345738
2178	0.00214596
2190	0.0017883
2202	0.00095376
2214	0.00011922
2226	0.00035766
2238	0.00214596
2250	0.00584178
2262	0.012995
2274	0.0175253
2286	0.0131142
2298	0.0127565
2310	0.014068
2322	0.0106106
2334	0.00751086
2346	0.0115643
2358	0.0118028
2370	0.0120412
2382	0.0138295
2394	0.0100145
2406	0.0083454
2418	0.00369582
2430	0.00202674
2442	0.00190752
2454	0.00286128
2466	0.00286128
2478	0.0041727
2490	0.0071532
2502	0.0095376
2514	0.0121604
2526	0.0143064
2538	0.0125181
2550	0.00763008
2562	0.0041727
2574	0.0035766
2586	0.00190752
2598	0.00190752
2610	0.00321894
2622	0.00381504
2634	0.00250362
2646	0.00190752
2658	0.00262284
2670	0.00333816
2682	0.0041727
2694	0.00345738
2706	0.00309972
2718	0.0023844
2730	0.00214596
2742	0.00202674
2754	0.0023844
2766	0.0023844
2778	0.00262284
2790	0.00214596
2802	0.00226518
2814	0.0023844
2826	0.00214596
2838	0.00274206
2850	0.00274206
2862	0.00321894
2874	0.0029805
2886	0.00166908
2898	0.0011922
2910	0.00214596
2922	0.00286128
2934	0.00262284
2946	0.00190752
2958	0.00143064
2970	0.00202674
2982	0.0047688
2994	0.0102529
3006	0.0176446
3018	0.0286128
3030	0.0491186
3042	0.0882228
3054	0.137461
3066	0.199693
3078	0.20172
3090	0.0885805
3102	0.0182407
3114	0.00941838
3126	0.0110875
3138	0.011922
3150	0.0103721
3162	0.00798774
3174	0.00929916
3186	0.011922
3198	0.0116836
3210	0.00798774
3222	0.00643788
3234	0.00453036
3246	0.00274206
3258	0.00190752
3270	0.00071532
3282	0.00047688
3294	0.0011922
3306	0.00131142
3318	0.0011922
3330	0.00190752
3342	0.00262284
3354	0.00429192
3366	0.0071532
3378	0.0147833
3390	0.0457805
3402	0.143302
3414	0.191706
3426	0.13913
3438	0.0695053
3450	0.0171677
3462	0.0163331
3474	0.0320702
3486	0.0826195
3498	0.154032
3510	0.159278
3522	0.116597
3534	0.0727242
3546	0.017883
3558	0.0053649
3570	0.00369582
3582	0.00143064
3594	0.00143064
3606	0.00083454
3618	0.00143064
3630	0.0017883
3642	0.00035766
3654	0.00011922
3666	0.0005961
3678	0.00262284
3690	0.00154986
3702	0.00131142
3714	0.00023844
3726	0.00047688
3738	0.00166908
3750	0.00071532
3762	0.00095376
3774	0.00047688
3786	0.00047688
3798	0.0005961
3810	0.00011922
3822	0.00047688
3834	0.00095376
3846	0.00393426
3858	0.0065571
3870	0.00488802
3882	0.0035766
3894	0.00214596
3906	0.00321894
3918	0.00274206
3930	0.00286128
3942	0.00286128
3954	0.00345738
3966	0.0023844
