Infrared Spectrum: Hexacosane
Formula: C 26 H 54
CAS: 630-01-3
Origin: Sadtler Research Labs Under US-EPA Contract
1/CM	ABSORBANCE
450	0
462	0.0743152
474	0.0635765
486	0.0599969
498	0.0465346
510	0.0452117
522	0.0509701
534	0.0508145
546	0.0708913
558	0.0511258
570	0.0385194
582	0.0519039
594	0.0527599
606	0.047624
618	0.055717
630	0.0485578
642	0.0592187
654	0.0479353
666	0.0466902
678	0.0494138
690	0.0585184
702	0.0596078
714	0.068868
726	0.0716695
738	0.0638878
750	0.080774
762	0.0621758
774	0.0492582
786	0.0380525
798	0.0453673
810	0.0796068
822	0.076105
834	0.0675452
846	0.0519039
858	0.0557948
870	0.0544719
882	0.0505032
894	0.0487134
906	0.0478575
918	0.0443557
930	0.0431106
942	0.0433441
954	0.0437332
966	0.0445113
978	0.0451339
990	0.0444335
1002	0.0523708
1014	0.0626427
1026	0.0645881
1038	0.0691015
1050	0.0674673
1062	0.0625649
1074	0.068868
1086	0.0780505
1098	0.0891783
1110	0.087155
1122	0.0785952
1134	0.071436
1146	0.0720585
1158	0.0684011
1170	0.0735371
1182	0.074004
1194	0.0781283
1206	0.0810853
1218	0.0855987
1230	0.0937695
1242	0.0967265
1254	0.0896452
1266	0.0923688
1278	0.0817857
1290	0.0925244
1302	0.102096
1314	0.101084
1326	0.090579
1338	0.0954815
1350	0.106843
1362	0.110578
1374	0.110033
1386	0.108321
1398	0.101396
1410	0.0977382
1422	0.0949367
1434	0.106454
1446	0.138748
1458	0.185127
1470	0.176489
1482	0.134857
1494	0.115947
1506	0.112212
1518	0.126375
1530	0.151043
1542	0.0975047
1554	0.0778948
1566	0.0804628
1578	0.0964931
1590	0.102796
1602	0.0877776
1614	0.080385
1626	0.0717473
1638	0.0593744
1650	0.0603082
1662	0.0678564
1674	0.0717473
1686	0.071436
1698	0.0707357
1710	0.0703466
1722	0.0692571
1734	0.0655997
1746	0.0585962
1758	0.0492582
1770	0.0456786
1782	0.0434219
1794	0.0415543
1806	0.0421768
1818	0.0403092
1830	0.0399201
1842	0.0408539
1854	0.0406983
1866	0.0397645
1878	0.0401536
1890	0.0407761
1902	0.0396867
1914	0.0392198
1926	0.0380525
1938	0.0385972
1950	0.0375856
1962	0.0375856
1974	0.0369631
1986	0.0375078
1998	0.0373522
2010	0.0377412
2022	0.0383638
2034	0.038286
2046	0.0376634
2058	0.0371965
2070	0.0378969
2082	0.0368853
2094	0.0370409
2106	0.0369631
2118	0.0367296
2130	0.038286
2142	0.0400758
2154	0.0402314
2166	0.040387
2178	0.0413986
2190	0.0413208
2202	0.0368853
2214	0.0352511
2226	0.0363405
2238	0.0358736
2250	0.0362627
2262	0.0367296
2274	0.0375078
2286	0.0384416
2298	0.040387
2310	0.0418655
2322	0.0389863
2334	0.0413208
2346	0.0451339
2358	0.0371965
2370	0.0423324
2382	0.0420212
2394	0.0361849
2406	0.036574
2418	0.0372743
2430	0.0378969
2442	0.038286
2454	0.0378969
2466	0.0385972
2478	0.0385972
2490	0.03743
2502	0.0357958
2514	0.0357958
2526	0.0364962
2538	0.0356402
2550	0.0356402
2562	0.0407761
2574	0.0427215
2586	0.0437332
2598	0.0443557
2610	0.045056
2622	0.0453673
2634	0.0458342
2646	0.0466902
2658	0.04848
2670	0.0494916
2682	0.0479353
2694	0.0480909
2706	0.0489469
2718	0.050192
2730	0.0508923
2742	0.0490247
2754	0.0472349
2766	0.0487134
2778	0.0533046
2790	0.05953
2802	0.0671561
2814	0.0780505
2826	0.0956371
2838	0.134312
2850	0.27376
2862	0.395233
2874	0.268469
2886	0.218977
2898	0.265123
2910	0.377412
2922	0.594989
2934	0.77817
2946	0.444335
2958	0.273994
2970	0.214308
2982	0.127698
2994	0.0910459
3006	0.0749378
3018	0.0680899
3030	0.0649772
3042	0.0567286
3054	0.0538494
3066	0.0537715
3078	0.0515149
3090	0.0505811
3102	0.0499585
3114	0.0456786
3126	0.0425659
3138	0.0437332
3150	0.0433441
3162	0.0417877
3174	0.0431106
3186	0.0413208
3198	0.0404648
3210	0.0415543
3222	0.0416321
3234	0.0406205
3246	0.0416321
3258	0.0408539
3270	0.0419434
3282	0.0411652
3294	0.0413208
3306	0.0421768
3318	0.0410096
3330	0.0410096
3342	0.0399979
3354	0.0418655
3366	0.0404648
3378	0.0398423
3390	0.039531
3402	0.0398423
3414	0.0384416
3426	0.038675
3438	0.0381303
3450	0.040387
3462	0.0393754
3474	0.0387529
3486	0.0385194
3498	0.0402314
3510	0.0399201
3522	0.0388307
3534	0.039531
3546	0.0378191
3558	0.0403092
3570	0.0393754
3582	0.0371187
3594	0.036574
3606	0.0359515
3618	0.0375078
3630	0.0362627
3642	0.0402314
3654	0.0368853
3666	0.0371965
3678	0.038286
3690	0.0383638
3702	0.0384416
3714	0.039142
3726	0.0399201
3738	0.0405427
3750	0.0359515
3762	0.0417099
3774	0.0403092
3786	0.0402314
3798	0.0357958
3810	0.036574
3822	0.0389085
3834	0.0364184
3846	0.0434997
3858	0.0396089
3870	0.0364962
3882	0.039531
3894	0.03743
3906	0.0385972
3918	0.0345507
3930	0.0375078
3942	0.03743
3954	0.0369631
3966	0.0425659
