Infrared Spectrum: N-Phthaloyl-L-valine
Formula: C 13 H 13 N O 4
CAS: 6306-54-3
Origin: Sadtler Research Labs Under US-EPA Contract
1/CM	ABSORBANCE
450	0
462	0.00867954
474	0.0092955
486	0.00643965
498	0.0100235
510	0.0165191
522	0.0276625
534	0.0338222
546	0.0202149
558	0.0219508
570	0.0297904
582	0.0143352
594	0.018087
606	0.0258706
618	0.0341582
630	0.0616527
642	0.0628846
654	0.0341582
666	0.0204949
678	0.0161271
690	0.0227908
702	0.0344382
714	0.152704
726	0.170679
738	0.0243587
750	0.0206069
762	0.0203829
774	0.0126553
786	0.0164631
798	0.0125433
810	0.0102475
822	0.0106394
834	0.0119274
846	0.00537571
858	0.00772759
870	0.0121513
882	0.0160711
894	0.0353341
906	0.055885
918	0.018199
930	0.0167991
942	0.0170791
954	0.0234627
966	0.0204389
978	0.0154552
990	0.0204389
1002	0.0243587
1014	0.0287265
1026	0.0206069
1038	0.0205509
1050	0.0307983
1062	0.0788438
1074	0.119442
1086	0.093291
1098	0.0723481
1110	0.0946349
1122	0.0959789
1134	0.0912191
1146	0.0814196
1158	0.0818116
1170	0.0850034
1182	0.0735801
1194	0.0701642
1206	0.056389
1218	0.0450216
1230	0.0356141
1242	0.0298464
1254	0.0311903
1266	0.0398139
1278	0.0438457
1290	0.0521892
1302	0.0581249
1314	0.0826516
1326	0.111882
1338	0.119722
1350	0.171575
1362	0.208981
1374	0.340014
1386	0.384419
1398	0.147832
1410	0.0581809
1422	0.0436217
1434	0.0250867
1446	0.0206629
1458	0.0356141
1470	0.0632206
1482	0.0166311
1494	0.00733561
1506	0.00806357
1518	0.00867954
1530	0.0100795
1542	0.0131593
1554	0.0129913
1566	0.0140552
1578	0.019095
1590	0.0274385
1602	0.0329822
1614	0.0385259
1626	0.0285025
1638	0.0264306
1650	0.0304624
1662	0.0357821
1674	0.0512933
1686	0.0855634
1698	0.162727
1710	0.33335
1722	0.423785
1734	0.456264
1746	0.453352
1758	0.172583
1770	0.188934
1782	0.273993
1794	0.174991
1806	0.0596928
1818	0.0292304
1830	0.018143
1842	0.0133273
1854	0.00823156
1866	0.00660765
1878	0.00576769
1890	0.00481574
1902	0.00498373
1914	0.00548771
1926	0.00403178
1938	0.00515172
1950	0.00397579
1962	0.00302384
1974	0.00408778
1986	0.00274385
1998	0.00201589
2010	0.00151192
2022	0.00151192
2034	0.00123193
2046	0.00128793
2058	0.00128793
2070	0.00151192
2082	0.00139992
2094	0.00123193
2106	0.00111994
2118	0.00145592
2130	0.00134393
2142	0.0017919
2154	0.00201589
2166	0.00218388
2178	0.00218388
2190	0.00240787
2202	0.00240787
2214	0.00279985
2226	0.00285585
2238	0.00358381
2250	0.00425577
2262	0.00492774
2274	0.00537571
2286	0.00716762
2298	0.0094075
2310	0.0110314
2322	0.00918351
2334	0.0056557
2346	0.00733561
2358	0.00767159
2370	0.00694363
2382	0.0102475
2394	0.00660765
2406	0.00683163
2418	0.0073916
2430	0.00839955
2442	0.00895952
2454	0.00907151
2466	0.0092955
2478	0.00918351
2490	0.00918351
2502	0.00912751
2514	0.0092955
2526	0.00923951
2538	0.00963148
2550	0.00951949
2562	0.0094075
2574	0.00923951
2586	0.0094075
2598	0.00951949
2610	0.00951949
2622	0.00985547
2634	0.0101355
2646	0.0101355
2658	0.00968748
2670	0.0101355
2682	0.0105274
2694	0.0106394
2706	0.0104714
2718	0.0104714
2730	0.0108634
2742	0.0112554
2754	0.0117594
2766	0.0121513
2778	0.0128793
2790	0.0137193
2802	0.0138313
2814	0.0143912
2826	0.0151752
2838	0.0163511
2850	0.018647
2862	0.0228468
2874	0.0341582
2886	0.0414938
2898	0.0401498
2910	0.0455816
2922	0.0479894
2934	0.055605
2946	0.0549891
2958	0.0597488
2970	0.0947469
2982	0.0823156
2994	0.0416058
3006	0.0300144
3018	0.0230148
3030	0.0225668
3042	0.0237987
3054	0.0264866
3066	0.0312463
3078	0.0298464
3090	0.0339342
3102	0.0264866
3114	0.0228468
3126	0.0226228
3138	0.0221188
3150	0.0229588
3162	0.0230708
3174	0.0234627
3186	0.0242467
3198	0.0245827
3210	0.0255346
3222	0.0254226
3234	0.0258706
3246	0.0258706
3258	0.0264866
3270	0.0271025
3282	0.0271585
3294	0.0269346
3306	0.0272145
3318	0.0278305
3330	0.0267106
3342	0.0257586
3354	0.0253666
3366	0.0242467
3378	0.0226228
3390	0.0213909
3402	0.019375
3414	0.017975
3426	0.0161271
3438	0.0152312
3450	0.0138873
3462	0.0143912
3474	0.0140552
3486	0.0127673
3498	0.0124873
3510	0.0123193
3522	0.0101355
3534	0.00867954
3546	0.00834355
3558	0.00862354
3570	0.0445736
3582	0.056613
3594	0.00946349
3606	0.0038078
3618	0.0036958
3630	0.00403178
3642	0.00330382
3654	0.00324783
3666	0.00302384
3678	0.00403178
3690	0.0036958
3702	0.00240787
3714	0.00352781
3726	0.00386379
3738	0.00470375
3750	0.00347181
3762	0.0038078
3774	0.0038078
3786	0.0037518
3798	0.00391979
3810	0.00341582
3822	0.00453576
3834	0.00386379
3846	0.00515172
3858	0.00442376
3870	0.0055437
3882	0.00537571
3894	0.00414378
3906	0.0055437
3918	0.00509573
3930	0.00610367
3942	0.00503973
3954	0.00537571
3966	0.00391979
