Infrared Spectrum: Benzene, 1,4-dibromo-2,6-dinitro-
Formula: C 6 H 2 Br 2 N 2 O 4
CAS: 6310-99-2
Origin: Sadtler Research Labs Under US-EPA Contract
1/CM	ABSORBANCE
450	0.0789202
462	0.0310425
474	0.0325207
486	0.0176564
498	0.00591286
510	0.0252118
522	0.0505878
534	0.0543654
546	0.030057
558	0.0450034
570	0.0312067
582	0.0230766
594	0.0136324
606	0.0145358
618	0.00969051
630	0.0133039
642	0.0265257
654	0.0214341
666	0.0151928
678	0.0124006
690	0.0211877
702	0.0209414
714	0.0175743
726	0.0261972
738	0.0376945
750	0.0190525
762	0.0225017
774	0.0252939
786	0.0231587
798	0.0325207
810	0.0328492
822	0.0514911
834	0.16942
846	0.21894
858	0.0381872
870	0.0198738
882	0.0308782
894	0.0918135
906	0.047385
918	0.0181492
930	0.0159319
942	0.0122363
954	0.0135503
966	0.0178207
978	0.017328
990	0.0121542
1002	0.0133039
1014	0.0156034
1026	0.0183956
1038	0.0250475
1050	0.061428
1062	0.164903
1074	0.200298
1086	0.0544475
1098	0.0280861
1110	0.0305498
1122	0.0174101
1134	0.0208592
1146	0.0169173
1158	0.0181492
1170	0.0204486
1182	0.0203665
1194	0.0291537
1206	0.0302213
1218	0.0214341
1230	0.0215162
1242	0.0326028
1254	0.103064
1266	0.0624135
1278	0.0302213
1290	0.0372838
1302	0.0476313
1314	0.0731716
1326	0.171883
1338	0.471797
1350	0.282175
1362	0.338511
1374	0.100929
1386	0.0624956
1398	0.0650414
1410	0.0588001
1422	0.0450034
1434	0.0535442
1446	0.10832
1458	0.127209
1470	0.0414721
1482	0.0368732
1494	0.0429503
1506	0.0545297
1518	0.0912387
1530	0.172048
1542	0.300899
1554	0.597034
1566	0.82123
1578	0.457014
1590	0.276508
1602	0.14043
1614	0.0542833
1626	0.0298106
1638	0.0185598
1650	0.0118257
1662	0.0104296
1674	0.00550224
1686	0.00410615
1698	0.00139609
1710	0.00919778
1722	0.00829442
1734	0.00624135
1746	0.0092799
1758	0.0110045
1770	0.0116615
1782	0.0107581
1794	0.00468101
1806	0.00796593
1818	0.0092799
1830	0.00632347
1842	0.00566649
1854	0.00813018
1866	0.00624135
1878	0.00648772
1890	0.00648772
1902	0.00698045
1914	0.00698045
1926	0.00730895
1938	0.0060771
1950	0.00599498
1962	0.00459889
1974	0.00443464
1986	0.00492738
1998	0.00418827
2010	0.00410615
2022	0.00385978
2034	0.00402403
2046	0.00369553
2058	0.00410615
2070	0.00402403
2082	0.0039419
2094	0.00385978
2106	0.00369553
2118	0.00361341
2130	0.00328492
2142	0.0032028
2154	0.00353129
2166	0.0032028
2178	0.00369553
2190	0.00344917
2202	0.00361341
2214	0.00344917
2226	0.00287431
2238	0.00328492
2250	0.00246369
2262	0.00229944
2274	0.00303855
2286	0.0042704
2298	0.00706258
2310	0.00870504
2322	0.0071447
2334	0.00542012
2346	0.00517375
2358	0.00656984
2370	0.00673409
2382	0.00771956
2394	0.0042704
2406	0.00418827
2418	0.00385978
2430	0.00377766
2442	0.00328492
2454	0.00336704
2466	0.00410615
2478	0.00344917
2490	0.00369553
2502	0.00344917
2514	0.00328492
2526	0.00312067
2538	0.00328492
2550	0.00336704
2562	0.00312067
2574	0.00418827
2586	0.00385978
2598	0.00353129
2610	0.00435252
2622	0.0050095
2634	0.00509163
2646	0.00566649
2658	0.00656984
2670	0.00878716
2682	0.0109224
2694	0.0105939
2706	0.00796593
2718	0.00722682
2730	0.00698045
2742	0.00615922
2754	0.00599498
2766	0.00542012
2778	0.00517375
2790	0.00583073
2802	0.00665196
2814	0.00698045
2826	0.00739107
2838	0.00771956
2850	0.0107581
2862	0.0128933
2874	0.013386
2886	0.017328
2898	0.0204486
2910	0.0204486
2922	0.0184777
2934	0.0160961
2946	0.01199
2958	0.00796593
2970	0.00730895
2982	0.00763744
2994	0.00829442
3006	0.00870504
3018	0.00936202
3030	0.00903353
3042	0.00960839
3054	0.00862292
3066	0.0092799
3078	0.0107581
3090	0.0192989
3102	0.0386799
3114	0.0108402
3126	0.00615922
3138	0.00558436
3150	0.00459889
3162	0.00418827
3174	0.00361341
3186	0.00271006
3198	0.00418827
3210	0.00353129
3222	0.00435252
3234	0.00328492
3246	0.00238157
3258	0.00410615
3270	0.00377766
3282	0.00353129
3294	0.00410615
3306	0.00435252
3318	0.00336704
3330	0.00517375
3342	0.00459889
3354	0.0042704
3366	0.00410615
3378	0.0039419
3390	0.00476313
3402	0.00599498
3414	0.00451676
3426	0.00533799
3438	0.00476313
3450	0.00542012
3462	0.00632347
3474	0.00476313
3486	0.00656984
3498	0.00402403
3510	0.00533799
3522	0.00509163
3534	0.00673409
3546	0.00648772
3558	0.00747319
3570	0.0071447
3582	0.00550224
3594	0.00615922
3606	0.00599498
3618	0.00730895
3630	0.0050095
3642	0.00632347
3654	0.00197095
3666	0.00542012
3678	0.00451676
3690	0.00262794
3702	0.00468101
3714	0.00410615
3726	0.0101833
3738	0.00624135
3750	0.000164246
3762	0.0092799
3774	0.00755532
3786	0.00673409
3798	0.00665196
3810	0.00525587
3822	0.00377766
3834	0.00435252
3846	0.00435252
3858	0.00911565
3870	0.00763744
3882	0.00533799
3894	0.0071447
3906	0.00845867
3918	0.00205308
3930	0.00730895
3942	0.010019
3954	0.00780169
3966	0.00854079
