Infrared Spectrum: Urea, tetramethyl-
Formula: C 5 H 12 N 2 O
CAS: 632-22-4
Origin: Sadtler Research Labs Under US-EPA Contract
1/CM	ABSORBANCE
450	0.0544828
462	0.00778326
474	0.028961
486	0.0271509
498	0.0103173
510	0
522	0.0166526
534	0.030952
546	0.0494146
558	0.0555688
570	0.0409074
582	0.0521297
594	0.0374682
606	0.0159285
618	0.0161095
630	0.00995533
642	0.0090503
654	0.0123084
666	0.00814527
678	0.0155665
690	0.00633521
702	0.0090503
714	0.00343911
726	0.0161095
738	0.00543018
750	0.00868829
762	0.00561119
774	0.0157475
786	0.0486906
798	0.0548448
810	0.0229878
822	0.00543018
834	0.0114034
846	0.00850728
858	0.00416314
870	0.00850728
882	0.0186436
894	0.0363822
906	0.0959332
918	0.114577
930	0.0390973
942	0.0115844
954	0.0126704
966	0.0164715
978	0.0197297
990	0.029866
1002	0.0506817
1014	0.0704113
1026	0.0756605
1038	0.0725834
1050	0.119464
1062	0.164534
1074	0.13141
1086	0.0935801
1098	0.107156
1110	0.196573
1122	0.46772
1134	0.74665
1146	0.608361
1158	0.28617
1170	0.149149
1182	0.100096
1194	0.089598
1206	0.0970192
1218	0.133944
1230	0.193133
1242	0.211234
1254	0.16725
1266	0.119283
1278	0.0854348
1290	0.0923131
1302	0.124351
1314	0.183359
1326	0.22137
1338	0.324544
1350	0.625919
1362	1.0263
1374	0.959694
1386	0.523288
1398	0.285446
1410	0.185531
1422	0.163448
1434	0.175395
1446	0.305538
1458	0.475322
1470	0.477494
1482	0.531434
1494	0.616687
1506	0.500663
1518	0.251779
1530	0.134849
1542	0.105708
1554	0.090141
1566	0.0950281
1578	0.111138
1590	0.124713
1602	0.120007
1614	0.0930371
1626	0.0821767
1638	0.100096
1650	0.146072
1662	0.338843
1674	1.07662
1686	1.81006
1698	1.19102
1710	0.347532
1722	0.160733
1734	0.110776
1746	0.0767465
1758	0.0628091
1770	0.0575599
1782	0.0376492
1794	0.0257029
1806	0.0186436
1818	0.0141185
1830	0.0175576
1842	0.0153855
1854	0.0142995
1866	0.0215397
1878	0.0130324
1890	0.0153855
1902	0.0114034
1914	0.0108604
1926	0.0106794
1938	0.00524917
1950	0.00235308
1962	0.0028961
1974	0.00343911
1986	0.00217207
1998	0.00144805
2010	0.000724024
2022	0.00506817
2034	0.00579219
2046	0.00724024
2058	0.0061542
2070	0.00470616
2082	0.00506817
2094	0.00868829
2106	0.00923131
2118	0.00760225
2130	0.00470616
2142	0.00506817
2154	0.00416314
2166	0.00253408
2178	0.00162905
2190	0.00199107
2202	0.00325811
2214	0.00253408
2226	0.00362012
2238	0.00380113
2250	0.00253408
2262	0.00452515
2274	0.00561119
2286	0.00380113
2298	0.00217207
2310	0.00162905
2322	0
2334	0
2346	0.00090503
2358	0
2370	0.00235308
2382	0.00090503
2394	0.00108604
2406	0.00325811
2418	0.00416314
2430	0.00434414
2442	0.00271509
2454	0.00271509
2466	0.00325811
2478	0.0030771
2490	0.00362012
2502	0.0028961
2514	0.00362012
2526	0.0030771
2538	0.0030771
2550	0.00362012
2562	0.00380113
2574	0.00470616
2586	0.00416314
2598	0.00470616
2610	0.00488716
2622	0.00470616
2634	0.00488716
2646	0.00561119
2658	0.00651622
2670	0.00724024
2682	0.00850728
2694	0.0106794
2706	0.0117654
2718	0.0132134
2730	0.0148425
2742	0.0179196
2754	0.0222637
2766	0.031314
2778	0.0465185
2790	0.0794616
2802	0.14028
2814	0.173585
2826	0.160914
2838	0.170327
2850	0.242186
2862	0.356582
2874	0.411065
2886	0.449981
2898	0.496137
2910	0.488354
2922	0.490707
2934	0.541751
2946	0.566187
2958	0.497585
2970	0.302099
2982	0.153493
2994	0.123627
3006	0.157656
3018	0.16906
3030	0.118016
3042	0.0704113
3054	0.0510437
3066	0.0421744
3078	0.0354772
3090	0.030047
3102	0.0244358
3114	0.0213587
3126	0.0162905
3138	0.0135754
3150	0.0121274
3162	0.0104983
3174	0.00850728
3186	0.00651622
3198	0.00543018
3210	0.00488716
3222	0.0028961
3234	0.00434414
3246	0.00380113
3258	0.00271509
3270	0.00253408
3282	0.00325811
3294	0.00362012
3306	0.00253408
3318	0.00488716
3330	0.00561119
3342	0.0114034
3354	0.0148425
3366	0.0139375
3378	0.00633521
3390	0.00325811
3402	0.00543018
3414	0.0028961
3426	0.00434414
3438	0.00362012
3450	0.00235308
3462	0.0059732
3474	0.00271509
3486	0.00470616
3498	0.00380113
3510	0.00271509
3522	0.00579219
3534	0.00362012
3546	0.0106794
3558	0.00162905
3570	0.0168336
3582	0.00253408
3594	0.0101363
3606	0.00543018
3618	0.00470616
3630	0.00850728
3642	0.00470616
3654	0.0090503
3666	0.0030771
3678	0.00470616
3690	0.00434414
3702	0.0061542
3714	0.0104983
3726	0.0110414
3738	0.00959332
3750	0.0061542
3762	0.00452515
3774	0.00651622
3786	0.00470616
3798	0.0061542
3810	0.00325811
3822	0.00977432
3834	0.00724024
3846	0.00633521
3858	0.00959332
3870	0.00796426
3882	0.00868829
3894	0.00886929
3906	0.0139375
3918	0.0128514
3930	0.00796426
3942	0.00959332
3954	0.0110414
3966	0.0124894
