Infrared Spectrum: 1,1,2,2-Ethanetetracarboxylic acid, tetraethyl ester
Formula: C 14 H 22 O 8
CAS: 632-56-4
Origin: Sadtler Research Labs Under US-EPA Contract
1/CM	ABSORBANCE
450	0.00770859
462	0.010725
474	0.00603281
486	0.00360293
498	8.3789e-05
510	0.00167578
522	0.00787617
534	0.00653554
546	0.0113953
558	0.0121494
570	0.0151658
582	0.025807
594	0.0278179
606	0.0173443
618	0.013909
630	0.0111439
642	0.00728964
654	0.00527871
666	0.00703828
678	0.00703828
690	0.00896542
702	0.0102223
714	0.00494355
726	0.00469218
738	0.00410566
750	0.00485976
762	0.0076248
774	0.00854648
786	0.00997089
798	0.0106412
810	0.0113115
822	0.0114791
834	0.0134062
846	0.0221203
858	0.0496869
870	0.044492
882	0.0169254
894	0.0111439
906	0.00888163
918	0.0108926
930	0.0195228
942	0.0284883
954	0.0209472
966	0.0160037
978	0.0187687
990	0.0251367
1002	0.0351914
1014	0.0750749
1026	0.20654
1038	0.322085
1050	0.182911
1062	0.0848783
1074	0.06435
1086	0.0795995
1098	0.132889
1110	0.124929
1122	0.114288
1134	0.180398
1146	0.349149
1158	0.494188
1170	0.461342
1182	0.363225
1194	0.309349
1206	0.299629
1218	0.324431
1230	0.370347
1242	0.352752
1254	0.340016
1266	0.366996
1278	0.395903
1290	0.385848
1302	0.335743
1314	0.253546
1326	0.139844
1338	0.0996251
1350	0.0751587
1362	0.0604957
1374	0.158696
1386	0.0615849
1398	0.0542115
1410	0.0382078
1422	0.0292424
1434	0.0280693
1446	0.0383754
1458	0.0446595
1470	0.0619201
1482	0.0448271
1494	0.0191039
1506	0.0114791
1518	0.00938437
1530	0.00795995
1542	0.00578144
1554	0.00469218
1566	0.00469218
1578	0.00444082
1590	0.00444082
1602	0.00410566
1614	0.00402187
1626	0.0030164
1638	0.00368672
1650	0.00879784
1662	0.010725
1674	0.0147469
1686	0.0196066
1698	0.0282369
1710	0.0480111
1722	0.0766669
1734	0.146798
1746	0.460169
1758	0.83789
1770	0.613922
1782	0.221203
1794	0.0842917
1806	0.0439054
1818	0.0263097
1830	0.0175957
1842	0.0120656
1854	0.009133
1866	0.00821132
1878	0.00812753
1890	0.0083789
1902	0.00737343
1914	0.00519492
1926	0.00402187
1938	0.00351914
1950	0.00293261
1962	0.00351914
1974	0.00368672
1986	0.00335156
1998	0.0037705
2010	0.00360293
2022	0.00360293
2034	0.00326777
2046	0.00259746
2058	0.0030164
2070	0.00326777
2082	0.0030164
2094	0.00310019
2106	0.00310019
2118	0.00284883
2130	0.00276504
2142	0.00251367
2154	0.00209472
2166	0.00184336
2178	0.00159199
2190	0.00159199
2202	0.00134062
2214	0.00142441
2226	0.00167578
2238	0.00209472
2250	0.00209472
2262	0.00209472
2274	0.00251367
2286	0.00284883
2298	0.0037705
2310	0.00485976
2322	0.00427324
2334	0.00209472
2346	0.00335156
2358	0.00242988
2370	0.000754101
2382	0.00335156
2394	0.00175957
2406	0.00184336
2418	0.0022623
2430	0.00201094
2442	0.00184336
2454	0.00175957
2466	0.00159199
2478	0.00142441
2490	0.00125683
2502	0.00100547
2514	0.00117305
2526	0.000921679
2538	0.00083789
2550	0.000586523
2562	0.000418945
2574	0.000335156
2586	0.000167578
2598	0.000502734
2610	0.000335156
2622	0.000754101
2634	0.000502734
2646	0.000251367
2658	0.000167578
2670	0.000167578
2682	0.000418945
2694	0.000670312
2706	0.00125683
2718	0.00142441
2730	0.00259746
2742	0.00251367
2754	0.00251367
2766	0.00310019
2778	0.00418945
2790	0.00385429
2802	0.0037705
2814	0.00469218
2826	0.00678691
2838	0.00678691
2850	0.00854648
2862	0.0120656
2874	0.0186849
2886	0.0358617
2898	0.0338508
2910	0.0481787
2922	0.0485138
2934	0.0584009
2946	0.111942
2958	0.0712206
2970	0.0976142
2982	0.172354
2994	0.185257
3006	0.10172
3018	0.0516978
3030	0.0242988
3042	0.0141603
3054	0.00997089
3066	0.00728964
3078	0.00578144
3090	0.00502734
3102	0.00469218
3114	0.00485976
3126	0.00418945
3138	0.00418945
3150	0.00418945
3162	0.00368672
3174	0.00335156
3186	0.0022623
3198	0.0022623
3210	0.00242988
3222	0.00201094
3234	0.00134062
3246	0.00100547
3258	0.000670312
3270	0.000167578
3282	8.3789e-05
3294	0.000335156
3306	0.000167578
3318	0.00125683
3330	0.00142441
3342	0.0022623
3354	0.00251367
3366	0.00276504
3378	0.00259746
3390	0.00259746
3402	0.00310019
3414	0.00284883
3426	0.00293261
3438	0.00234609
3450	0.00251367
3462	0.0030164
3474	0.00402187
3486	0.00527871
3498	0.0068707
3510	0.00477597
3522	0.00368672
3534	0.00234609
3546	0.00134062
3558	0.00184336
3570	0.00201094
3582	0.00184336
3594	0.00184336
3606	0.00242988
3618	0.00184336
3630	0.00167578
3642	0.00159199
3654	0.00167578
3666	0.00184336
3678	0.00209472
3690	0.0022623
3702	0.00125683
3714	0.00167578
3726	0.000418945
3738	0.00251367
3750	0.00159199
3762	0.00167578
3774	0.00209472
3786	0.00242988
3798	0.00276504
3810	0.00268125
3822	0.00142441
3834	0.00134062
3846	0.00167578
3858	0.00083789
3870	0.0015082
3882	0.00142441
3894	0.00125683
3906	0.000754101
3918	0.00242988
3930	0.00192715
3942	0.0015082
3954	0.00251367
3966	0.00209472
