Infrared Spectrum: 2-Propanone, 1,1,3,3-tetrachloro-
Formula: C 3 H 2 Cl 4 O
CAS: 632-21-3
Origin: Sadtler Research Labs Under US-EPA Contract
1/CM	ABSORBANCE
450	0.0555289
462	0.0265811
474	0.038142
486	0.0350469
498	0.0516146
510	0.0862974
522	0.217109
534	0.257163
546	0.0576226
558	0.0541634
570	0.0465168
582	0.0396895
594	0.0488836
606	0.0548007
618	0.0627204
630	0.0889373
642	0.215106
654	0.320611
666	0.238137
678	0.403358
690	0.352927
702	0.118613
714	0.120525
726	0.102319
738	0.127716
750	0.145012
762	0.157302
774	0.20664
786	0.218747
798	0.259894
810	0.35056
822	0.485832
834	0.836666
846	0.70549
858	0.220386
870	0.113152
882	0.0551648
894	0.0219385
906	0.0136547
918	0.0100134
930	0.00619011
942	0.0040964
954	0.00518877
966	0.0103775
978	0.0121982
990	0.00810176
1002	0.0104686
1014	0.0223936
1026	0.0390523
1038	0.0653603
1050	0.0740082
1062	0.046972
1074	0.0420563
1086	0.055711
1098	0.136638
1110	0.231583
1122	0.115882
1134	0.0244873
1146	0.023577
1158	0.0336815
1170	0.0491567
1182	0.0505222
1194	0.0781956
1206	0.2243
1218	0.338726
1230	0.106324
1242	0.0794701
1254	0.0667257
1266	0.0628114
1278	0.0946722
1290	0.167497
1302	0.110421
1314	0.0342277
1326	0.0208461
1338	0.0197537
1350	0.0182062
1362	0.0129264
1374	0.00846588
1386	0.0064632
1398	0.00600805
1410	0.0109237
1422	0.0143829
1434	0.0114699
1446	0.00919413
1458	0.00355021
1470	0.00336815
1482	0.00455155
1494	0.00273093
1506	0.00100134
1518	0.0026399
1530	0.00236681
1542	0.000728248
1554	0.00100134
1566	0.00182062
1578	0.00282196
1590	0.00600805
1602	0.0121071
1614	0.0163856
1626	0.00974032
1638	0.00728248
1650	0.00609908
1662	0.00446052
1674	0.00509774
1686	0.00892104
1698	0.0125623
1710	0.0225757
1722	0.0414191
1734	0.0712773
1746	0.14301
1758	0.350196
1770	0.684098
1782	0.410368
1794	0.182699
1806	0.0750095
1818	0.0425115
1830	0.0212102
1842	0.0113789
1854	0.00846588
1866	0.00582598
1878	0.00537083
1890	0.00446052
1902	0.00546186
1914	0.00509774
1926	0.0040964
1938	0.00427846
1950	0.00418743
1962	0.0038233
1974	0.0038233
1986	0.00373227
1998	0.00327712
2010	0.0040964
2022	0.00364124
2034	0.00400536
2046	0.0040964
2058	0.00400536
2070	0.00455155
2082	0.00473361
2094	0.00355021
2106	0.00373227
2118	0.00391433
2130	0.00364124
2142	0.00400536
2154	0.00391433
2166	0.00355021
2178	0.00336815
2190	0.00345918
2202	0.00364124
2214	0.0038233
2226	0.0038233
2238	0.0038233
2250	0.00400536
2262	0.00391433
2274	0.0040964
2286	0.00418743
2298	0.00436949
2310	0.00427846
2322	0.00446052
2334	0.00391433
2346	0.0038233
2358	0.00400536
2370	0.00555289
2382	0.0079197
2394	0.0079197
2406	0.0079197
2418	0.00710042
2430	0.00609908
2442	0.00637217
2454	0.00619011
2466	0.00564392
2478	0.00546186
2490	0.00609908
2502	0.00655423
2514	0.00600805
2526	0.00482464
2538	0.00436949
2550	0.00427846
2562	0.00400536
2574	0.00364124
2586	0.00336815
2598	0.00355021
2610	0.00345918
2622	0.00373227
2634	0.00364124
2646	0.00309505
2658	0.00318608
2670	0.00309505
2682	0.00327712
2694	0.00336815
2706	0.00309505
2718	0.00345918
2730	0.00327712
2742	0.00327712
2754	0.00345918
2766	0.00355021
2778	0.00364124
2790	0.0038233
2802	0.00446052
2814	0.00500671
2826	0.00591702
2838	0.00700939
2850	0.00773764
2862	0.00810176
2874	0.00928516
2886	0.0079197
2898	0.00600805
2910	0.00573495
2922	0.00591702
2934	0.00728248
2946	0.0109237
2958	0.0197537
2970	0.0231219
2982	0.0155663
2994	0.0218474
3006	0.0375048
3018	0.0345007
3030	0.0231219
3042	0.00810176
3054	0.00700939
3066	0.00600805
3078	0.00500671
3090	0.00473361
3102	0.00427846
3114	0.00436949
3126	0.00427846
3138	0.00373227
3150	0.00391433
3162	0.0040964
3174	0.0038233
3186	0.00391433
3198	0.00355021
3210	0.00373227
3222	0.00345918
3234	0.0040964
3246	0.0038233
3258	0.00336815
3270	0.00345918
3282	0.00391433
3294	0.00400536
3306	0.00364124
3318	0.00364124
3330	0.00364124
3342	0.00400536
3354	0.00418743
3366	0.0038233
3378	0.00427846
3390	0.00373227
3402	0.0040964
3414	0.00391433
3426	0.0040964
3438	0.00464258
3450	0.00491567
3462	0.00582598
3474	0.00591702
3486	0.00719145
3498	0.0103775
3510	0.0163856
3522	0.0185703
3534	0.0121982
3546	0.00928516
3558	0.00846588
3570	0.0126533
3582	0.0137457
3594	0.0104686
3606	0.00482464
3618	0.00573495
3630	0.00655423
3642	0.00446052
3654	0.00546186
3666	0.0038233
3678	0.00746454
3690	0.00473361
3702	0.00555289
3714	0.00600805
3726	0.00564392
3738	0.00537083
3750	0.00691836
3762	0.00637217
3774	0.00664526
3786	0.00555289
3798	0.00455155
3810	0.0064632
3822	0.00901207
3834	0.0064632
3846	0.00755557
3858	0.00710042
3870	0.00737351
3882	0.00737351
3894	0.00564392
3906	0.00655423
3918	0.00664526
3930	0.00600805
3942	0.0052798
3954	0.00655423
3966	0.00455155
