Infrared Spectrum: Butane, 1,1'-oxybis[4-chloro-
Formula: C 8 H 16 Cl 2 O
CAS: 6334-96-9
Origin: Sadtler Research Labs Under US-EPA Contract
1/CM	ABSORBANCE
450	0.00486402
462	0.00381384
474	0.0113862
486	0.0133208
498	0.0133761
510	0.011331
522	0.0130444
534	0.00989387
546	0.00420075
558	0.011939
570	0.00917532
582	0.00972805
594	0.0107782
606	0.0149237
618	0.0147026
630	0.0200641
642	0.0332743
654	0.0692018
666	0.0902055
678	0.0411784
690	0.0348773
702	0.022883
714	0.0346562
726	0.062569
738	0.0799248
750	0.0867233
762	0.0677094
774	0.0426155
786	0.0330533
798	0.031174
810	0.0322794
822	0.0280234
834	0.026918
846	0.024099
858	0.027139
870	0.0332743
882	0.0430577
894	0.0447711
906	0.0388569
918	0.0374198
930	0.0364802
942	0.0388569
954	0.0459871
966	0.0496904
978	0.0458766
990	0.0433893
1002	0.0443842
1014	0.0399624
1026	0.0435551
1038	0.0492482
1050	0.0585341
1062	0.0725182
1074	0.0851757
1086	0.114747
1098	0.174331
1110	0.349602
1122	0.55273
1134	0.284766
1146	0.103416
1158	0.0693123
1170	0.0617952
1182	0.0472031
1194	0.0412889
1206	0.0412337
1218	0.0391886
1230	0.0356511
1242	0.0363696
1254	0.0512381
1266	0.0760556
1278	0.106898
1290	0.117566
1302	0.103139
1314	0.081196
1326	0.0573181
1338	0.0415653
1350	0.0701414
1362	0.0984412
1374	0.0999336
1386	0.0520119
1398	0.0241543
1410	0.0255361
1422	0.0249281
1434	0.0476453
1446	0.0904819
1458	0.0748949
1470	0.0509064
1482	0.0391886
1494	0.0231041
1506	0.00934114
1518	0.00945168
1530	0.00851204
1542	0.00392438
1554	0.00784877
1566	0.00773822
1578	0.00541675
1590	0.0081804
1602	0.00762767
1614	0.00729604
1626	0.00740658
1638	0.00519566
1650	0.00580366
1662	0.00635639
1674	0.00580366
1686	0.00359274
1698	0.00447711
1710	0.00635639
1722	0.00718549
1734	0.00331638
1746	0.00652221
1758	0.00641167
1770	0.00585894
1782	0.00829095
1794	0.00508512
1806	0.00713022
1818	0.00701967
1830	0.00641167
1842	0.00701967
1854	0.00679858
1866	0.00707494
1878	0.00740658
1890	0.00690912
1902	0.00690912
1914	0.00679858
1926	0.00663276
1938	0.00746185
1950	0.00729604
1962	0.0069644
1974	0.00679858
1986	0.00718549
1998	0.00784877
2010	0.00790404
2022	0.00834622
2034	0.0081804
2046	0.00806986
2058	0.00812513
2070	0.00795931
2082	0.00751713
2094	0.00690912
2106	0.00674331
2118	0.00619058
2130	0.00668803
2142	0.00652221
2154	0.00657749
2166	0.00635639
2178	0.00630112
2190	0.00668803
2202	0.00663276
2214	0.00547203
2226	0.00530621
2238	0.0049193
2250	0.00519566
2262	0.00536148
2274	0.00508512
2286	0.00497457
2298	0.00635639
2310	0.00701967
2322	0.0081804
2334	0.00889895
2346	0.00945168
2358	0.0105019
2370	0.00646694
2382	0.00458766
2394	0.00375856
2406	0.00320583
2418	0.00475348
2430	0.00381384
2442	0.00414548
2454	0.00458766
2466	0.0040902
2478	0.00453239
2490	0.00436657
2502	0.00514039
2514	0.00514039
2526	0.0046982
2538	0.00569312
2550	0.00502984
2562	0.00514039
2574	0.00514039
2586	0.00536148
2598	0.00624585
2610	0.0061353
2622	0.00657749
2634	0.00762767
2646	0.00751713
2658	0.00834622
2670	0.00945168
2682	0.0104466
2694	0.0121601
2706	0.0157528
2718	0.0181848
2730	0.0197877
2742	0.0224961
2754	0.0207826
2766	0.0207826
2778	0.0248728
2790	0.0371987
2802	0.0485297
2814	0.0402387
2826	0.0418969
2838	0.0660512
2850	0.14266
2862	0.268406
2874	0.334789
2886	0.237176
2898	0.135087
2910	0.135585
2922	0.191466
2934	0.217444
2946	0.303449
2958	0.312403
2970	0.254035
2982	0.115134
2994	0.0981648
3006	0.0784324
3018	0.028742
3030	0.0173557
3042	0.0122153
3054	0.00945168
3066	0.00801458
3078	0.0075724
3090	0.00630112
3102	0.0061353
3114	0.00646694
3126	0.00646694
3138	0.00635639
3150	0.00619058
3162	0.00608003
3174	0.00519566
3186	0.00602476
3198	0.00580366
3210	0.0055273
3222	0.0055273
3234	0.00641167
3246	0.0055273
3258	0.00563785
3270	0.00608003
3282	0.00431129
3294	0.00619058
3306	0.00508512
3318	0.00574839
3330	0.0055273
3342	0.0061353
3354	0.00608003
3366	0.0055273
3378	0.00563785
3390	0.00619058
3402	0.00585894
3414	0.00591421
3426	0.0061353
3438	0.00652221
3450	0.00547203
3462	0.00563785
3474	0.00641167
3486	0.00563785
3498	0.00602476
3510	0.00619058
3522	0.00486402
3534	0.0055273
3546	0.00558257
3558	0.00646694
3570	0.00558257
3582	0.00646694
3594	0.00652221
3606	0.00608003
3618	0.00414548
3630	0.00342693
3642	0.00608003
3654	0.00414548
3666	0.00646694
3678	0.00425602
3690	0.00442184
3702	0.00558257
3714	0.00420075
3726	0.00497457
3738	0.0026531
3750	0.00182401
3762	0.00315056
3774	0.0046982
3786	0.00420075
3798	0.00337165
3810	0.00160292
3822	0.00165819
3834	0.0034822
3846	0.00403493
3858	0.00342693
3870	0.0040902
3882	0.00353747
3894	0.0046982
3906	0.00447711
3918	0.00458766
3930	0.00608003
3942	0.00663276
3954	0
3966	0.000442184
