Infrared Spectrum: Malonic acid, 2-methoxyethyl-, diethyl ester
Formula: C 10 H 18 O 5
CAS: 6335-02-0
Origin: Sadtler Research Labs Under US-EPA Contract
1/CM	ABSORBANCE
450	0.00459245
462	0.0121509
474	0.0208574
486	0.0110027
498	0.00411407
510	0.00411407
522	0.00851516
534	0.00736705
546	0.00459245
558	0.0124379
570	0.00765408
582	0.00975895
594	0.00861084
606	0.0117681
618	0.0099503
630	0.00688867
642	0.00985463
654	0.0107157
666	0.0113854
678	0.0162649
690	0.0125336
702	0.0162649
714	0.0099503
726	0.01062
738	0.0128206
750	0.00535786
762	0.0119595
774	0.0144471
786	0.0157865
798	0.0126292
810	0.0179871
822	0.01416
834	0.0158822
846	0.0212401
858	0.0449677
870	0.0525261
882	0.0326255
894	0.0312861
906	0.0276504
918	0.0225795
930	0.0256412
942	0.0325298
954	0.0316688
966	0.0326255
978	0.0332952
990	0.033678
1002	0.0540569
1014	0.108497
1026	0.218141
1038	0.272103
1050	0.206564
1062	0.180828
1074	0.194509
1086	0.249427
1098	0.341276
1110	0.395429
1122	0.522008
1134	0.597114
1146	0.6284
1158	0.662843
1170	0.58525
1182	0.514737
1194	0.460297
1206	0.418582
1218	0.386818
1230	0.411311
1242	0.441162
1254	0.457236
1266	0.408728
1278	0.296309
1290	0.254115
1302	0.249332
1314	0.211635
1326	0.197093
1338	0.205608
1350	0.127823
1362	0.105435
1374	0.184559
1386	0.115672
1398	0.08209
1410	0.0541526
1422	0.0452547
1434	0.0662078
1446	0.0855343
1458	0.0807505
1470	0.100651
1482	0.0731921
1494	0.0314774
1506	0.0132033
1518	0.0130119
1530	0.0114811
1542	0.00373136
1554	0.00641029
1566	0.00631462
1578	0.00660164
1590	0.00430542
1602	0.00774976
1614	0.00574056
1626	0.0044011
1638	0.00822814
1650	0.00861084
1662	0.00363569
1674	0.01416
1686	0.0181784
1698	0.0300423
1710	0.0583624
1722	0.101608
1734	0.235363
1746	0.749334
1758	0.911314
1770	0.648779
1782	0.202642
1794	0.0756797
1806	0.0404709
1818	0.0260239
1830	0.0180828
1842	0.00803678
1854	0.0071757
1866	0.00602759
1878	0.00564488
1890	0.00774976
1902	0.00688867
1914	0.00411407
1926	0.00401839
1938	0.00420974
1950	0.0044011
1962	0.00401839
1974	0.00459245
1986	0.00468812
1998	0.00487948
2010	0.00564488
2022	0.00660164
2034	0.00593191
2046	0.00583624
2058	0.00612326
2070	0.00660164
2082	0.00593191
2094	0.00564488
2106	0.00507083
2118	0.00507083
2130	0.00507083
2142	0.0044011
2154	0.00354001
2166	0.00267893
2178	0.00267893
2190	0.00287028
2202	0.00248758
2214	0.00229622
2226	0.00210487
2238	0.00229622
2250	0.00258325
2262	0.00287028
2274	0.00287028
2286	0.00258325
2298	0.00354001
2310	0.00373136
2322	0.00354001
2334	0.0023919
2346	0.00593191
2358	0.000287028
2370	0.0044011
2382	0.00420974
2394	0.00229622
2406	0.00220055
2418	0.00229622
2430	0.00220055
2442	0.00191352
2454	0.00172217
2466	0.00133946
2478	0.00124379
2490	0.00105244
2502	0.00095676
2514	0.000669732
2526	0.000574056
2538	0.000765408
2550	0.00133946
2562	0.00133946
2574	0.00114811
2586	0.00172217
2598	0.0020092
2610	0.00296596
2622	0.00287028
2634	0.00306163
2646	0.00267893
2658	0.00248758
2670	0.00315731
2682	0.00373136
2694	0.00459245
2706	0.00612326
2718	0.00774976
2730	0.0118638
2742	0.0155952
2754	0.0162649
2766	0.0166476
2778	0.0183698
2790	0.0219098
2802	0.0312861
2814	0.0676429
2826	0.101512
2838	0.112132
2850	0.0870652
2862	0.115864
2874	0.171164
2886	0.181593
2898	0.156335
2910	0.163893
2922	0.154899
2934	0.199102
2946	0.241773
2958	0.180349
2970	0.201781
2982	0.308172
2994	0.321854
3006	0.160257
3018	0.0794111
3030	0.0436283
3042	0.0281287
3054	0.020953
3066	0.0169347
3078	0.01416
3090	0.0121509
3102	0.0105244
3114	0.00947192
3126	0.00947192
3138	0.0075584
3150	0.00746273
3162	0.006793
3174	0.00650597
3186	0.00612326
3198	0.00593191
3210	0.00507083
3222	0.00497515
3234	0.00459245
3246	0.00497515
3258	0.00392272
3270	0.00306163
3282	0.0044011
3294	0.00420974
3306	0.00373136
3318	0.00392272
3330	0.00430542
3342	0.00497515
3354	0.00468812
3366	0.00507083
3378	0.00497515
3390	0.00554921
3402	0.00545353
3414	0.00621894
3426	0.00698435
3438	0.006793
3450	0.00487948
3462	0.00727138
3474	0.00880219
3486	0.0130119
3498	0.0130119
3510	0.00937625
3522	0.00841949
3534	0.00669732
3546	0.00765408
3558	0.00487948
3570	0.0091849
3582	0.00287028
3594	0.0099503
3606	0.00392272
3618	0.00487948
3630	0.0117681
3642	0.00430542
3654	0.0161692
3666	0.00306163
3678	0.00526218
3690	0.0139687
3702	0.00736705
3714	0.0113854
3726	0.00794111
3738	0.00947192
3750	0.0223882
3762	0.00641029
3774	0.00928057
3786	0.00851516
3798	0.0145428
3810	0.00373136
3822	0.0146384
3834	0.0110027
3846	0.0112898
3858	0.0144471
3870	0.013586
3882	0.00870652
3894	0.0071757
3906	0.0158822
3918	0.00947192
3930	0.00803678
3942	0.0113854
3954	0.00870652
3966	0.0129163
