Infrared Spectrum: Benzofuran, 2,3-dihydro-2,2-dimethyl-
Formula: C 10 H 12 O
CAS: 6337-33-3
Origin: Sadtler Research Labs Under US-EPA Contract
1/CM	ABSORBANCE
450	0.0294878
462	0.0229632
474	0.0135576
486	0.00796509
498	0.00491463
510	0.0036436
522	0.00211838
534	0.00177943
546	0.00288099
558	0.00279625
570	0.00262678
582	0.00296572
594	0.0118629
606	0.00982926
618	0.00118629
630	0.00423675
642	0.00762615
654	0.00211838
666	0.00050841
678	0.00203364
690	0.00618565
702	0.0436385
714	0.0588908
726	0.0399949
738	0.213109
750	0.370292
762	0.132356
774	0.0668559
786	0.0767699
798	0.0312672
810	0.00838876
822	0.00372834
834	0.00965979
846	0.0243189
858	0.0605008
870	0.125831
882	0.37241
894	0.313435
906	0.0427064
918	0.0254205
930	0.0300809
942	0.02559
954	0.0204211
966	0.0360124
978	0.0319451
990	0.0142355
1002	0.0139813
1014	0.0639749
1026	0.0311825
1038	0.00067788
1050	0.00211838
1062	0.00499936
1074	0.032623
1086	0.13905
1098	0.0970216
1110	0.0439775
1122	0.102529
1134	0.227259
1146	0.245223
1158	0.115494
1170	0.039656
1182	0.062026
1194	0.0565182
1206	0.0656696
1218	0.20777
1230	0.170233
1242	0.16786
1254	0.571199
1266	0.815659
1278	0.268949
1290	0.0726179
1302	0.0565182
1314	0.0897344
1326	0.10719
1338	0.0449095
1350	0.021438
1362	0.0610939
1374	0.164979
1386	0.151421
1398	0.0451638
1410	0.0114392
1422	0.0120324
1434	0.0230479
1446	0.078973
1458	0.24141
1470	0.367072
1482	0.688557
1494	0.288268
1506	0.0621955
1518	0.0199975
1530	0.00762615
1542	0.00669406
1554	0.00965979
1566	0.0107613
1578	0.0314367
1590	0.11829
1602	0.222938
1614	0.146168
1626	0.0635512
1638	0.0127102
1650	0.00694827
1662	0.00999873
1674	0.0212685
1686	0.0209295
1698	0.00593145
1710	0.00499936
1722	0.00643986
1734	0.0166928
1746	0.0238953
1758	0.0167775
1770	0.0144897
1782	0.00771088
1794	0.00660933
1806	0.00804983
1818	0.00186417
1830	0.00050841
1842	0.00135576
1854	0.00177943
1866	0.00355887
1878	0.00889718
1890	0.00754141
1902	0.00177943
1914	0.00635512
1926	0.0112698
1938	0.00050841
1950	0.00033894
1962	8.4735e-05
1974	8.4735e-05
1986	8.4735e-05
1998	0.00127102
2010	0.00211838
2022	0.00135576
2034	0.000593145
2046	0.00118629
2058	0.00186417
2070	0.000932085
2082	8.4735e-05
2094	8.4735e-05
2106	0.00101682
2118	0.00296572
2130	0.00347413
2142	0.00313519
2154	0.00220311
2166	0.00152523
2178	0.000423675
2190	8.4735e-05
2202	0.000254205
2214	0.000423675
2226	0.000254205
2238	8.4735e-05
2250	0.00033894
2262	0.00110155
2274	0.00203364
2286	0.000932085
2298	0.000932085
2310	0.00084735
2322	0.00186417
2334	0.00321993
2346	0.00372834
2358	0.00245731
2370	0.0033894
2382	0.00262678
2394	0.00279625
2406	0.00228784
2418	0.000593145
2430	0.000254205
2442	0.000423675
2454	0.0019489
2466	0.00355887
2478	0.0050841
2490	0.00423675
2502	0.00305046
2514	0.00347413
2526	0.00372834
2538	0.00389781
2550	0.00449095
2562	0.00643986
2574	0.00745668
2586	0.00516883
2598	0.00271152
2610	0.00211838
2622	0.00355887
2634	0.00457569
2646	0.00398254
2658	0.00279625
2670	0.00203364
2682	0.00152523
2694	0.00228784
2706	0.00245731
2718	0.00321993
2730	0.00610092
2742	0.00643986
2754	0.00525357
2766	0.00398254
2778	0.00355887
2790	0.0036436
2802	0.00593145
2814	0.00949032
2826	0.014066
2838	0.0199127
2850	0.0359276
2862	0.0873618
2874	0.0927848
2886	0.07194
2898	0.0749057
2910	0.0993942
2922	0.147608
2934	0.210905
2946	0.227513
2958	0.137186
2970	0.199043
2982	0.512986
2994	0.244969
3006	0.0299962
3018	0.0245731
3030	0.0691438
3042	0.101258
3054	0.110325
3066	0.121256
3078	0.108122
3090	0.0911749
3102	0.0432148
3114	0.0199975
3126	0.00737194
3138	0.00389781
3150	0.00288099
3162	0.00279625
3174	0.00321993
3186	0.0053383
3198	0.00728721
3210	0.00720247
3222	0.00542304
3234	0.00381307
3246	0.00211838
3258	0.00160996
3270	0.00203364
3282	0.00127102
3294	0.00237258
3306	0.00228784
3318	0.00135576
3330	0.00118629
3342	0.00101682
3354	0.00118629
3366	0.00110155
3378	0.00127102
3390	0.00050841
3402	0.00135576
3414	0.00084735
3426	0.00118629
3438	0.00203364
3450	0.00186417
3462	0.00220311
3474	0.000593145
3486	0.00067788
3498	0.00084735
3510	0.00067788
3522	0.00050841
3534	0.00101682
3546	0.000932085
3558	0.00067788
3570	0.00067788
3582	0.000593145
3594	0.00050841
3606	0.00033894
3618	0.00067788
3630	0.00127102
3642	0.000932085
3654	0.000762615
3666	0.000762615
3678	0.00127102
3690	0.00203364
3702	0.00203364
3714	0.000932085
3726	0.00067788
3738	0.000932085
3750	0.00101682
3762	0.00067788
3774	0
3786	0.000423675
3798	0.00033894
3810	0.00016947
3822	0.00127102
3834	0.00186417
3846	0.00152523
3858	0.00050841
3870	0.00110155
3882	0.00186417
3894	0.00271152
3906	0.00296572
3918	0.0033894
3930	0.00271152
3942	0.00271152
3954	0.00177943
3966	0.00160996
