Infrared Spectrum: Benzenamine, 2,3,4,5-tetrachloro-
Formula: C 6 H 3 Cl 4 N
CAS: 634-83-3
Origin: Sadtler Research Labs Under US-EPA Contract
1/CM	ABSORBANCE
450	0.0536743
462	0.0654737
474	0.0413619
486	0.0303321
498	0.0359111
510	0.0371295
522	0.0416826
534	0.0538026
546	0.0466203
558	0.0668203
570	0.0941384
582	0.076247
594	0.0425803
606	0.0427727
618	0.0477746
630	0.0352057
642	0.0374502
654	0.0605359
666	0.0876616
678	0.0840705
690	0.093433
702	0.121457
714	0.163203
726	0.333909
738	0.0881105
750	0.0521353
762	0.0507886
774	0.0418749
786	0.0280235
798	0.0302679
810	0.0260356
822	0.0470692
834	0.225214
846	0.180838
858	0.0289213
870	0.017186
882	0.0171219
894	0.0121841
906	0.0137873
918	0.0140438
930	0.0128895
942	0.00750286
954	0.00993969
966	0.0165448
978	0.0226368
990	0.00820826
1002	0.00179556
1014	0.00153905
1026	0.00288572
1038	0.00365524
1050	0.00884953
1062	0.0106451
1074	0.0111581
1086	0.0240476
1098	0.0230857
1110	0.0925353
1122	0.154097
1134	0.0498908
1146	0.0413619
1158	0.0498908
1170	0.117032
1182	0.155059
1194	0.0704114
1206	0.0202641
1218	0.0104527
1230	0.0214184
1242	0.0223803
1254	0.0511733
1266	0.0340514
1278	0.0198152
1290	0.0205206
1302	0.0064127
1314	0.00615619
1326	0.0113505
1338	0.00628445
1350	0.0114146
1362	0.0448248
1374	0.189431
1386	0.365652
1398	0.0928559
1410	0.0591251
1422	0.227458
1434	0.64127
1446	0.144991
1458	0.0421314
1470	0.0441835
1482	0.0243041
1494	0.0107092
1506	0.0126971
1518	0.0193022
1530	0.0596381
1542	0.134667
1554	0.110042
1566	0.0813772
1578	0.152622
1590	0.100423
1602	0.162049
1614	0.493906
1626	0.37572
1638	0.104912
1650	0.050981
1662	0.0273181
1674	0.0286648
1686	0.0323841
1698	0.0185968
1710	0.00987556
1722	0.00692572
1734	0.00538667
1746	0.00314222
1758	0.00224445
1770	0.00211619
1782	0.00198794
1794	0.00153905
1806	0.000961905
1818	0.00198794
1830	0.00230857
1842	0.00102603
1854	0.000705397
1866	0.00160318
1878	0.00128254
1890	0.000961905
1902	0.000833651
1914	0
1926	0.000256508
1938	0.000384762
1950	0.000769524
1962	0.00109016
1974	0.00173143
1986	0.00218032
1998	0.0030781
2010	0.00352699
2022	0.00294984
2034	0.0023727
2046	0.00192381
2058	0.00198794
2070	0.00192381
2082	0.00115429
2094	0.000961905
2106	0.00141079
2118	0.00179556
2130	0.00173143
2142	0.00134667
2154	0.000769524
2166	0.000833651
2178	0.00121841
2190	0.00121841
2202	0.000897778
2214	0.00115429
2226	0.00160318
2238	0.00179556
2250	0.0023727
2262	0.00243683
2274	0.00275746
2286	0.00192381
2298	0.00275746
2310	0.00365524
2322	0.00487365
2334	0.00500191
2346	0.00737461
2358	0.00423238
2370	0.0047454
2382	0.00314222
2394	0.000961905
2406	0.000961905
2418	0.000961905
2430	0.000705397
2442	0.00064127
2454	0.000897778
2466	0.000256508
2478	0.000128254
2490	0.000577143
2502	0.000833651
2514	0.00141079
2526	0.000705397
2538	0.00064127
2550	0.0016673
2562	0.00153905
2574	0.00141079
2586	0.00160318
2598	0.00198794
2610	0.00153905
2622	0.00121841
2634	0.00147492
2646	0.00185968
2658	0.00243683
2670	0.00275746
2682	0.0030781
2694	0.00211619
2706	0.00211619
2718	0.00250095
2730	0.0023727
2742	0.00198794
2754	0.00147492
2766	0.00153905
2778	0.00173143
2790	0.00288572
2802	0.00352699
2814	0.00275746
2826	0.00121841
2838	0.000320635
2850	0.000705397
2862	0.00064127
2874	0.000448889
2886	0.000961905
2898	0.000769524
2910	0.00121841
2922	0.00147492
2934	0.00141079
2946	0.00128254
2958	0.00141079
2970	0.00147492
2982	0.00153905
2994	0.00141079
3006	0.00141079
3018	0.000577143
3030	0.00115429
3042	0.00198794
3054	0.00423238
3066	0.00666921
3078	0.00442476
3090	0.00205206
3102	0.00141079
3114	0.00185968
3126	0.00147492
3138	0.000769524
3150	0.00185968
3162	0.00275746
3174	0.00410413
3186	0.00557905
3198	0.00525841
3210	0.00352699
3222	0.0023727
3234	0.00173143
3246	0.00141079
3258	0.000577143
3270	0.00064127
3282	0.000833651
3294	0.00064127
3306	0.000769524
3318	0.000769524
3330	0.000513016
3342	0.00128254
3354	0.00160318
3366	0.00346286
3378	0.00493778
3390	0.0127613
3402	0.0347568
3414	0.102988
3426	0.119533
3438	0.039374
3450	0.0148133
3462	0.0097473
3474	0.00961905
3486	0.0175067
3498	0.0405283
3510	0.0666921
3522	0.0696419
3534	0.0318711
3546	0.0151981
3558	0.00660508
3570	0.00410413
3582	0.00218032
3594	0.00198794
3606	0.00198794
3618	0.00153905
3630	0.00320635
3642	0.00173143
3654	0.00352699
3666	0.00269333
3678	0.000897778
3690	0.00314222
3702	0.00314222
3714	0.00301397
3726	0.0023727
3738	0.000705397
3750	0.00705397
3762	0.00250095
3774	0.00301397
3786	0.00301397
3798	0.0033346
3810	0.00423238
3822	0.00365524
3834	0.0047454
3846	0.00686159
3858	0.00679746
3870	0.0054508
3882	0.00519429
3894	0.00275746
3906	0.00262921
3918	0.00397587
3930	0.00211619
3942	0.00487365
3954	0.00230857
3966	0.0047454
