Infrared Spectrum: Benzene, 1,2,3,4-tetrachloro-
Formula: C 6 H 2 Cl 4
CAS: 634-66-2
Origin: Sadtler Research Labs Under US-EPA Contract
1/CM	ABSORBANCE
450	0.0154007
462	0.0201631
474	0.04948
486	0.0468204
498	0.0382851
510	0.0615407
522	0.0510881
534	0.0309868
546	0.034203
558	0.040017
570	0.0246781
582	0.0207816
594	0.0392129
606	0.138482
618	0.0752715
630	0.0228845
642	0.0161429
654	0.0003711
666	0.0113186
678	0.00414395
690	0.00315435
702	0.00562835
714	0.00698905
726	0.0076694
738	0.0113186
750	0.0141018
762	0.0520159
774	0.267254
786	0.0678495
798	0.103042
810	0.225691
822	0.0723026
834	0.160006
846	0.113062
858	0.039584
870	0.0164521
882	0.0070509
894	0.0066798
906	0.00253585
918	0.00562835
930	0.00822605
942	0.0084116
954	0.0064324
966	0.00538095
978	0.0048243
990	0.00773125
1002	0.00822605
1014	0.00884455
1026	0.00847345
1038	0.004948
1050	0.0066798
1062	0.0163284
1074	0.0671691
1086	0.0495418
1098	0.0079168
1110	0.0077931
1122	0.0136688
1134	0.0169469
1146	0.0124318
1158	0.0417488
1170	0.195941
1182	0.363802
1194	0.0827553
1206	0.0246781
1218	0.0203486
1230	0.0129885
1242	0.0107619
1254	0.00612315
1266	0.0110712
1278	0.00760755
1290	0.00525725
1302	0.00637055
1314	0.0076694
1326	0.0181221
1338	0.0705709
1350	0.158089
1362	0.244555
1374	0.0984034
1386	0.0369244
1398	0.0267192
1410	0.0718078
1422	0.491275
1434	0.463504
1446	0.156048
1458	0.0397696
1470	0.00822605
1482	0.0050717
1494	0.0133596
1506	0.0113186
1518	0.0084116
1530	0.00797865
1542	0.0154007
1554	0.0277707
1566	0.0227608
1578	0.0124318
1590	0.00711275
1602	0.00958675
1614	0.0155862
1626	0.0071746
1638	0.0056902
1650	0.0085353
1662	0.0050717
1674	0.00550465
1686	0.00736015
1698	0.00698905
1710	0.00463875
1722	0.0050717
1734	0.0108238
1746	0.00896825
1758	0.0044532
1770	0.0050717
1782	0.0050717
1794	0.00414395
1806	0.00426765
1818	0.0045769
1830	0.00476245
1842	0.00500985
1854	0.00550465
1866	0.012803
1878	0.0184313
1890	0.00711275
1902	0.0043295
1914	0.0040821
1926	0.0044532
1938	0.00513355
1950	0.004948
1962	0.0038347
1974	0.00352545
1986	0.00327805
1998	0.00389655
2010	0.0047006
2022	0.0040821
2034	0.0030925
2046	0.00265955
2058	0.0029688
2070	0.0033399
2082	0.0032162
2094	0.00228845
2106	0.0027214
2118	0.00315435
2130	0.0030925
2142	0.00303065
2154	0.002474
2166	0.0028451
2178	0.00303065
2190	0.0030925
2202	0.0032162
2214	0.00265955
2226	0.00204105
2238	0.0019792
2250	0.00253585
2262	0.0035873
2274	0.00278325
2286	0.0025977
2298	0.0022266
2310	0.0030925
2322	0.00303065
2334	0.00340175
2346	0.00377285
2358	0.0056902
2370	0.00117515
2382	0.00117515
2394	0.002474
2406	0.00191735
2418	0.00216475
2430	0.0018555
2442	0.00228845
2454	0.002474
2466	0.00278325
2478	0.0029688
2490	0.00241215
2502	0.00204105
2514	0.00204105
2526	0.00191735
2538	0.00129885
2550	0.00142255
2562	0.0016081
2574	0.0013607
2586	0.00142255
2598	0.0016081
2610	0.0019792
2622	0.0021029
2634	0.00179365
2646	0.00105145
2658	0.00129885
2670	0.001237
2682	0.0011133
2694	0.0013607
2706	0.00068035
2718	0.00129885
2730	0.0014844
2742	0.0009896
2754	0.0016081
2766	0.00241215
2778	0.00340175
2790	0.0017318
2802	0.00055665
2814	0.0004948
2826	0.0004948
2838	0.00068035
2850	0.00105145
2862	0.00080405
2874	0.0003711
2886	0.0004948
2898	0.0007422
2910	0.0007422
2922	0.00018555
2934	0.00142255
2946	0.00068035
2958	0.0006185
2970	0.0009896
2982	0.0011133
2994	0.00154625
3006	0.00142255
3018	0.0011133
3030	0.0004948
3042	0.00166995
3054	0.0007422
3066	0.00179365
3078	0.0022266
3090	0.00092775
3102	0.0018555
3114	0.00204105
3126	0.00166995
3138	0.0011133
3150	0.001237
3162	0.0017318
3174	0.00068035
3186	0.0017318
3198	0.0011133
3210	0.00080405
3222	0.00080405
3234	0.00092775
3246	0.0014844
3258	0.00142255
3270	0.0021029
3282	0.00204105
3294	0.0004948
3306	0.00154625
3318	0.0013607
3330	0.00179365
3342	0.0014844
3354	0.00315435
3366	0.00154625
3378	0.00191735
3390	0.00179365
3402	0.0017318
3414	0.0023503
3426	0.00117515
3438	0.0021029
3450	0.0022266
3462	0.0013607
3474	0.0029688
3486	0.0022266
3498	0.00204105
3510	0.0025977
3522	0.00327805
3534	0.00191735
3546	0.002474
3558	0.0023503
3570	0.00253585
3582	0.001237
3594	0.0033399
3606	0.0038347
3618	0.0038347
3630	0.00179365
3642	0.00377285
3654	0.0039584
3666	0.0045769
3678	0.0035873
3690	0.0053191
3702	0.00290695
3714	0.0051954
3726	0.00550465
3738	0.00265955
3750	0.0042058
3762	0.00290695
3774	0.00439135
3786	0.00377285
3798	0.00191735
3810	0.0040821
3822	0.0029688
3834	0.004948
3846	0.00612315
3858	0.0038347
3870	0.0076694
3882	0.00624685
3894	0.00439135
3906	0.0051954
3918	0.007422
3930	0.00191735
3942	0.00698905
3954	0.0081642
3966	0
