Infrared Spectrum: Benzene, 1,2,3,5-tetrachloro-
Formula: C 6 H 2 Cl 4
CAS: 634-90-2
Origin: Sadtler Research Labs Under US-EPA Contract
1/CM	ABSORBANCE
450	0
462	0.028095
474	0.0390494
486	0.0477486
498	0.0585741
510	0.0521948
522	0.0458154
534	0.0278372
546	0.0388561
558	0.100717
570	0.0760368
582	0.107998
594	0.282174
606	0.156971
618	0.0901488
630	0.0565121
642	0.0489084
654	0.0452355
666	0.0412403
678	0.0481996
690	0.0938862
702	0.0616027
714	0.0460732
726	0.0398227
738	0.0385339
750	0.0443333
762	0.050906
774	0.0572854
786	0.123399
798	0.316262
810	0.314973
822	0.360015
834	0.418203
846	0.236487
858	0.317486
870	0.187772
882	0.0554811
894	0.0534191
906	0.0452999
918	0.0413692
930	0.0397582
942	0.0391783
954	0.038985
966	0.0392427
978	0.0422069
990	0.0429801
1002	0.0439467
1014	0.0431735
1026	0.0510349
1038	0.0805475
1050	0.108385
1062	0.0517437
1074	0.0443978
1086	0.046202
1098	0.0728794
1110	0.296673
1122	0.246089
1134	0.226822
1146	0.0635359
1158	0.0687553
1170	0.0927907
1182	0.154265
1194	0.135126
1206	0.0579298
1218	0.051937
1230	0.0621827
1242	0.083705
1254	0.051937
1266	0.0438823
1278	0.0440756
1290	0.0473619
1302	0.0485218
1314	0.0489729
1326	0.0507127
1338	0.0703663
1350	0.13822
1362	0.30666
1374	0.388497
1386	0.376447
1398	0.447715
1410	0.592056
1422	0.290035
1434	0.31072
1446	0.0902132
1458	0.0676599
1470	0.0526458
1482	0.0579298
1494	0.0598629
1506	0.0638581
1518	0.0713973
1530	0.152589
1542	0.50281
1554	0.602173
1566	0.453837
1578	0.201884
1590	0.0939506
1602	0.0594118
1614	0.0473619
1626	0.0493595
1638	0.051937
1650	0.0490373
1662	0.0377607
1674	0.0362142
1686	0.0370518
1698	0.0378895
1710	0.043689
1722	0.0679821
1734	0.0574787
1746	0.0367297
1758	0.0328634
1770	0.0327345
1782	0.0308014
1794	0.0317679
1806	0.0314457
1818	0.0303503
1830	0.0290615
1842	0.0286749
1854	0.0268062
1866	0.028546
1878	0.0294482
1890	0.0304147
1902	0.0289971
1914	0.0288682
1926	0.0291904
1938	0.0300281
1950	0.0310591
1962	0.0311236
1974	0.0292549
1986	0.0283527
1998	0.029126
2010	0.0288038
2022	0.028546
2034	0.0271928
2046	0.026033
2058	0.0248731
2070	0.0253886
2082	0.0260974
2094	0.0262263
2106	0.0262263
2118	0.0255819
2130	0.0240998
2142	0.0234554
2154	0.0239709
2166	0.0247442
2178	0.0257752
2190	0.0258396
2202	0.0251953
2214	0.0248086
2226	0.0246798
2238	0.0253241
2250	0.0248086
2262	0.024422
2274	0.0241642
2286	0.0243576
2298	0.025453
2310	0.0269995
2322	0.0265485
2334	0.0258396
2346	0.0242287
2358	0.0203624
2370	0.0208779
2382	0.0224889
2394	0.0229399
2406	0.0237776
2418	0.0232621
2430	0.02178
2442	0.021329
2454	0.0209423
2466	0.0213934
2478	0.0226177
2490	0.0225533
2502	0.0224889
2514	0.0222955
2526	0.0221667
2538	0.0230688
2550	0.0228755
2562	0.0222955
2574	0.0221667
2586	0.0226177
2598	0.0240998
2610	0.0253886
2622	0.0250664
2634	0.0234554
2646	0.0219089
2658	0.0215867
2670	0.0219734
2682	0.0230688
2694	0.0237776
2706	0.0236487
2718	0.0233266
2730	0.0230688
2742	0.0240998
2754	0.0234554
2766	0.0246798
2778	0.0266129
2790	0.0259041
2802	0.0231977
2814	0.0233266
2826	0.0235843
2838	0.0239065
2850	0.0226822
2862	0.0219734
2874	0.0210712
2886	0.0225533
2898	0.0237776
2910	0.0261618
2922	0.0269995
2934	0.026484
2946	0.0246153
2958	0.0239065
2970	0.026033
2982	0.0264196
2994	0.0247442
3006	0.0233266
3018	0.0226177
3030	0.0214579
3042	0.0222311
3054	0.0231332
3066	0.0237776
3078	0.0282883
3090	0.0288038
3102	0.0262907
3114	0.0288682
3126	0.0291904
3138	0.0268062
3150	0.0231332
3162	0.021329
3174	0.0204268
3186	0.0222311
3198	0.0237776
3210	0.0259041
3222	0.0248731
3234	0.0239709
3246	0.0237132
3258	0.0240998
3270	0.0239065
3282	0.0251308
3294	0.0249375
3306	0.0239065
3318	0.0247442
3330	0.0253886
3342	0.0249375
3354	0.0253886
3366	0.0242931
3378	0.0224889
3390	0.0209423
3402	0.0228755
3414	0.0250019
3426	0.0269995
3438	0.0260974
3450	0.0239065
3462	0.0210712
3474	0.0208135
3486	0.0227466
3498	0.0232621
3510	0.0247442
3522	0.0237132
3534	0.023391
3546	0.0228111
3558	0.0235199
3570	0.0243576
3582	0.0228111
3594	0.0238421
3606	0.0222955
3618	0.0228755
3630	0.0250664
3642	0.0261618
3654	0.0278372
3666	0.0233266
3678	0.026484
3690	0.023391
3702	0.0224889
3714	0.0266773
3726	0.0282238
3738	0.0302859
3750	0.0283527
3762	0.023391
3774	0.0239065
3786	0.024422
3798	0.0255819
3810	0.0242287
3822	0.0286105
3834	0.02236
3846	0.0246153
3858	0.034281
3870	0.031188
3882	0.0278372
3894	0.0265485
3906	0.02178
3918	0.0213934
3930	0.0252597
3942	0.0338944
3954	0.0359564
3966	0.0318968
