Infrared Spectrum: Benzenamine, 2,3,4-trichloro-
Formula: C 6 H 4 Cl 3 N
CAS: 634-67-3
Origin: Sadtler Research Labs Under US-EPA Contract
1/CM	ABSORBANCE
450	0
462	0.117487
474	0.0588173
486	0.0731702
498	0.121482
510	0.115637
522	0.0895206
534	0.0760556
546	0.0721344
558	0.0938857
570	0.107425
582	0.108165
594	0.0893727
606	0.074132
618	0.0783491
630	0.0897426
642	0.0938857
654	0.107795
666	0.141679
678	0.196945
690	0.130508
702	0.092258
714	0.0944776
726	0.0912963
738	0.103208
750	0.109126
762	0.109792
774	0.215811
786	0.301855
798	0.182814
810	0.151445
822	0.0936637
834	0.0820483
846	0.0808645
858	0.0821222
870	0.0816044
882	0.087671
894	0.0941076
906	0.114527
918	0.175046
930	0.13983
942	0.0884849
954	0.0808645
966	0.0762775
978	0.083084
990	0.0908524
1002	0.0881149
1014	0.0734661
1026	0.0747978
1038	0.0861914
1050	0.0916662
1062	0.0904824
1074	0.083306
1086	0.0816783
1098	0.0824922
1110	0.101358
1122	0.108904
1134	0.100396
1146	0.125033
1158	0.152925
1170	0.115415
1182	0.146192
1194	0.0959572
1206	0.08338
1218	0.0769434
1230	0.0731702
1242	0.0748718
1254	0.0763515
1266	0.0759076
1278	0.107129
1290	0.125477
1302	0.217661
1314	0.160619
1326	0.0811604
1338	0.0716165
1350	0.0728003
1362	0.0773133
1374	0.100692
1386	0.191693
1398	0.22062
1410	0.0987686
1422	0.0856735
1434	0.106389
1446	0.280621
1458	0.717497
1470	0.437837
1482	0.170903
1494	0.0987686
1506	0.0890767
1518	0.0768694
1530	0.0756856
1542	0.0813824
1554	0.0931459
1566	0.0975109
1578	0.116155
1590	0.14856
1602	0.197167
1614	0.417122
1626	0.401511
1638	0.201089
1650	0.127844
1662	0.0918881
1674	0.078719
1686	0.0751677
1698	0.0698409
1710	0.0713946
1722	0.0729482
1734	0.0696189
1746	0.069545
1758	0.0677693
1770	0.0659937
1782	0.0668076
1794	0.0673994
1806	0.0671035
1818	0.0668815
1830	0.0668076
1842	0.0719864
1854	0.0798287
1866	0.069471
1878	0.0671775
1890	0.0662897
1902	0.0676954
1914	0.0670295
1926	0.0676954
1938	0.0679913
1950	0.0688051
1962	0.0696929
1974	0.0705068
1986	0.0703588
1998	0.0686572
2010	0.0656978
2022	0.0674734
2034	0.0680653
2046	0.0679173
2058	0.0682132
2070	0.0674734
2082	0.0682132
2094	0.0673994
2106	0.0669555
2118	0.0671035
2130	0.0675474
2142	0.0670295
2154	0.0679173
2166	0.0669555
2178	0.0682872
2190	0.0673994
2202	0.0682132
2214	0.0696929
2226	0.069545
2238	0.069397
2250	0.0677693
2262	0.0682872
2274	0.0684352
2286	0.0685832
2298	0.0704328
2310	0.0713206
2322	0.0702848
2334	0.0729482
2346	0.0752417
2358	0.0703588
2370	0.0781271
2382	0.0747238
2394	0.069471
2406	0.0689531
2418	0.0687311
2430	0.0685092
2442	0.069471
2454	0.069249
2466	0.0690271
2478	0.0696929
2490	0.0698409
2502	0.0700628
2514	0.0708027
2526	0.0722084
2538	0.0730962
2550	0.0717645
2562	0.0702848
2574	0.0708027
2586	0.0705068
2598	0.0711726
2610	0.0713206
2622	0.0706547
2634	0.0702848
2646	0.0700628
2658	0.0706547
2670	0.0710986
2682	0.0705068
2694	0.069545
2706	0.069175
2718	0.069397
2730	0.0696929
2742	0.0688051
2754	0.069249
2766	0.0703588
2778	0.0697669
2790	0.0701368
2802	0.0706547
2814	0.0715425
2826	0.0721344
2838	0.0716165
2850	0.0719864
2862	0.0725783
2874	0.0703588
2886	0.0696929
2898	0.0706547
2910	0.0719864
2922	0.0761295
2934	0.0779791
2946	0.0720604
2958	0.0661417
2970	0.064662
2982	0.0685092
2994	0.069323
3006	0.0703588
3018	0.0735401
3030	0.0758336
3042	0.0776832
3054	0.0881889
3066	0.0903345
3078	0.0767214
3090	0.0734661
3102	0.069323
3114	0.0701368
3126	0.0691011
3138	0.0696189
3150	0.0687311
3162	0.0687311
3174	0.0706547
3186	0.0726523
3198	0.0722824
3210	0.0721344
3222	0.0705068
3234	0.0716905
3246	0.0689531
3258	0.0685092
3270	0.0682132
3282	0.0678433
3294	0.0691011
3306	0.069323
3318	0.0705807
3330	0.0699889
3342	0.0698409
3354	0.0700628
3366	0.0716165
3378	0.0744279
3390	0.0803466
3402	0.105057
3414	0.16639
3426	0.147524
3438	0.105945
3450	0.0807165
3462	0.0769434
3474	0.0808645
3486	0.0884849
3498	0.119188
3510	0.138572
3522	0.121556
3534	0.106093
3546	0.0829361
3558	0.0793848
3570	0.074206
3582	0.0769434
3594	0.0782011
3606	0.0759076
3618	0.0720604
3630	0.0724303
3642	0.0735401
3654	0.074206
3666	0.073836
3678	0.0768694
3690	0.0744279
3702	0.0719864
3714	0.0706547
3726	0.0698409
3738	0.0691011
3750	0.0677693
3762	0.0676214
3774	0.0683612
3786	0.0665116
3798	0.0668076
3810	0.0706547
3822	0.0719864
3834	0.0700628
3846	0.0733921
3858	0.0743539
3870	0.0721344
3882	0.0734661
3894	0.0749458
3906	0.0756856
3918	0.0750938
3930	0.078793
3942	0.0751677
3954	0.0768694
3966	0.0723564
