Infrared Spectrum: Benzenamine, 2,4,6-trichloro-
Formula: C 6 H 4 Cl 3 N
CAS: 634-93-5
Origin: Sadtler Research Labs Under US-EPA Contract
1/CM	ABSORBANCE
450	0
462	0.06601
474	0.0792909
486	0.0578574
498	0.0491788
510	0.0370813
522	0.0420781
534	0.0373443
546	0.0366868
558	0.0920458
570	0.0604872
582	0.0493103
594	0.0472063
606	0.0525976
618	0.0528606
630	0.0615392
642	0.0715327
654	0.0850766
666	0.109666
678	0.124393
690	0.133729
702	0.186458
714	0.252205
726	0.299412
738	0.190535
750	0.0744256
762	0.054833
774	0.126497
786	0.339518
798	0.227485
810	0.172652
822	0.0574629
834	0.0481268
846	0.0779759
858	0.314139
870	0.33623
882	0.0970426
894	0.0541755
906	0.042867
918	0.0390537
930	0.0366868
942	0.0351089
954	0.0357664
966	0.033268
978	0.0315586
990	0.0293232
1002	0.0310326
1014	0.033005
1026	0.0339255
1038	0.0399742
1050	0.0641691
1062	0.127418
1074	0.163316
1086	0.120974
1098	0.202369
1110	0.12939
1122	0.0495732
1134	0.0389222
1146	0.0414206
1158	0.0328735
1170	0.031953
1182	0.0410261
1194	0.0760035
1206	0.0708753
1218	0.0916513
1230	0.0620652
1242	0.0347144
1254	0.0362923
1266	0.04313
1278	0.0798169
1290	0.108351
1302	0.0623282
1314	0.0290602
1326	0.0255098
1338	0.0252468
1350	0.0295862
1362	0.0452339
1374	0.0614077
1386	0.119528
1398	0.17515
1410	0.112559
1422	0.162264
1434	0.115715
1446	0.212626
1458	0.442609
1470	1.31494
1482	0.539125
1494	0.113611
1506	0.0596983
1518	0.0462859
1530	0.0469434
1542	0.0808688
1554	0.251548
1566	0.418414
1578	0.261147
1590	0.211574
1602	0.16897
1614	0.331365
1626	0.321766
1638	0.12939
1650	0.0812633
1662	0.055622
1674	0.0419466
1686	0.0353719
1698	0.0355034
1710	0.0456284
1722	0.0708753
1734	0.0514142
1746	0.0370813
1758	0.0340569
1770	0.0323475
1782	0.0299806
1794	0.0297176
1806	0.0295862
1818	0.0289287
1830	0.0291917
1842	0.0286657
1854	0.0298491
1866	0.0301121
1878	0.0297176
1890	0.0295862
1902	0.0290602
1914	0.0286657
1926	0.0302436
1938	0.0306381
1950	0.0297176
1962	0.0286657
1974	0.0286657
1986	0.0290602
1998	0.0293232
2010	0.0291917
2022	0.0278767
2034	0.0273508
2046	0.0270878
2058	0.0273508
2070	0.0277452
2082	0.0281397
2094	0.0278767
2106	0.0277452
2118	0.0272193
2130	0.0277452
2142	0.0278767
2154	0.0280082
2166	0.0278767
2178	0.0280082
2190	0.0276137
2202	0.0272193
2214	0.0270878
2226	0.0270878
2238	0.0270878
2250	0.0272193
2262	0.0276137
2274	0.0285342
2286	0.0293232
2298	0.0291917
2310	0.0284027
2322	0.0291917
2334	0.0287972
2346	0.0301121
2358	0.0269563
2370	0.0276137
2382	0.0266933
2394	0.0256413
2406	0.0259043
2418	0.0262988
2430	0.0261673
2442	0.0256413
2454	0.0257728
2466	0.0268248
2478	0.0276137
2490	0.0287972
2502	0.0291917
2514	0.0290602
2526	0.0270878
2538	0.0270878
2550	0.0274822
2562	0.0282712
2574	0.0301121
2586	0.0299806
2598	0.0282712
2610	0.0274822
2622	0.0268248
2634	0.0270878
2646	0.0269563
2658	0.0274822
2670	0.0274822
2682	0.0281397
2694	0.0277452
2706	0.0272193
2718	0.0264303
2730	0.0257728
2742	0.0264303
2754	0.0265618
2766	0.0261673
2778	0.0255098
2790	0.0256413
2802	0.0252468
2814	0.0259043
2826	0.0269563
2838	0.0297176
2850	0.0315586
2862	0.0291917
2874	0.0278767
2886	0.0284027
2898	0.0294547
2910	0.0286657
2922	0.0268248
2934	0.0270878
2946	0.0268248
2958	0.0259043
2970	0.0261673
2982	0.0259043
2994	0.0265618
3006	0.0262988
3018	0.0270878
3030	0.0274822
3042	0.0262988
3054	0.0270878
3066	0.0270878
3078	0.0277452
3090	0.0303751
3102	0.0290602
3114	0.0287972
3126	0.0278767
3138	0.0299806
3150	0.0312956
3162	0.0301121
3174	0.0315586
3186	0.0309011
3198	0.0282712
3210	0.0273508
3222	0.0276137
3234	0.0266933
3246	0.0268248
3258	0.0266933
3270	0.0265618
3282	0.0264303
3294	0.0266933
3306	0.0272193
3318	0.0264303
3330	0.0257728
3342	0.0260358
3354	0.0265618
3366	0.0280082
3378	0.0326105
3390	0.0469434
3402	0.0898104
3414	0.192376
3426	0.172783
3438	0.0650895
3450	0.0405002
3462	0.0389222
3474	0.044445
3486	0.0606187
3498	0.100461
3510	0.175413
3522	0.189746
3534	0.0844191
3546	0.0486528
3558	0.0362923
3570	0.032742
3582	0.0299806
3594	0.0290602
3606	0.0276137
3618	0.0259043
3630	0.0280082
3642	0.0261673
3654	0.0282712
3666	0.0265618
3678	0.0270878
3690	0.0270878
3702	0.0295862
3714	0.0311641
3726	0.0301121
3738	0.0305066
3750	0.032742
3762	0.0293232
3774	0.0295862
3786	0.0297176
3798	0.0314271
3810	0.0312956
3822	0.033268
3834	0.0326105
3846	0.033268
3858	0.033794
3870	0.0348459
3882	0.0365553
3894	0.0339255
3906	0.0357664
3918	0.0341884
3930	0.0315586
3942	0.0307696
3954	0.0357664
3966	0.0374758
