Infrared Spectrum: Benzenamine, 3,4,5-trichloro-
Formula: C 6 H 4 Cl 3 N
CAS: 634-91-3
Origin: Sadtler Research Labs Under US-EPA Contract
1/CM	ABSORBANCE
450	0.158173
462	0.0718075
474	0.0441036
486	0.0368672
498	0.0283462
510	0.0323283
522	0.0424764
534	0.0366959
546	0.0384943
558	0.0325424
570	0.0216664
582	0.0408065
594	0.0521964
606	0.0279608
618	0.0348975
630	0.0554934
642	0.178298
654	0.201378
666	0.102509
678	0.116939
690	0.126487
702	0.0789582
714	0.0712936
726	0.049927
738	0.0321142
750	0.0268475
762	0.0240643
774	0.0389653
786	0.0509974
798	0.128714
810	0.352871
822	0.136978
834	0.147554
846	0.159415
858	0.0670974
870	0.0268475
882	0.0255629
894	0.0222659
906	0.0143015
918	0.017042
930	0.0307012
942	0.0609743
954	0.0620447
966	0.0142159
978	0.00800715
990	0.0145585
1002	0.0152007
1014	0.012546
1026	0.0126744
1038	0.0150295
1050	0.01443
1062	0.018455
1074	0.0255629
1086	0.0264193
1098	0.0278323
1110	0.0416201
1122	0.04967
1134	0.0665407
1146	0.159886
1158	0.204289
1170	0.0348118
1182	0.0456451
1194	0.0619163
1206	0.0114327
1218	0.00749332
1230	0.00475291
1242	0.0166566
1254	0.0576772
1266	0.113299
1278	0.0554934
1290	0.0452169
1302	0.0233364
1314	0.00757896
1326	0.00899199
1338	0.0113899
1350	0.0116896
1362	0.0232935
1374	0.0233364
1386	0.0190116
1398	0.0435469
1410	0.186391
1422	0.284404
1434	0.326195
1446	0.294809
1458	0.126787
1470	0.0344265
1482	0.0281321
1494	0.0225228
1506	0.0214951
1518	0.0453881
1530	0.0732633
1542	0.0641
1554	0.165239
1566	0.265092
1578	0.153635
1590	0.34525
1602	0.321528
1614	0.286031
1626	0.42819
1638	0.27858
1650	0.0865372
1662	0.0333988
1674	0.0329278
1686	0.0331419
1698	0.026505
1710	0.0190116
1722	0.011818
1734	0.0118609
1746	0.00809279
1758	0.0067654
1770	0.00796433
1782	0.00629439
1794	0.00727923
1806	0.00548083
1818	0.00389653
1830	0.00235505
1842	0.00149866
1854	0.00239786
1866	0.00274042
1878	0.00128457
1890	0.00201249
1902	0.00166994
1914	0.00226941
1926	0.00402499
1938	0.0033827
1950	0.00342552
1962	0.00325424
1974	0.00235505
1986	0.00316861
1998	0.00265478
2010	0.00265478
2022	0.00244068
2034	0.00265478
2046	0.00209813
2058	0.00209813
2070	0.00256914
2082	0.000556647
2094	0.00132739
2106	0.00141303
2118	0.000599466
2130	0.000727923
2142	0.000942018
2154	0.00128457
2166	0.00154148
2178	0.00218377
2190	0.00265478
2202	0.00154148
2214	0.00256914
2226	0.00291169
2238	0.00295451
2250	0.00239786
2262	0.00132739
2274	0.00274042
2286	0.00325424
2298	0.00398217
2310	0.0035968
2322	0.00325424
2334	0.00209813
2346	0.00509546
2358	0.00368243
2370	0.00543801
2382	0.00535237
2394	0.00214095
2406	0.00274042
2418	0.00188404
2430	0.00209813
2442	0.00244068
2454	0.00162712
2466	0.00196967
2478	0.00141303
2490	0.00141303
2502	0.00042819
2514	0.000642285
2526	0.000727923
2538	0.00145585
2550	0.00214095
2562	0.004496
2574	0.00522392
2586	0.00411062
2598	0.00256914
2610	0.00252632
2622	0.00205531
2634	0.00261196
2646	0.00218377
2658	0.00235505
2670	0.00419626
2682	0.00578056
2694	0.00629439
2706	0.00612312
2718	0.00475291
2730	0.00526674
2742	0.00402499
2754	0.00226941
2766	0.00244068
2778	0.00222659
2790	0.00244068
2802	0.00252632
2814	0.00419626
2826	0.00488137
2838	0.0026976
2850	0.00107047
2862	0.00171276
2874	0.00115611
2886	0.00149866
2898	0.00124175
2910	0.00188404
2922	0.0024835
2934	0.00291169
2946	0.00107047
2958	0.00128457
2970	0.0017984
2982	0.00175558
2994	0.00132739
3006	0.00205531
3018	0.00107047
3030	0.00201249
3042	0.00325424
3054	0.00685104
3066	0.0190973
3078	0.0156289
3090	0.00244068
3102	0.00368243
3114	0.00398217
3126	0.00346834
3138	0.00201249
3150	0.00184122
3162	0.0017984
3174	0.00162712
3186	0.00218377
3198	0.0040678
3210	0.00680822
3222	0.0085638
3234	0.00903481
3246	0.00638003
3258	0.00278323
3270	0.0035968
3282	0.00274042
3294	0.00411062
3306	0.00351116
3318	0.00265478
3330	0.00411062
3342	0.00342552
3354	0.004496
3366	0.00796433
3378	0.0101481
3390	0.0174273
3402	0.032885
3414	0.0641429
3426	0.0717646
3438	0.0620447
3450	0.01443
3462	0.009463
3474	0.0120321
3486	0.0227369
3498	0.0361392
3510	0.0313863
3522	0.0365674
3534	0.0217521
3546	0.00492418
3558	0.00376807
3570	0.00488137
3582	0.00740769
3594	0.0106191
3606	0.0117752
3618	0.00612312
3630	0.00329706
3642	0.00222659
3654	0.00192685
3666	0.00530956
3678	0.00599466
3690	0.00599466
3702	0.00663694
3714	0.00261196
3726	0.00214095
3738	0.00509546
3750	0.00432472
3762	0.00381089
3774	0.00642285
3786	0.00539519
3798	0.00282605
3810	0.00265478
3822	0.00278323
3834	0.00355398
3846	0.00822125
3858	0.0101909
3870	0.00505264
3882	0.00873508
3894	0.00740769
3906	0.00308297
3918	0.00171276
3930	0.0024835
3942	0.00363961
3954	0.00689386
3966	0.00526674
