Infrared Spectrum: Quinoline, 2-chloro-4-methyl-
Formula: C 10 H 8 Cl N
CAS: 634-47-9
Origin: Sadtler Research Labs Under US-EPA Contract
1/CM	ABSORBANCE
450	0
462	0.0321571
474	0.0233335
486	0.0114217
498	0.0286767
510	0.0242649
522	0.0250982
534	0.0227453
546	0.00534318
558	0.0103922
570	0.0102942
582	0.019706
594	0.083432
606	0.105197
618	0.0166668
630	0.00848046
642	0.00754908
654	0.0051471
666	0.00534318
678	0.00715692
690	0.00926478
702	0.0102942
714	0.0120099
726	0.0164217
738	0.0450984
750	0.271179
762	0.282698
774	0.0531377
786	0.0162746
798	0.0137746
810	0.0153923
822	0.0127942
834	0.0215198
846	0.121226
858	0.226619
870	0.0705398
882	0.0448533
894	0.230002
906	0.420494
918	0.0387748
930	0.019608
942	0.0281865
954	0.0325493
966	0.0184315
978	0.0175492
990	0.0287747
1002	0.0212747
1014	0.0228433
1026	0.0258335
1038	0.022108
1050	0.022108
1062	0.0213727
1074	0.0407846
1086	0.0908831
1098	0.302895
1110	0.167894
1122	0.039314
1134	0.0311767
1146	0.234806
1158	0.181521
1170	0.0605887
1182	0.017157
1194	0.0144609
1206	0.0156864
1218	0.0300002
1230	0.0395591
1242	0.0248041
1254	0.0445592
1266	0.0571083
1278	0.0668633
1290	0.343679
1302	0.386523
1314	0.138531
1326	0.0402944
1338	0.0283336
1350	0.0277453
1362	0.029363
1374	0.0376964
1386	0.0549514
1398	0.0761771
1410	0.108775
1422	0.0863242
1434	0.0520102
1446	0.097991
1458	0.137697
1470	0.0796575
1482	0.0480886
1494	0.0812261
1506	0.142599
1518	0.119266
1530	0.0488729
1542	0.0870105
1554	0.302846
1566	0.359513
1578	0.228335
1590	0.418484
1602	0.392748
1614	0.12853
1626	0.0571083
1638	0.0260786
1650	0.0158335
1662	0.0155393
1674	0.0157844
1686	0.0129413
1698	0.0238237
1710	0.0334807
1722	0.0236767
1734	0.014657
1746	0.0140687
1758	0.0158825
1770	0.0131374
1782	0.0106373
1794	0.0136766
1806	0.0193629
1818	0.0193629
1830	0.0173041
1842	0.0163727
1854	0.0126472
1866	0.0104413
1878	0.0120589
1890	0.014755
1902	0.0183825
1914	0.0150982
1926	0.019608
1938	0.0167648
1950	0.022157
1962	0.0192158
1974	0.0118628
1986	0.0108824
1998	0.0113726
2010	0.0117648
2022	0.0106373
2034	0.0106373
2046	0.0118138
2058	0.0119609
2070	0.012206
2082	0.0119119
2094	0.0111275
2106	0.0115687
2118	0.0120099
2130	0.0106864
2142	0.0100491
2154	0.0102942
2166	0.0100001
2178	0.0102452
2190	0.0105883
2202	0.0106864
2214	0.0110785
2226	0.0106864
2238	0.0104903
2250	0.0109315
2262	0.00946086
2274	0.00901968
2286	0.00779418
2298	0.00455886
2310	0.0029412
2322	0.00671574
2334	0.00803928
2346	0.0044118
2358	0.0090687
2370	0.00740202
2382	0.00598044
2394	0.009804
2406	0.0103432
2418	0.0100981
2430	0.00887262
2442	0.0088236
2454	0.00901968
2466	0.0095589
2478	0.0100491
2490	0.0093138
2502	0.00818634
2514	0.00852948
2526	0.00862752
2538	0.00867654
2550	0.0090687
2562	0.00887262
2574	0.0085785
2586	0.0095589
2598	0.009804
2610	0.0093138
2622	0.0093138
2634	0.00916674
2646	0.00843144
2658	0.0085785
2670	0.00926478
2682	0.009804
2694	0.009804
2706	0.0095589
2718	0.00901968
2730	0.0095589
2742	0.00995106
2754	0.0103432
2766	0.00921576
2778	0.0100491
2790	0.0101471
2802	0.0104903
2814	0.0119609
2826	0.0133334
2838	0.0135785
2850	0.0156374
2862	0.0214708
2874	0.029363
2886	0.029461
2898	0.0266179
2910	0.0280885
2922	0.0356375
2934	0.0631868
2946	0.0577946
2958	0.0463729
2970	0.0551475
2982	0.0541671
2994	0.0625495
3006	0.0397062
3018	0.0311277
3030	0.0320591
3042	0.04402
3054	0.0475004
3066	0.0811281
3078	0.173923
3090	0.11206
3102	0.0424023
3114	0.0252453
3126	0.0197551
3138	0.0180394
3150	0.017108
3162	0.0162256
3174	0.0160786
3186	0.0150491
3198	0.0145589
3210	0.0143629
3222	0.0143629
3234	0.0142158
3246	0.0137256
3258	0.0129903
3270	0.0131374
3282	0.0124021
3294	0.0125491
3306	0.0125001
3318	0.0121079
3330	0.0119609
3342	0.0116668
3354	0.0115197
3366	0.0108334
3378	0.0107844
3390	0.0102452
3402	0.009804
3414	0.00936282
3426	0.00950988
3438	0.00965694
3450	0.0088236
3462	0.00887262
3474	0.00901968
3486	0.00740202
3498	0.00877458
3510	0.00803928
3522	0.0083334
3534	0.00740202
3546	0.00671574
3558	0.007353
3570	0.00607848
3582	0.00887262
3594	0.00700986
3606	0.00818634
3618	0.0071079
3630	0.00715692
3642	0.00745104
3654	0.00607848
3666	0.00852948
3678	0.00764712
3690	0.0090687
3702	0.0085785
3714	0.00617652
3726	0.00696084
3738	0.00789222
3750	0.00549024
3762	0.00436278
3774	0.00627456
3786	0.0071079
3798	0.014657
3810	0.00558828
3822	0.00892164
3834	0.0107844
3846	0.00421572
3858	0.00299022
3870	0.00965694
3882	0.00789222
3894	0.0103432
3906	0.0041667
3918	0.0102942
3930	0.00946086
3942	0.00803928
3954	0.00794124
3966	0.00740202
