Infrared Spectrum: Quinoline, 1,2,3,4-tetrahydro-
Formula: C 9 H 11 N
CAS: 635-46-1
Origin: Sadtler Research Labs Under US-EPA Contract
1/CM	ABSORBANCE
450	0.0297275
462	0.0605168
474	0.0596481
486	0.0664044
498	0.0653427
510	0.0757666
522	0.0807856
534	0.0762492
546	0.0711338
558	0.0654392
570	0.0481625
582	0.0432401
594	0.0466182
606	0.0357117
618	0.0264459
630	0.0286658
642	0.0498033
654	0.0730641
666	0.0692034
678	0.0626402
690	0.0584899
702	0.0798204
714	0.15134
726	0.26417
738	0.488092
750	0.435586
762	0.176821
774	0.0591655
786	0.0448809
798	0.0521197
810	0.0450739
822	0.0470043
834	0.0307892
846	0.016022
858	0.0149603
870	0.0243225
882	0.0232608
894	0.00675626
906	0.00347465
918	0.0109065
930	0.0274111
942	0.0135125
954	0.00569456
966	0.00250947
978	0.00250947
990	0.0103274
1002	0.0566561
1014	0.0605168
1026	0.0256738
1038	0.0225852
1050	0.00164081
1062	0.00637019
1074	0.0326231
1086	0.0817507
1098	0.107618
1110	0.0727746
1122	0.0726781
1134	0.042854
1146	0.0465217
1158	0.0519267
1170	0.0549187
1182	0.0971936
1194	0.099317
1206	0.0607098
1218	0.0303067
1230	0.0369664
1242	0.107618
1254	0.32459
1266	0.404024
1278	0.209155
1290	0.237627
1302	0.502569
1314	0.410588
1326	0.0936225
1338	0.113409
1350	0.252974
1362	0.311174
1374	0.110224
1386	0.0297275
1398	0.024033
1410	0.0258668
1422	0.043047
1434	0.0848393
1446	0.170451
1458	0.234732
1470	0.35036
1482	0.603044
1494	0.781506
1506	0.699369
1518	0.260888
1530	0.0580073
1542	0.0415993
1554	0.0389933
1566	0.0701686
1578	0.192457
1590	0.305866
1602	0.399198
1614	0.388775
1626	0.143715
1638	0.0354221
1650	0.0271216
1662	0.0273146
1674	0.0276041
1686	0.018821
1698	0.0135125
1710	0.0075284
1722	0.00781796
1734	0.0139951
1746	0.0176628
1758	0.0221026
1770	0.0213305
1782	0.0170837
1794	0.0169872
1806	0.010617
1818	0.00617715
1830	0.00772144
1842	0.00936225
1854	0.00907269
1866	0.0121613
1878	0.0222957
1890	0.02162
1902	0.0172767
1914	0.0235504
1926	0.0110031
1938	0.00308858
1950	0.00231643
1962	0.00357117
1974	0.00347465
1986	0.00241295
1998	0.00241295
2010	0.0021234
2022	0.00318509
2034	0.00318509
2046	0.00183384
2058	0.000289554
2070	0.000675626
2082	0.00173732
2094	0.0027025
2106	0.00096518
2118	0.000386072
2130	0.00144777
2142	0.00154429
2154	0.0010617
2166	0.0010617
2178	0.00193036
2190	0.00221991
2202	0.00231643
2214	0.00308858
2226	0.00221991
2238	0.00202688
2250	0.0010617
2262	0
2274	0.00096518
2286	0.00154429
2298	0.00250947
2310	0.00665974
2322	0.00743189
2334	0.00550153
2346	0.00550153
2358	0.00405376
2370	0.000579108
2382	0.000579108
2394	0.00048259
2406	0.00241295
2418	0.0037642
2430	0.00434331
2442	0.00386072
2454	0.00424679
2466	0.0037642
2478	0.00221991
2490	0.00241295
2502	0.0027025
2514	0.00405376
2526	0.00405376
2538	0.00521197
2550	0.00994135
2562	0.0147673
2574	0.0125473
2586	0.00781796
2598	0.0075284
2610	0.0101344
2622	0.0122578
2634	0.013609
2646	0.0139951
2658	0.0176628
2670	0.0194001
2682	0.0181454
2694	0.0196897
2706	0.0233574
2718	0.0208479
2730	0.0175663
2742	0.0201723
2754	0.0267355
2766	0.0412132
2778	0.0633158
2790	0.0723885
2802	0.0735467
2814	0.116594
2826	0.214849
2838	0.328258
2850	0.425065
2862	0.407692
2874	0.274401
2886	0.192457
2898	0.209251
2910	0.236952
2922	0.364935
2934	0.658639
2946	0.913253
2958	0.817218
2970	0.328933
2982	0.110127
2994	0.0745119
3006	0.119586
3018	0.235311
3030	0.260406
3042	0.177786
3054	0.221895
3066	0.275848
3078	0.185025
3090	0.116111
3102	0.0631228
3114	0.0272181
3126	0.0150568
3138	0.00781796
3150	0.00550153
3162	0.00598412
3174	0.00550153
3186	0.00540501
3198	0.00434331
3210	0.00463286
3222	0.00299206
3234	0.00328161
3246	0.00395724
3258	0.00521197
3270	0.00347465
3282	0.00231643
3294	0.00115822
3306	0.000579108
3318	0.0021234
3330	0.0027025
3342	0.00231643
3354	0.00328161
3366	0.00279902
3378	0.00472938
3390	0.00405376
3402	0.00559804
3414	0.01081
3426	0.0311753
3438	0.0719059
3450	0.0764423
3462	0.0353256
3474	0.0139951
3486	0.00984484
3498	0.00772144
3510	0.00907269
3522	0.0105205
3534	0.00974832
3546	0.00704581
3558	0.00762492
3570	0.00714233
3582	0.00559804
3594	0.00878314
3606	0.0075284
3618	0.00907269
3630	0.00781796
3642	0.00801099
3654	0.00926573
3666	0.00810751
3678	0.00675626
3690	0.00916921
3702	0.00916921
3714	0.00955528
3726	0.00984484
3738	0.00781796
3750	0.0107135
3762	0.0137056
3774	0.00781796
3786	0.00723885
3798	0.0116787
3810	0.0110996
3822	0.0140916
3834	0.0119682
3846	0.00974832
3858	0.0131264
3870	0.0122578
3882	0.0140916
3894	0.013416
3906	0.0107135
3918	0.00936225
3930	0.0156359
3942	0.0102309
3954	0.00974832
3966	0.0112926
