Infrared Spectrum: Benzoic acid, 2-amino-5-chloro-
Formula: C 7 H 6 Cl N O 2
CAS: 635-21-2
Origin: Sadtler Research Labs Under US-EPA Contract
1/CM	ABSORBANCE
450	0.0489721
462	0.0738186
474	0.0701181
486	0.0595451
498	0.067571
510	0.0720885
522	0.085545
534	0.0852567
546	0.105682
558	0.126107
570	0.152107
582	0.0828057
594	0.0611791
606	0.052913
618	0.0531052
630	0.0645432
642	0.100347
654	0.087996
666	0.0979442
678	0.131153
690	0.0488279
702	0.0433973
714	0.0340258
726	0.0222513
738	0.0288835
750	0.0347467
762	0.0367651
774	0.030133
786	0.0308539
798	0.0282106
810	0.0643991
822	0.0823731
834	0.0416672
846	0.0241737
858	0.0232125
870	0.0307578
882	0.0375821
894	0.0272495
906	0.0276339
918	0.0169648
930	0.0169648
942	0.0128318
954	0.0121589
966	0.0111016
978	0.00980404
990	0.0107172
1002	0.00788168
1014	0.00408502
1026	0.00557484
1038	0.01956
1050	0.0576708
1062	0.0938112
1074	0.101116
1086	0.083046
1098	0.0662253
1110	0.139323
1122	0.18916
1134	0.0865543
1146	0.0665137
1158	0.144754
1170	0.254184
1182	0.273744
1194	0.0851605
1206	0.0487318
1218	0.0449832
1230	0.0402254
1242	0.0490682
1254	0.0568057
1266	0.0427725
1278	0.043205
1290	0.0563732
1302	0.0841994
1314	0.0743953
1326	0.0648796
1338	0.0806911
1350	0.0866504
1362	0.0501736
1374	0.0664656
1386	0.0612272
1398	0.0315748
1410	0.0411866
1422	0.0457522
1434	0.0308058
1446	0.0206654
1458	0.0355156
1470	0.0691088
1482	0.157441
1494	0.16441
1506	0.0648316
1518	0.0344102
1530	0.026913
1542	0.0396487
1554	0.0760774
1566	0.0974637
1578	0.0858334
1590	0.13519
1602	0.124281
1614	0.15129
1626	0.1795
1638	0.0703584
1650	0.03095
1662	0.0185508
1674	0.0336894
1686	0.0471939
1698	0.0518557
1710	0.0742992
1722	0.248561
1734	0.471411
1746	0.132162
1758	0.0698297
1770	0.0344583
1782	0.0206173
1794	0.0254713
1806	0.0147541
1818	0.00624767
1830	0.00595932
1842	0.00370054
1854	0.00408502
1866	0.00466172
1878	0.00278742
1890	0.00624767
1902	0.00547873
1914	0.0039889
1926	0.00370054
1938	0.00206654
1950	0.00297966
1962	0.00096118
1974	0
1986	0.00148983
1998	0.000817003
2010	0.00177818
2022	0.000865062
2034	0.00124953
2046	0.00230683
2058	0.00278742
2070	0.00173012
2082	0.00278742
2094	0.00115342
2106	0.00312384
2118	0.00264325
2130	0.00225877
2142	0.00192236
2154	0.00370054
2166	0.00307578
2178	0.00245101
2190	0.00264325
2202	0.00221071
2214	0.00120148
2226	0.00134565
2238	0.00134565
2250	0.00144177
2262	0.00144177
2274	0.00225877
2286	0.00346025
2298	0.00696856
2310	0.0109575
2322	0.010573
2334	0.00696856
2346	0.0124473
2358	0.00994821
2370	0.00682438
2382	0.0077375
2394	0.00283548
2406	0.00254713
2418	0.00201848
2430	0.0021146
2442	0.00245101
2454	0.00264325
2466	0.00278742
2478	0.00259519
2490	0.00278742
2502	0.00173012
2514	0.00134565
2526	0.0018743
2538	0.00158595
2550	0.00129759
2562	0.00254713
2574	0.00331607
2586	0.0026913
2598	0.00288354
2610	0.00379666
2622	0.00403696
2634	0.00326801
2646	0.00312384
2658	0.00350831
2670	0.00422919
2682	0.00365248
2694	0.00384472
2706	0.00394084
2718	0.0039889
2730	0.00350831
2742	0.00499814
2754	0.00408502
2766	0.00302772
2778	0.00389278
2790	0.00470978
2802	0.00384472
2814	0.00403696
2826	0.00346025
2838	0.00446949
2850	0.00355637
2862	0.00437337
2874	0.00519037
2886	0.00519037
2898	0.00394084
2910	0.00456561
2922	0.0021146
2934	0.00427725
2946	0.00490202
2958	0.0029316
2970	0.00427725
2982	0.00581514
2994	0.00567096
3006	0.00754526
3018	0.00860256
3030	0.0134085
3042	0.0159075
3054	0.0144658
3066	0.0126876
3078	0.0153308
3090	0.01139
3102	0.00927539
3114	0.00768944
3126	0.00600738
3138	0.00677632
3150	0.00600738
3162	0.00619961
3174	0.00740109
3186	0.00629573
3198	0.00547873
3210	0.00461366
3222	0.0056229
3234	0.00456561
3246	0.00470978
3258	0.00571902
3270	0.00552679
3282	0.00687244
3294	0.00937151
3306	0.0129279
3318	0.0139852
3330	0.0124953
3342	0.0125434
3354	0.0155711
3366	0.018695
3378	0.0384472
3390	0.10299
3402	0.0671384
3414	0.0182624
3426	0.0142255
3438	0.0168206
3450	0.0142735
3462	0.00999627
3474	0.0117264
3486	0.0160036
3498	0.0242698
3510	0.0359481
3522	0.0509425
3534	0.039889
3546	0.0167726
3558	0.00788168
3570	0.0337374
3582	0.14336
3594	0.124233
3606	0.00730497
3618	0.00341219
3630	0.00495008
3642	0.00139371
3654	0.00845838
3666	0.00365248
3678	0.0069205
3690	0.0105249
3702	0.00677632
3714	0.00927539
3726	0.00917927
3738	0.00744914
3750	0.016292
3762	0.00980404
3774	0.0101404
3786	0.00826615
3798	0.0105249
3810	0.00326801
3822	0.0137449
3834	0.0110536
3846	0.00980404
3858	0.0125915
3870	0.00812197
3882	0.00629573
3894	0.00720885
3906	0.011438
3918	0.0128318
3930	0.00768944
3942	0.00523843
3954	0.00797779
3966	0.00922733
