Infrared Spectrum: Benzene, 1,2,4,5-tetrabromo-
Formula: C 6 H 2 Br 4
CAS: 636-28-2
Origin: Sadtler Research Labs Under US-EPA Contract
1/CM	ABSORBANCE
450	0.0279051
462	0.00621702
474	0.0108977
486	0.0121482
498	0.0108977
510	0.0301204
522	0.103438
534	0.0250467
546	0.0127556
558	0.0173648
570	0.0128271
582	0.00585972
594	0.0107547
606	0.00950418
618	0.0151138
630	0.0116122
642	0.0135059
654	0.00696735
666	0.0106833
678	0.0122911
690	0.0100044
702	0.0109691
714	0.0193299
726	0.0125412
738	0.0132558
750	0.0141848
762	0.0157927
774	0.0172219
786	0.0102545
798	0.0124698
810	0.0117552
822	0.00871812
834	0.0112192
846	0.0107905
858	0.0102902
870	0.0247252
882	0.0979002
894	0.014292
906	0.0089325
918	0.00925407
930	0.0102545
942	0.0100044
954	0.0104332
966	0.00778914
978	0.0112192
990	0.0140062
1002	0.0129343
1014	0.0762835
1026	0.3573
1038	0.0267975
1050	0.0133987
1062	0.0167574
1074	0.0120053
1086	0.0156855
1098	0.056239
1110	0.107726
1122	0.0518442
1134	0.0112549
1146	0.010183
1158	0.00878958
1170	0.00846801
1182	0.0137918
1194	0.0231173
1206	0.00800352
1218	0.00979002
1230	0.0120767
1242	0.0115051
1254	0.0165073
1266	0.0126484
1278	0.0184367
1290	0.075033
1302	0.105546
1314	0.0376951
1326	0.0207949
1338	0.0117552
1350	0.0089325
1362	0.00993294
1374	0.0113264
1386	0.0109334
1398	0.0206877
1410	0.104903
1422	0.229208
1434	0.0731393
1446	0.113729
1458	0.0523087
1470	0.0085752
1482	0.00800352
1494	0.00839655
1506	0.0108619
1518	0.00818217
1530	0.00825363
1542	0.00725319
1554	0.00850374
1566	0.00732465
1578	0.00589545
1590	0.0100759
1602	0.0064314
1614	0.00389457
1626	0.00843228
1638	0.0060741
1650	0.00603837
1662	0.00989721
1674	0.00603837
1686	0.00846801
1698	0.00628848
1710	0.00578826
1722	0.00646713
1734	0.0149709
1746	0.0110763
1758	0.00689589
1770	0.00668151
1782	0.00718173
1794	0.00514512
1806	0.00653859
1818	0.00657432
1830	0.00507366
1842	0.00657432
1854	0.00582399
1866	0.00546669
1878	0.00575253
1890	0.00560961
1902	0.00532377
1914	0.00625275
1926	0.00575253
1938	0.00546669
1950	0.00578826
1962	0.00528804
1974	0.00532377
1986	0.00521658
1998	0.00518085
2010	0.00468063
2022	0.00521658
2034	0.00450198
2046	0.0050022
2058	0.00493074
2070	0.00518085
2082	0.00518085
2094	0.00578826
2106	0.00521658
2118	0.00521658
2130	0.00485928
2142	0.00493074
2154	0.00471636
2166	0.00475209
2178	0.00485928
2190	0.00468063
2202	0.00457344
2214	0.00443052
2226	0.00453771
2238	0.00446625
2250	0.0042876
2262	0.00382311
2274	0.00389457
2286	0.00460917
2298	0.00453771
2310	0.00396603
2322	0.00382311
2334	0.00325143
2346	0.00225099
2358	0.00267975
2370	0.00289413
2382	0.00421614
2394	0.0039303
2406	0.00460917
2418	0.00439479
2430	0.00375165
2442	0.00332289
2454	0.00271548
2466	0.00303705
2478	0.00314424
2490	0.00303705
2502	0.0028584
2514	0.0025011
2526	0.00303705
2538	0.00300132
2550	0.00303705
2562	0.00314424
2574	0.0032157
2586	0.00225099
2598	0.00210807
2610	0.00221526
2622	0.00232245
2634	0.00232245
2646	0.00289413
2658	0.00310851
2670	0.0032157
2682	0.00289413
2694	0.00253683
2706	0.00275121
2718	0.00264402
2730	0.00339435
2742	0.0050022
2754	0.0050022
2766	0.00335862
2778	0.00300132
2790	0.00260829
2802	0.00278694
2814	0.00228672
2826	0.00239391
2838	0.0025011
2850	0.0021438
2862	0.00275121
2874	0.00253683
2886	0.00242964
2898	0.00278694
2910	0.00260829
2922	0.00314424
2934	0.00343008
2946	0.00378738
2958	0.00335862
2970	0.0032157
2982	0.00325143
2994	0.0028584
3006	0.00364446
3018	0.00253683
3030	0.00400176
3042	0.00382311
3054	0.00432333
3066	0.00468063
3078	0.00564534
3090	0.0112907
3102	0.00418041
3114	0.00307278
3126	0.00217953
3138	0.00325143
3150	0.00382311
3162	0.0028584
3174	0.00246537
3186	0.00228672
3198	0.00350154
3210	0.00278694
3222	0.00292986
3234	0.00303705
3246	0.00300132
3258	0.00307278
3270	0.00382311
3282	0.00360873
3294	0.00264402
3306	0.00314424
3318	0.00389457
3330	0.00271548
3342	0.00343008
3354	0.00325143
3366	0.00253683
3378	0.00289413
3390	0.00332289
3402	0.0032157
3414	0.003573
3426	0.00378738
3438	0.00364446
3450	0.00396603
3462	0.00525231
3474	0.00360873
3486	0.00485928
3498	0.00421614
3510	0.00600264
3522	0.00471636
3534	0.00446625
3546	0.0060741
3558	0.00457344
3570	0.00653859
3582	0.00335862
3594	0.00475209
3606	0.00228672
3618	0.00225099
3630	0.00407322
3642	0.00475209
3654	0.0067887
3666	0.00460917
3678	0.00400176
3690	0.00425187
3702	0.0053595
3714	0.00510939
3726	0.00621702
3738	0.00514512
3750	0.00192942
3762	0.00503793
3774	0.0050022
3786	0.00575253
3798	0.00568107
3810	0.00085752
3822	0.0046449
3834	0.00135774
3846	0.00210807
3858	0.00446625
3870	0.00378738
3882	0.00546669
3894	0.00343008
3906	0.00589545
3918	0.00339435
3930	0.00603837
3942	0.00518085
3954	0.00400176
3966	0.00385884
