Infrared Spectrum: 2-Pyridinealdoxime O-benzyl ether
Formula: C 13 H 12 N 2 O
CAS: 63680-93-3
Origin: Sadtler Research Labs Under US-EPA Contract
1/CM	ABSORBANCE
450	0
462	0.00790084
474	0.0121103
486	0.0170321
498	0.0242206
510	0.0557592
522	0.0824408
534	0.0578963
546	0.0423537
558	0.0224721
570	0.0140531
582	0.0196873
594	0.047146
606	0.0911835
618	0.0697476
630	0.0412528
642	0.0218892
654	0.047146
666	0.0834122
678	0.0844483
690	0.157434
702	0.165011
714	0.112425
726	0.139107
738	0.227441
750	0.220511
762	0.125313
774	0.152383
786	0.0627534
798	0.0411232
810	0.0276529
822	0.0305672
834	0.0284948
846	0.0352947
858	0.0786846
870	0.0467574
882	0.0323805
894	0.0527155
906	0.135286
918	0.279703
930	0.221871
942	0.265261
954	0.246675
966	0.170645
978	0.174531
990	0.26144
1002	0.32782
1014	0.422436
1026	0.621576
1038	0.630643
1050	0.471525
1062	0.2277
1074	0.136451
1086	0.116829
1098	0.0676752
1110	0.0264225
1122	0.019234
1134	0.0152188
1146	0.0565364
1158	0.0152836
1170	0.0156074
1182	0.0218892
1194	0.0339995
1206	0.0714961
1218	0.0406051
1230	0.0218245
1242	0.0326395
1254	0.0389861
1266	0.0275882
1278	0.0228606
1290	0.0431956
1302	0.0370433
1314	0.0484412
1326	0.0822465
1338	0.0826998
1350	0.0725323
1362	0.198816
1374	0.110223
1386	0.0290129
1398	0.017874
1410	0.0160607
1422	0.03523
1434	0.192534
1446	0.0841893
1458	0.110353
1470	0.248812
1482	0.0433899
1494	0.0481174
1506	0.0362662
1518	0.0199464
1530	0.0159312
1542	0.023314
1554	0.041188
1566	0.116894
1578	0.175243
1590	0.24104
1602	0.0759647
1614	0.0483765
1626	0.0224073
1638	0.0139236
1650	0.0128227
1662	0.0161902
1674	0.014636
1686	0.0273291
1698	0.022213
1710	0.0225368
1722	0.0320567
1734	0.0328338
1746	0.0150246
1758	0.0137293
1770	0.0147655
1782	0.0142474
1794	0.0184569
1806	0.018975
1818	0.0156074
1830	0.0157369
1842	0.0180036
1854	0.020335
1866	0.0259692
1878	0.0328986
1890	0.0209826
1902	0.0169026
1914	0.0186512
1926	0.0224721
1938	0.0218245
1950	0.0259692
1962	0.0198816
1974	0.0155426
1986	0.0110094
1998	0.00835417
2010	0.00770656
2022	0.00777132
2034	0.00725323
2046	0.00738275
2058	0.00744752
2070	0.00757704
2082	0.00718847
2094	0.00634658
2106	0.00615229
2118	0.00569897
2130	0.00602277
2142	0.00589325
2154	0.00621706
2166	0.00641134
2178	0.00777132
2190	0.00725323
2202	0.00686467
2214	0.00602277
2226	0.00654086
2238	0.00679991
2250	0.00699419
2262	0.00725323
2274	0.00841893
2286	0.010038
2298	0.0127579
2310	0.0130817
2322	0.0110741
2334	0.00887226
2346	0.010038
2358	0.0101675
2370	0.00790084
2382	0.00887226
2394	0.00608753
2406	0.00582849
2418	0.00628182
2430	0.00686467
2442	0.00712371
2454	0.00712371
2466	0.00712371
2478	0.00692943
2490	0.00686467
2502	0.00718847
2514	0.00718847
2526	0.00809512
2538	0.00803036
2550	0.00777132
2562	0.00744752
2574	0.0076418
2586	0.00790084
2598	0.00809512
2610	0.00854845
2622	0.00828941
2634	0.00809512
2646	0.00803036
2658	0.00809512
2670	0.00841893
2682	0.0091313
2694	0.00906654
2706	0.00984367
2718	0.0113979
2730	0.0112684
2742	0.0102322
2754	0.00919606
2766	0.00939034
2778	0.0106856
2790	0.0136646
2802	0.017874
2814	0.0184569
2826	0.0175502
2838	0.0195578
2850	0.0241559
2862	0.0430013
2874	0.0659915
2886	0.0637248
2898	0.0490241
2910	0.0527802
2922	0.0845779
2934	0.137876
2946	0.10284
2958	0.0751228
2970	0.0582201
2982	0.0369785
2994	0.0339995
3006	0.0582849
3018	0.111259
3030	0.126349
3042	0.153548
3054	0.153678
3066	0.199658
3078	0.235795
3090	0.119808
3102	0.0696828
3114	0.0401518
3126	0.0248035
3138	0.0175502
3150	0.0120455
3162	0.010038
3174	0.0102322
3186	0.00822465
3198	0.00738275
3210	0.00731799
3222	0.00699419
3234	0.00705895
3246	0.00699419
3258	0.00615229
3270	0.00628182
3282	0.00615229
3294	0.00667038
3306	0.00615229
3318	0.00692943
3330	0.00641134
3342	0.00667038
3354	0.00660562
3366	0.00628182
3378	0.00608753
3390	0.00576373
3402	0.00608753
3414	0.00615229
3426	0.00692943
3438	0.00692943
3450	0.00744752
3462	0.00660562
3474	0.00667038
3486	0.00712371
3498	0.00621706
3510	0.00686467
3522	0.00686467
3534	0.00731799
3546	0.00712371
3558	0.0064761
3570	0.00673514
3582	0.00692943
3594	0.00705895
3606	0.00738275
3618	0.00692943
3630	0.00822465
3642	0.0088075
3654	0.00997319
3666	0.00893702
3678	0.0107503
3690	0.00861321
3702	0.00777132
3714	0.00835417
3726	0.00738275
3738	0.0079656
3750	0.00900178
3762	0.00679991
3774	0.00628182
3786	0.00718847
3798	0.00751228
3810	0.00718847
3822	0.00731799
3834	0.00660562
3846	0.0064761
3858	0.0079656
3870	0.00803036
3882	0.00815989
3894	0.00951987
3906	0.00919606
3918	0.00848369
3930	0.0079656
3942	0.00900178
3954	0.00815989
3966	0.00815989
