Infrared Spectrum: Aniline, m-chloro-N,N-diethyl-,
Formula: C 10 H 14 Cl N
CAS: 6375-75-3
Origin: Sadtler Research Labs Under US-EPA Contract
1/CM	ABSORBANCE
450	0.0150701
462	0.0120202
474	0.0133657
486	0.00834238
498	0.00466456
510	0.00448515
522	0.0060998
534	0.00645862
546	0.00547188
558	0.00403664
570	0.00269109
582	0.00385723
594	0.0030499
606	0.00313961
618	0.00179406
630	0.00188376
642	0.00278079
654	0.00699683
666	0.0263727
678	0.0723006
690	0.0719418
702	0.0272697
714	0.0103158
726	0.00493367
738	0.00950852
750	0.0668287
762	0.187479
774	0.113654
786	0.061626
798	0.114102
810	0.0776828
822	0.0392002
834	0.0624333
846	0.0494264
858	0.0184788
870	0.00843208
882	0.00753505
894	0.00906
906	0.0253859
918	0.0901515
930	0.0705066
942	0.0242198
954	0.0134555
966	0.0144422
978	0.0384826
990	0.113115
1002	0.0670081
1014	0.126571
1026	0.11186
1038	0.0512204
1050	0.0392899
1062	0.0588452
1074	0.110066
1086	0.10576
1098	0.19932
1110	0.140654
1122	0.0441339
1134	0.0336386
1146	0.0544497
1158	0.0717624
1170	0.0688919
1182	0.108989
1194	0.158326
1206	0.100198
1218	0.0392002
1230	0.0363297
1242	0.0723006
1254	0.188735
1266	0.248118
1278	0.127289
1290	0.0577687
1302	0.0539115
1314	0.067367
1326	0.07248
1338	0.114551
1350	0.199051
1362	0.238789
1374	0.186941
1386	0.230357
1398	0.0993909
1410	0.0563335
1422	0.0557953
1434	0.0714036
1446	0.0828856
1458	0.110783
1470	0.19322
1482	0.38348
1494	0.554365
1506	0.240494
1518	0.0821679
1530	0.068264
1542	0.0761578
1554	0.116524
1566	0.234035
1578	0.245069
1590	0.735295
1602	0.701926
1614	0.216633
1626	0.0683537
1638	0.0318446
1650	0.0243095
1662	0.0192861
1674	0.0158774
1686	0.0134555
1698	0.0125584
1710	0.00699683
1722	0.00484396
1734	0.00780416
1746	0.0111232
1758	0.00879089
1770	0.00762476
1782	0.00663802
1794	0.00762476
1806	0.0060998
1818	0.00403664
1830	0.00448515
1842	0.00278079
1854	0.00152495
1866	0.00224258
1878	0.00143525
1890	0.00421604
1902	0.0101364
1914	0.00932911
1926	0.00511307
1938	0.00412634
1950	0.00322931
1962	0.00233228
1974	0.00197347
1986	0.00161465
1998	0.00170436
2010	0.00152495
2022	0.00224258
2034	0.00215287
2046	0.00197347
2058	0.00170436
2070	0.00161465
2082	0.00116614
2094	0.00116614
2106	0.00107644
2118	0.00116614
2130	0.00107644
2142	0.00134555
2154	0.00188376
2166	0.00260139
2178	0.00215287
2190	0.00206317
2202	0.00170436
2214	0.00134555
2226	0.00116614
2238	0.00152495
2250	0.00242198
2262	0.00367782
2274	0.00340871
2286	0.00251168
2298	0.00179406
2310	0.000448515
2322	0
2334	0.00161465
2346	0.00457485
2358	0.00331901
2370	0.00672773
2382	0.00421604
2394	0.00385723
2406	0.00430574
2418	0.00322931
2430	0.00322931
2442	0.00439545
2454	0.00493367
2466	0.00475426
2478	0.00475426
2490	0.00484396
2502	0.0058307
2514	0.00762476
2526	0.00923941
2538	0.00959822
2550	0.00807327
2562	0.00699683
2574	0.00762476
2586	0.00789386
2598	0.00735565
2610	0.00735565
2622	0.00744535
2634	0.00780416
2646	0.00798357
2658	0.00852179
2670	0.00879089
2682	0.0104055
2694	0.0115717
2706	0.0111232
2718	0.0112129
2730	0.0127378
2742	0.0146216
2754	0.0153392
2766	0.0161465
2778	0.0178509
2790	0.0213493
2802	0.0296917
2814	0.0472735
2826	0.0697889
2838	0.0787592
2850	0.0819885
2862	0.0874604
2874	0.117511
2886	0.163798
2898	0.140295
2910	0.12693
2922	0.132671
2934	0.188466
2946	0.240404
2958	0.159761
2970	0.252245
2982	0.439814
2994	0.233048
3006	0.0730182
3018	0.0437751
3030	0.0423398
3042	0.0426986
3054	0.0364194
3066	0.0337283
3078	0.0474529
3090	0.0607289
3102	0.0432368
3114	0.0224258
3126	0.0118408
3138	0.00870119
3150	0.00654832
3162	0.00538218
3174	0.00439545
3186	0.00412634
3198	0.0029602
3210	0.00197347
3222	0.00197347
3234	0.00161465
3246	0.00161465
3258	0.00170436
3270	0.00179406
3282	0.00152495
3294	0.00116614
3306	0.000807327
3318	0.000717624
3330	0.00134555
3342	0.000717624
3354	0.00089703
3366	0.00089703
3378	0.000358812
3390	8.9703e-05
3402	0.000627921
3414	0.00089703
3426	0.000717624
3438	0.00152495
3450	0.00116614
3462	0.00134555
3474	0.000807327
3486	0.000448515
3498	0.00089703
3510	0.000986733
3522	0.00125584
3534	0.000448515
3546	0.000179406
3558	0.000627921
3570	0.000807327
3582	0.000269109
3594	0.000627921
3606	0.000538218
3618	0.00089703
3630	0.00188376
3642	0.000538218
3654	0.000807327
3666	0
3678	0.000717624
3690	0.000627921
3702	0.00125584
3714	0.000269109
3726	0.00161465
3738	0.00143525
3750	0.00107644
3762	0.000627921
3774	0
3786	0.000358812
3798	0.000179406
3810	0
3822	0
3834	0.00107644
3846	0.000717624
3858	0.000807327
3870	0.00107644
3882	0.000179406
3894	8.9703e-05
3906	0.000179406
3918	0
3930	0.000986733
3942	8.9703e-05
3954	0
3966	8.9703e-05
