Infrared Spectrum: Cyclohexane, 1,3-dimethyl-, cis-
Formula: C 8 H 16
CAS: 638-04-0
Origin: Sadtler Research Labs Under US-EPA Contract
1/CM	ABSORBANCE
450	0.00439164
462	0.00292776
474	0.00292776
486	0.00624589
498	0.00204943
510	0.00322054
522	0.00331813
534	0.00136629
546	0.0048796
558	0.000683144
570	0.00195184
582	0.00439164
594	0.000585552
606	0.00312294
618	0.00331813
630	0.00146388
642	0.00292776
654	0.00312294
666	0.00234221
678	0.00322054
690	0.00331813
702	0.00322054
714	0.00351331
726	0.00292776
738	0.0037085
750	0.00283017
762	0.00283017
774	0.00292776
786	0.00273258
798	0.00341572
810	0.00458682
822	0.00770977
834	0.00800254
846	0.0097592
858	0.00907606
870	0.00712422
882	0.00653866
894	0.00497719
906	0.00507478
918	0.00585552
930	0.00868569
942	0.0152244
954	0.0181521
966	0.0106375
978	0.00790495
990	0.00819773
1002	0.0061483
1014	0.00575793
1026	0.00595311
1038	0.0060507
1050	0.00663626
1062	0.00741699
1074	0.00624589
1086	0.00575793
1098	0.00888087
1110	0.0108327
1122	0.00810014
1134	0.00556274
1146	0.00536756
1158	0.00683144
1170	0.00829532
1182	0.00712422
1194	0.00468442
1206	0.00478201
1218	0.00575793
1230	0.0061483
1242	0.0073194
1254	0.0136629
1266	0.0193232
1278	0.0144436
1290	0.00878328
1302	0.00917365
1314	0.00810014
1326	0.00751458
1338	0.0149316
1350	0.0274234
1362	0.0363042
1374	0.0462586
1386	0.0406959
1398	0.0158099
1410	0.00761218
1422	0.00888087
1434	0.0280089
1446	0.0804158
1458	0.120916
1470	0.0911509
1482	0.0328885
1494	0.0084905
1506	0.00409886
1518	0.00302535
1530	0.00283017
1542	0.0024398
1554	0.00224462
1566	0.00204943
1578	0.00204943
1590	0.0024398
1602	0.00292776
1614	0.00292776
1626	0.00273258
1638	0.00283017
1650	0.00273258
1662	0.00214702
1674	0.00322054
1686	0.00292776
1698	0.00312294
1710	0.00380609
1722	0.00722181
1734	0.0104423
1746	0.00800254
1758	0.00429405
1770	0.00341572
1782	0.00322054
1794	0.00273258
1806	0.00204943
1818	0.00136629
1830	0.0011711
1842	0.00165906
1854	0.000292776
1866	0.00097592
1878	0.000878328
1890	0.000195184
1902	9.7592e-05
1914	0.000780736
1926	0.000683144
1938	0
1950	0
1962	0
1974	0
1986	0
1998	0.00048796
2010	0.00048796
2022	0.00048796
2034	0.000390368
2046	0.000878328
2058	0.000195184
2070	0.000780736
2082	0.000780736
2094	0.000195184
2106	0.000780736
2118	0.000683144
2130	0.00097592
2142	0.00048796
2154	0.000683144
2166	0.00107351
2178	0.00048796
2190	0.00136629
2202	0.00136629
2214	0.00097592
2226	0.000292776
2238	0.000292776
2250	0.000390368
2262	0.000195184
2274	0.000878328
2286	0.00146388
2298	0.00195184
2310	0.00234221
2322	0.00146388
2334	0.00224462
2346	0.00351331
2358	0.0011711
2370	0.00478201
2382	0.00458682
2394	0.00234221
2406	0.00292776
2418	0.00341572
2430	0.00283017
2442	0.00234221
2454	0.00234221
2466	0.00234221
2478	0.00292776
2490	0.00253739
2502	0.00283017
2514	0.00292776
2526	0.00292776
2538	0.00234221
2550	0.00292776
2562	0.00341572
2574	0.00390368
2586	0.00546515
2598	0.00780736
2610	0.00917365
2622	0.0097592
2634	0.00985679
2646	0.0111255
2658	0.0103448
2670	0.00966161
2682	0.00917365
2694	0.00868569
2706	0.0108327
2718	0.0130773
2730	0.0157123
2742	0.0141508
2754	0.0110279
2766	0.0107351
2778	0.012199
2790	0.0192256
2802	0.0272282
2814	0.0301559
2826	0.0427453
2838	0.118184
2850	0.253544
2862	0.310733
2874	0.357675
2886	0.364311
2898	0.398566
2910	0.549443
2922	0.873253
2934	0.807574
2946	0.564862
2958	0.698076
2970	0.43448
2982	0.0809038
2994	0.0190304
3006	0.0103448
3018	0.00927124
3030	0.00917365
3042	0.00927124
3054	0.0103448
3066	0.012687
3078	0.0131749
3090	0.0112231
3102	0.0107351
3114	0.0114183
3126	0.0085881
3138	0.00790495
3150	0.00868569
3162	0.00888087
3174	0.00839291
3186	0.00839291
3198	0.00722181
3210	0.00448923
3222	0.00302535
3234	0.00165906
3246	0.00136629
3258	0.00156147
3270	0.00165906
3282	0.00107351
3294	0.00185425
3306	0.00234221
3318	0.00312294
3330	0.00214702
3342	0.00322054
3354	0.0037085
3366	0.00331813
3378	0.00224462
3390	0.00214702
3402	0.00175666
3414	0.00195184
3426	0.00136629
3438	0.000292776
3450	0.00224462
3462	0.00107351
3474	0.00234221
3486	0.0011711
3498	0.000780736
3510	0.00204943
3522	0.00156147
3534	0.00214702
3546	0.00224462
3558	0.000683144
3570	0.00175666
3582	0.00185425
3594	0.0011711
3606	0.00165906
3618	0.00195184
3630	0.00146388
3642	0.00136629
3654	0.00165906
3666	0.00214702
3678	0.00185425
3690	0.00185425
3702	0.00175666
3714	0.00234221
3726	0.00390368
3738	0.00448923
3750	0.00322054
3762	0.00458682
3774	0.00448923
3786	0.00497719
3798	0.00448923
3810	0.0036109
3822	0.00478201
3834	0.00468442
3846	0.0060507
3858	0.00497719
3870	0.00419646
3882	0.00409886
3894	0.00351331
3906	0.00419646
3918	0.00526997
3930	0.00312294
3942	0.00224462
3954	0.00283017
3966	0.00419646
