Infrared Spectrum: Tridecanoic acid
Formula: C 13 H 26 O 2
CAS: 638-53-9
Origin: Sadtler Research Labs Under US-EPA Contract
1/CM	ABSORBANCE
450	0
462	0.0271988
474	0.0368876
486	0.0271988
498	0.0415569
510	0.0378215
522	0.0394558
534	0.0360705
546	0.0731916
558	0.0871996
570	0.0870828
582	0.0954876
594	0.103659
606	0.107628
618	0.0986394
630	0.0911685
642	0.0737753
654	0.0511291
666	0.0468099
678	0.0312844
690	0.0342028
702	0.0368876
714	0.0336191
726	0.0370044
738	0.0412067
750	0.0289498
762	0.0276657
774	0.0172765
786	0.0197279
798	0.0180936
810	0.015292
822	0.0129574
834	0.0114398
846	0.0159924
858	0.0121402
870	0.0151753
882	0.0103892
894	0.010039
906	0.01179
918	0.0119068
930	0.0110896
942	0.0131908
954	0.013541
966	0.0129574
978	0.0154088
990	0.0208952
1002	0.0269653
1014	0.0354868
1026	0.0412067
1038	0.0476271
1050	0.0688725
1062	0.092686
1074	0.120935
1086	0.163309
1098	0.228797
1110	0.26977
1122	0.256112
1134	0.265684
1146	0.207551
1158	0.154204
1170	0.129574
1182	0.11078
1194	0.0896509
1206	0.0759932
1218	0.0642032
1230	0.0524131
1242	0.0499617
1254	0.0505454
1266	0.0576661
1278	0.0524131
1290	0.0518295
1302	0.0514793
1314	0.0494948
1326	0.0476271
1338	0.0618685
1350	0.0819466
1362	0.0925693
1374	0.0994565
1386	0.0981725
1398	0.0639697
1410	0.0435414
1422	0.0416737
1434	0.0508956
1446	0.0700398
1458	0.10506
1470	0.0925693
1482	0.0403896
1494	0.0225295
1506	0.0163426
1518	0.01179
1530	0.0123737
1542	0.00957211
1554	0.00968884
1566	0.00933864
1578	0.00922191
1590	0.00957211
1602	0.00758764
1614	0.00747091
1626	0.00898844
1638	0.00817131
1650	0.00338526
1662	0.00933864
1674	0.00712071
1686	0.0112064
1698	0.0129574
1710	0.0253311
1722	0.0416737
1734	0.0793784
1746	0.148017
1758	0.257746
1770	0.459811
1782	0.558801
1794	0.309809
1806	0.162259
1818	0.0714406
1830	0.0324518
1842	0.0199613
1854	0.0144749
1866	0.0106227
1878	0.010039
1890	0.00828804
1902	0.00735418
1914	0.00700398
1926	0.00665378
1938	0.00642031
1950	0.00735418
1962	0.00782111
1974	0.00478605
1986	0.00548645
1998	0.00490279
2010	0.00571992
2022	0.00466932
2034	0.00548645
2046	0.00455259
2058	0.00525298
2070	0.00431912
2082	0.00420239
2094	0.00385219
2106	0.00396892
2118	0.00315179
2130	0.00326852
2142	0.00350199
2154	0.00350199
2166	0.00373546
2178	0.00338526
2190	0.00385219
2202	0.00385219
2214	0.00396892
2226	0.00385219
2238	0.00280159
2250	0.00420239
2262	0.00338526
2274	0.00361872
2286	0.00420239
2298	0.00607012
2310	0.00723745
2322	0.00571992
2334	0.000583665
2346	0.00490279
2358	0.00431912
2370	0.000700398
2382	0.00245139
2394	0.00221793
2406	0.00151753
2418	0.00245139
2430	0.00198446
2442	0.00221793
2454	0.00116733
2466	0.00198446
2478	0.0014008
2490	0.00175099
2502	0.00210119
2514	0.00245139
2526	0.00303506
2538	0.00280159
2550	0.00326852
2562	0.00350199
2574	0.00245139
2586	0.00420239
2598	0.00443585
2610	0.00478605
2622	0.00501952
2634	0.00630358
2646	0.00653705
2658	0.00735418
2670	0.00922191
2682	0.00922191
2694	0.00863824
2706	0.00875497
2718	0.00840478
2730	0.00945537
2742	0.00933864
2754	0.00875497
2766	0.00910517
2778	0.0114398
2790	0.0159924
2802	0.0227629
2814	0.030584
2826	0.0443585
2838	0.0701565
2850	0.152337
2862	0.410316
2874	0.356736
2886	0.243272
2898	0.223544
2910	0.350199
2922	0.671215
2934	1.16733
2946	0.796353
2958	0.437282
2970	0.363973
2982	0.170547
2994	0.0848649
3006	0.0511291
3018	0.034553
3030	0.0274323
3042	0.0199613
3054	0.0150586
3066	0.0126072
3078	0.0109729
3090	0.010506
3102	0.00887171
3114	0.00887171
3126	0.00653705
3138	0.00642031
3150	0.00677051
3162	0.00583665
3174	0.00513625
3186	0.00525298
3198	0.00455259
3210	0.00420239
3222	0.00396892
3234	0.00408565
3246	0.00338526
3258	0.00326852
3270	0.00350199
3282	0.00280159
3294	0.00291832
3306	0.00256813
3318	0.00245139
3330	0.00198446
3342	0.00326852
3354	0.00326852
3366	0.00396892
3378	0.00455259
3390	0.00595338
3402	0.00210119
3414	0.00315179
3426	0.00396892
3438	0.00408565
3450	0.00583665
3462	0.00583665
3474	0.00536972
3486	0.00723745
3498	0.00665378
3510	0.00887171
3522	0.0101558
3534	0.0127239
3546	0.020545
3558	0.0360705
3570	0.14008
3582	0.20008
3594	0.0400394
3606	0.017043
3618	0.0124904
3630	0.0109729
3642	0.0103892
3654	0.00758764
3666	0.00712071
3678	0.00770438
3690	0.00863824
3702	0.00887171
3714	0.0114398
3726	0.0115566
3738	0.0138912
3750	0.0206617
3762	0.00431912
3774	0.00513625
3786	0.00618685
3798	0.00677051
3810	0.00373546
3822	0.00571992
3834	0.0124904
3846	0.00548645
3858	0.00513625
3870	0.00898844
3882	0.0120235
3894	0.00887171
3906	0.00875497
3918	0.00361872
3930	0.00642031
3942	0.0101558
3954	0.0103892
3966	0.00385219
