Infrared Spectrum: Butane, 1-(ethylthio)-
Formula: C 6 H 14 S
CAS: 638-46-0
Origin: Sadtler Research Labs Under US-EPA Contract
1/CM	ABSORBANCE
450	0.0526573
462	0.0161791
474	0.0356743
486	0.0230124
498	0.028037
510	0.0209021
522	0.0270321
534	0.016782
546	0.0240173
558	0.0289414
570	0.0206007
582	0.022108
594	0.0185908
606	0.022309
618	0.0226105
630	0.0245198
642	0.0250223
654	0.0244193
666	0.0220075
678	0.021907
690	0.0267306
702	0.0232134
714	0.0264291
726	0.0336645
738	0.0532602
750	0.055873
762	0.0457234
774	0.0385885
786	0.038689
798	0.0309512
810	0.0176864
822	0.0180884
834	0.0179879
846	0.0142697
858	0.0158776
870	0.0199977
882	0.0216056
894	0.0224095
906	0.0252232
918	0.0279365
930	0.02251
942	0.0205002
954	0.0248213
966	0.0427087
978	0.050547
990	0.0332625
1002	0.0236154
1014	0.0185908
1026	0.0195957
1038	0.0224095
1050	0.0270321
1062	0.0222085
1074	0.0228115
1086	0.0247208
1098	0.027635
1110	0.0196962
1122	0.0156766
1134	0.0122599
1146	0.0143702
1158	0.0139682
1170	0.0155761
1182	0.0181889
1194	0.022711
1206	0.0303483
1218	0.0681329
1230	0.0921502
1242	0.0751673
1254	0.139783
1266	0.224698
1278	0.136065
1290	0.0768756
1302	0.061601
1314	0.0414023
1326	0.0297453
1338	0.0359758
1350	0.0411008
1362	0.0410003
1374	0.0602946
1386	0.0828046
1398	0.0557725
1410	0.0468288
1422	0.0636108
1434	0.101094
1446	0.13506
1458	0.160183
1470	0.130638
1482	0.0804933
1494	0.0430101
1506	0.0199977
1518	0.0175859
1530	0.0122599
1542	0.0135663
1554	0.0144707
1566	0.00874272
1578	0.00693388
1590	0.0126619
1602	0.0130638
1614	0.00803928
1626	0.0127624
1638	0.0120589
1650	0.0124609
1662	0.011657
1674	0.0115565
1686	0.00934566
1698	0.00884321
1710	0.0122599
1722	0.0137673
1734	0.0118579
1746	0.0100491
1758	0.00884321
1770	0.00743633
1782	0.010853
1794	0.00532602
1806	0.00914468
1818	0.0103506
1830	0.00753682
1842	0.00592897
1854	0.00844124
1866	0.00723535
1878	0.00703437
1890	0.00803928
1902	0.00683339
1914	0.00733584
1926	0.00643142
1938	0.00683339
1950	0.00693388
1962	0.005527
1974	0.00723535
1986	0.00683339
1998	0.00623044
2010	0.00703437
2022	0.0078383
2034	0.00602946
2046	0.00623044
2058	0.00592897
2070	0.00542651
2082	0.00542651
2094	0.00542651
2106	0.00512504
2118	0.0056275
2130	0.00522553
2142	0.00462259
2154	0.00532602
2166	0.00532602
2178	0.00582848
2190	0.00522553
2202	0.00502455
2214	0.00492406
2226	0.00502455
2238	0.00522553
2250	0.00422062
2262	0.00401964
2274	0.00351718
2286	0.00291424
2298	0.00261277
2310	0.00190933
2322	0.00150736
2334	0.00130638
2346	0.00592897
2358	0.00211031
2370	0.00301473
2382	0.0044216
2394	0.00502455
2406	0.00532602
2418	0.00572799
2430	0.00602946
2442	0.00482357
2454	0.0044216
2466	0.00422062
2478	0.00432111
2490	0.00462259
2502	0.00482357
2514	0.00492406
2526	0.00482357
2538	0.00482357
2550	0.00472308
2562	0.00492406
2574	0.00512504
2586	0.00502455
2598	0.00572799
2610	0.0067329
2622	0.00703437
2634	0.00854173
2646	0.0100491
2658	0.0120589
2670	0.0122599
2682	0.0135663
2694	0.0142697
2706	0.0145712
2718	0.0148727
2730	0.0181889
2742	0.0226105
2754	0.0208016
2766	0.0178874
2778	0.0192943
2790	0.0246203
2802	0.0312527
2814	0.0431106
2826	0.0656206
2838	0.105415
2850	0.170533
2862	0.256654
2874	0.356442
2886	0.439548
2898	0.375836
2910	0.438543
2922	0.648669
2934	0.920498
2946	0.984912
2958	0.837291
2970	0.980993
2982	0.703337
2994	0.297554
3006	0.133452
3018	0.0803928
3030	0.0604956
3042	0.0478337
3054	0.0373827
3066	0.0310517
3078	0.0270321
3090	0.0258262
3102	0.0230124
3114	0.0214046
3126	0.0203997
3138	0.0202992
3150	0.0199977
3162	0.0191938
3174	0.0189928
3186	0.0183899
3198	0.0178874
3210	0.0158776
3222	0.0146717
3234	0.011456
3246	0.0118579
3258	0.0109535
3270	0.0111545
3282	0.0107525
3294	0.0118579
3306	0.0107525
3318	0.011054
3330	0.0120589
3342	0.010853
3354	0.0103506
3366	0.0109535
3378	0.010652
3390	0.0105516
3402	0.011054
3414	0.011456
3426	0.0109535
3438	0.011054
3450	0.0104511
3462	0.0117574
3474	0.011456
3486	0.0111545
3498	0.0117574
3510	0.00994861
3522	0.0119584
3534	0.0134658
3546	0.0130638
3558	0.0121594
3570	0.0134658
3582	0.0121594
3594	0.0128628
3606	0.0143702
3618	0.0111545
3630	0.0131643
3642	0.0135663
3654	0.011054
3666	0.0196962
3678	0.00211031
3690	0.010652
3702	0.0148727
3714	0.0123604
3726	0.011456
3738	0.00623044
3750	0.0151741
3762	0.0135663
3774	0.0125614
3786	0.0133653
3798	0.0126619
3810	0.0181889
3822	0.00462259
3834	0.011456
3846	0.0181889
3858	0.00301473
3870	0.00974763
3882	0.0160786
3894	0.0118579
3906	0.0109535
3918	0.0162795
3930	0.0141692
3942	0.0151741
3954	0.0140687
3966	0.01638
