Infrared Spectrum: Butanoic acid, 1-methylethyl ester
Formula: C 7 H 14 O 2
CAS: 638-11-9
Origin: Sadtler Research Labs Under US-EPA Contract
1/CM	ABSORBANCE
450	0.00139581
462	0.00530408
474	0.00511797
486	0.00893318
498	0.00995678
510	0.00474575
522	0.00679294
534	0.0196344
546	0.00493186
558	0.0102359
570	0.0139581
582	0.0162844
594	0.0184247
606	0.0149817
618	0.0147956
630	0.0146095
642	0.0101429
654	0.00679294
666	0.00158192
678	0.00483881
690	0.0070721
702	0.00642073
714	0.00735127
726	0.00828181
738	0.0108873
750	0.0111665
762	0.0112595
774	0.0117248
786	0.0170289
798	0.0237288
810	0.0308939
822	0.0441076
834	0.0308939
846	0.0141442
858	0.0145164
870	0.01889
882	0.0251246
894	0.0286606
906	0.0236357
918	0.0193552
930	0.0281023
942	0.0753737
954	0.151678
966	0.130089
978	0.0549019
990	0.0243801
1002	0.0177733
1014	0.0174942
1026	0.0305217
1038	0.060392
1050	0.0718377
1062	0.072303
1074	0.110734
1086	0.188807
1098	0.290515
1110	0.531524
1122	0.529849
1134	0.308753
1146	0.247431
1158	0.205556
1170	0.391013
1182	0.783515
1194	0.675665
1206	0.36961
1218	0.227052
1230	0.211605
1242	0.256271
1254	0.353977
1266	0.32541
1278	0.196995
1290	0.181176
1302	0.170754
1314	0.116038
1326	0.107012
1338	0.128973
1350	0.131113
1362	0.186945
1374	0.259621
1386	0.233379
1398	0.100126
1410	0.0471784
1422	0.0476436
1434	0.0685808
1446	0.0771418
1458	0.100871
1470	0.115015
1482	0.0701627
1494	0.0297773
1506	0.0147025
1518	0.0107012
1530	0.0107012
1542	0.00334994
1554	0.0093054
1566	0.0070721
1578	0.00483881
1590	0.00893318
1602	0.0080957
1614	0.00958456
1626	0.00977067
1638	0.00800264
1650	0.012097
1662	0.0115387
1674	0.0146095
1686	0.0160983
1698	0.0308009
1710	0.0501561
1722	0.0988233
1734	0.337972
1746	0.846605
1758	0.760716
1770	0.235985
1782	0.0624392
1794	0.0317314
1806	0.0205649
1818	0.0136789
1830	0.00958456
1842	0.00967762
1854	0.00753737
1866	0.00697905
1878	0.0046527
1890	0.00381521
1902	0.00455965
1914	0.0058624
1926	0.00474575
1938	0.00549019
1950	0.00428048
1962	0.00288467
1974	0.00288467
1986	0.00362911
1998	0.00474575
2010	0.00511797
2022	0.00381521
2034	0.00372216
2046	0.00362911
2058	0.00400132
2070	0.00558324
2082	0.00502492
2094	0.00279162
2106	0.00093054
2118	0.00093054
2130	0.000837486
2142	0.000837486
2154	0.00093054
2166	0
2178	0.000186108
2190	0.000186108
2202	0.000837486
2214	0.000651378
2226	0.00111665
2238	0.000651378
2250	0.00130276
2262	0.00232635
2274	0.00279162
2286	0.00362911
2298	0.00539713
2310	0.00567629
2322	0.00483881
2334	0.00418743
2346	0.00400132
2358	0.00372216
2370	0.00232635
2382	0.00269857
2394	0.0024194
2406	0.00148886
2418	0.00204719
2430	0.00130276
2442	0.00176803
2454	0.0012097
2466	0.00232635
2478	0.0024194
2490	0.00176803
2502	0.00195413
2514	0.00251246
2526	0.00307078
2538	0.00279162
2550	0.00260551
2562	0.00279162
2574	0.00334994
2586	0.00279162
2598	0.00214024
2610	0.00167497
2622	0.00176803
2634	0.00232635
2646	0.0022333
2658	0.0024194
2670	0.00483881
2682	0.0058624
2694	0.00651378
2706	0.006886
2718	0.00642073
2730	0.00716516
2742	0.0107012
2754	0.0116317
2766	0.0102359
2778	0.00977067
2790	0.0114456
2802	0.0124692
2814	0.015447
2826	0.0196344
2838	0.0239149
2850	0.0286606
2862	0.0410368
2874	0.0857958
2886	0.159774
2898	0.140325
2910	0.119854
2922	0.144885
2934	0.217095
2946	0.313034
2958	0.283163
2970	0.358723
2982	0.586612
2994	0.448055
3006	0.154749
3018	0.0513658
3030	0.0279162
3042	0.020751
3054	0.017215
3066	0.0140512
3078	0.0123762
3090	0.0114456
3102	0.012004
3114	0.0101429
3126	0.00967762
3138	0.00958456
3150	0.00921235
3162	0.00949151
3174	0.0111665
3186	0.0111665
3198	0.00967762
3210	0.00828181
3222	0.00781654
3234	0.00753737
3246	0.00576935
3258	0.00437354
3270	0.00511797
3282	0.00455965
3294	0.00418743
3306	0.00511797
3318	0.00530408
3330	0.00446659
3342	0.00623462
3354	0.00483881
3366	0.0046527
3378	0.00455965
3390	0.00521102
3402	0.00493186
3414	0.00530408
3426	0.0058624
3438	0.00595546
3450	0.00576935
3462	0.00818875
3474	0.0105151
3486	0.0130276
3498	0.00781654
3510	0.00400132
3522	0.00558324
3534	0.00483881
3546	0.00502492
3558	0.00428048
3570	0.00474575
3582	0.0058624
3594	0.00493186
3606	0.00549019
3618	0.00297773
3630	0.003443
3642	0.00372216
3654	0.00353605
3666	0.00474575
3678	0.00334994
3690	0.00511797
3702	0.00511797
3714	0.0046527
3726	0.00632767
3738	0.00483881
3750	0.00381521
3762	0.00400132
3774	0.00502492
3786	0.00651378
3798	0.00614156
3810	0.00660683
3822	0.00428048
3834	0.00446659
3846	0.00483881
3858	0.00428048
3870	0.0046527
3882	0.00362911
3894	0.00418743
3906	0.00474575
3918	0.00558324
3930	0.00530408
3942	0.00437354
3954	0.00679294
3966	0.00530408
