Infrared Spectrum: Tricosane
Formula: C 23 H 48
CAS: 638-67-5
Origin: Sadtler Research Labs Under US-EPA Contract
1/CM	ABSORBANCE
450	0.122603
462	0.0605697
474	0.0666084
486	0.0603867
498	0.0426367
510	0.0258016
522	0.0757579
534	0.0565439
546	0.0503222
558	0.05508
570	0.0497733
582	0.0303763
594	0.0510542
606	0.0404408
618	0.0461135
630	0.0441006
642	0.0444666
654	0.0441006
666	0.0528841
678	0.0450155
690	0.0506882
702	0.0497733
714	0.054348
726	0.0645955
738	0.0607527
750	0.0508712
762	0.0508712
774	0.0468454
786	0.0386109
798	0.0393428
810	0.0417217
822	0.0387939
834	0.0344021
846	0.0342191
858	0.0331212
870	0.0296444
882	0.0336702
894	0.0376959
906	0.0344021
918	0.0329382
930	0.0347681
942	0.0333042
954	0.0336702
966	0.0334872
978	0.0322062
990	0.0327552
1002	0.0344021
1014	0.0387939
1026	0.0406238
1038	0.036232
1050	0.0327552
1062	0.0327552
1074	0.0353171
1086	0.0395258
1098	0.0384279
1110	0.0353171
1122	0.0338531
1134	0.0314743
1146	0.0316573
1158	0.0322062
1170	0.0322062
1182	0.0312913
1194	0.0331212
1206	0.0331212
1218	0.035866
1230	0.036598
1242	0.0382449
1254	0.0415387
1266	0.0444666
1278	0.0472114
1290	0.0497733
1302	0.055446
1314	0.0523351
1326	0.0499563
1338	0.0611187
1350	0.0753919
1362	0.0753919
1374	0.0671573
1386	0.0587398
1398	0.0446496
1410	0.0457475
1422	0.0483094
1434	0.0695362
1446	0.119126
1458	0.178781
1470	0.146758
1482	0.0596547
1494	0.0400748
1506	0.0312913
1518	0.0283635
1530	0.0258016
1542	0.0236057
1554	0.0203119
1566	0.0199459
1578	0.0215928
1590	0.0219588
1602	0.0215928
1614	0.0193969
1626	0.019031
1638	0.018848
1650	0.0170181
1662	0.018116
1674	0.018116
1686	0.019031
1698	0.0203119
1710	0.0265335
1722	0.0307423
1734	0.0272655
1746	0.0276315
1758	0.0221418
1770	0.0217758
1782	0.0206779
1794	0.018848
1806	0.018482
1818	0.0166521
1830	0.0157371
1842	0.0155542
1854	0.0142732
1866	0.0140902
1878	0.0120773
1890	0.0117114
1902	0.0113454
1914	0.0115284
1926	0.0106134
1938	0.0111624
1950	0.0100645
1962	0.00933249
1974	0.00823455
1986	0.00951548
1998	0.0091495
2010	0.0100645
2022	0.0109794
2034	0.0107964
2046	0.0109794
2058	0.00988146
2070	0.00951548
2082	0.00878352
2094	0.00860053
2106	0.00786857
2118	0.00750259
2130	0.00768558
2142	0.00805156
2154	0.00896651
2166	0.0102474
2178	0.00896651
2190	0.00951548
2202	0.00786857
2214	0.00695362
2226	0.00603867
2238	0.00530671
2250	0.00585568
2262	0.0054897
2274	0.00567269
2286	0.00677063
2298	0.00860053
2310	0.0091495
2322	0.00805156
2334	0.00805156
2346	0.00750259
2358	0.00823455
2370	0.00512372
2382	0.00585568
2394	0.00384279
2406	0.00347681
2418	0.00347681
2430	0.00274485
2442	0.00274485
2454	0.00237887
2466	0.00219588
2478	0.0018299
2490	0.00128093
2502	0
2514	0.00128093
2526	0.00274485
2538	0.00256186
2550	0.00384279
2562	0.00603867
2574	0.00786857
2586	0.00896651
2598	0.0106134
2610	0.0120773
2622	0.0135413
2634	0.0153712
2646	0.0173841
2658	0.0206779
2670	0.0239717
2682	0.0265335
2694	0.0245207
2706	0.0236057
2718	0.0241547
2730	0.0270825
2742	0.0285464
2754	0.0296444
2766	0.0323892
2778	0.0384279
2790	0.0484924
2802	0.0620336
2814	0.0821625
2826	0.115284
2838	0.185735
2850	0.415753
2862	0.74605
2874	0.49938
2886	0.379887
2898	0.44064
2910	0.674318
2922	1.16418
2934	1.8299
2946	0.915682
2958	0.50304
2970	0.402944
2982	0.179513
2994	0.091861
3006	0.0572759
3018	0.0389769
3030	0.0276315
3042	0.018482
3054	0.0135413
3066	0.0106134
3078	0.00896651
3090	0.00622166
3102	0.00420877
3114	0.00475774
3126	0.00329382
3138	0.00292784
3150	0.00347681
3162	0.00347681
3174	0.00420877
3186	0.00402578
3198	0.0036598
3210	0.00347681
3222	0.00292784
3234	0.0018299
3246	0.00274485
3258	0.00311083
3270	0.0036598
3282	0.00347681
3294	0.00494073
3306	0.0036598
3318	0.00622166
3330	0.00567269
3342	0.00494073
3354	0.00622166
3366	0.00530671
3378	0.00622166
3390	0.0073196
3402	0.00658764
3414	0.00713661
3426	0.00713661
3438	0.00658764
3450	0.00603867
3462	0.00622166
3474	0.00567269
3486	0.00274485
3498	0.00494073
3510	0.00420877
3522	0.00475774
3534	0.00311083
3546	0.00402578
3558	0.00512372
3570	0.00475774
3582	0.0036598
3594	0.00530671
3606	0.00402578
3618	0.00329382
3630	0.00494073
3642	0.00475774
3654	0.00146392
3666	0.00292784
3678	0.00311083
3690	0.00329382
3702	0.00256186
3714	0.00128093
3726	0.00164691
3738	0.00420877
3750	0.00128093
3762	0.00439176
3774	0.00329382
3786	0.00201289
3798	0.00256186
3810	0.00146392
3822	0.00768558
3834	0.0054897
3846	0.00603867
3858	0.00786857
3870	0.0054897
3882	0.0054897
3894	0.00567269
3906	0.00603867
3918	0.00805156
3930	0.00750259
3942	0.00347681
3954	0.00622166
3966	0.00622166
