Infrared Spectrum: Benzene, 4-ethenyl-1,2-dimethoxy-
Formula: C 10 H 12 O 2
CAS: 6380-23-0
Origin: Sadtler Research Labs Under US-EPA Contract
1/CM	ABSORBANCE
450	0.0092499
462	0.0142448
474	0.00989739
486	0.0107299
498	0.0123949
510	0.0100824
522	0.0127649
534	0.0179448
546	0.0245122
558	0.0316347
570	0.0264547
582	0.0172973
594	0.0123024
606	0.0103599
618	0.0100824
630	0.00527244
642	0.00425495
654	0.00157248
666	0.00157248
678	0.00342246
690	0.0107299
702	0.0143373
714	0.0120249
726	0.0116549
738	0.0232172
750	0.0436595
762	0.0690043
774	0.0419945
786	0.0191473
798	0.0383871
810	0.0867641
822	0.0727967
834	0.048747
846	0.0471745
858	0.0739992
870	0.0413471
882	0.0471745
894	0.0959215
906	0.170846
918	0.0862091
930	0.0341321
942	0.0232172
954	0.0240497
966	0.0308947
978	0.0652118
990	0.0942565
1002	0.0788091
1014	0.185738
1026	0.341229
1038	0.324671
1050	0.172141
1062	0.0710392
1074	0.0332071
1086	0.0261772
1098	0.0325596
1110	0.0693742
1122	0.180928
1134	0.249007
1146	0.230785
1158	0.260015
1170	0.146611
1182	0.0741842
1194	0.0624368
1206	0.0690968
1218	0.154196
1230	0.332256
1242	0.42383
1254	0.408291
1266	0.73694
1278	0.800301
1290	0.50412
1302	0.26427
1314	0.143281
1326	0.0948115
1338	0.0579969
1350	0.044307
1362	0.0303397
1374	0.0310797
1386	0.0586444
1398	0.0870416
1410	0.156416
1422	0.157711
1434	0.0863941
1446	0.131071
1458	0.153363
1470	0.210158
1482	0.123856
1494	0.176303
1506	0.701512
1518	0.755624
1530	0.178338
1542	0.0598469
1554	0.0445845
1566	0.088244
1578	0.146148
1590	0.112016
1602	0.135604
1614	0.111091
1626	0.0632693
1638	0.0678943
1650	0.0163723
1662	0.00998989
1674	0.00517994
1686	0.00453245
1698	0.00675243
1710	0.0202573
1722	0.0212748
1734	0.00758492
1746	0.00702992
1758	0.00739992
1770	0.00684493
1782	0.00443995
1794	0.00471745
1806	0.0184998
1818	0.0213673
1830	0.00739992
1842	0.00425495
1854	0.00545744
1866	0.00434745
1878	0.00425495
1890	0.00101749
1902	0.00092499
1914	0.000184998
1926	0.00258997
1938	0.00508744
1950	0.00480995
1962	0.00527244
1974	0.00462495
1986	0.00443995
1998	0.00545744
2010	0.00832491
2022	0.0123949
2034	0.0160948
2046	0.0131349
2058	0.0110999
2070	0.0101749
2082	0.00804741
2094	0.00453245
2106	0.00166498
2118	0.000369996
2130	0
2142	0.000647493
2154	0.00092499
2166	0.00147998
2178	0.00212748
2190	0.00286747
2202	0.00258997
2214	0.00110999
2226	0.000832491
2238	0.00129499
2250	0.00166498
2262	0.00295997
2274	0.00416245
2286	0.00443995
2298	0.00397746
2310	0.00453245
2322	0.00240497
2334	0.00092499
2346	0.00231248
2358	0.00175748
2370	0.00231248
2382	0.00212748
2394	0.000647493
2406	0.000554994
2418	0.000832491
2430	0.00129499
2442	0.00120249
2454	0.00138748
2466	0.00157248
2478	0.00203498
2490	0.00305247
2502	0.00397746
2514	0.00443995
2526	0.00545744
2538	0.00638243
2550	0.00739992
2562	0.0087874
2574	0.0090649
2586	0.0087874
2598	0.00749242
2610	0.00554994
2622	0.00406996
2634	0.00379246
2646	0.00388496
2658	0.00360746
2670	0.00351496
2682	0.00342246
2694	0.00379246
2706	0.00434745
2718	0.00536494
2730	0.00628993
2742	0.00564244
2754	0.00591994
2766	0.00647493
2778	0.00776992
2790	0.0102674
2802	0.0137824
2814	0.0238647
2826	0.0530944
2838	0.143651
2850	0.154381
2862	0.0736292
2874	0.0613268
2886	0.0675243
2898	0.0805666
2910	0.118954
2922	0.148461
2934	0.174638
2946	0.251597
2958	0.226253
2970	0.164648
2982	0.127001
2994	0.147351
3006	0.241515
3018	0.175656
3030	0.0712242
3042	0.0717792
3054	0.0802891
3066	0.0761267
3078	0.0612343
3090	0.0871341
3102	0.093979
3114	0.0210898
3126	0.0134124
3138	0.0102674
3150	0.00749242
3162	0.00527244
3174	0.00462495
3186	0.00360746
3198	0.00305247
3210	0.00342246
3222	0.00240497
3234	0.00175748
3246	0.00203498
3258	0.00184998
3270	0.00120249
3282	0.000739992
3294	0.00110999
3306	0.000832491
3318	0.000647493
3330	0.00120249
3342	0.00101749
3354	0.000832491
3366	0.00101749
3378	0.000832491
3390	0.000554994
3402	0.00092499
3414	0.00138748
3426	0.00129499
3438	0.000832491
3450	0.00092499
3462	0.000647493
3474	0.000832491
3486	0.00101749
3498	0.00138748
3510	0.00166498
3522	0.00138748
3534	0.00138748
3546	0.00157248
3558	0.00194248
3570	0.00157248
3582	0.00231248
3594	0.00221998
3606	0.00184998
3618	0.00101749
3630	0.00138748
3642	0.00286747
3654	0.00268247
3666	0.00240497
3678	0.00286747
3690	0.00194248
3702	0.00138748
3714	0.000739992
3726	0.00092499
3738	0.00138748
3750	0.00138748
3762	0.000554994
3774	0.00147998
3786	0.00175748
3798	0.00110999
3810	0.000739992
3822	0.00110999
3834	0.00249747
3846	0.00203498
3858	0.00194248
3870	0.00138748
3882	0.00221998
3894	0.00138748
3906	0.00175748
3918	0.00120249
3930	0.000647493
3942	0.00138748
3954	0.000739992
3966	0.00120249
