Infrared Spectrum: Benzo[b]thiophene-6-carboxaldehyde
Formula: C 9 H 6 O S
CAS: 6386-80-7
Origin: Sadtler Research Labs Under US-EPA Contract
1/CM	ABSORBANCE
450	0.00152783
462	0.00196436
474	0.00905787
486	0.015824
498	0.014187
510	0.0130957
522	0.00676612
534	0.00894874
546	0.00687525
558	0.024118
570	0.0593673
582	0.0388506
594	0.0378685
606	0.0252093
618	0.00818482
630	0.00218262
642	0.000545655
654	0.00938527
666	0.0206258
678	0.0375411
690	0.121899
702	0.132594
714	0.0306658
726	0.0219353
738	0.0727904
750	0.088287
762	0.0387415
774	0.051619
786	0.0737726
798	0.0673338
810	0.131939
822	0.196436
834	0.142743
846	0.0728995
858	0.0263006
870	0.0247727
882	0.0304475
894	0.0412515
906	0.0299019
918	0.0248819
930	0.0169153
942	0.00229175
954	0.00294654
966	0.00360132
978	0.00523829
990	0.00883961
1002	0.0103674
1014	0.00676612
1026	0.0106948
1038	0.0246636
1050	0.0269554
1062	0.0129866
1074	0.0157149
1086	0.0181157
1098	0.0161514
1110	0.0121135
1122	0.0121135
1134	0.0206258
1146	0.015824
1158	0.0422337
1170	0.103565
1182	0.231794
1194	0.357404
1206	0.188578
1218	0.114915
1230	0.0212805
1242	0.0112405
1254	0.0486724
1266	0.0921066
1278	0.00447437
1290	0.00643873
1302	0.0278284
1314	0.0889418
1326	0.0475811
1338	0.0365589
1350	0.0439798
1362	0.0648238
1374	0.108913
1386	0.092434
1398	0.0494363
1410	0.0330667
1422	0.0115679
1434	0.009167
1446	0.0161514
1458	0.0340489
1470	0.026628
1482	0.0212805
1494	0.0216079
1506	0.0138596
1518	0.00927613
1530	0.00731178
1542	0.0196436
1554	0.0410333
1566	0.0450711
1578	0.0579486
1590	0.11175
1602	0.116552
1614	0.0216079
1626	0.0178975
1638	0.0247727
1650	0.0211714
1662	0.0140779
1674	0.0314297
1686	0.0625321
1698	0.118298
1710	0.667118
1722	1.07461
1734	0.235614
1746	0.0368863
1758	0.0523829
1770	0.0354676
1782	0.0188797
1794	0.0160423
1806	0.0104766
1818	0.00469263
1830	0.00349219
1842	0.0031648
1854	0.00207349
1866	0.00436524
1878	0.00742091
1890	0.0100401
1902	0.00654786
1914	0.00360132
1926	0.0045835
1938	0.00185523
1950	0.00152783
1962	0.00196436
1974	0.0017461
1986	0.00185523
1998	0.0017461
2010	0.00185523
2022	0.00196436
2034	0.00338306
2046	0.00294654
2058	0.00109131
2070	0.000654786
2082	0.0017461
2094	0.00360132
2106	0.00371045
2118	0.00305567
2130	0.00218262
2142	0.00109131
2154	0.000654786
2166	0.00196436
2178	0.0014187
2190	0.000109131
2202	0.000109131
2214	0.000218262
2226	0.000545655
2238	0.00120044
2250	0.0014187
2262	0.00207349
2274	0.00251001
2286	0.00251001
2298	0.00436524
2310	0.00589307
2322	0.00534742
2334	0.00534742
2346	0.00600221
2358	0.00687525
2370	0.00643873
2382	0.00556568
2394	0.00272828
2406	0.00218262
2418	0.00163696
2430	0.00185523
2442	0.00130957
2454	0.00109131
2466	0.000982179
2478	0.00130957
2490	0.00196436
2502	0.00360132
2514	0.00371045
2526	0.00240088
2538	0.00229175
2550	0.00261914
2562	0.00272828
2574	0.00349219
2586	0.00283741
2598	0.00272828
2610	0.00414698
2622	0.00698438
2634	0.009167
2646	0.00894874
2658	0.0111314
2670	0.0120044
2682	0.0176792
2694	0.031648
2706	0.0686434
2718	0.119062
2730	0.121681
2742	0.0620955
2754	0.042452
2766	0.0376502
2778	0.045835
2790	0.0663516
2802	0.0839217
2814	0.138378
2826	0.107712
2838	0.0279375
2850	0.0117861
2862	0.0100401
2874	0.00982179
2886	0.0101492
2898	0.0101492
2910	0.00753004
2922	0.00643873
2934	0.00622047
2946	0.00600221
2958	0.00720265
2970	0.00829396
2982	0.00676612
2994	0.00654786
3006	0.0077483
3018	0.0109131
3030	0.0154966
3042	0.0171336
3054	0.0285923
3066	0.0398328
3078	0.0359041
3090	0.0264097
3102	0.0124409
3114	0.0101492
3126	0.00709351
3138	0.00251001
3150	0.00240088
3162	0.00261914
3174	0.00196436
3186	0.00283741
3198	0.00272828
3210	0.00218262
3222	0.00207349
3234	0.00185523
3246	0.00185523
3258	0.00196436
3270	0.00229175
3282	0.00152783
3294	0.0017461
3306	0.00152783
3318	0.00272828
3330	0.00261914
3342	0.00229175
3354	0.00207349
3366	0.00261914
3378	0.00305567
3390	0.00381958
3402	0.00818482
3414	0.0161514
3426	0.0111314
3438	0.00240088
3450	0.00185523
3462	0.00185523
3474	0.00218262
3486	0.00130957
3498	0.000763917
3510	0.00163696
3522	0.00130957
3534	0.00240088
3546	0.000654786
3558	0.00152783
3570	0.00130957
3582	0.00818482
3594	0.00589307
3606	0.00207349
3618	0.00229175
3630	0.00251001
3642	0.0017461
3654	0.00272828
3666	0.000109131
3678	0.0049109
3690	0.00425611
3702	0.00196436
3714	0.00240088
3726	0.000873048
3738	0.00294654
3750	0.00371045
3762	0.00207349
3774	0.00229175
3786	0.000982179
3798	0.0014187
3810	0.000436524
3822	0.00447437
3834	0.00229175
3846	0.00218262
3858	0.00272828
3870	0.00349219
3882	0.0014187
3894	0.00425611
3906	0.0031648
3918	0.00272828
3930	0.00218262
3942	0.00130957
3954	0.00305567
3966	0.00261914
