Infrared Spectrum: Benzenesulfonamide, N,4-dimethyl-
Formula: C 8 H 11 N O 2 S
CAS: 640-61-9
Origin: Sadtler Research Labs Under US-EPA Contract
1/CM	ABSORBANCE
450	0
462	0.0295185
474	0.0366986
486	0.0471586
498	0.045563
510	0.0425491
522	0.0541615
534	0.080932
546	0.218773
558	0.29811
570	0.155216
582	0.119581
594	0.0989267
606	0.0760566
618	0.0673694
630	0.0709152
642	0.133675
654	0.305645
666	0.265932
678	0.126672
690	0.0866052
702	0.079425
714	0.0698515
726	0.0617849
738	0.0615189
750	0.0646215
762	0.0808433
774	0.114351
786	0.151315
798	0.194396
810	0.264514
822	0.317877
834	0.247671
846	0.103802
858	0.0491974
870	0.0296071
882	0.0218951
894	0.0175515
906	0.0148035
918	0.0124988
930	0.0138285
942	0.0126761
954	0.0119669
966	0.0128534
978	0.0130307
990	0.013208
1002	0.0167537
1014	0.0392693
1026	0.049552
1038	0.0447652
1050	0.0746382
1062	0.137664
1074	0.19936
1086	0.212391
1098	0.236414
1110	0.121176
1122	0.0696742
1134	0.0583278
1146	0.0778294
1158	0.281888
1170	0.88644
1182	0.383385
1194	0.0803115
1206	0.0433469
1218	0.0339507
1230	0.0253522
1242	0.022161
1254	0.0202995
1266	0.0254408
1278	0.0332415
1290	0.0357235
1302	0.048045
1314	0.0557571
1326	0.0897077
1338	0.211239
1350	0.331085
1362	0.251306
1374	0.165676
1386	0.209111
1398	0.307683
1410	0.267084
1422	0.143249
1434	0.089885
1446	0.0573527
1458	0.0501725
1470	0.0517681
1482	0.0530091
1494	0.0733972
1506	0.0541615
1518	0.0288979
1530	0.0241998
1542	0.0235793
1554	0.0210973
1566	0.0218951
1578	0.0272137
1590	0.0431696
1602	0.0589483
1614	0.0409535
1626	0.0218064
1638	0.0190585
1650	0.0188812
1662	0.0121442
1674	0.0088644
1686	0.00735745
1698	0.0066483
1710	0.00638237
1722	0.00647101
1734	0.00753474
1746	0.0088644
1758	0.0100168
1770	0.00859847
1782	0.00815525
1794	0.0125874
1806	0.0106373
1818	0.00629372
1830	0.00576186
1842	0.00576186
1854	0.00655966
1866	0.00718016
1878	0.00797796
1890	0.00921898
1902	0.0124102
1914	0.0156013
1926	0.0111691
1938	0.00700288
1950	0.00593915
1962	0.0058505
1974	0.00531864
1986	0.00496406
1998	0.0044322
2010	0.0044322
2022	0.00452084
2034	0.00434356
2046	0.00434356
2058	0.00434356
2070	0.00407762
2082	0.00425491
2094	0.00434356
2106	0.00478678
2118	0.00487542
2130	0.00478678
2142	0.0044322
2154	0.00487542
2166	0.00505271
2178	0.00531864
2190	0.00602779
2202	0.00567322
2214	0.00540728
2226	0.00531864
2238	0.00523
2250	0.00593915
2262	0.00726881
2274	0.00691423
2286	0.00593915
2298	0.00611644
2310	0.0058505
2322	0.00496406
2334	0.00523
2346	0.00478678
2358	0.0044322
2370	0.00602779
2382	0.0058505
2394	0.00576186
2406	0.00576186
2418	0.00567322
2430	0.00514135
2442	0.00514135
2454	0.00514135
2466	0.00540728
2478	0.00567322
2490	0.00647101
2502	0.00709152
2514	0.0074461
2526	0.00682559
2538	0.00629372
2550	0.00647101
2562	0.00655966
2574	0.00691423
2586	0.00709152
2598	0.00691423
2610	0.00540728
2622	0.00505271
2634	0.00478678
2646	0.00425491
2658	0.00425491
2670	0.00487542
2682	0.00514135
2694	0.00593915
2706	0.00514135
2718	0.00505271
2730	0.00602779
2742	0.00753474
2754	0.00735745
2766	0.00700288
2778	0.00735745
2790	0.0088644
2802	0.0110805
2814	0.0160446
2826	0.0248203
2838	0.0282774
2850	0.0234907
2862	0.0276569
2874	0.0413081
2886	0.0494634
2898	0.0554911
2910	0.0636464
2922	0.0763225
2934	0.109121
2946	0.107437
2958	0.092633
2970	0.0804001
2982	0.0659511
2994	0.0545161
3006	0.0509703
3018	0.0496406
3030	0.0641783
3042	0.0734859
3054	0.0581505
3066	0.0497293
3078	0.0394466
3090	0.0285434
3102	0.0210973
3114	0.0143603
3126	0.0105486
3138	0.00859847
3150	0.0074461
3162	0.00709152
3174	0.00611644
3186	0.00558457
3198	0.00531864
3210	0.00531864
3222	0.00540728
3234	0.00558457
3246	0.00540728
3258	0.00558457
3270	0.00540728
3282	0.00523
3294	0.00549593
3306	0.0058505
3318	0.0058505
3330	0.00576186
3342	0.00655966
3354	0.00709152
3366	0.00762338
3378	0.0100168
3390	0.0143603
3402	0.0266818
3414	0.0611644
3426	0.0989267
3438	0.0615189
3450	0.0239339
3462	0.0121442
3474	0.00939626
3486	0.00735745
3498	0.00629372
3510	0.00549593
3522	0.00478678
3534	0.00487542
3546	0.00540728
3558	0.00487542
3570	0.00478678
3582	0.00531864
3594	0.00558457
3606	0.00469813
3618	0.00505271
3630	0.00611644
3642	0.0044322
3654	0.00540728
3666	0.00460949
3678	0.00718016
3690	0.00523
3702	0.00425491
3714	0.00540728
3726	0.00496406
3738	0.00469813
3750	0.00514135
3762	0.00505271
3774	0.00505271
3786	0.00434356
3798	0.0044322
3810	0.00469813
3822	0.00593915
3834	0.00638237
3846	0.00549593
3858	0.00691423
3870	0.00682559
3882	0.00638237
3894	0.00629372
3906	0.00718016
3918	0.00602779
3930	0.00638237
3942	0.0044322
3954	0.00407762
3966	0.00487542
