Infrared Spectrum: Hydantoin, 1-acetyl-3,5-dimethyl-2-thio-,
Formula: C 7 H 10 N 2 O 2 S
CAS: 64143-07-3
Origin: Sadtler Research Labs Under US-EPA Contract
1/CM	ABSORBANCE
450	0.0130666
462	0.0145437
474	0.00681738
486	0.0114759
498	0.0389727
510	0.0262469
522	0.00159072
534	0.00181797
546	0.00477217
558	0.0112487
570	0.0303373
582	0.0876033
594	0.17123
606	0.0885123
618	0.0296556
630	0.01568
642	0.0132939
654	0.0201113
666	0.0084081
678	0.00818086
690	0.00249971
702	0.00181797
714	0.00409043
726	0.00352231
738	0.0127258
750	0.0280649
762	0.00670376
774	0.000113623
786	0.000568115
798	0.00204521
810	0.00579477
822	0.0131803
834	0.00647651
846	0.00136348
858	0.00215884
870	0.00170435
882	0.00465854
894	0.00999882
906	0.00965796
918	0.00534028
930	0.00965796
942	0.0362457
954	0.118282
966	0.0699918
978	0.0306782
990	0.0665831
1002	0.200658
1014	0.242017
1026	0.104874
1038	0.0482898
1050	0.0318144
1062	0.0197704
1074	0.0240881
1086	0.0356776
1098	0.0468127
1110	0.0816949
1122	0.119759
1134	0.170207
1146	0.134643
1158	0.0953297
1170	0.0911256
1182	0.0964659
1194	0.169866
1206	0.467218
1218	0.524484
1230	0.208612
1242	0.207816
1254	0.425177
1266	0.453469
1278	0.261901
1290	0.179865
1302	0.249289
1314	0.445402
1326	0.90353
1338	0.789453
1350	0.684692
1362	0.509599
1374	0.634698
1386	0.969659
1398	0.776954
1410	0.343255
1422	0.415519
1434	0.478239
1446	0.224746
1458	0.17532
1470	0.17782
1482	0.130326
1494	0.0644242
1506	0.0479489
1518	0.041586
1530	0.0395408
1542	0.040677
1554	0.0334052
1566	0.0278376
1578	0.0238608
1590	0.0204521
1602	0.0212475
1614	0.0228382
1626	0.0253379
1638	0.0260197
1650	0.0269287
1662	0.0223837
1674	0.0338597
1686	0.0470399
1698	0.0610156
1710	0.20384
1722	0.699577
1734	0.400862
1746	0.121122
1758	0.220769
1770	0.684465
1782	1.1226
1794	0.215656
1806	0.0571524
1818	0.0360185
1830	0.0306782
1842	0.0219292
1854	0.0140893
1866	0.0134075
1878	0.0142029
1890	0.0112487
1902	0.00704463
1914	0.00647651
1926	0.00477217
1938	0.0039768
1950	0.00249971
1962	0.00193159
1974	0.00136348
1986	0.000795361
1998	0.00159072
2010	0.00352231
2022	0.00465854
2034	0.00409043
2046	0.00284058
2058	0.00215884
2070	0.00249971
2082	0.00193159
2094	0.00159072
2106	0.00181797
2118	0.00227246
2130	0.0029542
2142	0.00249971
2154	0.00215884
2166	0.00227246
2178	0.000568115
2190	0.000113623
2202	0
2214	0.000340869
2226	0.000113623
2238	0.000227246
2250	0.000795361
2262	0.00181797
2274	0.00363594
2286	0.00386318
2298	0.00363594
2310	0.00431767
2322	0.00374956
2334	0.00374956
2346	0.00579477
2358	0.00329507
2370	0.00352231
2382	0.00511304
2394	0.00261333
2406	0.00136348
2418	0.000113623
2430	0.00113623
2442	0.00284058
2454	0.00261333
2466	0.00193159
2478	0.00181797
2490	0.00170435
2502	0.00193159
2514	0.00284058
2526	0.00352231
2538	0.00352231
2550	0.00340869
2562	0.0039768
2574	0.0044313
2586	0.00465854
2598	0.0054539
2610	0.0039768
2622	0.00193159
2634	0.00227246
2646	0.00261333
2658	0.00249971
2670	0.00329507
2682	0.00352231
2694	0.00249971
2706	0.00215884
2718	0.00227246
2730	0.00227246
2742	0.00215884
2754	0.00136348
2766	0.00136348
2778	0.00159072
2790	0.0014771
2802	0.00204521
2814	0.00306782
2826	0.00340869
2838	0.00374956
2850	0.00568115
2862	0.006931
2874	0.00954433
2886	0.0152255
2898	0.014771
2910	0.016589
2922	0.020793
2934	0.0335188
2946	0.0664695
2958	0.0664695
2970	0.0298828
2982	0.0338597
2994	0.0543118
3006	0.027724
3018	0.0297692
3030	0.0195432
3042	0.00670376
3054	0.00511304
3066	0.00420405
3078	0.00431767
3090	0.00431767
3102	0.00340869
3114	0.00329507
3126	0.00284058
3138	0.00227246
3150	0.00238608
3162	0.00227246
3174	0.00227246
3186	0.00204521
3198	0.0014771
3210	0.00136348
3222	0.00113623
3234	0.00159072
3246	0.00124985
3258	0.000568115
3270	0.000568115
3282	0.000908984
3294	0.000681738
3306	0.000454492
3318	0
3330	0.00102261
3342	0.000795361
3354	0.000908984
3366	0.000908984
3378	0.00124985
3390	0.00193159
3402	0.00238608
3414	0.00477217
3426	0.00897622
3438	0.00534028
3450	0.00159072
3462	0.00181797
3474	0.00420405
3486	0.00534028
3498	0.00409043
3510	0.00261333
3522	0.00534028
3534	0.0115895
3546	0.00874897
3558	0.00204521
3570	0.00113623
3582	0.0014771
3594	0.0014771
3606	0.00181797
3618	0.000568115
3630	0.00124985
3642	0.00136348
3654	0.000681738
3666	0.00136348
3678	0.000568115
3690	0.000454492
3702	0.000795361
3714	0.000908984
3726	0.00136348
3738	0.00136348
3750	0.00136348
3762	0.000908984
3774	0.000568115
3786	0.00113623
3798	0.00113623
3810	0.000340869
3822	0.00136348
3834	0.000795361
3846	0.000795361
3858	0.00136348
3870	0.000568115
3882	0.000795361
3894	0
3906	0.00204521
3918	0.000795361
3930	0.000113623
3942	0.00193159
3954	0.000795361
3966	0.00193159
