Infrared Spectrum: 2,5-Difluorobenzonitrile
Formula: C 7 H 3 F 2 N
CAS: 64248-64-2
Origin: Sadtler Research Labs Under US-EPA Contract
1/CM	ABSORBANCE
450	0.0099023
462	0.0128984
474	0.02341
486	0.020414
498	0.0100546
510	0.00512888
522	0.00355467
534	0.00365623
546	0.00299608
558	0.00309764
570	0.0018789
582	0.00365623
594	0.0072109
606	0.0058906
618	0.00253905
630	0.00192968
642	0.00274217
654	0.0018789
666	0.00208202
678	0.00324998
690	0.00705856
702	0.0188905
714	0.0238163
726	0.0128476
738	0.0113242
750	0.0113242
762	0.0362576
774	0.0996831
786	0.0688083
798	0.0215819
810	0.0421482
822	0.0886636
834	0.0476326
846	0.0138632
858	0.0140156
870	0.0437732
882	0.067234
894	0.0242225
906	0.00528122
918	0.00431638
930	0.0151835
942	0.0305194
954	0.0179765
966	0.00660153
978	0.00314842
990	0.00284374
1002	0.00340233
1014	0.00269139
1026	0.00284374
1038	0.00274217
1050	0.00284374
1062	0.00340233
1074	0.00396092
1086	0.0108671
1098	0.0146249
1110	0.00756637
1122	0.011832
1134	0.0406756
1146	0.0327537
1158	0.00670309
1170	0.0140663
1182	0.0450935
1194	0.0549958
1206	0.0833316
1218	0.107148
1230	0.0548943
1242	0.0419959
1254	0.141831
1266	0.140866
1278	0.0334139
1290	0.02341
1302	0.0183827
1314	0.00959761
1326	0.00457029
1338	0.00314842
1350	0.00324998
1362	0.00264061
1374	0.00258983
1386	0.00370701
1398	0.00797262
1410	0.0444334
1422	0.0658122
1434	0.0194491
1446	0.00649997
1458	0.0120351
1470	0.051949
1482	0.0859722
1494	0.276655
1506	0.478966
1518	0.108265
1530	0.0191952
1542	0.0161991
1554	0.00665231
1566	0.00578903
1578	0.0106132
1590	0.0157929
1602	0.0161484
1614	0.0093437
1626	0.00710934
1638	0.00832808
1650	0.00680465
1662	0.00396092
1674	0.00192968
1686	0.00126953
1698	0.00192968
1710	0.0029453
1722	0.00233593
1734	0.00279296
1746	0.00766793
1758	0.00873433
1770	0.00451951
1782	0.00208202
1794	0.0018789
1806	0.00228515
1818	0.00233593
1830	0.00182812
1842	0.00177734
1854	0.00223436
1866	0.00528122
1878	0.00853121
1890	0.00497654
1902	0.00172655
1914	0.00172655
1926	0.00132031
1938	0.00147265
1950	0.00121874
1962	0.00162499
1974	0.00218358
1986	0.0021328
1998	0.00218358
2010	0.00218358
2022	0.00218358
2034	0.00264061
2046	0.00314842
2058	0.00208202
2070	0.0021328
2082	0.00167577
2094	0.0010664
2106	0.00162499
2118	0.00162499
2130	0.00157421
2142	0.00167577
2154	0.00157421
2166	0.00162499
2178	0.00157421
2190	0.00152343
2202	0.00208202
2214	0.00203124
2226	0.00243749
2238	0.00594138
2250	0.00634762
2262	0.00274217
2274	0.00192968
2286	0.00198046
2298	0.00152343
2310	0.00101562
2322	0.000914058
2334	0.000964839
2346	0.000964839
2358	0.000964839
2370	0.00147265
2382	0.00167577
2394	0.00147265
2406	0.00142187
2418	0.00142187
2430	0.00137109
2442	0.0018789
2454	0.00142187
2466	0.00132031
2478	0.00182812
2490	0.00177734
2502	0.00182812
2514	0.00233593
2526	0.00177734
2538	0.00152343
2550	0.00182812
2562	0.00172655
2574	0.00126953
2586	0.00132031
2598	0.00121874
2610	0.00126953
2622	0.000761715
2634	0.000660153
2646	0.000710934
2658	0.000710934
2670	0.000761715
2682	0.000710934
2694	0.000710934
2706	0.000964839
2718	0.00121874
2730	0.00121874
2742	0.00121874
2754	0.00111718
2766	0.000964839
2778	0.000609372
2790	0.000609372
2802	0.000609372
2814	0.000660153
2826	0.000660153
2838	0.000710934
2850	0.000761715
2862	0.000964839
2874	0.00121874
2886	0.000761715
2898	0.000710934
2910	0.000761715
2922	0.000812496
2934	0.000761715
2946	0.000761715
2958	0.000761715
2970	0.000914058
2982	0.00050781
2994	0.000812496
3006	0.000355467
3018	0.000914058
3030	0.000609372
3042	0.000863277
3054	0.000914058
3066	0.00152343
3078	0.00258983
3090	0.00299608
3102	0.00203124
3114	0.00101562
3126	0.00101562
3138	0.00101562
3150	0.0010664
3162	0.00050781
3174	0.000558591
3186	0.000558591
3198	0.000558591
3210	0.000609372
3222	0.000660153
3234	0.000203124
3246	0.000914058
3258	0.000609372
3270	0.000660153
3282	0.00116796
3294	0.000660153
3306	0.0010664
3318	0.00121874
3330	0.000761715
3342	0.00111718
3354	0.00101562
3366	0.000914058
3378	0.000761715
3390	0.000761715
3402	0.00050781
3414	0.000761715
3426	0.000812496
3438	0.00132031
3450	0.00137109
3462	0.00137109
3474	0.00126953
3486	0.00137109
3498	0.00142187
3510	0.00147265
3522	0.00167577
3534	0.00142187
3546	0.00142187
3558	0.00152343
3570	0.000863277
3582	0.0010664
3594	0.00101562
3606	0.0010664
3618	0.00116796
3630	0.000457029
3642	0.00157421
3654	0.00162499
3666	0.00147265
3678	0.0010664
3690	0.00111718
3702	0.00167577
3714	0.00116796
3726	0.00116796
3738	0.000812496
3750	0.000710934
3762	0.00172655
3774	0.00172655
3786	0.00142187
3798	0.00126953
3810	0.00121874
3822	0.00132031
3834	0.000964839
3846	0.00157421
3858	0.00172655
3870	0.00132031
3882	0.00132031
3894	0.00121874
3906	0.00132031
3918	0.00137109
3930	0.00137109
3942	0.00126953
3954	0
3966	0.000101562
