Infrared Spectrum: 1,1'-Biphenyl, 3-methyl-
Formula: C 13 H 12
CAS: 643-93-6
Origin: Sadtler Research Labs Under US-EPA Contract
1/CM	ABSORBANCE
450	0
462	0.0465526
474	0.0421162
486	0.0473808
498	0.0566676
510	0.0698585
522	0.0651855
534	0.0543607
546	0.0567859
558	0.0563719
570	0.0674924
582	0.057969
594	0.0434176
606	0.0441865
618	0.112803
630	0.0598618
642	0.0466709
654	0.0542424
666	0.0684389
678	0.0970093
690	0.280085
702	0.448076
714	0.206914
726	0.111738
738	0.199342
750	0.55526
762	0.358461
774	0.139362
786	0.16953
798	0.115701
810	0.0606308
822	0.0554254
834	0.0586196
846	0.0607491
858	0.0881956
870	0.0753005
882	0.0880773
894	0.068084
906	0.0587971
918	0.050575
930	0.045547
942	0.0461977
954	0.046316
966	0.0503384
978	0.0480906
990	0.0538875
1002	0.0634109
1014	0.0580281
1026	0.0926912
1038	0.0687346
1050	0.0699177
1062	0.0728161
1074	0.0808016
1086	0.0751822
1098	0.0838775
1110	0.0590928
1122	0.0459611
1134	0.0446598
1146	0.0452513
1158	0.0445415
1170	0.0467892
1182	0.0539466
1194	0.0462569
1206	0.0447781
1218	0.0456653
1230	0.0477948
1242	0.0469667
1254	0.0466118
1266	0.0501017
1278	0.0487412
1290	0.0493919
1302	0.0530002
1314	0.0547748
1326	0.0561352
1338	0.0535326
1350	0.0530593
1362	0.0588562
1374	0.0671967
1386	0.0712782
1398	0.0693261
1410	0.0828128
1422	0.105054
1434	0.100499
1446	0.110496
1458	0.135399
1470	0.14788
1482	0.316167
1494	0.188103
1506	0.114341
1518	0.0783172
1530	0.0833452
1542	0.087959
1554	0.0767793
1566	0.0908575
1578	0.130548
1590	0.188636
1602	0.310903
1614	0.202122
1626	0.0793228
1638	0.0558395
1650	0.0521721
1662	0.0553071
1674	0.0587971
1686	0.0638842
1698	0.0519946
1710	0.0472033
1722	0.0487412
1734	0.0518172
1746	0.0560761
1758	0.0597435
1770	0.0592703
1782	0.0616364
1794	0.0705683
1806	0.0617547
1818	0.0526453
1830	0.0495694
1842	0.0534143
1854	0.0585013
1866	0.0650672
1878	0.0618138
1890	0.0596252
1902	0.0514622
1914	0.0499834
1926	0.0612815
1938	0.0731119
1950	0.0649489
1962	0.0557212
1974	0.0441274
1986	0.043181
1998	0.0418796
2010	0.0417613
2022	0.0411698
2034	0.0408149
2046	0.0405191
2058	0.0412881
2070	0.0414064
2082	0.0418796
2094	0.0420571
2106	0.0419388
2118	0.0411106
2130	0.041643
2142	0.0420571
2154	0.0419979
2166	0.0422345
2178	0.0425303
2190	0.0418205
2202	0.0422345
2214	0.0421754
2226	0.0422937
2238	0.043181
2250	0.0437725
2262	0.0429444
2274	0.042826
2286	0.042826
2298	0.0423528
2310	0.0444823
2322	0.045133
2334	0.0456653
2346	0.0467892
2358	0.0438908
2370	0.044364
2382	0.0432401
2394	0.0430627
2406	0.0434176
2418	0.0428852
2430	0.042412
2442	0.0429444
2454	0.0432993
2466	0.042412
2478	0.0430627
2490	0.0427669
2502	0.0427669
2514	0.0420571
2526	0.0413472
2538	0.0409332
2550	0.0420571
2562	0.0412881
2574	0.0419979
2586	0.0434176
2598	0.0432993
2610	0.0423528
2622	0.0430627
2634	0.0442457
2646	0.0437725
2658	0.0446006
2670	0.0430035
2682	0.0427077
2694	0.0414656
2706	0.0406374
2718	0.0411698
2730	0.0434176
2742	0.0480314
2754	0.046316
2766	0.0430627
2778	0.042826
2790	0.0452513
2802	0.0448372
2814	0.0471441
2826	0.0518763
2838	0.0602167
2850	0.0771342
2862	0.121084
2874	0.159533
2886	0.151607
2898	0.139599
2910	0.15971
2922	0.228208
2934	0.320604
2946	0.233946
2958	0.164324
2970	0.144567
2982	0.116707
2994	0.120611
3006	0.13321
3018	0.185087
3030	0.349825
3042	0.425599
3054	0.327525
3066	0.447485
3078	0.353019
3090	0.214071
3102	0.152849
3114	0.104758
3126	0.0669601
3138	0.0518172
3150	0.0510482
3162	0.0489187
3174	0.0471441
3186	0.0460794
3198	0.0437133
3210	0.0439499
3222	0.0429444
3234	0.0438908
3246	0.0426486
3258	0.0432993
3270	0.0422345
3282	0.0430035
3294	0.0434767
3306	0.0419979
3318	0.042412
3330	0.0442457
3342	0.0430035
3354	0.0440091
3366	0.0435359
3378	0.0446598
3390	0.043595
3402	0.0434176
3414	0.0440091
3426	0.043181
3438	0.0420571
3450	0.0433584
3462	0.0422937
3474	0.0423528
3486	0.0412289
3498	0.0417022
3510	0.0422345
3522	0.0433584
3534	0.0408149
3546	0.0422937
3558	0.0427669
3570	0.0433584
3582	0.0446006
3594	0.0425303
3606	0.0431218
3618	0.0430035
3630	0.0462569
3642	0.0461977
3654	0.0456653
3666	0.0456653
3678	0.0450738
3690	0.0472624
3702	0.0448964
3714	0.0438316
3726	0.0436542
3738	0.040874
3750	0.0467892
3762	0.0456653
3774	0.0431218
3786	0.0421754
3798	0.0432993
3810	0.0457836
3822	0.0430035
3834	0.0422937
3846	0.043181
3858	0.0444823
3870	0.0420571
3882	0.043181
3894	0.0451921
3906	0.0454879
3918	0.047854
3930	0.0450147
3942	0.0490962
3954	0.0432993
3966	0.0472033
