Infrared Spectrum: 2-Propanone, 1-(o-methoxyphenoxy)-,
Formula: C 10 H 12 O 3
CAS: 6437-46-3
Origin: Sadtler Research Labs Under US-EPA Contract
1/CM	ABSORBANCE
450	0.0196237
462	0.0113238
474	0.0243849
486	0.0282453
498	0.029339
510	0.0470325
522	0.0252856
534	0.0297251
546	0.0175005
558	0.0205888
570	0.0180152
582	0.0252213
594	0.0218113
606	0.0216182
618	0.0083642
630	0.00765646
642	0.0057906
654	0.00379606
666	0.00019302
678	0.00334568
690	0.00752778
702	0.00862156
714	0.0162137
726	0.0513433
738	0.219399
750	0.260834
762	0.11993
774	0.0470969
786	0.025929
798	0.02876
810	0.0239988
822	0.0238701
834	0.0273445
846	0.0258647
858	0.0265081
870	0.0219399
882	0.0180795
894	0.012868
906	0.015892
918	0.019688
930	0.0211679
942	0.0184656
954	0.0258647
966	0.0315909
978	0.0295964
990	0.0391187
1002	0.0645974
1014	0.109378
1026	0.166834
1038	0.246294
1050	0.278914
1062	0.154738
1074	0.0798459
1086	0.0553324
1098	0.0604153
1110	0.172238
1122	0.217984
1134	0.099727
1146	0.0525658
1158	0.0901403
1170	0.169343
1182	0.219978
1194	0.232332
1206	0.325946
1218	0.359532
1230	0.349431
1242	0.37137
1254	0.479204
1266	0.508608
1278	0.382373
1290	0.231367
1302	0.136594
1314	0.0863443
1326	0.0663345
1338	0.0595788
1350	0.0924566
1362	0.146953
1374	0.0936147
1386	0.0544316
1398	0.0485124
1410	0.0534022
1422	0.0729616
1434	0.113303
1446	0.140583
1458	0.158019
1470	0.136594
1482	0.134664
1494	0.428247
1506	0.615541
1518	0.169279
1530	0.0610587
1542	0.0393117
1554	0.0282453
1566	0.0335211
1578	0.0646617
1590	0.120444
1602	0.121924
1614	0.0442016
1626	0.0206531
1638	0.0167927
1650	0.0162137
1662	0.0155703
1674	0.0202671
1686	0.0329421
1698	0.0490914
1710	0.077594
1722	0.167027
1734	0.332252
1746	0.329742
1758	0.172817
1770	0.0921349
1782	0.0475473
1794	0.0310762
1806	0.018916
1818	0.0119672
1830	0.00862156
1842	0.0067557
1854	0.00649834
1866	0.00733476
1878	0.00855722
1890	0.00752778
1902	0.00540456
1914	0.00752778
1926	0.0070774
1938	0.0038604
1950	0.0028953
1962	0.00334568
1974	0.00366738
1986	0.00495418
1998	0.00630532
2010	0.00829986
2022	0.00894326
2034	0.0093293
2046	0.0090076
2058	0.00894326
2070	0.00881458
2082	0.00720608
2094	0.00714174
2106	0.00630532
2118	0.00553324
2130	0.0041821
2142	0.00283096
2154	0.00231624
2166	0.0019302
2178	0.00147982
2190	0.0016085
2202	0.00135114
2214	0.0012868
2226	0.00141548
2238	0.00186586
2250	0.00276662
2262	0.00270228
2274	0.00244492
2286	0.00147982
2298	0.00051472
2310	0.00012868
2322	0.0016085
2334	0.00180152
2346	0.00012868
2358	0.00012868
2370	0.00250926
2382	0.00012868
2394	0.00057906
2406	0.0012868
2418	0.00186586
2430	0.0025736
2442	0.00212322
2454	0.00186586
2466	0.00205888
2478	0.00154416
2490	0.00212322
2502	0.00238058
2514	0.00315266
2526	0.00379606
2538	0.00463248
2550	0.0054689
2562	0.00572626
2574	0.0057906
2586	0.00443946
2598	0.00366738
2610	0.00270228
2622	0.0019302
2634	0.00135114
2646	0.00167284
2658	0.00154416
2670	0.00154416
2682	0.00147982
2694	0.00244492
2706	0.00231624
2718	0.00250926
2730	0.00283096
2742	0.00295964
2754	0.00392474
2766	0.0041821
2778	0.00508286
2790	0.00630532
2802	0.0080425
2814	0.0118386
2826	0.0224547
2838	0.0586781
2850	0.0794599
2862	0.045231
2874	0.035194
2886	0.0436869
2898	0.061123
2910	0.0855722
2922	0.103137
2934	0.116455
2946	0.133763
2958	0.118965
2970	0.0864086
2982	0.0619594
2994	0.0606726
3006	0.083642
3018	0.0704523
3030	0.0444589
3042	0.0475473
3054	0.0523084
3066	0.0615734
3078	0.0786878
3090	0.051858
3102	0.022905
3114	0.0159563
3126	0.0101014
3138	0.00508286
3150	0.0038604
3162	0.00360304
3174	0.0035387
3186	0.00244492
3198	0.00205888
3210	0.00186586
3222	0.00135114
3234	0.00147982
3246	0.00154416
3258	0.00147982
3270	0.00180152
3282	0.00135114
3294	0.00205888
3306	0.00205888
3318	0.0019302
3330	0.0012868
3342	0.00250926
3354	0.0009651
3366	0.00147982
3378	0.0019302
3390	0.00186586
3402	0.0022519
3414	0.00212322
3426	0.003217
3438	0.00476116
3450	0.00682004
3462	0.0070774
3474	0.00488984
3486	0.00360304
3498	0.00244492
3510	0.00276662
3522	0.00173718
3534	0.0012868
3546	0.00115812
3558	0.00250926
3570	0.00360304
3582	0.0051472
3594	0.00443946
3606	0.00276662
3618	0.00154416
3630	0.0019302
3642	0.00115812
3654	0.00276662
3666	0.00154416
3678	0.00585494
3690	0.00283096
3702	0.00180152
3714	0.0028953
3726	0.00090076
3738	0.00283096
3750	0.00180152
3762	0.00295964
3774	0.00212322
3786	0.00090076
3798	0.0016085
3810	0.00263794
3822	0.0073991
3834	0.00521154
3846	0.00186586
3858	0.00559758
3870	0.00598362
3882	0.00508286
3894	0.0077208
3906	0.00463248
3918	0.00270228
3930	0.00463248
3942	0.00495418
3954	0.0028953
3966	0.00624098
