Infrared Spectrum: 1,1'-Biphenyl, 4-methyl-
Formula: C 13 H 12
CAS: 644-08-6
Origin: Sadtler Research Labs Under US-EPA Contract
1/CM	ABSORBANCE
450	0.0181434
462	0.00816697
474	0.0103187
486	0.0418129
498	0.105095
510	0.0761924
522	0.0309073
534	0.0412261
546	0.0541367
558	0.0568754
570	0.00679766
582	0.00356999
594	0.000195616
606	0.00210287
618	0.0012226
630	0.00171164
642	0.0061619
654	0.0145734
666	0.0257724
678	0.0736005
690	0.232196
702	0.306335
714	0.139425
726	0.0506156
738	0.111599
750	0.349761
762	0.378957
774	0.124021
786	0.0308584
798	0.035162
810	0.136295
822	0.234495
834	0.0928198
846	0.0166763
858	0.00772683
870	0.00577067
882	0.0115902
894	0.0104655
906	0.0119326
918	0.00581958
930	0.000782464
942	0.00180945
954	0.00288534
966	0.00518382
978	0.00440136
990	0.015796
1002	0.0710086
1014	0.115854
1026	0.0200506
1038	0.0355532
1050	0.0250388
1062	0.0312497
1074	0.0356999
1086	0.0209798
1098	0.0218601
1110	0.0323255
1122	0.0298803
1134	0.0165296
1146	0.00445026
1158	0.00254301
1170	0.00513492
1182	0.0358466
1194	0.0154048
1206	0.0140844
1218	0.0116392
1230	0.0136442
1242	0.00992751
1254	0.00650423
1266	0.00821587
1278	0.00264082
1290	0.0049393
1302	0.0111012
1314	0.00997642
1326	0.0102209
1338	0.00865601
1350	0.00953628
1362	0.0146712
1374	0.0197572
1386	0.0227404
1398	0.024941
1410	0.0335481
1422	0.0379984
1434	0.0401502
1446	0.0545769
1458	0.0469967
1470	0.0699327
1482	0.257626
1494	0.384581
1506	0.06827
1518	0.149646
1530	0.0574133
1542	0.0306139
1554	0.0301249
1566	0.0352598
1578	0.0374116
1590	0.0465566
1602	0.104214
1614	0.0495398
1626	0.0242075
1638	0.0178011
1650	0.021371
1662	0.0204908
1674	0.01071
1686	0.00498821
1698	0.00410794
1710	0.00586848
1722	0.0183879
1734	0.0108567
1746	0.011737
1758	0.0123238
1770	0.0103187
1782	0.0237673
1794	0.0329124
1806	0.01428
1818	0.00929176
1830	0.00205397
1842	0.0023963
1854	0.00630862
1866	0.0151602
1878	0.0258702
1890	0.036189
1902	0.0255768
1914	0.0123727
1926	0.011737
1938	0.0182901
1950	0.0233761
1962	0.0136442
1974	0.00259191
1986	0.00229849
1998	0.00220068
2010	0.00210287
2022	0.00156493
2034	0.0012226
2046	0.000391232
2058	0.000342328
2070	0.000440136
2082	0.0011737
2094	0.0012226
2106	0.000586848
2118	9.7808e-05
2130	9.7808e-05
2142	0.00024452
2154	0
2166	0.000586848
2178	0.000831368
2190	0.000782464
2202	0.00048904
2214	0.00048904
2226	0.000537944
2238	0.000684656
2250	0.000831368
2262	0.000831368
2274	0.000684656
2286	0.00308095
2298	0.00552615
2310	0.00846039
2322	0.00601519
2334	0.00288534
2346	0.00337438
2358	0.00264082
2370	0.00337438
2382	0.00430355
2394	0.00176054
2406	0.00220068
2418	0.00288534
2430	0.00278753
2442	0.00156493
2454	0.0011737
2466	0.00136931
2478	0.00151602
2490	0.0012715
2502	0.00156493
2514	0.00176054
2526	0.00166274
2538	0.0011737
2550	0.00146712
2562	0.00185835
2574	0.0024941
2586	0.00449917
2598	0.00572177
2610	0.00498821
2622	0.00415684
2634	0.00303205
2646	0.00185835
2658	0.00151602
2670	0.00141822
2682	0.00166274
2694	0.00224958
2706	0.0036189
2718	0.00513492
2730	0.00635752
2742	0.0119326
2754	0.00885162
2766	0.00557506
2778	0.00513492
2790	0.00537944
2802	0.00709108
2814	0.00953628
2826	0.0131552
2838	0.0166274
2850	0.0271417
2862	0.0548703
2874	0.108469
2886	0.116685
2898	0.0898856
2910	0.0874893
2922	0.136931
2934	0.232539
2946	0.141968
2958	0.0726224
2970	0.063673
2982	0.0780019
2994	0.110523
3006	0.136931
3018	0.205592
3030	0.478526
3042	0.321593
3054	0.250046
3066	0.389031
3078	0.327461
3090	0.209016
3102	0.125243
3114	0.0602497
3126	0.0359933
3138	0.0250878
3150	0.0150624
3162	0.00841149
3174	0.00523273
3186	0.00342328
3198	0.00234739
3210	0.00215178
3222	0.00185835
3234	0.00171164
3246	0.00132041
3258	0.00073356
3270	0.00097808
3282	0.0012226
3294	0.00136931
3306	0.00073356
3318	0.00146712
3330	0.00136931
3342	0.0012715
3354	0.0011737
3366	0.00146712
3378	0.00112479
3390	0.0012715
3402	0.00171164
3414	0.0012715
3426	0.00112479
3438	0.0012715
3450	0.00215178
3462	0.00102698
3474	0.000782464
3486	0.000684656
3498	0.000684656
3510	0.0012226
3522	0.00102698
3534	0.0012226
3546	0.00171164
3558	0.0012226
3570	0.00200506
3582	0.00215178
3594	0.00185835
3606	0.00171164
3618	0.00220068
3630	0.00259191
3642	0.0037167
3654	0.00401013
3666	0.00396122
3678	0.00376561
3690	0.00273862
3702	0.00273862
3714	0.00136931
3726	0.00136931
3738	0.000635752
3750	0.00176054
3762	0.00176054
3774	0.00298314
3786	0.000684656
3798	0.000635752
3810	0.000293424
3822	9.7808e-05
3834	0
3846	0.00166274
3858	0.00136931
3870	0.0011737
3882	0.00132041
3894	0.00273862
3906	0.00268972
3918	0.000880272
3930	0.0012226
3942	0.0012226
3954	0.000537944
3966	0.0011737
